158

Mg -2.53900 17.14100 27.41400
C  -2.71700 14.81100 29.88600
C  -2.74300 19.69400 29.68300
C  -2.57700 19.34000 24.78600
C  -3.37600 14.54000 25.09400
N  -2.74600 17.18400 29.58700
C  -2.66900 16.08800 30.42000
C  -2.59800 16.60100 31.95700
C  -2.78800 18.21700 31.79100
C  -2.77500 18.41400 30.21600
C  -4.01200 18.84400 32.69100
C  -1.24400 16.19500 32.52400
C  -0.81200 16.90900 33.77700
H  -0.59400 16.11500 35.07900
N  -2.38100 19.16600 27.27400
C  -2.48600 20.11500 28.30300
C  -2.27100 21.42200 27.81100
C  -2.08900 21.31600 26.39600
C  -2.35300 19.90000 26.08400
C  -2.46200 22.64000 28.69000
C  -1.76600 22.39300 25.30600
O  -1.82100 22.17300 24.12900
C  -1.42200 23.75000 25.77200
N  -3.08000 16.93600 25.28000
C  -2.87100 18.02300 24.36100
C  -3.11600 17.52200 22.91300
C  -3.09600 15.98000 23.07700
C  -3.15000 15.81600 24.54700
C  -4.46600 18.18900 22.42000
C  -1.87000 15.36500 22.29300
C  -1.08700 14.22700 23.01100
N  -2.92000 15.04700 27.39000
C  -3.13000 14.15200 26.38300
C  -3.20000 12.73400 26.93400
C  -3.07400 13.00100 28.36000
C  -2.81400 14.38300 28.55300
C  -3.46800 11.43000 26.18700
C  -3.14000 12.38900 29.70000
O  -3.36300 11.26200 30.05000
C  -2.88400 13.60500 30.63700
C  -1.78600 13.20700 31.49900
O  -0.61700 13.39000 31.20000
O  -2.24100 12.71100 32.67300
C  -1.29500 12.23500 33.61000
H  -2.83500 20.50100 30.41300
H  -2.39200 19.94700 23.89600
H  -3.66900 13.74600 24.40400
H  -3.44400 16.24000 32.54200
H  -1.86000 18.70800 32.08700
H  -3.64600 19.56700 33.41900
H  -4.55000 18.01500 33.15100
H  -4.71000 19.46300 32.12800
H  -0.48800 16.24300 31.74000
H  -1.18900 15.15300 32.83800
H  -1.52300 17.71600 33.95500
H  0.08100 17.50300 33.58600
H  -2.37100 22.34400 29.73500
H  -3.45400 23.05300 28.50900
H  -1.62300 23.33500 28.67200
H  -2.24300 24.07100 26.41300
H  -1.53200 24.33400 24.85800
H  -0.43200 23.79600 26.22600
H  -2.33100 17.90200 22.25800
H  -4.03800 15.59700 22.68300
H  -5.18200 17.38200 22.26600
H  -4.10300 18.56300 21.46300
H  -4.79300 18.97400 23.10200
H  -1.14200 16.16600 22.16800
H  -2.14100 14.95100 21.32200
H  -0.80300 14.73400 23.93300
H  -0.21800 13.93700 22.42100
H  -1.83500 13.43500 23.05800
H  -3.62500 11.75300 25.15800
H  -4.34400 10.92000 26.58800
H  -2.53500 10.90100 26.37800
H  -3.74200 13.68600 31.30400
H  -0.44000 11.88100 33.03500
H  -1.66700 11.42500 34.23700
H  -1.00600 13.00700 34.32400
Mg 29.97100 57.81300 39.66700
C  27.53800 55.75600 38.17800
C  32.23000 55.28400 38.90300
C  32.59000 60.04500 40.06000
C  27.80900 60.37600 39.91300
N  29.87900 55.76800 38.52500
C  28.74700 55.13800 38.13100
C  28.99400 53.64200 37.81500
C  30.54600 53.54300 38.00300
C  30.90500 54.92000 38.60000
C  31.08300 52.36700 38.88200
C  28.78700 53.26100 36.33600
C  29.19300 54.40100 35.27200
H  28.08300 54.94900 34.38400
N  32.15400 57.62600 39.61100
C  32.81300 56.51800 39.33400
C  34.24500 56.84300 39.27800
C  34.41200 58.17200 39.69300
C  33.03600 58.70400 39.88400
C  35.39100 55.88600 39.05500
C  35.74900 58.92200 39.77800
O  36.77300 58.35800 39.60100
C  35.82600 60.35600 40.06700
N  30.20600 59.88400 39.93300
C  31.35600 60.60400 40.12500
C  31.14000 62.07400 40.45700
C  29.58400 62.11000 40.58400
C  29.12700 60.74300 40.08200
C  31.93200 62.60700 41.68300
C  28.95700 63.35800 39.93400
C  28.10300 64.26100 40.85300
N  28.01200 58.05800 39.36600
C  27.21900 59.10900 39.66400
C  25.86800 58.73900 39.42300
C  25.95900 57.43200 38.92200
C  27.28400 57.03700 38.82800
C  24.69800 59.61100 39.48400
C  25.15200 56.40400 38.24600
O  23.94400 56.28300 38.10800
C  26.15400 55.26400 37.80500
C  25.70400 54.09300 38.65700
O  25.84800 53.96200 39.83900
O  25.04300 53.21000 37.85200
C  24.25400 52.11100 38.49200
H  33.02200 54.56000 38.69700
H  33.37200 60.80100 40.15200
H  27.04400 61.12000 40.14600
H  28.37700 52.98300 38.42600
H  31.09500 53.49500 37.06300
H  32.06700 52.58100 39.29800
H  31.09700 51.48400 38.24300
H  30.33100 52.33300 39.67100
H  27.72100 53.04000 36.28800
H  29.31200 52.42200 35.88100
H  29.99400 54.09400 34.59900
H  29.48600 55.29000 35.82900
H  35.99300 56.22500 38.21200
H  34.99400 54.88500 38.88700
H  36.04400 55.83300 39.92600
H  35.33200 60.77600 39.19100
H  36.87100 60.66600 40.03900
H  35.52900 60.66800 41.06900
H  31.40400 62.63400 39.56100
H  29.33400 62.14300 41.64500
H  31.16300 62.99200 42.35200
H  32.63500 63.39000 41.39600
H  32.48400 61.80000 42.16500
H  28.28000 62.98800 39.16500
H  29.61700 64.13000 39.53900
H  28.22900 65.29000 40.51400
H  28.44000 64.12700 41.88100
H  27.05100 63.98800 40.77300
H  24.65700 60.40600 38.74000
H  24.65200 60.00900 40.49800
H  23.87100 58.93900 39.25500
H  25.92100 55.14100 36.74800
H  24.55700 51.84400 39.50400
H  24.29600 51.18800 37.91300
H  23.19700 52.37600 38.50500

