158

Mg -2.08700 17.96800 26.71500
C  -2.87400 15.82300 29.64200
C  -3.14900 20.69100 28.68000
C  -1.83500 19.90400 24.03800
C  -2.20400 15.06300 24.77200
N  -2.68900 18.16200 28.97300
C  -3.01300 17.18200 29.85000
C  -3.35800 17.88600 31.18900
C  -3.87500 19.29800 30.74400
C  -3.18200 19.40300 29.39500
C  -5.44700 19.34900 30.71700
C  -2.16300 17.97700 32.09900
C  -2.49700 17.59900 33.51600
H  -1.34000 17.38700 34.47300
N  -2.18000 20.07000 26.43400
C  -2.63200 20.98300 27.37400
C  -2.41600 22.30900 26.74800
C  -2.11300 22.16400 25.36300
C  -2.10300 20.67200 25.21600
C  -2.87600 23.61600 27.42600
C  -1.86800 23.18100 24.25300
O  -1.74000 22.83800 23.06700
C  -1.72700 24.54500 24.60800
N  -2.09400 17.48800 24.69100
C  -1.93200 18.48900 23.83400
C  -1.75500 17.94000 22.42700
C  -1.64500 16.42600 22.68900
C  -2.01500 16.26900 24.11700
C  -2.90900 18.29600 21.51600
C  -0.24100 15.76500 22.39900
C  -0.01800 15.52600 20.93800
N  -2.47900 15.84800 27.06900
C  -2.31900 14.79400 26.18700
C  -2.47800 13.56600 26.91500
C  -2.72800 13.93500 28.27200
C  -2.68700 15.31200 28.29600
C  -2.60100 12.15200 26.38600
C  -2.92600 13.39700 29.56200
O  -2.98700 12.23300 29.89300
C  -3.12800 14.61500 30.47600
C  -2.12400 14.45700 31.60500
O  -0.94600 14.82600 31.58600
O  -2.61000 13.73800 32.67100
C  -1.63000 13.39000 33.80900
H  -3.46600 21.49000 29.35300
H  -1.56900 20.45100 23.13100
H  -1.92700 14.20400 24.15700
H  -4.08500 17.25700 31.70200
H  -3.44200 20.00600 31.45100
H  -5.81200 20.09000 31.42700
H  -5.83400 18.35100 30.92600
H  -5.82100 19.59800 29.72400
H  -1.71700 18.97100 32.06700
H  -1.37000 17.34700 31.69600
H  -3.06900 16.68200 33.37600
H  -3.12800 18.30000 34.06300
H  -2.08000 24.34700 27.28600
H  -2.89800 23.59000 28.51500
H  -3.85800 23.77600 26.98000
H  -1.38700 25.13000 23.75400
H  -0.89000 24.53400 25.30600
H  -2.66200 24.83400 25.08800
H  -0.81000 18.34700 22.06800
H  -2.36300 15.85300 22.10200
H  -3.77500 17.65400 21.67500
H  -2.61000 18.21000 20.47100
H  -3.24400 19.32300 21.66400
H  0.00600 14.86200 22.95700
H  0.45000 16.56500 22.66700
H  0.47600 14.55600 20.88300
H  0.61400 16.33500 20.57000
H  -0.96900 15.40700 20.41900
H  -1.63300 11.65100 26.40900
H  -3.01800 12.12800 25.37900
H  -3.28300 11.55500 26.99100
H  -4.17100 14.54700 30.78600
H  -1.79800 14.02800 34.67600
H  -0.60400 13.39500 33.44000
H  -1.90500 12.38800 34.14000
Mg 50.18100 46.39500 43.03800
C  46.75600 46.73700 42.31400
C  50.09100 43.44800 41.37900
C  53.60500 46.39900 43.29300
C  50.13700 49.80500 44.10500
N  48.64800 45.23900 41.93200
C  47.29400 45.55300 41.85600
C  46.54000 44.53000 41.07400
C  47.52100 43.32500 41.18900
C  48.85700 43.97100 41.52000
C  47.22900 42.17600 42.32100
C  46.08700 44.89100 39.62200
C  44.55900 44.81900 39.36900
H  44.01200 43.85400 38.28300
N  51.64400 44.90800 42.52400
C  51.37800 43.79300 41.83000
C  52.57300 43.08600 41.78600
C  53.60300 43.85800 42.43600
C  52.99900 45.16100 42.79600
C  52.61900 41.65400 41.26700
C  55.10900 43.47500 42.53500
O  55.41900 42.34300 42.24200
C  56.28800 44.41900 42.88900
N  51.65100 47.94700 43.51900
C  52.97000 47.60100 43.68100
C  53.73400 48.72300 44.33500
C  52.61500 49.84500 44.56000
C  51.35900 49.11400 44.06800
C  54.51400 48.35300 45.65700
C  52.88500 51.16400 43.74500
C  52.90700 52.55900 44.54400
N  48.70700 48.11400 43.17100
C  48.84400 49.39700 43.65600
C  47.49800 49.92300 43.77200
C  46.61800 48.93900 43.22400
C  47.43000 47.86600 42.87600
C  47.15100 51.24800 44.31500
C  45.17500 48.60200 42.92900
O  44.11000 49.21000 43.14300
C  45.27300 47.21400 42.17100
C  44.21200 46.25800 42.76400
O  43.14700 46.03000 42.25600
O  44.63600 45.78600 43.93700
C  43.80700 44.72200 44.48300
H  50.11500 42.46100 40.91400
H  54.66700 46.48400 43.53100
H  50.18100 50.80100 44.54900
H  45.63600 44.11100 41.51600
H  47.66100 42.78400 40.25300
H  46.32300 42.27600 42.91900
H  47.97300 42.09400 43.11300
H  47.13500 41.25700 41.74200
H  46.50000 44.07300 39.03300
H  46.56600 45.86200 39.49700
H  44.33800 45.84700 39.08200
H  43.98900 44.42400 40.20900
H  52.51100 41.65300 40.18300
H  51.76200 41.18600 41.75200
H  53.44400 40.99800 41.54700
H  56.24400 44.66500 43.95000
H  56.20100 45.29900 42.25200
H  57.20800 43.90100 42.61600
H  54.51400 49.14200 43.69900
H  52.38200 50.04100 45.60600
H  54.10600 47.36400 45.86800
H  54.35800 49.10500 46.43000
H  55.59100 48.23000 45.53700
H  52.24300 51.34600 42.88400
H  53.83100 50.97400 43.23800
H  53.91500 52.95100 44.40700
H  52.79700 52.41500 45.61900
H  52.22500 53.33000 44.18700
H  47.70200 51.99200 43.74100
H  47.50600 51.31000 45.34300
H  46.06400 51.33300 44.34300
H  45.02100 47.39300 41.12600
H  42.75100 44.98900 44.53300
H  44.14200 44.38300 45.46300
H  43.99500 43.84600 43.86200

