158

Mg -1.65400 16.96900 27.02900
C  -2.08600 14.79100 29.85100
C  -2.48400 19.59800 29.20500
C  -1.67500 19.10200 24.48700
C  -1.98800 14.28900 24.96400
N  -2.34200 17.14500 29.24400
C  -2.30800 16.12900 30.22500
C  -2.67100 16.68100 31.71900
C  -2.89000 18.22500 31.39900
C  -2.57800 18.31900 29.86100
C  -4.30500 18.70300 31.94000
C  -1.56900 16.38300 32.73000
C  -1.50100 17.41000 33.85400
H  -1.13700 16.79100 35.23700
N  -1.86500 18.99100 26.88200
C  -2.16400 19.90300 27.93400
C  -2.12400 21.28000 27.45800
C  -1.76600 21.11100 26.04500
C  -1.75100 19.67800 25.72700
C  -2.21200 22.49900 28.35900
C  -1.43700 22.16700 25.04600
O  -1.27800 21.97900 23.82700
C  -1.10600 23.53000 25.51700
N  -1.73100 16.73800 25.00000
C  -1.81300 17.77500 24.10500
C  -1.88800 17.27600 22.61900
C  -2.16400 15.73800 22.82800
C  -1.95100 15.56100 24.38100
C  -2.94500 17.92000 21.79400
C  -1.15000 14.80700 22.06800
C  0.36000 14.93100 22.64400
N  -1.76400 14.94100 27.28600
C  -1.88700 13.95400 26.32900
C  -1.94700 12.64000 26.97000
C  -1.95200 12.92900 28.36200
C  -1.87700 14.32500 28.45500
C  -2.17500 11.22700 26.30900
C  -2.03300 12.32600 29.62800
O  -2.10900 11.16000 29.96800
C  -2.10400 13.53600 30.63900
C  -0.91500 13.42300 31.53200
O  0.18700 13.92600 31.40200
O  -1.18900 12.57300 32.57700
C  -0.26600 12.48300 33.72600
H  -2.65500 20.45200 29.86300
H  -1.66900 19.82100 23.66500
H  -2.27000 13.40400 24.39000
H  -3.52800 16.14000 32.11900
H  -2.10100 18.82100 31.85700
H  -5.07000 18.85800 31.17900
H  -4.23600 19.59500 32.56300
H  -4.74700 17.92900 32.56700
H  -0.56900 16.35200 32.29900
H  -1.84900 15.41300 33.14000
H  -2.42400 17.98900 33.89200
H  -0.69000 18.09600 33.60800
H  -1.26100 23.02600 28.43700
H  -2.70700 22.38800 29.32300
H  -2.77000 23.24400 27.79100
H  -0.70200 24.14900 24.71600
H  -0.38100 23.51100 26.33000
H  -2.05400 24.03200 25.71300
H  -0.93200 17.49700 22.14300
H  -3.15200 15.40400 22.51400
H  -3.65800 18.40500 22.46000
H  -3.53000 17.18400 21.24300
H  -2.66600 18.60400 20.99300
H  -1.07700 15.04800 21.00800
H  -1.54900 13.79300 22.10400
H  1.13300 15.00200 21.87900
H  0.45300 14.10700 23.35100
H  0.43200 15.90200 23.13400
H  -2.66400 11.27600 25.33600
H  -2.95300 10.83300 26.96300
H  -1.38000 10.48400 26.24300
H  -3.08600 13.42100 31.09700
H  -1.02500 12.46300 34.50900
H  0.21600 13.46000 33.77000
H  0.41200 11.63100 33.78400
Mg 35.62500 49.11300 26.11400
C  35.91400 47.15900 29.00300
C  34.59500 51.70000 28.03700
C  34.93900 50.63800 23.35000
C  36.35400 46.17000 24.30500
N  34.95000 49.26800 28.19600
C  35.30500 48.42400 29.24100
C  35.29400 49.16400 30.55900
C  34.42600 50.41300 30.18900
C  34.69700 50.45500 28.72200
C  32.93600 50.32500 30.57700
C  36.71500 49.42300 31.20600
C  36.70300 49.48900 32.76200
H  35.40500 49.58100 33.55500
N  34.94800 50.99900 25.72800
C  34.62500 51.95000 26.66900
C  34.39200 53.22100 25.99500
C  34.47700 52.90300 24.54900
C  34.80200 51.48400 24.45500
C  34.35000 54.53800 26.80100
C  34.32600 53.85000 23.33000
O  34.39600 53.40000 22.19600
C  34.14500 55.30100 23.58300
N  35.76300 48.43400 24.05700
C  35.35600 49.31200 23.14300
C  35.39400 48.68100 21.76600
C  36.02300 47.29400 21.97700
C  36.11200 47.28500 23.52600
C  33.93900 48.57800 21.15900
C  37.40000 47.02300 21.19100
C  38.66500 47.46500 21.88300
N  36.12300 47.07100 26.51700
C  36.41700 46.05800 25.67500
C  36.94500 44.88800 26.40400
C  36.80400 45.29400 27.80500
C  36.26100 46.62300 27.78500
C  37.30600 43.55700 25.79300
C  36.99400 44.83700 29.20100
O  37.42500 43.83900 29.67600
C  36.50500 46.10500 29.97500
C  35.55700 45.63600 31.00500
O  34.40800 45.41200 30.73700
O  36.03400 45.58200 32.29900
C  35.04900 45.32400 33.37200
H  34.51800 52.58900 28.66700
H  34.87100 51.23300 22.43700
H  36.48800 45.23400 23.75800
H  34.74000 48.59600 31.30700
H  34.83100 51.34700 30.57800
H  32.59900 49.29600 30.45500
H  32.29700 51.00700 30.01700
H  32.91300 50.57900 31.63700
H  37.10500 50.29800 30.68600
H  37.34500 48.68000 30.71700
H  37.35600 50.25900 33.17400
H  37.10300 48.49500 32.96200
H  33.32700 54.68400 27.14800
H  34.69200 55.40300 26.23300
H  34.88800 54.41700 27.74100
H  33.99300 55.71900 22.58800
H  35.05600 55.66000 24.06000
H  33.23600 55.40000 24.17600
H  35.87300 49.34800 21.05000
H  35.39500 46.45400 21.68100
H  33.34300 49.33400 21.67000
H  33.41400 47.69800 21.53100
H  33.87400 48.79000 20.09200
H  37.47600 47.37800 20.16300
H  37.43000 45.93500 21.13800
H  39.52100 47.67600 21.24200
H  38.92800 46.64700 22.55400
H  38.50600 48.30600 22.55700
H  37.24500 43.43000 24.71200
H  36.69000 42.86500 26.36800
H  38.33800 43.44200 26.12200
H  37.38200 46.47500 30.50500
H  35.67800 45.13100 34.24200
H  34.29000 44.54800 33.27500
H  34.50700 46.26600 33.44300

