158

Mg 6.16900 53.42300 40.64600
C  5.43900 49.92600 40.40700
C  9.33800 52.64600 39.48500
C  6.69200 56.61100 40.09500
C  2.73300 53.96500 41.10700
N  7.22000 51.49200 40.18900
C  6.70200 50.23100 39.98100
C  7.81700 49.21900 39.55300
C  9.15900 50.12600 39.82400
C  8.55200 51.52300 39.75400
C  9.88200 49.83900 41.20700
C  7.66800 48.73400 37.97600
C  6.93300 49.73600 37.01700
H  6.16600 49.24800 35.63900
N  7.83700 54.51000 39.95300
C  9.08400 53.99200 39.54900
C  9.99400 55.02500 39.44800
C  9.21500 56.23200 39.65000
C  7.86600 55.86100 39.91400
C  11.42400 54.83400 39.11100
C  9.88000 57.58000 39.73700
O  11.06000 57.66400 39.63300
C  9.20400 58.80500 39.98600
N  4.85600 55.08800 40.58400
C  5.32400 56.34600 40.37800
C  4.17600 57.41300 40.52700
C  2.96700 56.55000 40.86000
C  3.50500 55.12900 40.86600
C  4.52100 58.52100 41.56500
C  1.70500 56.54500 39.90900
C  0.27400 56.45700 40.51300
N  4.42200 52.24900 40.83400
C  3.09000 52.59400 41.10300
C  2.31000 51.44900 41.36400
C  3.21100 50.40200 41.07800
C  4.45600 50.90400 40.79100
C  0.91400 51.39100 41.80300
C  3.31000 48.94000 40.97600
O  2.49300 48.05700 41.20000
C  4.71800 48.59800 40.43700
C  4.60100 48.01700 39.09700
O  4.24800 48.53500 38.05300
O  4.80100 46.68400 39.29900
C  4.66800 45.77400 38.13600
H  10.39400 52.46500 39.27400
H  6.81400 57.66600 39.84000
H  1.71500 54.27900 41.34700
H  7.66900 48.35900 40.20600
H  9.87100 50.05500 39.00200
H  9.32000 49.19000 41.87800
H  9.99300 50.76300 41.77500
H  10.83700 49.39900 40.92000
H  7.22200 47.74100 37.91500
H  8.71300 48.67400 37.67300
H  7.72900 50.36000 36.61000
H  6.21500 50.35000 37.56100
H  11.77800 53.84300 39.39600
H  12.00000 55.47300 39.78000
H  11.56600 54.98400 38.04100
H  8.51200 58.74200 40.82600
H  8.55000 59.00600 39.13700
H  9.90500 59.63000 40.11600
H  3.87200 57.91800 39.61000
H  2.63700 56.66700 41.89200
H  5.34800 58.18800 42.19200
H  3.68700 58.71200 42.24000
H  4.71500 59.44900 41.02700
H  1.79700 55.73900 39.18100
H  1.66200 57.48400 39.35700
H  0.29600 56.04000 41.52000
H  -0.49600 55.97400 39.91200
H  -0.14100 57.46400 40.55300
H  0.52100 52.38400 42.02300
H  0.94000 50.85800 42.75300
H  0.29300 50.99600 40.99900
H  5.33300 47.99000 41.10000
H  5.47000 45.03600 38.14600
H  4.52100 46.22100 37.15300
H  3.76600 45.20700 38.36600
Mg -12.38200 17.46400 41.64100
C  -9.73400 15.16000 41.17500
C  -10.33600 19.88400 40.24700
C  -15.04300 19.39600 41.44100
C  -14.46600 14.63700 42.67900
N  -10.34400 17.39600 40.72400
C  -9.38800 16.46800 40.79500
C  -7.97800 17.02300 40.35800
C  -8.17600 18.54900 40.26700
C  -9.77900 18.63300 40.45800
C  -7.46800 19.44100 41.36100
C  -7.78800 16.41500 38.94900
C  -6.31600 16.02700 38.67600
H  -5.62800 16.77800 37.50000
N  -12.65300 19.44800 41.00100
C  -11.69500 20.22000 40.34700
C  -12.28600 21.41200 39.93400
C  -13.71300 21.38400 40.31200
C  -13.88100 20.00800 40.95800
C  -11.39500 22.53200 39.34400
C  -14.67900 22.45500 40.03400
O  -14.27400 23.42400 39.40200
C  -16.15600 22.38100 40.41200
N  -14.47100 17.01800 42.00800
C  -15.36600 18.08600 41.97300
C  -16.81600 17.57400 42.18400
C  -16.64000 16.10600 42.66400
C  -15.08100 15.91600 42.54900
C  -17.63500 18.45200 43.17500
C  -17.42300 15.02400 41.86100
C  -18.97300 15.11700 41.84700
N  -12.16600 15.31500 41.94600
C  -13.03800 14.34700 42.43200
C  -12.35400 13.05500 42.42400
C  -11.05900 13.28000 41.95700
C  -11.01000 14.69600 41.67500
C  -13.03500 11.78300 42.82600
C  -9.75300 12.67100 41.74000
O  -9.30200 11.55300 41.84100
C  -8.85600 13.87600 41.27700
C  -7.61200 14.14400 42.15800
O  -7.62500 14.24800 43.37400
O  -6.48800 14.20200 41.33600
C  -5.22500 14.49200 42.11400
H  -9.60600 20.60600 39.87600
H  -15.90600 20.06400 41.40200
H  -15.10000 13.85500 43.10300
H  -7.29200 16.68000 41.13300
H  -7.81600 18.97900 39.33200
H  -6.73800 18.86800 41.93100
H  -8.17900 20.01200 41.95900
H  -7.00600 20.19600 40.72600
H  -8.15400 17.11700 38.19900
H  -8.43800 15.59200 38.65000
H  -6.45300 14.96400 38.47400
H  -5.69500 16.13600 39.56600
H  -11.30100 22.33100 38.27700
H  -10.49100 22.46500 39.94800
H  -11.84200 23.49800 39.58000
H  -16.38700 22.26100 41.47100
H  -16.67700 21.62400 39.82600
H  -16.60100 23.28900 40.00400
H  -17.33700 17.58500 41.22700
H  -16.94800 16.02500 43.70600
H  -18.58000 18.64200 42.66700
H  -17.04000 19.33700 43.39900
H  -17.87700 17.98500 44.12900
H  -17.10900 14.08100 42.30800
H  -17.09300 15.02500 40.82300
H  -19.46400 15.28800 42.80500
H  -19.37700 14.23900 41.34400
H  -19.44000 15.86400 41.20500
H  -13.42800 11.87500 43.83800
H  -12.27800 11.01600 42.66600
H  -13.87300 11.43000 42.22600
H  -8.47700 13.61000 40.29000
H  -5.11100 15.57500 42.13800
H  -4.32000 14.24000 41.56200
H  -5.21800 13.99200 43.08300

