158

Mg 40.78600 7.69200 29.82700
C  42.72000 9.41300 32.31800
C  38.50700 6.90400 32.03800
C  39.07400 6.20400 27.24700
C  43.54800 8.19000 27.69500
N  40.78200 8.07200 31.86400
C  41.53500 8.81100 32.76500
C  41.07500 8.75200 34.19500
C  39.79900 7.71900 34.01000
C  39.69300 7.52200 32.50300
C  39.97100 6.46500 34.79600
C  40.88300 10.07100 34.96700
C  39.80000 10.14600 36.03100
H  39.87600 11.18200 37.11400
N  39.06100 6.62100 29.73800
C  38.13500 6.43600 30.73700
C  36.92000 5.84900 30.19200
C  37.18200 5.57200 28.83400
C  38.48700 6.15100 28.59600
C  35.63300 5.69100 30.96200
C  36.26100 5.09400 27.72000
O  36.57900 4.82300 26.56600
C  34.82200 4.88000 28.05100
N  41.29600 7.17900 27.87400
C  40.39500 6.66600 26.96300
C  40.93800 6.48300 25.59600
C  42.28100 7.21500 25.78600
C  42.39500 7.58300 27.21400
C  41.17200 5.00900 25.05700
C  42.53300 8.43300 24.88800
C  41.70500 9.71200 25.05600
N  42.75300 8.60400 29.90200
C  43.74600 8.72800 28.96500
C  44.88600 9.44000 29.42300
C  44.50700 9.75100 30.78300
C  43.22000 9.24600 31.01400
C  46.12900 9.83400 28.65900
C  44.95900 10.40600 31.99800
O  46.02200 10.94900 32.26500
C  43.82300 10.19800 33.03400
C  44.44200 9.44700 34.20200
O  44.99900 8.44900 34.11500
O  44.14200 10.03900 35.41700
C  44.62900 9.34200 36.67800
H  37.85800 6.61300 32.86600
H  38.56400 5.84200 26.35200
H  44.34600 8.27800 26.95500
H  41.83000 8.20300 34.75800
H  38.86000 8.18300 34.31100
H  39.25700 6.49500 35.61900
H  40.93000 6.55200 35.30700
H  39.86700 5.54700 34.21800
H  40.72600 10.92700 34.31000
H  41.78200 10.31400 35.53400
H  39.88800 9.15800 36.48300
H  38.80500 10.28800 35.61000
H  35.19000 4.69800 31.04500
H  34.85600 6.39100 30.65500
H  35.91200 6.06000 31.94900
H  34.80300 4.04600 28.75200
H  34.29000 4.56100 27.15400
H  34.42600 5.78900 28.50300
H  40.32100 7.14600 24.99000
H  43.16000 6.59900 25.59500
H  40.70400 4.32300 25.76400
H  42.22100 4.71500 25.01800
H  40.85700 4.88400 24.02100
H  42.38900 8.07300 23.87000
H  43.59600 8.66800 24.94800
H  41.17200 9.69800 26.00600
H  40.87800 9.78000 24.34800
H  42.25600 10.65200 25.02100
H  46.98300 9.56500 29.28100
H  46.18000 10.91000 28.49200
H  46.08400 9.27500 27.72500
H  43.42000 11.10000 33.49300
H  45.66600 9.61200 36.87900
H  44.41500 8.27500 36.61000
H  43.99300 9.62700 37.51500
Mg -9.45100 39.95000 41.58000
C  -8.28800 36.88500 40.47900
C  -6.84600 41.39600 39.94900
C  -11.05000 42.95300 41.87500
C  -12.37400 38.43300 42.79400
N  -7.56400 39.12500 40.53500
C  -7.36000 37.87400 40.06200
C  -5.99100 37.76600 39.38200
C  -5.47600 39.19600 39.49000
C  -6.67600 39.98400 40.03300
C  -4.15000 39.42200 40.27200
C  -6.10100 37.16100 37.99600
C  -4.82600 36.50300 37.41000
H  -4.19100 37.28600 36.20500
N  -8.98100 41.93000 41.08700
C  -7.78700 42.33600 40.49300
C  -7.75600 43.76100 40.30400
C  -8.92600 44.26400 40.80600
C  -9.76300 43.01700 41.24100
C  -6.59400 44.52000 39.71100
C  -9.39000 45.71300 40.74100
O  -8.71900 46.70800 40.35900
C  -10.80600 46.03400 41.15700
N  -11.59900 40.53900 42.07800
C  -11.85300 41.88700 42.30200
C  -13.17100 42.05600 43.11000
C  -13.54000 40.53000 43.46300
C  -12.46000 39.80100 42.73300
C  -13.16900 42.94400 44.36600
C  -14.95100 40.04100 43.05100
C  -15.70700 39.04200 43.95000
N  -10.11900 38.02700 41.73600
C  -11.35500 37.60200 42.26500
C  -11.36500 36.08100 42.21400
C  -10.15100 35.77600 41.47300
C  -9.50700 36.99800 41.15500
C  -12.42800 35.18700 42.82800
C  -9.39600 34.68100 40.98500
O  -9.52000 33.47800 41.16900
C  -8.20900 35.33700 40.28000
C  -6.96100 34.85400 40.90300
O  -6.68200 35.23500 42.03900
O  -6.23300 34.06400 40.05500
C  -4.86500 33.88900 40.43300
H  -6.02800 41.92000 39.44800
H  -11.59200 43.88500 42.05200
H  -13.17000 37.82800 43.23300
H  -5.44300 37.18100 40.12000
H  -5.17900 39.46000 38.47500
H  -3.62400 38.52600 40.60100
H  -4.38800 39.99400 41.16800
H  -3.46500 40.10100 39.76300
H  -6.42400 37.97600 37.34900
H  -6.88100 36.40200 37.93900
H  -5.09500 35.56300 36.92900
H  -4.04700 36.28500 38.14100
H  -5.81100 43.82700 39.40400
H  -6.01800 45.34500 40.13000
H  -6.98100 44.86700 38.75300
H  -11.01700 45.74000 42.18500
H  -11.56000 45.49400 40.58400
H  -11.00500 47.10500 41.11500
H  -13.96900 42.47600 42.49800
H  -13.36300 40.27800 44.50900
H  -12.23700 43.47600 44.55600
H  -13.38000 42.37100 45.26800
H  -13.93800 43.68000 44.13100
H  -14.79100 39.58800 42.07300
H  -15.64400 40.87200 42.92300
H  -16.70800 38.95600 43.52700
H  -15.54500 39.46700 44.94100
H  -15.26400 38.04800 43.89000
H  -13.19900 35.08100 42.06500
H  -12.89600 35.44700 43.77800
H  -12.00800 34.19900 43.01300
H  -8.20400 35.11200 39.21400
H  -4.40300 32.97100 40.07000
H  -4.79200 33.85200 41.51900
H  -4.32100 34.78700 40.13900

