158

Mg 48.87000 45.48200 42.99900
C  45.33700 45.66700 42.08100
C  48.88500 42.48400 41.65100
C  52.24600 45.68700 43.14100
C  48.51600 48.77400 44.22000
N  47.29700 44.38300 41.80200
C  46.00800 44.58800 41.55200
C  45.36600 43.40600 40.78100
C  46.48200 42.31000 40.98500
C  47.61000 43.07900 41.62700
C  46.10000 41.07900 41.80300
C  45.02600 43.86000 39.31400
C  43.67000 43.37900 38.77200
H  43.71500 42.33000 37.60500
N  50.35200 44.23400 42.45100
C  50.17300 42.96400 41.91200
C  51.46400 42.22900 41.92500
C  52.44500 43.16900 42.32200
C  51.69600 44.43400 42.68700
C  51.70900 40.76300 41.41000
C  53.95200 42.86600 42.52400
O  54.38200 41.84800 42.00100
C  54.87900 43.62900 43.25700
N  50.22600 47.07500 43.39600
C  51.57400 46.92100 43.50000
C  52.26100 48.23100 44.05000
C  51.00300 49.21500 44.24300
C  49.81200 48.19400 44.13000
C  53.28100 48.11100 45.17300
C  51.00200 50.34300 43.16300
C  51.43900 51.73500 43.53000
N  47.26000 46.74000 43.33800
C  47.32900 48.07200 43.87500
C  45.90500 48.57500 43.88100
C  45.16500 47.62000 43.27600
C  46.01300 46.58300 42.86100
C  45.51300 49.97800 44.42500
C  43.79700 47.36300 42.80300
O  42.71000 47.88700 43.06300
C  43.88300 46.10800 41.92800
C  42.79600 45.08900 42.26600
O  41.91000 44.70800 41.48900
O  42.88300 44.65000 43.59800
C  41.67700 43.89300 44.03700
H  48.89000 41.41500 41.42900
H  53.29000 45.67200 43.46200
H  48.33800 49.80300 44.54000
H  44.46000 43.00300 41.23400
H  46.86400 41.93100 40.03700
H  46.25800 40.21500 41.15800
H  45.02500 41.13700 41.97800
H  46.59300 40.88100 42.75400
H  45.78800 43.40900 38.67800
H  45.08100 44.94900 39.29100
H  43.16000 44.23000 38.31900
H  43.06100 43.09900 39.63100
H  52.46500 40.67300 40.63000
H  50.74000 40.39300 41.07700
H  52.02200 40.18900 42.28200
H  55.02900 44.56500 42.71800
H  55.84000 43.12000 43.33700
H  54.50200 43.92400 44.23600
H  52.88500 48.59500 43.23300
H  50.90700 49.66700 45.23000
H  52.69600 48.19300 46.08900
H  53.95300 48.94900 44.98800
H  53.76900 47.13800 45.23000
H  50.08000 50.25900 42.59000
H  51.81600 50.14300 42.46600
H  51.45700 51.77600 44.61900
H  50.62500 52.34300 43.13600
H  52.43600 52.00900 43.18400
H  45.86500 50.73100 43.72000
H  45.86400 50.15300 45.44200
H  44.42400 49.94500 44.47500
H  43.59100 46.42500 40.92700
H  41.81600 42.84200 43.78400
H  40.76100 44.26900 43.58100
H  41.56200 44.03500 45.11100
Mg 16.75900 52.40200 26.87200
C  18.68100 50.70700 29.26700
C  14.67900 53.41900 29.45100
C  14.70900 53.77600 24.41400
C  18.71000 51.08800 24.42400
N  16.47200 51.77100 29.00700
C  17.60600 51.28800 29.80800
C  17.42800 51.53800 31.36100
C  15.93200 51.92100 31.26300
C  15.71400 52.52600 29.85100
C  14.83500 50.85700 31.47300
C  18.45200 52.60100 31.95400
C  18.51100 52.67400 33.44700
H  17.43300 51.92600 34.22100
N  15.16400 53.59400 26.93500
C  14.44000 53.84000 28.06400
C  13.24800 54.74100 27.71000
C  13.25000 54.91100 26.30100
C  14.39300 54.03200 25.81400
C  12.33200 55.28800 28.81700
C  12.31800 55.77300 25.40200
O  12.40300 55.74600 24.18100
C  11.22400 56.68600 26.01200
N  16.67600 52.33300 24.70300
C  15.75800 52.96500 23.92300
C  16.11700 52.85700 22.38300
C  17.56300 52.33900 22.54700
C  17.63700 51.75600 23.95200
C  15.20200 51.94500 21.48300
C  18.78100 53.32600 22.32900
C  20.06100 52.74800 21.61300
N  18.32200 51.11600 26.81600
C  19.05800 50.68900 25.72000
C  20.21600 49.81900 26.13600
C  20.08600 49.83600 27.51200
C  18.97400 50.64600 27.87900
C  21.34500 49.26900 25.32300
C  20.64800 49.32000 28.78600
O  21.63000 48.59700 29.04200
C  19.79100 49.91600 29.90000
C  19.11400 48.88400 30.81900
O  18.31900 48.01300 30.45700
O  19.66700 49.03300 32.05500
C  19.32500 48.12200 33.12400
H  13.99400 53.69000 30.25700
H  14.12200 54.16500 23.57900
H  19.36800 50.66900 23.66000
H  17.40100 50.61500 31.94000
H  15.83500 52.76900 31.94200
H  14.00500 50.88500 30.76700
H  14.33000 50.98200 32.43000
H  15.17200 49.82000 31.47900
H  18.03100 53.56800 31.68000
H  19.42200 52.48000 31.47200
H  18.58300 53.74700 33.62600
H  19.46300 52.17700 33.63600
H  12.21400 56.36400 28.69000
H  12.69100 55.27600 29.84600
H  11.36900 54.77900 28.77900
H  10.55900 57.12000 25.26500
H  11.71700 57.52100 26.50900
H  10.72200 56.12700 26.80200
H  16.08400 53.86200 21.96200
H  17.81900 51.52600 21.86700
H  14.47400 51.36700 22.05400
H  15.75800 51.22900 20.87700
H  14.68500 52.68200 20.86900
H  19.19000 53.69100 23.27100
H  18.61900 54.11600 21.59700
H  19.99400 51.66700 21.49100
H  20.86000 53.00000 22.31100
H  20.30100 53.30600 20.70800
H  21.26900 49.23300 24.23600
H  21.54700 48.29400 25.76500
H  22.31000 49.74500 25.49700
H  20.41800 50.60100 30.47100
H  19.80600 47.15700 32.96600
H  18.25700 47.90400 33.15600
H  19.67500 48.47600 34.09400

