158

Mg -2.06500 17.07300 27.31400
C  -2.68500 14.85800 30.01700
C  -2.75300 19.66800 29.39000
C  -1.81700 19.09500 24.66800
C  -2.31900 14.29100 25.17500
N  -2.59100 17.16000 29.41400
C  -2.82900 16.19000 30.36000
C  -3.18800 16.76500 31.71500
C  -3.13900 18.29000 31.44200
C  -2.91700 18.36800 29.96700
C  -4.35400 19.16700 31.94600
C  -2.27000 16.46700 32.90100
C  -2.89700 15.45400 33.87300
H  -2.10300 15.22600 35.14000
N  -2.12500 19.16200 27.11100
C  -2.32200 20.09600 28.09800
C  -1.98700 21.39600 27.61800
C  -1.80300 21.26200 26.20900
C  -1.88800 19.81700 25.91500
C  -2.08700 22.65400 28.45900
C  -1.59600 22.35100 25.15500
O  -1.50500 21.99000 24.02100
C  -1.55400 23.82300 25.58200
N  -2.13500 16.64800 25.13900
C  -1.84600 17.69400 24.37000
C  -1.75100 17.16500 22.89300
C  -1.78900 15.59900 23.06500
C  -2.17000 15.48900 24.54300
C  -2.83300 17.75000 21.94000
C  -0.40100 14.94300 22.68700
C  0.83300 15.32900 23.47900
N  -2.30400 14.96300 27.51200
C  -2.39600 13.98900 26.57000
C  -2.65800 12.70200 27.15900
C  -2.67200 12.95600 28.55700
C  -2.48600 14.33800 28.67600
C  -2.85400 11.34600 26.43800
C  -2.89400 12.40200 29.79000
O  -3.15700 11.25600 30.10500
C  -2.66000 13.51100 30.81600
C  -1.34000 13.14000 31.49200
O  -0.36300 13.84300 31.45500
O  -1.51600 12.01600 32.33300
C  -0.40800 11.63400 33.31700
H  -2.84600 20.46600 30.12900
H  -1.66700 19.63200 23.72900
H  -2.58600 13.54100 24.42700
H  -4.22900 16.48700 31.88100
H  -2.25100 18.74800 31.87800
H  -4.63400 19.89500 31.18500
H  -4.02400 19.60900 32.88600
H  -5.10100 18.38500 32.08300
H  -1.91800 17.34400 33.44400
H  -1.47700 15.89200 32.42300
H  -2.99300 14.49100 33.37100
H  -3.90800 15.74000 34.16400
H  -2.78200 23.38100 28.03900
H  -1.13600 23.15600 28.63800
H  -2.33000 22.44800 29.50100
H  -0.79500 24.01900 26.33900
H  -2.51700 23.99000 26.06500
H  -1.43200 24.43000 24.68500
H  -0.76900 17.47300 22.53500
H  -2.51500 15.14800 22.38900
H  -3.53300 18.26800 22.59500
H  -3.44400 17.04200 21.38200
H  -2.31000 18.47800 21.32000
H  -0.18300 15.24400 21.66200
H  -0.58500 13.87300 22.78300
H  1.22700 14.51200 24.08300
H  0.82500 16.23100 24.09100
H  1.54000 15.53400 22.67500
H  -1.99900 11.04600 25.83300
H  -3.69900 11.54400 25.77800
H  -3.17100 10.59600 27.16300
H  -3.62800 13.49100 31.31500
H  -0.24500 10.55700 33.27900
H  -0.73100 11.86400 34.33300
H  0.53700 12.16500 33.20300
Mg 49.85900 46.63300 42.63200
C  46.74700 47.56400 41.43700
C  49.55900 43.68000 40.67700
C  53.19900 45.92500 43.11100
C  50.27500 49.68600 43.97500
N  48.35700 45.84900 41.07900
C  47.11500 46.31100 40.93300
C  46.22900 45.43900 40.06700
C  47.06700 44.07100 40.18600
C  48.47800 44.57000 40.53700
C  46.45200 43.09400 41.07600
C  46.08700 46.01200 38.62700
C  44.85600 45.61600 37.81000
H  45.06800 44.33400 36.99000
N  51.11500 44.99700 42.11200
C  50.83000 43.87000 41.36600
C  51.92000 42.99500 41.37600
C  52.95700 43.54400 42.10500
C  52.44300 44.94100 42.46300
C  51.86200 41.65700 40.82000
C  54.30500 42.92500 42.42600
O  54.68400 41.86800 41.93600
C  55.21800 43.51700 43.41400
N  51.55600 47.68800 43.26500
C  52.79700 47.16900 43.48800
C  53.72400 48.25900 44.00900
C  52.74300 49.38600 44.41000
C  51.41400 48.88700 43.83300
C  54.68700 47.83100 45.18400
C  53.11800 50.80800 43.91900
C  52.97000 51.96400 44.94200
N  48.81200 48.33700 42.68200
C  49.02500 49.54400 43.37000
C  47.91200 50.40100 43.25100
C  46.98200 49.68300 42.46800
C  47.58900 48.43200 42.18200
C  47.75500 51.74100 43.95300
C  45.65500 49.67600 41.96600
O  44.70200 50.46400 42.16900
C  45.49400 48.36900 41.13500
C  44.15600 47.78100 41.41800
O  43.25100 47.69000 40.56500
O  44.16900 47.05600 42.54400
C  43.00500 46.24000 42.90500
H  49.34900 42.74900 40.14700
H  54.27600 45.76400 43.18300
H  50.41000 50.54600 44.63400
H  45.19000 45.36500 40.38900
H  47.32400 43.57700 39.24900
H  45.52400 43.48600 41.49400
H  47.08600 42.91000 41.94300
H  46.18600 42.14100 40.62000
H  46.90700 45.60200 38.03700
H  46.11600 47.09800 38.53500
H  44.66800 46.48300 37.17500
H  43.91400 45.41700 38.32100
H  52.43600 41.61800 39.89500
H  50.87800 41.22100 40.64500
H  52.30800 40.96600 41.53500
H  56.02000 42.90400 43.82500
H  54.53900 43.94100 44.15500
H  55.73000 44.35600 42.94300
H  54.41400 48.49200 43.19800
H  52.57900 49.33500 45.48600
H  54.46400 46.89400 45.69300
H  54.83200 48.59600 45.94700
H  55.69400 47.69600 44.79100
H  52.67100 50.98400 42.94100
H  54.17800 50.85700 43.66800
H  52.40000 52.79200 44.51900
H  53.94300 52.35300 45.24200
H  52.45100 51.65300 45.84800
H  48.65200 52.28800 43.66400
H  47.70700 51.53200 45.02200
H  46.90700 52.15900 43.41000
H  45.55400 48.66300 40.08700
H  43.45200 45.46400 43.52700
H  42.52900 45.70900 42.08100
H  42.36600 46.91500 43.47500

