158

Mg 17.19800 -2.42900 28.14300
C  16.39300 -0.19400 30.80600
C  19.16800 -4.08900 30.29000
C  18.59000 -3.86000 25.59900
C  15.69200 0.04400 26.02100
N  17.87900 -1.98600 30.28300
C  17.21400 -1.25300 31.24700
C  17.52500 -1.70500 32.64900
C  18.64400 -2.76300 32.36700
C  18.52100 -3.00600 30.85400
C  20.04800 -2.32900 32.81900
C  16.30300 -2.22000 33.48400
C  16.24200 -1.67200 34.92200
H  17.49200 -1.03900 35.58200
N  18.56800 -3.97500 27.97000
C  19.18100 -4.54500 28.96700
C  19.82600 -5.77200 28.48700
C  19.75700 -5.69000 27.06600
C  18.94600 -4.48000 26.83800
C  20.42300 -6.87000 29.35600
C  20.19800 -6.64000 25.98200
O  19.87700 -6.46600 24.81000
C  20.85600 -8.03400 26.33000
N  17.10800 -1.98500 26.14600
C  17.83400 -2.70400 25.26000
C  17.64200 -2.23800 23.74200
C  16.68100 -1.08400 23.96000
C  16.39800 -1.00600 25.44100
C  19.04700 -1.69300 23.13100
C  15.39200 -1.05200 23.08100
C  14.12500 -1.56900 23.63300
N  16.11700 -0.51400 28.31800
C  15.46000 0.29400 27.38400
C  14.85100 1.36200 28.03100
C  15.19700 1.23000 29.36500
C  15.99600 0.09500 29.48300
C  13.95000 2.52100 27.45500
C  15.05400 1.84000 30.63400
O  14.44800 2.90200 31.01100
C  15.67300 0.85000 31.65800
C  16.59500 1.69100 32.53700
O  17.69000 2.22900 32.31800
O  15.88100 1.98500 33.63600
C  16.30300 3.08600 34.44800
H  19.76200 -4.70100 30.97200
H  19.00300 -4.29100 24.68400
H  15.23600 0.76900 25.34400
H  17.78900 -0.79800 33.19300
H  18.43300 -3.69600 32.88900
H  20.20000 -1.30000 33.14400
H  20.70400 -2.57600 31.98400
H  20.40300 -3.01100 33.59200
H  16.27400 -3.30300 33.60600
H  15.44000 -2.03500 32.84400
H  16.00800 -2.44100 35.65800
H  15.43100 -0.94900 34.84800
H  20.56700 -6.59000 30.39900
H  21.40100 -7.06400 28.91300
H  19.71000 -7.69200 29.28500
H  20.17000 -8.62300 26.93900
H  21.84800 -7.86000 26.74800
H  20.98200 -8.61100 25.41400
H  17.15700 -3.03800 23.18300
H  17.19400 -0.13800 23.78400
H  18.92100 -0.76700 22.57100
H  19.36400 -2.35100 22.32200
H  19.93300 -1.62800 23.76200
H  15.54300 -1.72500 22.23700
H  15.18600 -0.07600 22.64100
H  14.34900 -2.45800 24.22300
H  13.39200 -1.81800 22.86600
H  13.70300 -0.91600 24.39800
H  12.93200 2.28400 27.14500
H  14.53300 3.02400 26.68400
H  13.86100 3.32200 28.18900
H  14.90700 0.40600 32.29400
H  15.99200 4.03500 34.01200
H  17.39300 3.09200 34.43800
H  15.80500 2.95300 35.40800
Mg 35.99400 1.00800 30.24100
C  33.40000 1.86600 32.43600
C  38.21300 1.02900 32.98700
C  38.37600 0.02300 28.08700
C  33.77100 1.40200 27.60800
N  35.77400 1.44400 32.42200
C  34.66800 1.64100 33.10000
C  34.95300 1.66100 34.57800
C  36.45200 1.77000 34.71900
C  36.86100 1.34300 33.30900
C  36.97600 3.19000 35.17100
C  34.21400 0.45600 35.24000
C  33.63600 0.66800 36.69800
H  34.04400 1.89300 37.48500
N  37.96300 0.61100 30.47900
C  38.73200 0.73700 31.64200
C  40.10800 0.24000 31.31800
C  40.17600 -0.00600 29.93600
C  38.77900 0.08900 29.46900
C  41.23200 0.20300 32.39000
C  41.39600 -0.38500 29.10300
O  41.32800 -0.62000 27.89300
C  42.79200 -0.45600 29.67800
N  36.09400 0.80300 28.17800
C  37.17400 0.40100 27.49700
C  36.98900 0.45900 25.95700
C  35.52400 0.97200 25.90300
C  35.05900 1.06000 27.32100
C  38.05300 1.41900 25.22600
C  34.62700 -0.02500 25.04800
C  34.16400 -1.45400 25.48900
N  34.00100 1.60700 30.00200
C  33.16500 1.65700 28.88500
C  31.87900 2.27000 29.25500
C  31.95800 2.39800 30.69600
C  33.22900 1.88600 31.08900
C  30.66200 2.56700 28.39500
C  31.23800 2.75600 31.83000
O  30.05400 3.17100 31.88000
C  32.08900 2.34200 33.03300
C  32.19000 3.40800 34.08700
O  33.05900 4.25200 33.99300
O  31.17200 3.36400 34.95200
C  31.02000 4.50200 35.83100
H  38.88700 1.08300 33.84400
H  39.13100 -0.16900 27.32200
H  33.05700 1.51700 26.79000
H  34.53800 2.63000 34.85300
H  36.77800 1.10300 35.51800
H  36.17700 3.57900 35.80300
H  37.11400 3.89300 34.35000
H  37.84300 3.07700 35.82200
H  34.89600 -0.39300 35.29400
H  33.39900 0.15600 34.58100
H  34.01200 -0.18800 37.25800
H  32.55100 0.65900 36.59100
H  41.87300 -0.67600 32.44700
H  40.92900 0.48100 33.39900
H  41.86600 1.02600 32.06000
H  42.77300 -1.33800 30.31800
H  43.15600 0.45500 30.15300
H  43.48700 -0.63100 28.85700
H  37.01500 -0.52700 25.49200
H  35.37400 1.94400 25.43200
H  37.53800 2.30400 24.85000
H  38.50100 0.96900 24.34000
H  38.81400 1.75700 25.92800
H  35.29700 -0.18600 24.20300
H  33.81700 0.53600 24.58200
H  34.40100 -1.70200 26.52300
H  34.57500 -2.22300 24.83400
H  33.07800 -1.54300 25.51900
H  30.95100 2.71000 27.35400
H  30.11400 3.45100 28.72200
H  30.08400 1.64500 28.47000
H  31.66100 1.53200 33.62300
H  30.81000 5.35900 35.19100
H  31.93100 4.65600 36.41100
H  30.26600 4.28000 36.58600

