158

Mg 25.73800 1.74700 29.55400
C  27.75300 1.15500 32.49100
C  23.14300 2.12800 31.53400
C  23.89100 1.66100 26.76300
C  28.58600 0.57300 27.63800
N  25.55900 1.65400 31.77300
C  26.42100 1.53500 32.82000
C  25.75300 1.70700 34.21200
C  24.31800 1.72300 33.79800
C  24.29900 1.86900 32.23800
C  23.36300 0.56900 34.40100
C  26.22500 3.00400 35.07400
C  26.65500 2.72700 36.41500
H  26.57600 3.73000 37.54000
N  23.74800 2.18000 29.18200
C  22.83200 2.32100 30.12900
C  21.53500 2.55200 29.49000
C  21.71500 2.35100 28.07800
C  23.15500 1.96900 27.99300
C  20.32500 2.96500 30.27100
C  20.74500 2.45900 26.91600
O  21.12300 2.27700 25.76500
C  19.32500 2.76000 27.14200
N  26.14300 1.02300 27.58200
C  25.21800 1.27200 26.56800
C  25.87100 1.23900 25.14500
C  27.40300 1.09600 25.47300
C  27.40900 0.79700 26.97000
C  25.23700 0.19600 24.10400
C  28.28900 2.29800 24.95500
C  28.82700 2.23000 23.58600
N  27.73000 0.98700 29.96600
C  28.75000 0.61300 29.07500
C  29.99800 0.47100 29.84400
C  29.61300 0.61800 31.14500
C  28.25400 0.87200 31.22500
C  31.33900 0.04700 29.23400
C  30.13100 0.50000 32.52200
O  31.24600 0.24900 32.99700
C  28.92300 0.96900 33.39800
C  28.72000 -0.05600 34.46800
O  27.90500 -0.92900 34.55200
O  29.64700 0.20100 35.45800
C  29.51200 -0.58700 36.66100
H  22.26600 1.86200 32.12800
H  23.31900 1.79600 25.84200
H  29.40900 0.36400 26.95100
H  25.94300 0.83800 34.84200
H  23.87700 2.63300 34.20400
H  23.96800 -0.30400 34.64900
H  22.56200 0.28800 33.71700
H  23.01900 0.96600 35.35600
H  25.47500 3.79500 35.06400
H  27.11500 3.19500 34.47400
H  27.72900 2.68000 36.23500
H  26.39100 1.72300 36.74800
H  19.98300 3.95600 29.97200
H  20.62800 2.90200 31.31600
H  19.42400 2.36800 30.12900
H  18.77800 2.52900 26.22800
H  19.06300 3.77700 27.43100
H  18.92500 2.01200 27.82800
H  25.61600 2.17900 24.65700
H  27.74000 0.23100 24.90300
H  24.22400 -0.07000 24.40600
H  25.87300 -0.68000 23.98200
H  25.13200 0.69100 23.13800
H  29.00800 2.69100 25.67400
H  27.50200 3.02900 24.76800
H  28.60300 1.28200 23.09700
H  29.89200 2.44100 23.68200
H  28.50000 3.14200 23.08600
H  31.35400 -0.74100 28.48100
H  31.87700 -0.39900 30.07100
H  31.99600 0.86900 28.95000
H  29.04000 1.89200 33.96600
H  28.45800 -0.62900 36.93400
H  30.19100 -0.14700 37.39200
H  29.87000 -1.58500 36.40900
Mg 47.87500 25.30000 29.19800
C  48.34600 27.56000 31.77400
C  46.69800 22.98300 31.51200
C  47.63900 23.02500 26.68700
C  49.56200 27.50300 27.02900
N  47.46400 25.30400 31.35900
C  47.67500 26.39400 32.22800
C  47.25700 26.12300 33.68700
C  46.83700 24.59200 33.59700
C  47.01900 24.21100 32.08000
C  47.53900 23.68900 34.61200
C  46.11700 27.07600 34.21700
C  46.34200 27.85400 35.52200
H  46.77300 27.22800 36.89500
N  47.15400 23.27800 29.13500
C  46.71900 22.50100 30.19100
C  46.31500 21.15000 29.70200
C  46.59400 21.19700 28.29400
C  47.10700 22.59400 27.95100
C  45.65200 20.12800 30.53400
C  46.38600 20.05200 27.24500
O  46.81400 20.02500 26.08900
C  45.67400 18.80300 27.64000
N  48.60000 25.23400 27.13000
C  48.28700 24.19700 26.31300
C  48.82300 24.39300 24.90200
C  49.27700 25.98900 24.93000
C  49.14600 26.30200 26.43400
C  49.90200 23.39500 24.40900
C  48.41200 26.98000 24.17300
C  49.23300 27.97700 23.41500
N  48.84900 27.13600 29.31800
C  49.39100 27.91300 28.31700
C  49.90800 29.05100 28.89300
C  49.48000 29.04800 30.26800
C  48.78300 27.83300 30.42600
C  50.62300 30.04100 28.03900
C  49.47000 29.81200 31.57400
O  49.93100 30.92800 31.81100
C  48.71200 28.89100 32.52400
C  49.46100 28.80000 33.77600
O  50.43500 28.14700 34.01900
O  48.97600 29.68800 34.68800
C  49.76800 29.88700 35.88400
H  46.35300 22.25800 32.25200
H  47.32300 22.38400 25.86100
H  50.05900 28.16100 26.31400
H  48.14100 26.25900 34.31100
H  45.77700 24.48600 33.83100
H  48.11500 24.08800 35.44700
H  48.30900 23.18600 34.02700
H  46.83100 22.93900 34.96300
H  45.14600 26.58500 34.28800
H  46.06300 27.85300 33.45500
H  45.41200 28.27200 35.90700
H  46.93400 28.75100 35.33900
H  46.29000 19.24400 30.53900
H  44.80300 19.70100 30.00100
H  45.34900 20.45100 31.53000
H  44.63000 18.92100 27.93000
H  46.23600 18.20800 28.36000
H  45.64900 18.17600 26.74800
H  47.97600 24.28900 24.22400
H  50.34400 25.99400 24.70800
H  50.85600 23.92000 24.38600
H  49.67700 22.85000 23.49100
H  50.00500 22.58600 25.13200
H  47.79900 27.56600 24.85700
H  47.76500 26.58900 23.38800
H  49.21900 27.78700 22.34200
H  50.23300 27.91500 23.84400
H  48.89000 28.99400 23.60900
H  50.76500 30.90300 28.69100
H  49.93000 30.30400 27.24000
H  51.51600 29.54500 27.65800
H  47.76500 29.37100 32.77000
H  49.43500 30.82900 36.31900
H  50.85500 29.81000 35.93200
H  49.53200 29.09800 36.59800

