158

Mg 17.29500 52.22300 26.18500
C  19.02400 50.90100 28.93300
C  14.80500 53.22900 28.42200
C  15.50500 53.32500 23.57900
C  19.60600 50.84300 23.97800
N  16.91600 52.00400 28.33900
C  17.81500 51.50000 29.26800
C  17.33900 51.69600 30.69200
C  15.85000 52.19900 30.54800
C  15.85000 52.52300 29.03000
C  14.89100 51.02600 30.70600
C  18.16200 52.75600 31.57700
C  18.24700 52.37500 33.07500
H  16.97900 51.78400 33.75300
N  15.51900 53.27900 26.08700
C  14.65700 53.55800 27.09100
C  13.59500 54.37800 26.54500
C  13.71400 54.34800 25.13200
C  14.96400 53.62400 24.88600
C  12.63400 55.09000 27.45400
C  12.77900 54.93900 24.03600
O  12.87000 54.75100 22.83300
C  11.59000 55.69900 24.43300
N  17.41100 51.92400 24.11200
C  16.61500 52.59800 23.23600
C  17.06400 52.48500 21.77500
C  18.49800 52.07500 22.05800
C  18.52900 51.56800 23.46500
C  16.18900 51.43200 21.02400
C  19.60200 53.26400 21.86400
C  20.82300 52.99100 21.03900
N  19.00800 50.95000 26.37200
C  19.80400 50.47200 25.38500
C  20.95200 49.86500 25.98600
C  20.65300 49.94000 27.37900
C  19.42200 50.62100 27.59000
C  22.08000 49.25200 25.20600
C  21.14600 49.59600 28.68200
O  22.23500 49.05800 28.89000
C  20.17600 50.30700 29.83800
C  19.68300 49.27600 30.76300
O  19.06700 48.26900 30.54700
O  20.01600 49.68800 32.04800
C  19.48600 48.90100 33.20500
H  14.06000 53.53400 29.16000
H  14.94900 53.75700 22.74400
H  20.50900 50.61500 23.40800
H  17.36300 50.78100 31.28400
H  15.59800 53.02500 31.21300
H  15.43500 50.24700 31.23900
H  14.34900 50.62600 29.84900
H  14.06500 51.36600 31.33000
H  17.78300 53.77600 31.64500
H  19.14300 52.66000 31.11100
H  18.55900 53.30600 33.54800
H  19.13000 51.74900 33.20600
H  11.75000 55.35200 26.87200
H  13.21500 55.88500 27.92100
H  12.35300 54.33100 28.18300
H  11.01300 54.94500 24.96800
H  11.05800 55.86600 23.49600
H  11.86600 56.62000 24.94500
H  16.98900 53.43200 21.24100
H  18.66000 51.25400 21.35800
H  15.10800 51.57200 21.05800
H  16.40300 50.50100 21.54900
H  16.57900 51.43600 20.00700
H  19.87800 53.71000 22.82000
H  19.01100 54.00500 21.32500
H  20.98300 53.58000 20.13600
H  20.91500 51.92000 20.85800
H  21.67500 53.17600 21.69400
H  21.89700 48.19100 25.03600
H  22.95900 49.42600 25.82700
H  22.31100 49.75200 24.26600
H  20.90200 50.96900 30.30900
H  18.56100 48.43100 32.87300
H  19.24600 49.53600 34.05800
H  20.29100 48.22100 33.48500
Mg 0.62900 43.10100 24.95000
C  2.60300 42.77900 27.91200
C  -1.97800 41.99300 26.61900
C  -0.89900 42.91400 21.98100
C  3.67300 43.85200 23.25700
N  0.35300 42.65100 27.04100
C  1.23500 42.72000 28.11500
C  0.47200 42.60300 29.43400
C  -0.94800 42.14700 28.96600
C  -0.89200 42.25300 27.45900
C  -1.35600 40.73500 29.55200
C  0.57500 43.90400 30.33200
C  0.95500 43.54700 31.82600
H  0.58000 42.18000 32.40100
N  -1.27200 42.44300 24.38200
C  -2.21800 42.06800 25.21500
C  -3.40400 41.80700 24.42800
C  -3.12200 42.22400 23.09200
C  -1.70700 42.55600 23.09800
C  -4.61000 41.12100 24.97900
C  -4.00500 42.31400 21.86200
O  -3.64800 42.76800 20.79400
C  -5.46800 41.84000 22.00100
N  1.30200 43.31500 22.97900
C  0.44500 43.23100 21.95100
C  1.05600 43.79100 20.60600
C  2.47300 44.16000 21.08800
C  2.48600 43.76600 22.52200
C  0.96000 42.70800 19.48900
C  2.88900 45.66500 20.82600
C  4.37200 45.94100 20.47200
N  2.77400 43.23900 25.48500
C  3.85400 43.49700 24.64600
C  5.08300 43.43200 25.43200
C  4.63400 43.06800 26.74800
C  3.22000 42.98700 26.68800
C  6.47300 43.76000 25.05000
C  5.07200 42.79600 28.08600
O  6.24500 42.75200 28.53200
C  3.72600 42.76400 28.89000
C  3.87200 41.50700 29.68500
O  3.60900 40.36400 29.28300
O  4.23800 41.85800 30.95400
C  4.41700 40.68500 31.83600
H  -2.87100 41.69300 27.17200
H  -1.28000 43.00000 20.96100
H  4.57400 43.94000 22.64600
H  1.01200 41.80000 29.93500
H  -1.60800 42.90600 29.38600
H  -2.03100 40.96300 30.37700
H  -0.42600 40.30500 29.92300
H  -1.86300 40.10400 28.82200
H  -0.31300 44.53100 30.25600
H  1.44900 44.43500 29.95400
H  0.61500 44.29900 32.53800
H  2.03900 43.45700 31.89400
H  -5.55600 41.66000 25.01100
H  -4.47900 40.93600 26.04600
H  -4.72400 40.14800 24.50200
H  -5.43200 40.75000 22.02500
H  -6.02200 42.18700 21.12900
H  -5.93400 42.24600 22.89900
H  0.63100 44.75400 20.32300
H  3.22500 43.51400 20.63500
H  1.90000 42.18500 19.31200
H  0.78800 43.22200 18.54300
H  0.22800 41.93100 19.70600
H  2.72400 46.10600 21.80900
H  2.24800 46.08800 20.05100
H  4.83300 46.46900 21.30700
H  4.50300 46.53200 19.56500
H  4.88200 44.98600 20.34100
H  6.52200 44.27700 24.09200
H  7.12300 42.88600 25.07300
H  6.80700 44.43000 25.84300
H  3.64200 43.59600 29.58900
H  3.65200 39.90900 31.83700
H  4.42400 41.07800 32.85300
H  5.32600 40.09700 31.71000

