158

Mg 47.74600 35.67900 26.93800
C  45.84400 34.33600 29.55200
C  48.27400 38.53300 28.71900
C  49.36800 36.99900 24.21100
C  47.11300 32.74100 25.11800
N  47.19400 36.29200 28.89400
C  46.50000 35.53000 29.91900
C  46.43200 36.25800 31.21700
C  46.92100 37.73800 30.72800
C  47.46200 37.49900 29.34000
C  45.84700 38.88700 30.86900
C  47.44900 35.53500 32.11500
C  47.28300 35.42700 33.63700
H  46.39800 36.46700 34.23300
N  48.81900 37.50100 26.55000
C  48.94300 38.57000 27.42400
C  49.83500 39.60100 26.78600
C  50.24000 39.08300 25.48100
C  49.46500 37.77200 25.38300
C  50.29400 40.86400 27.48100
C  51.12700 39.65700 24.45800
O  51.46400 39.07000 23.46500
C  51.89100 40.90200 24.71900
N  47.92700 35.12400 24.81100
C  48.75800 35.74900 23.95300
C  48.83100 34.97500 22.60900
C  48.55400 33.49100 23.12300
C  47.80300 33.76900 24.45100
C  47.81000 35.55000 21.61600
C  49.90800 32.64900 23.25100
C  50.16900 31.60100 22.12500
N  46.55900 34.02800 27.10900
C  46.44600 32.84700 26.34400
C  45.40700 32.00800 26.88800
C  45.15400 32.50000 28.17700
C  45.90600 33.77500 28.26300
C  45.00100 30.68400 26.27800
C  44.56100 32.19000 29.39700
O  43.78300 31.30400 29.76100
C  44.92100 33.42500 30.38500
C  45.41200 32.83600 31.66600
O  46.48300 32.25300 31.77000
O  44.48000 32.88400 32.70500
C  44.73400 31.98000 33.89300
H  48.49300 39.46800 29.23800
H  49.81100 37.44500 23.31800
H  46.93600 31.81600 24.56700
H  45.40600 36.21300 31.58400
H  47.71400 37.97600 31.43700
H  46.44600 39.69600 31.28800
H  45.02500 38.49600 31.46900
H  45.48300 39.18700 29.88600
H  48.41000 35.99200 31.87700
H  47.38200 34.48000 31.84900
H  48.28800 35.58500 34.02900
H  46.90800 34.51600 34.10300
H  50.05800 40.89900 28.54400
H  49.98800 41.81600 27.04600
H  51.37400 40.72800 27.52500
H  51.32300 41.82400 24.59100
H  52.75000 40.87900 24.04900
H  52.32500 41.07600 25.70400
H  49.84100 35.01600 22.20200
H  47.95200 33.07500 22.31600
H  47.55800 34.71800 20.95900
H  48.09800 36.45900 21.08700
H  46.82100 35.81800 21.98800
H  49.83700 32.16900 24.22700
H  50.81800 33.24600 23.31000
H  49.54200 31.71900 21.24200
H  50.13800 30.59600 22.54600
H  51.22900 31.75800 21.92400
H  43.93300 30.68800 26.05900
H  45.08400 29.95200 27.08100
H  45.54100 30.34100 25.39500
H  43.96800 33.90800 30.60300
H  44.27300 31.07900 33.48800
H  44.25300 32.44400 34.75400
H  45.79500 31.75600 34.00200
Mg -10.17400 16.05000 41.45500
C  -6.79800 15.00600 41.44500
C  -9.16400 19.05500 40.21300
C  -13.36300 16.77000 40.80300
C  -11.01700 12.71300 42.08400
N  -8.21700 16.91500 40.87400
C  -7.03000 16.29600 40.98500
C  -5.86600 17.21300 40.45000
C  -6.57400 18.69400 40.60000
C  -8.08000 18.23200 40.55900
C  -6.16200 19.48800 41.87000
C  -5.57100 16.91200 38.97300
C  -4.10400 16.48400 38.61200
H  -3.90800 15.22500 37.74900
N  -11.11100 17.68600 40.52000
C  -10.56200 18.84000 40.21000
C  -11.49700 19.80700 39.71900
C  -12.78000 19.23400 39.94000
C  -12.46700 17.83200 40.36600
C  -11.24100 21.14000 39.17400
C  -14.15400 19.86200 39.66600
O  -14.27900 20.91000 39.05100
C  -15.41700 19.11400 39.98800
N  -11.84000 14.83000 41.30200
C  -13.06800 15.48700 41.26200
C  -14.21800 14.44100 41.48500
C  -13.48000 13.12100 41.57800
C  -12.02400 13.58800 41.67700
C  -15.08600 14.77600 42.73100
C  -13.61700 12.14800 40.38500
C  -14.17000 10.72900 40.71500
N  -9.15800 14.23200 42.01500
C  -9.63300 12.96600 42.18200
C  -8.61200 12.02800 42.52400
C  -7.45600 12.75500 42.16100
C  -7.81700 14.06800 41.82200
C  -8.66200 10.61300 42.99800
C  -5.94400 12.70600 41.94900
O  -5.19600 11.75900 42.12000
C  -5.57700 14.16600 41.46200
C  -4.47000 14.63800 42.26300
O  -3.41800 15.00100 41.78900
O  -4.66000 14.41800 43.64100
C  -3.39400 14.56300 44.43300
H  -8.89900 20.10900 40.10700
H  -14.45300 16.80400 40.86400
H  -11.25200 11.68700 42.37300
H  -4.94400 17.07800 41.01500
H  -6.36100 19.21800 39.66900
H  -7.04600 19.35000 42.49300
H  -6.11500 20.56700 41.72000
H  -5.26500 19.21000 42.42400
H  -5.74700 17.80200 38.36900
H  -6.29600 16.16000 38.66000
H  -3.50100 16.21400 39.47900
H  -3.66700 17.34000 38.09800
H  -10.99100 21.08800 38.11400
H  -10.41900 21.60100 39.72200
H  -12.06300 21.83800 39.32900
H  -15.39300 18.30600 39.25600
H  -16.23400 19.74000 39.63100
H  -15.41000 18.70500 40.99800
H  -14.79700 14.54100 40.56700
H  -13.63500 12.61400 42.53000
H  -16.12800 14.85300 42.41700
H  -14.80700 15.66100 43.30300
H  -15.15000 13.92000 43.40200
H  -12.74800 12.22000 39.73200
H  -14.37300 12.56800 39.72200
H  -15.15800 10.59400 40.27600
H  -14.35400 10.48800 41.76200
H  -13.52900 9.97700 40.25300
H  -8.77400 10.60200 44.08200
H  -7.79700 10.00700 42.72800
H  -9.54300 10.13600 42.56900
H  -5.22100 14.02100 40.44200
H  -2.57600 14.05100 43.92500
H  -3.54000 14.06100 45.39000
H  -3.16300 15.57400 44.76700

