158

Mg 47.77800 14.94500 28.18800
C  45.79600 15.00700 31.03500
C  49.89500 17.25900 29.82900
C  49.55200 15.08700 25.33800
C  45.63300 12.82500 26.63000
N  47.82300 16.15300 30.14700
C  47.03800 15.74600 31.21100
C  47.41700 16.34900 32.59200
C  48.56900 17.29600 32.14100
C  48.76900 16.93900 30.60400
C  48.42100 18.81500 32.38700
C  47.82900 15.29900 33.69000
C  46.93700 15.19500 34.89800
H  47.37400 15.95000 36.16000
N  49.49500 16.03600 27.67500
C  50.26800 16.86100 28.49500
C  51.47200 17.24300 27.73800
C  51.33700 16.67200 26.42600
C  50.07400 15.91100 26.40500
C  52.54700 18.07000 28.35800
C  52.30100 16.81200 25.15800
O  52.11600 16.26000 24.06000
C  53.61800 17.57500 25.29500
N  47.56100 14.22500 26.21100
C  48.44900 14.34700 25.19900
C  48.01300 13.43400 24.00700
C  46.85300 12.52800 24.51100
C  46.69100 13.21200 25.87800
C  47.79400 14.21600 22.65900
C  47.19500 10.98100 24.47500
C  48.23000 10.37700 25.48400
N  45.93000 14.25900 28.52600
C  45.21000 13.31900 27.84300
C  43.96100 13.08700 28.56500
C  44.17700 13.74700 29.80800
C  45.40500 14.35700 29.76600
C  42.80500 12.26400 28.04700
C  43.51500 13.95100 31.09000
O  42.48600 13.56200 31.58400
C  44.66600 14.68800 31.93900
C  43.98200 15.91200 32.45300
O  44.13500 17.02600 32.01200
O  43.39400 15.59300 33.68000
C  42.78400 16.64600 34.44900
H  50.54600 17.99600 30.30400
H  50.15000 15.01300 24.42700
H  44.94100 12.02600 26.35800
H  46.56400 16.88500 33.00900
H  49.49900 17.11000 32.67800
H  48.09800 19.34200 31.49000
H  49.36800 19.21000 32.75700
H  47.56400 18.99400 33.03700
H  48.87600 15.41300 33.97000
H  47.75300 14.38600 33.10000
H  46.90200 14.16000 35.23700
H  45.88600 15.35600 34.66000
H  53.53100 17.76200 28.00600
H  52.48100 18.00800 29.44500
H  52.38500 19.09900 28.03600
H  53.32900 18.60500 25.50300
H  54.04200 17.44600 24.29900
H  54.36900 17.11000 25.93400
H  48.89600 12.81400 23.85700
H  46.00300 12.68200 23.84700
H  48.08700 15.26100 22.76700
H  46.75800 14.16400 22.32600
H  48.35900 13.86400 21.79600
H  47.66100 10.67800 23.53800
H  46.26100 10.43100 24.59900
H  47.79900 9.44500 25.85100
H  48.48400 11.04400 26.30800
H  49.16900 10.02600 25.05600
H  43.16100 11.24200 27.91200
H  42.41800 12.63400 27.09800
H  41.89900 12.38600 28.64100
H  45.06700 14.10600 32.77000
H  43.28100 16.68700 35.41800
H  41.73200 16.36900 34.52500
H  42.86900 17.65400 34.04400
Mg -0.99100 43.89600 26.85900
C  1.71100 43.73100 29.16400
C  -2.98900 43.04200 29.37500
C  -3.26500 43.45500 24.47100
C  1.46100 44.20500 24.39000
N  -0.65300 43.23800 29.02200
C  0.45600 43.53200 29.76700
C  0.14400 43.41200 31.28300
C  -1.33900 42.86400 31.28000
C  -1.69700 43.12400 29.81000
C  -1.57500 41.35600 31.65700
C  0.36600 44.80600 31.88000
C  0.69000 44.78100 33.44900
H  0.45100 43.52800 34.26400
N  -2.92000 43.32300 26.95800
C  -3.56500 42.92900 28.06300
C  -4.92600 42.52000 27.69600
C  -4.95300 42.54200 26.23700
C  -3.65200 43.07700 25.78300
C  -5.99900 42.16100 28.75500
C  -6.10300 42.14000 25.28800
O  -5.89300 42.24400 24.10800
C  -7.53300 41.56000 25.74600
N  -0.84400 43.98700 24.75600
C  -1.97800 43.78600 24.01600
C  -1.66900 43.82900 22.50000
C  -0.20000 44.33500 22.47500
C  0.16000 44.22300 23.97700
C  -1.81100 42.44900 21.86600
C  0.16800 45.74700 22.01200
C  1.57900 45.98000 21.34100
N  1.16800 43.97900 26.78300
C  1.98900 44.11400 25.64300
C  3.35300 44.36200 26.12400
C  3.28500 44.13800 27.49700
C  1.91200 43.98700 27.85000
C  4.46700 44.64500 25.32900
C  4.06100 44.04000 28.71300
O  5.28300 43.90400 28.92600
C  3.00600 43.97600 29.87000
C  3.45800 42.73000 30.57900
O  3.40000 41.65100 30.05100
O  4.05500 42.88700 31.80500
C  4.36300 41.77700 32.73700
H  -3.64800 42.81100 30.21400
H  -3.99400 43.26400 23.68000
H  2.21600 44.30800 23.60800
H  0.79000 42.66100 31.73600
H  -1.87900 43.55600 31.92600
H  -2.60800 41.30600 31.99900
H  -0.97100 41.02300 32.50100
H  -1.49000 40.70600 30.78600
H  -0.57500 45.34800 31.78900
H  1.09500 45.40600 31.33500
H  0.23800 45.62900 33.96500
H  1.76800 44.93500 33.40400
H  -5.52300 41.97300 29.71700
H  -6.44100 41.20500 28.47600
H  -6.71500 42.95600 28.96500
H  -7.45000 40.47800 25.65200
H  -8.32500 41.95700 25.11100
H  -7.96800 41.86700 26.69700
H  -2.30100 44.56600 22.00300
H  0.40900 43.64900 21.88700
H  -0.86200 42.05000 21.50800
H  -2.52500 42.53600 21.04700
H  -2.13000 41.71300 22.60400
H  0.13300 46.52400 22.77500
H  -0.58100 46.00400 21.26300
H  2.15100 45.05600 21.42100
H  2.17600 46.69000 21.91300
H  1.59600 46.30900 20.30200
H  4.21400 45.25300 24.46100
H  4.84200 43.73700 24.85700
H  5.25800 45.06900 25.94700
H  3.21200 44.91900 30.37600
H  4.61100 40.92500 32.10400
H  3.46000 41.69300 33.34100
H  5.28700 42.00200 33.27000

