158

Mg 2.31600 -0.63100 44.12600
C  5.62200 0.33300 43.97500
C  1.39700 2.54100 43.09400
C  -0.76300 -1.66100 43.95600
C  3.53300 -3.98100 44.61800
N  3.41400 1.21500 43.37400
C  4.75800 1.39500 43.57100
C  5.17900 2.82500 43.25400
C  3.77200 3.53900 43.16300
C  2.78000 2.40000 43.16100
C  3.53400 4.53100 44.36600
C  5.97700 2.94400 41.94800
C  5.46100 2.18100 40.72300
H  5.32100 2.98700 39.42800
N  0.54000 0.40500 43.61000
C  0.32500 1.66900 43.16900
C  -1.10900 1.92000 42.97200
C  -1.72300 0.66700 43.11500
C  -0.65800 -0.23700 43.57600
C  -1.75800 3.18800 42.46600
C  -3.24200 0.36500 42.98900
O  -3.95600 1.17100 42.46400
C  -3.85500 -0.92800 43.60000
N  1.52100 -2.58500 44.21000
C  0.18100 -2.68300 44.35500
C  -0.23400 -4.15900 44.62000
C  1.08400 -4.92700 44.57000
C  2.13800 -3.80500 44.47200
C  -1.07600 -4.41600 45.84200
C  1.22800 -5.88000 43.35400
C  1.82300 -7.34200 43.48700
N  4.13900 -1.68200 44.37600
C  4.51200 -2.92700 44.75200
C  5.93800 -3.00000 45.02800
C  6.38900 -1.73800 44.71100
C  5.27600 -0.98400 44.30100
C  6.68400 -4.11000 45.61100
C  7.64200 -0.96400 44.55400
O  8.80800 -1.23000 44.78400
C  7.11000 0.50500 44.18900
C  7.46800 1.53200 45.19800
O  8.37800 2.36500 45.08300
O  6.76800 1.43400 46.44100
C  6.87400 2.62400 47.29600
H  0.99100 3.53700 42.90700
H  -1.74000 -2.12300 44.11200
H  3.83900 -4.98900 44.90500
H  5.86900 3.11500 44.04600
H  3.68900 4.09500 42.23000
H  4.29000 4.27900 45.10900
H  2.54700 4.28900 44.76100
H  3.57200 5.56600 44.02700
H  6.93800 2.46000 42.12000
H  6.24300 3.98700 41.77700
H  4.54100 1.66000 40.98800
H  6.15300 1.38300 40.45100
H  -1.10600 4.00700 42.77000
H  -2.59300 3.51000 43.08900
H  -2.03600 3.08800 41.41700
H  -3.56600 -1.08500 44.63900
H  -3.74500 -1.71500 42.85500
H  -4.84800 -0.48300 43.65800
H  -0.86900 -4.45400 43.78500
H  1.24900 -5.56300 45.44000
H  -1.81000 -3.63200 46.02900
H  -0.50000 -4.55700 46.75600
H  -1.72200 -5.28700 45.73200
H  1.79600 -5.38400 42.56600
H  0.26100 -6.00100 42.86600
H  1.04600 -8.09300 43.34300
H  2.33500 -7.47100 44.44000
H  2.60200 -7.58800 42.76500
H  5.91200 -4.81600 45.92000
H  7.33200 -3.71800 46.39500
H  7.31800 -4.47400 44.80300
H  7.57200 0.74300 43.23100
H  7.88800 3.00600 47.40900
H  6.42600 2.49200 48.28100
H  6.19200 3.30100 46.78200
Mg 47.42500 15.89300 27.98500
C  45.81200 15.60800 31.13000
C  49.46600 18.19100 29.26800
C  48.64500 16.31100 24.86500
C  44.89900 13.91100 26.68000
N  47.63300 16.67500 30.02700
C  46.97300 16.38400 31.15200
C  47.56200 17.25900 32.27400
C  48.51500 18.19600 31.64700
C  48.60700 17.61100 30.22100
C  48.11300 19.65400 31.64000
C  48.03100 16.43000 33.44600
C  47.96500 17.05500 34.85100
H  49.05300 16.59800 35.81300
N  48.92900 16.94300 27.18300
C  49.60100 17.91000 27.87900
C  50.53300 18.62700 26.99800
C  50.42600 17.98500 25.72200
C  49.27700 17.03900 25.87000
C  51.39600 19.76900 27.42900
C  51.24700 18.21500 24.50000
O  51.01100 17.64000 23.43900
C  52.38000 19.11700 24.54400
N  46.89600 15.22000 26.00100
C  47.59800 15.38200 24.90800
C  47.01000 14.61400 23.68500
C  45.98900 13.70200 24.42700
C  45.91400 14.27500 25.78600
C  46.48000 15.49600 22.50300
C  46.41100 12.22000 24.26900
C  47.64400 11.79800 25.08500
N  45.69700 15.01900 28.71000
C  44.73700 14.34900 28.00200
C  43.60900 14.03800 28.82100
C  44.02600 14.45700 30.07900
C  45.31200 15.08200 29.94000
C  42.45100 13.15000 28.44300
C  43.64500 14.54300 31.47900
O  42.62300 14.17500 32.04800
C  44.74900 15.31100 32.21400
C  44.27300 16.58900 32.82600
O  43.84800 17.55300 32.13800
O  44.43200 16.59900 34.13700
C  43.95300 17.80700 34.79400
H  50.19200 18.90800 29.65800
H  48.96700 16.42800 23.82800
H  44.18400 13.21400 26.23700
H  46.79800 17.95400 32.62300
H  49.46400 18.04200 32.16200
H  47.29800 19.93500 32.30700
H  47.80100 19.99200 30.65200
H  49.02600 20.16800 31.94300
H  49.07900 16.19300 33.26500
H  47.56100 15.45800 33.59600
H  46.99700 16.75600 35.25300
H  47.96800 18.14400 34.80500
H  52.48000 19.65200 27.40700
H  51.00300 20.19200 28.35300
H  51.20800 20.61700 26.77000
H  53.13800 18.65900 25.18000
H  51.94700 20.09500 24.75600
H  52.77200 19.25600 23.53700
H  47.87600 14.07800 23.29700
H  44.98500 13.73300 24.00200
H  46.45300 16.56100 22.73300
H  45.44500 15.30700 22.21600
H  47.23000 15.29000 21.74000
H  46.46700 11.98700 23.20500
H  45.57800 11.58100 24.56200
H  47.84100 12.34300 26.00800
H  48.51000 12.09800 24.49400
H  47.56400 10.73900 25.32900
H  41.73800 13.69000 27.82000
H  42.01100 12.73600 29.35000
H  43.01500 12.46100 27.81500
H  45.09600 14.69800 33.04600
H  44.27100 18.69800 34.25300
H  44.49100 17.91700 35.73500
H  42.91800 17.79800 35.13400

