158

Mg 16.42000 52.09000 26.08400
C  18.26400 50.41100 28.57800
C  14.10900 53.00100 28.60200
C  14.82100 53.96700 23.83300
C  18.70000 51.07200 23.71300
N  16.23800 51.79300 28.36200
C  17.14500 51.14700 29.14200
C  16.74000 51.14100 30.62800
C  15.23200 51.66200 30.50200
C  15.22300 52.27600 29.08200
C  14.21200 50.53900 30.75100
C  17.67600 52.12000 31.42900
C  18.05900 51.64600 32.82400
H  17.15300 52.10500 33.98600
N  14.72200 53.31300 26.18500
C  13.92700 53.51800 27.32300
C  12.74200 54.20800 26.82900
C  12.95300 54.67000 25.50800
C  14.22200 53.91800 25.10600
C  11.55200 54.61300 27.78200
C  12.11800 55.59500 24.56100
O  12.42300 55.75600 23.42000
C  10.86000 56.16700 25.07500
N  16.77200 52.48700 24.11000
C  16.02800 53.43900 23.41500
C  16.41200 53.54600 21.96700
C  17.88200 52.87600 21.98000
C  17.72700 52.07100 23.33600
C  15.38500 53.09800 20.90400
C  19.13900 53.85600 21.97700
C  19.64400 54.27700 20.50000
N  18.01000 50.71400 26.01200
C  18.88200 50.39900 24.96800
C  19.97700 49.63700 25.45400
C  19.77100 49.57700 26.81600
C  18.53800 50.26900 27.15600
C  21.12900 49.06000 24.62200
C  20.38200 49.20800 28.10000
O  21.44900 48.64700 28.35400
C  19.43100 49.70300 29.28500
C  18.89800 48.47900 30.03100
O  18.23300 47.58100 29.60600
O  19.49600 48.51500 31.22300
C  19.07300 47.50400 32.15200
H  13.34600 53.20100 29.35600
H  14.37900 54.64400 23.09800
H  19.55100 51.07400 23.02800
H  16.73700 50.16700 31.11600
H  15.05300 52.43500 31.24900
H  13.59100 50.75700 31.62000
H  14.72000 49.57500 30.77700
H  13.46400 50.56100 29.95900
H  17.19200 53.09400 31.48700
H  18.58200 52.34100 30.86600
H  19.04200 52.04300 33.07600
H  18.10800 50.55800 32.85600
H  11.30300 55.67100 27.70000
H  11.80900 54.39500 28.81900
H  10.63700 54.07200 27.54000
H  10.21700 55.44100 25.57300
H  10.25100 56.61600 24.29100
H  11.20100 56.88900 25.81700
H  16.58900 54.61000 21.81000
H  17.96100 52.15500 21.16500
H  15.85700 52.38700 20.22600
H  15.13500 53.99200 20.33200
H  14.55700 52.60000 21.40900
H  19.89300 53.23200 22.45600
H  19.09600 54.70100 22.66500
H  19.42700 55.33800 20.62000
H  18.99000 53.95000 19.69100
H  20.67700 54.03800 20.25000
H  22.09800 49.48600 24.88200
H  20.92800 49.12200 23.55300
H  21.36100 48.02800 24.88700
H  19.93500 50.46500 29.88000
H  19.39500 47.97900 33.07900
H  19.53900 46.54000 31.95000
H  18.00100 47.38600 32.30800
Mg 1.23300 41.52800 25.17900
C  2.27200 42.12300 28.39200
C  -1.73900 40.29400 26.35500
C  0.40800 40.86200 22.06300
C  4.37700 42.74200 23.99500
N  0.35700 41.25900 27.17200
C  0.88500 41.75200 28.31100
C  -0.03000 41.60700 29.56300
C  -1.31500 40.98400 28.85200
C  -0.88900 40.76600 27.41600
C  -2.06500 39.78600 29.51600
C  -0.39500 42.95100 30.24800
C  0.11200 43.10900 31.73000
H  -0.92900 43.14500 32.85600
N  -0.40700 40.71100 24.37800
C  -1.50900 40.25300 24.97100
C  -2.45000 39.76100 23.99800
C  -1.86400 39.95400 22.68000
C  -0.56900 40.55400 22.97900
C  -3.92400 39.29600 24.34600
C  -2.44200 39.65700 21.21300
O  -1.89100 40.14600 20.20500
C  -3.67400 38.85400 20.97700
N  2.21700 41.78000 23.33500
C  1.66300 41.50300 22.19400
C  2.53800 42.06200 20.99900
C  3.69800 42.70800 21.64700
C  3.37300 42.41200 23.10600
C  2.93700 40.88300 20.02500
C  3.71600 44.28700 21.48000
C  3.89000 44.84600 20.05200
N  2.99000 42.09500 25.98300
C  4.17400 42.54800 25.38800
C  5.15100 42.85800 26.39500
C  4.44500 42.70900 27.64500
C  3.15500 42.26900 27.32600
C  6.61100 43.28300 26.13100
C  4.59900 42.64900 29.04600
O  5.59400 42.87700 29.75200
C  3.18100 42.41300 29.65900
C  3.34400 41.22000 30.59600
O  3.48800 40.02400 30.30600
O  3.43000 41.69100 31.88600
C  3.56200 40.77400 33.01900
H  -2.66400 39.79900 26.65800
H  0.15900 40.79100 21.00200
H  5.23200 43.34700 23.68600
H  0.51800 40.98000 30.26700
H  -2.15300 41.67800 28.78600
H  -2.35700 39.10900 28.71400
H  -2.92700 40.15000 30.07500
H  -1.37200 39.18100 30.10200
H  -1.47000 43.12500 30.30800
H  0.04900 43.70800 29.60100
H  0.86300 43.89700 31.67700
H  0.70900 42.20100 31.82100
H  -4.61900 39.36300 23.50900
H  -4.40300 39.84900 25.15400
H  -3.93300 38.25900 24.68000
H  -3.69800 38.05500 21.71700
H  -3.51700 38.45200 19.97600
H  -4.54500 39.50100 21.07800
H  1.93500 42.80200 20.47300
H  4.67700 42.30000 21.39300
H  2.06100 40.82200 19.38000
H  2.99800 39.94700 20.58000
H  3.88700 41.09600 19.53300
H  4.67100 44.56400 21.92700
H  2.80100 44.71400 21.89200
H  3.62800 43.99000 19.43000
H  4.85400 45.30300 19.83200
H  3.20900 45.69300 19.96700
H  6.95100 43.46300 25.11100
H  7.14400 42.41500 26.51900
H  6.86000 44.16100 26.72600
H  2.95800 43.28600 30.27200
H  4.59200 40.69300 33.36600
H  3.10800 39.79200 32.88900
H  2.97400 41.23300 33.81400

