158

Mg 2.07600 8.33500 24.85800
C  2.60500 10.06100 27.81800
C  2.14600 5.37600 26.70500
C  1.69300 6.56500 22.03400
C  2.52900 11.28300 22.96100
N  2.42200 7.83400 27.00100
C  2.50200 8.70600 28.05000
C  2.58000 7.97600 29.45000
C  2.55600 6.44100 29.03600
C  2.32200 6.51100 27.49400
C  3.83300 5.59400 29.44300
C  1.32100 8.45300 30.32300
C  1.54300 8.65900 31.88200
H  2.73700 8.00600 32.53900
N  1.78300 6.28000 24.41100
C  1.87600 5.25500 25.34600
C  1.77700 3.97800 24.71200
C  1.71600 4.25200 23.28100
C  1.69700 5.75100 23.18300
C  1.83100 2.65100 25.46200
C  1.74200 3.19700 22.11100
O  1.59500 3.55400 20.95200
C  1.96100 1.73800 22.36700
N  2.24500 8.85000 22.77400
C  1.91800 7.96500 21.78000
C  1.82700 8.57000 20.41100
C  2.31300 10.06500 20.74400
C  2.40500 10.07600 22.23600
C  2.47900 7.83500 19.21400
C  1.33200 11.17900 20.20900
C  -0.12300 11.30300 20.78600
N  2.40700 10.29000 25.25100
C  2.54300 11.41700 24.42400
C  2.87700 12.59800 25.21300
C  2.87000 12.09900 26.55200
C  2.50700 10.73600 26.50300
C  3.04400 14.01400 24.61900
C  3.00100 12.47800 27.93500
O  3.21200 13.61700 28.37600
C  2.73600 11.23400 28.81000
C  3.77100 11.15500 29.80100
O  4.83200 10.81000 29.46500
O  3.42400 11.65500 31.03500
C  4.52400 11.82200 31.93700
H  2.13600 4.43200 27.25400
H  1.46600 6.01500 21.11800
H  2.74900 12.18800 22.39200
H  3.51600 8.19700 29.96300
H  1.69900 5.98400 29.53000
H  3.45200 4.75800 30.02900
H  4.55300 6.10900 30.07900
H  4.28500 5.15900 28.55200
H  0.46000 7.83800 30.06300
H  0.91400 9.34500 29.84600
H  0.63100 8.20300 32.26800
H  1.60000 9.71600 32.14300
H  2.85100 2.46400 25.79600
H  1.52200 1.82700 24.81800
H  1.19700 2.54700 26.34300
H  2.77100 1.58200 23.08000
H  2.02400 1.16700 21.44100
H  0.95800 1.51500 22.73100
H  0.79700 8.54600 20.05400
H  3.27400 10.11800 20.23200
H  1.71300 7.60400 18.47400
H  3.00700 6.97200 19.61900
H  3.19200 8.48600 18.70700
H  1.34100 10.98600 19.13600
H  1.84100 12.12500 20.39500
H  -0.79700 11.07100 19.96100
H  -0.21800 12.31500 21.17900
H  -0.28500 10.61000 21.61100
H  2.79400 13.97400 23.55800
H  4.00100 14.49400 24.82300
H  2.29400 14.70900 24.99600
H  1.75500 11.28900 29.28100
H  4.08300 12.31600 32.80300
H  5.28000 12.47100 31.49500
H  5.03200 10.90200 32.22800
Mg 9.74700 4.21000 27.57500
C  10.88300 2.83600 30.39100
C  7.84200 6.48100 29.39300
C  8.67700 5.62300 24.68100
C  11.04300 1.51900 25.67400
N  9.34300 4.48800 29.65100
C  9.98200 3.88700 30.62600
C  9.69500 4.52900 32.07100
C  8.60700 5.54200 31.70000
C  8.52500 5.48700 30.19700
C  7.16100 5.40600 32.31500
C  10.99100 5.17800 32.63000
C  11.49100 4.59400 33.89400
H  11.83800 5.51500 35.12200
N  8.51100 5.82000 27.09900
C  7.79500 6.62400 27.98700
C  7.15700 7.72400 27.26600
C  7.47000 7.58800 25.85500
C  8.30300 6.34500 25.80300
C  6.24600 8.70300 27.98200
C  6.97900 8.31200 24.66000
O  7.35600 7.98000 23.55400
C  6.04100 9.52800 24.75700
N  9.73300 3.58000 25.42800
C  9.35200 4.42700 24.47700
C  9.83100 3.95500 23.14000
C  10.61600 2.64400 23.47900
C  10.37300 2.51100 24.92900
C  8.63000 3.72900 22.18500
C  12.13500 2.78800 23.13700
C  12.39100 2.88600 21.62900
N  10.66100 2.42100 27.93200
C  11.27700 1.52900 27.07900
C  12.07800 0.67300 27.88000
C  12.02100 1.15700 29.22200
C  11.11700 2.21700 29.14000
C  13.01300 -0.43500 27.42900
C  12.53800 0.93900 30.48000
O  13.33300 0.12000 30.90200
C  11.81100 2.04500 31.34900
C  11.16700 1.39900 32.56200
O  9.95400 1.18700 32.55600
O  12.06000 1.20400 33.56400
C  11.31500 0.77100 34.83100
H  7.44800 7.35500 29.91600
H  8.50700 5.95400 23.65400
H  11.54300 0.71400 25.13100
H  9.16200 3.80500 32.68700
H  8.98500 6.52300 31.98800
H  6.32200 5.61500 31.65100
H  7.16800 6.25400 33.00000
H  6.93800 4.46400 32.81600
H  10.76200 6.23900 32.72700
H  11.80400 5.16500 31.90400
H  12.42300 4.11600 33.59300
H  10.73400 3.89600 34.25300
H  6.32600 9.65400 27.45500
H  6.55100 8.85800 29.01700
H  5.26400 8.23500 28.04800
H  5.82600 9.90500 23.75700
H  6.51500 10.33200 25.32100
H  5.11700 9.20000 25.23200
H  10.51300 4.67100 22.68100
H  10.13600 1.77400 23.03000
H  8.41400 2.70600 21.87600
H  8.83400 4.18900 21.21800
H  7.67100 4.00800 22.62300
H  12.66300 1.86400 23.37300
H  12.50500 3.65900 23.67700
H  12.93200 2.06100 21.16600
H  12.94200 3.82200 21.53100
H  11.51600 3.05300 21.00000
H  12.65100 -0.74000 26.44700
H  12.98800 -1.23600 28.16900
H  14.06600 -0.19800 27.28400
H  12.52000 2.72500 31.82000
H  10.71000 -0.12300 34.68000
H  10.66900 1.58500 35.15700
H  11.99100 0.47500 35.63300

