158

Mg 40.00700 10.32600 29.27900
C  42.16500 11.46800 31.82800
C  38.06200 8.97500 31.58600
C  38.20100 9.35600 26.72900
C  42.68800 11.06300 26.94100
N  40.08000 10.33900 31.51100
C  40.96700 10.96100 32.31400
C  40.39800 10.93400 33.72900
C  39.08400 10.03700 33.63200
C  39.06400 9.72900 32.21400
C  39.13000 8.75800 34.46100
C  39.86200 12.36300 34.09100
C  39.25400 12.49100 35.48800
H  40.13200 13.04600 36.65000
N  38.23800 9.39700 29.15900
C  37.60100 8.81700 30.24400
C  36.46300 8.15100 29.78100
C  36.45700 8.17700 28.31400
C  37.65100 9.00000 28.00000
C  35.61600 7.45500 30.69600
C  35.49400 7.53400 27.33600
O  35.76200 7.51100 26.13400
C  34.29800 6.86700 27.79000
N  40.44800 10.15800 27.11800
C  39.48700 9.85700 26.35500
C  39.92400 9.75200 24.85700
C  41.34300 10.48200 24.90300
C  41.52400 10.53700 26.47000
C  39.89600 8.35600 24.21800
C  41.42100 11.96400 24.33300
C  40.85600 13.11300 25.19000
N  42.00400 11.09900 29.30400
C  42.97200 11.34200 28.27500
C  44.11700 11.83700 28.86200
C  43.81700 11.99600 30.21100
C  42.56700 11.45800 30.48300
C  45.30500 12.29000 28.19600
C  44.46300 12.41600 31.46500
O  45.53300 12.88000 31.75400
C  43.34100 12.12000 32.51400
C  43.87800 11.34600 33.67100
O  44.10300 10.11700 33.64800
O  43.74100 12.02300 34.82800
C  44.14700 11.25900 36.01500
H  37.45100 8.43500 32.31200
H  37.63200 8.96500 25.88200
H  43.45000 11.40100 26.23700
H  41.17000 10.67600 34.45400
H  38.10700 10.50400 33.75900
H  40.09700 8.71200 34.96300
H  38.97500 7.89900 33.80900
H  38.33500 8.77800 35.20600
H  39.15900 12.71100 33.33400
H  40.75900 12.98300 34.11300
H  38.59400 11.64500 35.67700
H  38.50100 13.26700 35.35300
H  34.63400 7.31200 30.24600
H  35.50900 7.97300 31.64900
H  35.90300 6.41700 30.86300
H  33.84700 6.24400 27.01800
H  33.53600 7.59600 28.06600
H  34.58100 6.26000 28.64900
H  39.20400 10.34400 24.29200
H  42.20700 9.87300 24.64000
H  40.92900 8.09500 23.99000
H  39.38100 8.44600 23.26100
H  39.27100 7.65800 24.77500
H  40.87400 11.94100 23.39000
H  42.42400 12.34900 24.15400
H  41.78100 13.42600 25.67400
H  40.13700 12.82700 25.95800
H  40.50000 13.86700 24.48800
H  45.11100 12.75100 27.22700
H  45.98600 11.44700 28.08600
H  45.79400 13.06700 28.78400
H  43.08400 13.13000 32.83300
H  43.33000 10.58700 36.28100
H  44.35800 11.96400 36.81900
H  45.07700 10.71500 35.85400
Mg 48.52100 25.39400 27.87200
C  49.20200 27.64800 30.49600
C  47.38200 23.26900 30.20400
C  48.31400 23.17200 25.39100
C  50.04800 27.65800 25.64400
N  48.23900 25.49100 30.09200
C  48.64800 26.43300 30.93800
C  48.47300 26.07700 32.41100
C  47.93400 24.62100 32.34500
C  47.78300 24.41700 30.80200
C  48.79500 23.51400 33.02800
C  47.65800 27.11600 33.24100
C  46.68000 26.73900 34.27200
H  46.46400 27.70500 35.43400
N  47.80300 23.48700 27.83800
C  47.33200 22.79000 28.87800
C  46.98300 21.47500 28.39900
C  47.20000 21.44600 26.96200
C  47.74600 22.74500 26.65100
C  46.41000 20.37500 29.28800
C  46.86600 20.30700 25.91100
O  47.06800 20.50800 24.73600
C  46.26300 18.97600 26.41700
N  49.19200 25.32900 25.81700
C  49.03800 24.30100 24.98500
C  49.49400 24.50400 23.49600
C  49.64900 26.05100 23.60900
C  49.60100 26.42200 25.14000
C  50.83600 23.79800 23.10300
C  48.56100 26.89100 22.81200
C  49.17500 27.68600 21.60500
N  49.38900 27.27700 27.95700
C  49.93200 28.11300 26.99800
C  50.50000 29.29000 27.61900
C  50.15500 29.17000 28.97300
C  49.44500 27.99700 29.10200
C  51.48200 30.29800 26.96400
C  50.29600 29.82000 30.25100
O  50.85000 30.87700 30.57000
C  49.64700 28.85300 31.29200
C  50.64000 28.66400 32.31600
O  51.52600 27.82500 32.25100
O  50.38200 29.37400 33.43600
C  51.20800 29.03900 34.65200
H  47.23300 22.53100 30.99500
H  48.33000 22.45700 24.56600
H  50.31200 28.37600 24.86400
H  49.45700 26.01900 32.87600
H  46.88500 24.54000 32.63100
H  49.44900 24.10100 33.67300
H  49.44300 22.89700 32.40700
H  48.20600 22.91700 33.72500
H  47.02200 27.59900 32.49900
H  48.32100 27.83900 33.71700
H  46.90400 25.76600 34.71000
H  45.68700 26.61100 33.84100
H  47.03400 19.48700 29.18600
H  45.45900 19.99000 28.92000
H  46.23700 20.74000 30.30000
H  46.97900 18.54200 27.11600
H  46.07300 18.49300 25.45800
H  45.31600 19.11600 26.93700
H  48.70900 24.05700 22.88600
H  50.60200 26.31800 23.15300
H  51.24600 23.18400 23.90500
H  51.53800 24.52000 22.68600
H  50.54100 23.10800 22.31300
H  48.05900 27.56200 23.50900
H  47.80500 26.23800 22.37700
H  48.89500 28.72800 21.75900
H  48.93400 27.31000 20.61000
H  50.25800 27.62200 21.70700
H  52.18400 29.76100 26.32600
H  52.05300 30.80700 27.74000
H  51.08800 31.16900 26.44100
H  48.87700 29.50200 31.71000
H  50.75100 28.15000 35.08600
H  51.12700 29.89300 35.32400
H  52.25900 28.88800 34.40600

