158

Mg 2.77700 -0.51000 43.32700
C  6.15000 -0.15400 42.21500
C  2.13400 2.51600 41.75700
C  -0.56400 -1.33000 43.22600
C  3.52800 -3.39000 44.69000
N  3.99900 0.91300 41.93100
C  5.36600 0.90100 41.71800
C  5.76200 2.06200 40.82500
C  4.66800 3.11000 41.23400
C  3.49700 2.13600 41.66300
C  5.02100 4.14000 42.32600
C  5.80900 1.69500 39.30800
C  6.98800 2.21600 38.40100
H  6.50800 2.49900 36.98200
N  0.97200 0.54500 42.71100
C  0.93400 1.76200 42.11200
C  -0.44900 2.06600 41.86500
C  -1.28500 0.96700 42.18600
C  -0.28100 -0.00800 42.77500
C  -0.78600 3.32800 41.31000
C  -2.77100 0.84300 41.95100
O  -3.45500 1.66800 41.27300
C  -3.55700 -0.32400 42.42300
N  1.62300 -2.06700 43.90000
C  0.28700 -2.13100 43.91500
C  -0.17000 -3.47100 44.56700
C  1.07600 -4.02000 45.29600
C  2.13100 -3.12700 44.61200
C  -1.36000 -3.15100 45.63400
C  1.29100 -5.58600 45.24500
C  1.34300 -6.20000 46.63000
N  4.49600 -1.68100 43.42200
C  4.64000 -2.83000 44.12600
C  6.04800 -3.19400 43.99200
C  6.71000 -2.23500 43.21700
C  5.70300 -1.29800 42.93400
C  6.80600 -4.34600 44.51600
C  7.96100 -1.73300 42.59700
O  9.12800 -2.12600 42.59000
C  7.60500 -0.38100 41.94400
C  8.57400 0.71800 42.42700
O  8.90500 0.96200 43.59200
O  9.01500 1.40700 41.35300
C  9.90900 2.58700 41.55400
H  2.07400 3.56800 41.47000
H  -1.55700 -1.75900 43.08000
H  3.85200 -4.20400 45.34200
H  6.71600 2.56200 40.98900
H  4.51000 3.67400 40.31400
H  4.18800 4.20700 43.02600
H  5.13500 5.18200 42.02600
H  5.92200 3.83000 42.85500
H  4.96800 2.13400 38.77100
H  5.63300 0.64100 39.09100
H  7.83300 1.53500 38.30800
H  7.28500 3.16200 38.85500
H  -0.60100 3.43400 40.24100
H  -0.20600 4.09900 41.81800
H  -1.80400 3.58300 41.60500
H  -4.61200 -0.05300 42.41400
H  -3.27800 -0.71200 43.40300
H  -3.33100 -1.11600 41.70900
H  -0.54800 -4.13200 43.78700
H  1.03600 -3.70600 46.33900
H  -1.05100 -3.41300 46.64600
H  -2.23500 -3.65500 45.22200
H  -1.70800 -2.11900 45.61300
H  2.19400 -5.89900 44.72100
H  0.51100 -6.14800 44.73200
H  0.83100 -7.16100 46.68800
H  1.12600 -5.52400 47.45600
H  2.38000 -6.48900 46.80200
H  7.20700 -4.87500 43.65200
H  6.14300 -4.94900 45.13600
H  7.57400 -4.00600 45.21100
H  7.80900 -0.39400 40.87400
H  9.57000 3.32300 40.82500
H  10.98200 2.43500 41.43800
H  9.75800 3.02200 42.54200
Mg 45.40200 3.46500 48.25400
C  43.14400 6.02200 47.16900
C  42.71300 1.18700 47.57400
C  47.56000 0.90600 48.54200
C  48.05900 5.77700 47.96600
N  43.28400 3.64200 47.32200
C  42.52200 4.76300 47.02600
C  41.03900 4.46700 46.65700
C  40.92900 2.92300 47.06900
C  42.44600 2.56900 47.34000
C  39.95400 2.77400 48.29000
C  40.59600 4.81000 45.21500
C  39.13800 5.33900 44.87800
H  38.59400 4.93700 43.52900
N  45.17100 1.28700 48.24900
C  44.01600 0.60800 47.95000
C  44.29100 -0.81800 48.19200
C  45.69900 -0.91400 48.47000
C  46.24100 0.47300 48.47300
C  43.29900 -1.93500 48.09100
C  46.42700 -2.20900 48.63200
O  45.82000 -3.27900 48.74000
C  47.89800 -2.26700 48.72900
N  47.49500 3.35700 48.04800
C  48.15300 2.17700 48.26900
C  49.60800 2.43000 48.70400
C  49.87700 3.94500 48.34200
C  48.42500 4.42800 48.18700
C  49.89500 1.99300 50.19100
C  50.68600 4.26200 47.03200
C  52.04800 4.97400 47.24900
N  45.61600 5.55500 47.78700
C  46.75900 6.31600 47.68200
C  46.34500 7.73600 47.41800
C  44.90200 7.64600 47.26600
C  44.52600 6.29400 47.46900
C  47.19400 8.93700 47.21000
C  43.73600 8.43100 46.92300
O  43.68200 9.61300 46.61800
C  42.50900 7.38700 46.84100
C  41.44100 7.77900 47.75600
O  41.27300 7.36300 48.93600
O  40.67600 8.79600 47.22100
C  39.75400 9.37900 48.19300
H  41.87700 0.48300 47.58200
H  48.34800 0.18800 48.77900
H  48.89700 6.47100 48.06400
H  40.43600 5.08800 47.32000
H  40.45000 2.37800 46.25600
H  38.93100 2.96400 47.96600
H  40.13700 3.51700 49.06500
H  40.01700 1.76700 48.70300
H  40.73300 3.87500 44.67100
H  41.38300 5.43400 44.79400
H  39.07600 6.42500 44.80400
H  38.43800 5.06400 45.66700
H  42.36500 -1.51600 47.71600
H  43.21000 -2.35000 49.09500
H  43.53700 -2.68600 47.33800
H  48.11900 -1.85600 47.74400
H  48.15100 -3.32700 48.73200
H  48.29100 -1.79900 49.63100
H  50.21800 1.83800 48.02200
H  50.36100 4.38500 49.21300
H  50.80400 1.41900 50.37300
H  49.06100 1.37500 50.52400
H  49.88500 2.78800 50.93700
H  50.10400 4.94900 46.41700
H  50.89000 3.36000 46.45500
H  52.83000 4.29500 46.90900
H  52.30900 5.19500 48.28400
H  52.26700 5.86700 46.66300
H  47.76200 8.83100 46.28500
H  47.92700 9.05300 48.00800
H  46.55600 9.81700 47.28900
H  42.04300 7.36500 45.85600
H  39.09300 8.66500 48.68600
H  39.00900 10.03300 47.73900
H  40.30500 10.00700 48.89200

