158

Mg 25.31600 1.78000 30.04100
C  27.59200 1.63700 32.94400
C  22.71200 2.18700 32.36500
C  23.33200 1.36300 27.60300
C  28.13600 1.18000 28.07400
N  25.26100 2.00300 32.31900
C  26.25500 1.91900 33.20300
C  25.73800 2.35900 34.65700
C  24.16000 2.39800 34.57600
C  24.02000 2.22000 32.98600
C  23.41400 1.27100 35.40800
C  26.48400 3.71000 35.06000
C  27.02000 3.71300 36.50500
H  26.40700 4.65400 37.55500
N  23.26200 1.94300 29.98000
C  22.33500 2.10500 31.02800
C  21.05700 2.10100 30.54200
C  21.15400 1.80500 29.11900
C  22.59100 1.66200 28.80400
C  19.85900 2.37000 31.38700
C  20.07700 1.58500 28.09800
O  20.24500 1.28300 26.96500
C  18.69300 1.72100 28.46100
N  25.71600 1.50600 28.11800
C  24.66800 1.35800 27.26300
C  25.12400 1.41500 25.67900
C  26.70000 1.59700 25.90500
C  26.89000 1.49600 27.44500
C  24.71400 0.14100 24.90700
C  27.22500 2.98000 25.43700
C  26.66800 3.51800 24.12800
N  27.40600 1.41800 30.37800
C  28.41300 1.14400 29.47600
C  29.63000 0.87600 30.15500
C  29.38000 1.09100 31.50400
C  28.02000 1.41600 31.60000
C  30.92900 0.64500 29.43000
C  29.96600 1.18500 32.82700
O  31.12300 0.99800 33.21800
C  28.82600 1.64200 33.80400
C  28.73200 0.63900 34.88000
O  28.20200 -0.48000 34.92700
O  29.30500 1.18500 36.03700
C  29.15300 0.35700 37.18000
H  22.03300 2.39900 33.19400
H  22.64100 1.33800 26.75800
H  28.93600 1.08700 27.33700
H  25.99000 1.60100 35.39800
H  23.62200 3.30800 34.83800
H  24.14100 0.90100 36.13200
H  23.15700 0.46700 34.71800
H  22.49800 1.60000 35.89800
H  25.74800 4.51100 34.98100
H  27.25400 3.95200 34.32800
H  28.09500 3.88200 36.56500
H  26.81300 2.76600 37.00400
H  19.90600 2.47700 32.47100
H  19.18100 1.52100 31.30100
H  19.30200 3.24800 31.06100
H  18.54700 2.71400 28.88800
H  18.51800 0.92100 29.18000
H  18.11600 1.65100 27.53900
H  24.61500 2.22300 25.15400
H  27.28700 0.83200 25.39700
H  24.13600 0.28900 23.99500
H  23.97200 -0.32500 25.55500
H  25.50200 -0.60200 24.78300
H  28.29400 2.94300 25.23000
H  26.91800 3.63600 26.25100
H  27.36800 4.21900 23.67300
H  25.82500 4.14900 24.40800
H  26.42000 2.75300 23.39200
H  31.52900 0.00600 30.07800
H  31.47100 1.54200 29.13100
H  30.66100 0.04300 28.56200
H  28.90200 2.64300 34.22900
H  30.06800 0.60000 37.72000
H  29.18900 -0.69500 36.89500
H  28.25800 0.61100 37.74800
Mg 27.34600 49.97200 26.34500
C  25.28300 51.06700 29.01300
C  29.56600 48.84600 28.56100
C  29.36700 49.32600 23.62400
C  25.23200 51.79700 24.17200
N  27.41000 50.05400 28.56100
C  26.44300 50.44500 29.41500
C  26.75500 50.01400 30.85800
C  28.30300 49.56300 30.78200
C  28.46500 49.44400 29.21300
C  29.39400 50.50300 31.50000
C  25.71900 48.93000 31.34000
C  25.26500 48.91400 32.83300
H  26.19000 49.66700 33.79400
N  29.11000 49.14900 26.13800
C  29.93700 48.75100 27.20700
C  31.07700 48.09300 26.68400
C  31.05500 48.25200 25.25200
C  29.83900 49.01100 24.95000
C  32.15500 47.44600 27.53600
C  32.23700 47.90100 24.33200
O  32.12000 48.04600 23.10000
C  33.55700 47.44300 24.86400
N  27.33400 50.57500 24.20600
C  28.22100 50.07400 23.30100
C  27.73600 50.27000 21.88700
C  26.23200 50.80500 22.13800
C  26.25000 51.09900 23.59900
C  28.66000 51.18800 21.05300
C  25.20500 49.80400 21.67900
C  24.24800 50.30900 20.55500
N  25.61900 51.23200 26.53000
C  24.87000 51.93200 25.51300
C  23.75200 52.49400 26.08900
C  23.88900 52.21800 27.48700
C  25.01200 51.44800 27.68500
C  22.59000 53.15100 25.33200
C  23.27100 52.44900 28.75600
O  22.22400 53.05500 29.09300
C  24.17500 51.66200 29.90100
C  24.73300 52.72800 30.78400
O  25.80100 53.27200 30.65200
O  23.80400 53.12500 31.71200
C  24.13400 54.33000 32.43900
H  30.28400 48.56800 29.33500
H  30.03600 49.15800 22.77800
H  24.51500 52.27500 23.50000
H  26.69200 50.91300 31.47200
H  28.38800 48.57200 31.22700
H  29.91500 49.90100 32.24500
H  28.82000 51.25600 32.04000
H  30.05800 50.89000 30.72700
H  26.12000 47.94900 31.08400
H  24.83100 49.01200 30.71400
H  25.31700 47.88900 33.20300
H  24.21800 49.21600 32.86300
H  33.05000 48.06200 27.62400
H  32.39100 46.49600 27.05700
H  31.94700 47.31200 28.59800
H  34.20400 47.31100 23.99600
H  33.55000 46.49800 25.40700
H  33.89600 48.31400 25.42400
H  27.76000 49.28200 21.42800
H  26.17500 51.74900 21.59600
H  29.49200 51.61200 21.61500
H  28.09600 52.05900 20.71900
H  29.05000 50.65700 20.18400
H  24.59200 49.52700 22.53600
H  25.59100 48.81100 21.45000
H  24.25500 49.53200 19.79000
H  24.48900 51.23300 20.03000
H  23.25400 50.47600 20.97100
H  21.70700 53.32800 25.94800
H  22.29200 52.34500 24.66300
H  23.01700 53.98200 24.77100
H  23.72200 50.93600 30.57500
H  24.62800 55.07300 31.81300
H  24.76600 54.06800 33.28800
H  23.28100 54.77900 32.94800

