158

Mg 1.74600 -1.71300 44.02200
C  5.02100 -0.76900 43.70700
C  0.75500 1.11000 42.38400
C  -1.42600 -2.73800 44.36700
C  2.92000 -4.92700 45.08400
N  2.82100 -0.19300 42.90100
C  4.11900 0.16200 43.15500
C  4.41800 1.41000 42.42400
C  3.07400 2.13000 42.03900
C  2.11400 0.92800 42.39100
C  2.72400 3.51300 42.70500
C  5.41200 1.20300 41.24000
C  6.46700 2.32200 41.15500
H  6.36300 3.19600 39.90400
N  -0.07700 -0.79300 43.65800
C  -0.28100 0.30700 42.82300
C  -1.64500 0.50500 42.70200
C  -2.35900 -0.56700 43.34700
C  -1.28200 -1.45200 43.80900
C  -2.20000 1.72600 42.01800
C  -3.83400 -0.69100 43.53600
O  -4.63900 0.14400 43.13100
C  -4.54300 -1.97100 44.07400
N  0.92000 -3.55900 44.73900
C  -0.48100 -3.62800 44.81100
C  -0.85800 -5.07000 45.20300
C  0.46900 -5.81900 45.34400
C  1.52300 -4.72700 45.06600
C  -1.54100 -4.92600 46.60700
C  0.67400 -7.03800 44.43300
C  1.21700 -8.30700 45.03900
N  3.59500 -2.79000 44.18100
C  3.87800 -3.99000 44.80500
C  5.32500 -4.05900 44.92500
C  5.85700 -2.82200 44.48200
C  4.73800 -2.06800 44.12600
C  6.07300 -5.33800 45.40300
C  6.99300 -1.96300 44.41300
O  8.13300 -2.23100 44.75000
C  6.47100 -0.53700 43.87700
C  6.86200 0.59600 44.79700
O  6.19100 1.10100 45.67400
O  8.04000 1.09900 44.28800
C  8.14800 2.58600 44.43600
H  0.43900 2.06400 41.95700
H  -2.41400 -3.20100 44.33800
H  3.24300 -5.91800 45.41200
H  4.97900 1.94400 43.19100
H  3.05300 2.38800 40.98000
H  2.36700 4.16500 41.90800
H  3.58500 3.90300 43.24700
H  1.89200 3.50600 43.40800
H  4.75400 1.29500 40.37500
H  6.01800 0.29800 41.26900
H  7.41700 1.79100 41.09200
H  6.57100 2.95300 42.03800
H  -1.62500 2.07800 41.16200
H  -1.95100 2.57800 42.65100
H  -3.25900 1.88600 41.81600
H  -5.62300 -1.86200 43.97300
H  -4.11000 -2.11200 45.06400
H  -4.27500 -2.88400 43.54100
H  -1.54300 -5.58500 44.52900
H  0.52800 -6.17600 46.37300
H  -1.66500 -5.92700 47.02200
H  -2.54700 -4.50500 46.62700
H  -0.88300 -4.31800 47.22600
H  1.34900 -6.84400 43.59900
H  -0.22800 -7.27200 43.86900
H  0.57900 -9.11400 44.67900
H  1.10600 -8.32700 46.12300
H  2.24800 -8.52000 44.75700
H  5.54900 -5.83200 46.22100
H  7.05300 -5.01600 45.75500
H  6.16500 -6.04900 44.58200
H  6.92400 -0.45300 42.88900
H  7.20900 3.13900 44.47000
H  8.71600 3.06800 43.64100
H  8.69100 2.72500 45.37100
Mg -5.34800 25.75800 26.12600
C  -4.33100 27.05200 29.17300
C  -6.96500 23.26700 27.59400
C  -5.90900 24.49200 23.07400
C  -2.87600 27.90500 24.64200
N  -5.37800 25.15800 28.07200
C  -5.10800 25.91900 29.19500
C  -5.68200 25.29800 30.45100
C  -6.17500 23.88200 29.92500
C  -6.15200 24.08400 28.37700
C  -5.33600 22.60400 30.34500
C  -6.85900 26.24200 31.16100
C  -6.62000 26.68500 32.57500
H  -6.15700 25.60900 33.64300
N  -6.34500 24.13000 25.43700
C  -7.13200 23.30400 26.22300
C  -7.94900 22.53600 25.37500
C  -7.60200 22.78000 24.06400
C  -6.53000 23.83300 24.12700
C  -8.99100 21.65100 25.94000
C  -8.12300 22.20100 22.84200
O  -7.60900 22.54500 21.76600
C  -9.25900 21.23500 22.86600
N  -4.52400 26.20700 24.17100
C  -5.01000 25.54400 23.05300
C  -4.04200 25.88300 21.85600
C  -3.40600 27.19400 22.31000
C  -3.58300 27.07400 23.79600
C  -3.06900 24.74600 21.60600
C  -4.10500 28.47100 21.74200
C  -4.34800 28.63200 20.25800
N  -3.93900 27.23700 26.70000
C  -2.99100 28.00300 26.01200
C  -2.29200 28.87100 26.92200
C  -2.80700 28.53900 28.14800
C  -3.74400 27.52600 27.94600
C  -1.33600 29.99200 26.61200
C  -2.80300 28.98100 29.59000
O  -2.10800 29.86000 30.15500
C  -3.80600 27.96300 30.33600
C  -3.04700 27.28300 31.51400
O  -2.44400 26.22400 31.37600
O  -3.08700 28.09700 32.61500
C  -2.37200 27.60500 33.87100
H  -7.55100 22.56000 28.18500
H  -6.15800 24.02000 22.12100
H  -2.18500 28.53400 24.07700
H  -4.93600 25.24600 31.24500
H  -7.19700 23.67200 30.24200
H  -4.54900 23.02600 30.96900
H  -4.84900 22.00000 29.58000
H  -5.90500 21.93500 30.99000
H  -7.82800 25.74200 31.14500
H  -6.82300 27.08300 30.46800
H  -7.58800 27.01100 32.95600
H  -5.86800 27.47000 32.49900
H  -9.94300 22.00400 25.54200
H  -9.07100 21.77700 27.02000
H  -8.77500 20.61900 25.66300
H  -8.82500 20.28700 23.18400
H  -9.71600 20.97900 21.91000
H  -9.97300 21.68200 23.55800
H  -4.67300 25.99700 20.97500
H  -2.33000 27.11300 22.15700
H  -2.14900 25.06900 21.11900
H  -3.57700 24.12200 20.87100
H  -2.86900 24.03200 22.40500
H  -3.42100 29.29000 21.96000
H  -5.07300 28.67100 22.20000
H  -5.33700 29.02300 20.02000
H  -4.03900 27.73000 19.73000
H  -3.69600 29.46700 20.00000
H  -1.64200 30.85300 27.20700
H  -1.37200 30.35700 25.58500
H  -0.28200 29.74700 26.74500
H  -4.56300 28.60500 30.78700
H  -2.99000 27.27100 34.70500
H  -1.81200 28.48500 34.18700
H  -1.69400 26.79700 33.59800

