158

Mg 24.38000 -5.75500 45.50800
C  26.51500 -3.26700 44.30700
C  21.79800 -4.33400 43.87400
C  22.53400 -8.53600 46.10300
C  27.23800 -7.37800 46.87200
N  24.27500 -4.12400 44.06000
C  25.22400 -3.19200 43.75100
C  24.62100 -2.01600 43.02000
C  23.06600 -2.21900 43.23600
C  23.02700 -3.68200 43.70300
C  22.36800 -1.28300 44.30300
C  24.96600 -1.87100 41.50500
C  24.96900 -0.46400 40.93600
H  25.70700 -0.49100 39.53300
N  22.41800 -6.32800 45.08200
C  21.50500 -5.51600 44.43100
C  20.20300 -6.24000 44.49800
C  20.37900 -7.49100 45.11800
C  21.79600 -7.47400 45.52800
C  18.89600 -5.57500 43.93900
C  19.26800 -8.48500 45.24000
O  18.15000 -8.30200 44.80800
C  19.45200 -9.69900 46.15200
N  24.82600 -7.71400 46.27100
C  23.92000 -8.69100 46.38600
C  24.51100 -9.98800 46.94300
C  25.92700 -9.52000 47.42200
C  26.03300 -8.11500 46.75900
C  23.76100 -10.61700 48.13900
C  27.15200 -10.31700 47.01100
C  28.04100 -10.67300 48.21300
N  26.52100 -5.42400 45.64200
C  27.53700 -6.16900 46.29000
C  28.77900 -5.43500 46.21200
C  28.43600 -4.22800 45.45800
C  27.05100 -4.34300 45.09700
C  29.98000 -5.92000 46.79400
C  28.93700 -2.92100 44.89700
O  30.04600 -2.31500 44.94900
C  27.72500 -2.30200 44.03500
C  27.42700 -0.91200 44.59200
O  26.71100 -0.58900 45.50800
O  27.88000 -0.00900 43.67700
C  27.31000 1.36700 43.75000
H  20.89700 -3.83700 43.50900
H  22.01100 -9.40700 46.50300
H  28.02500 -7.89400 47.42600
H  24.88200 -1.13100 43.60000
H  22.41100 -2.14500 42.36800
H  21.48100 -0.87500 43.81600
H  22.92500 -0.46100 44.75200
H  21.98800 -1.78400 45.19300
H  24.19400 -2.34700 40.90000
H  25.89300 -2.37200 41.22600
H  25.54700 0.15000 41.62600
H  23.99300 0.00100 40.79700
H  18.55300 -5.97200 42.98300
H  18.82000 -4.48700 43.92100
H  18.03800 -5.78700 44.57600
H  18.41900 -9.97600 46.36200
H  20.01400 -9.33900 47.01400
H  19.99800 -10.55400 45.75300
H  24.58100 -10.73900 46.15600
H  25.97200 -9.30200 48.48900
H  23.08300 -9.82700 48.46000
H  24.50300 -11.01500 48.83200
H  23.13300 -11.41600 47.74400
H  27.82900 -9.80200 46.32900
H  26.93500 -11.18800 46.39200
H  27.44200 -10.61800 49.12200
H  28.95700 -10.09100 48.10800
H  28.44800 -11.68300 48.16200
H  29.74000 -6.51700 47.67400
H  30.63500 -5.14000 47.18300
H  30.49400 -6.53400 46.05500
H  27.96600 -2.24300 42.97300
H  27.43200 1.94600 42.83400
H  27.72500 1.88400 44.61400
H  26.23200 1.24000 43.85200
Mg 1.36900 42.07100 24.90000
C  3.42200 42.26300 27.81700
C  -1.24000 41.01800 26.82300
C  -0.37400 41.85300 22.12800
C  4.40700 42.31500 23.07600
N  1.14800 41.74300 27.02400
C  2.06700 42.09700 28.02900
C  1.37600 42.15700 29.35100
C  -0.05600 41.69500 29.02300
C  -0.11000 41.49200 27.55800
C  -0.49500 40.50200 29.81500
C  1.53600 43.57600 30.01400
C  1.50500 43.72100 31.55500
H  1.25700 42.64000 32.57500
N  -0.55900 41.58300 24.47700
C  -1.43700 41.07600 25.43900
C  -2.67200 40.62800 24.76800
C  -2.49300 40.93700 23.38000
C  -1.13900 41.50700 23.26400
C  -3.77200 39.88300 25.40200
C  -3.37000 40.73900 22.22600
O  -2.91300 40.80900 21.06700
C  -4.75400 40.44200 22.46500
N  1.84300 42.05800 22.96800
C  0.95300 42.11100 21.89300
C  1.70500 42.25900 20.54400
C  3.05300 42.70300 21.01400
C  3.11900 42.38900 22.48500
C  1.64200 40.92900 19.66500
C  3.36100 44.26900 20.86000
C  3.25600 44.93000 19.45600
N  3.50500 42.24600 25.32400
C  4.60300 42.31800 24.44600
C  5.85500 42.40200 25.18800
C  5.46700 42.39500 26.50200
C  4.04500 42.29500 26.55100
C  7.14500 42.25400 24.39900
C  5.90100 42.45300 27.85100
O  7.03800 42.46400 28.28400
C  4.62100 42.43800 28.78800
C  4.77600 41.53300 29.96700
O  5.08000 40.31700 29.91600
O  4.72100 42.25800 31.16700
C  4.98800 41.42500 32.35800
H  -2.04800 40.62300 27.44300
H  -0.80300 41.84100 21.12400
H  5.25800 42.43000 22.40200
H  1.79400 41.57600 30.17300
H  -0.74700 42.52200 29.18800
H  -1.52400 40.64100 30.14700
H  0.10100 40.39800 30.72100
H  -0.51100 39.52800 29.32600
H  0.78800 44.27800 29.64600
H  2.45400 43.99100 29.59900
H  0.74900 44.44300 31.86500
H  2.47900 44.12800 31.82700
H  -3.49800 39.51700 26.39100
H  -3.96100 38.97100 24.83600
H  -4.68000 40.48400 25.36000
H  -5.14100 41.21500 23.12800
H  -4.72500 39.42500 22.85800
H  -5.36800 40.44000 21.56500
H  1.28900 43.10200 19.99100
H  3.87300 42.24500 20.46200
H  1.19100 40.99200 18.67500
H  1.21700 40.10500 20.23700
H  2.63500 40.50000 19.53000
H  4.41100 44.32300 21.14900
H  2.85900 44.88500 21.60600
H  2.83500 44.26400 18.70300
H  4.20600 45.16100 18.97400
H  2.78300 45.91200 19.45800
H  7.01800 41.84900 23.39500
H  7.78300 41.63300 25.02700
H  7.74500 43.16300 24.35300
H  4.52600 43.47300 29.11500
H  5.79900 40.70200 32.26600
H  4.11700 40.84800 32.67000
H  5.25000 42.04000 33.21900

