158

Mg -1.65400 16.96900 27.02900
C  -2.08600 14.79100 29.85100
C  -2.48400 19.59800 29.20500
C  -1.67500 19.10200 24.48700
C  -1.98800 14.28900 24.96400
N  -2.34200 17.14500 29.24400
C  -2.30800 16.12900 30.22500
C  -2.67100 16.68100 31.71900
C  -2.89000 18.22500 31.39900
C  -2.57800 18.31900 29.86100
C  -4.30500 18.70300 31.94000
C  -1.56900 16.38300 32.73000
C  -1.50100 17.41000 33.85400
H  -1.13700 16.79100 35.23700
N  -1.86500 18.99100 26.88200
C  -2.16400 19.90300 27.93400
C  -2.12400 21.28000 27.45800
C  -1.76600 21.11100 26.04500
C  -1.75100 19.67800 25.72700
C  -2.21200 22.49900 28.35900
C  -1.43700 22.16700 25.04600
O  -1.27800 21.97900 23.82700
C  -1.10600 23.53000 25.51700
N  -1.73100 16.73800 25.00000
C  -1.81300 17.77500 24.10500
C  -1.88800 17.27600 22.61900
C  -2.16400 15.73800 22.82800
C  -1.95100 15.56100 24.38100
C  -2.94500 17.92000 21.79400
C  -1.15000 14.80700 22.06800
C  0.36000 14.93100 22.64400
N  -1.76400 14.94100 27.28600
C  -1.88700 13.95400 26.32900
C  -1.94700 12.64000 26.97000
C  -1.95200 12.92900 28.36200
C  -1.87700 14.32500 28.45500
C  -2.17500 11.22700 26.30900
C  -2.03300 12.32600 29.62800
O  -2.10900 11.16000 29.96800
C  -2.10400 13.53600 30.63900
C  -0.91500 13.42300 31.53200
O  0.18700 13.92600 31.40200
O  -1.18900 12.57300 32.57700
C  -0.26600 12.48300 33.72600
H  -2.65500 20.45200 29.86300
H  -1.66900 19.82100 23.66500
H  -2.27000 13.40400 24.39000
H  -3.52800 16.14000 32.11900
H  -2.10100 18.82100 31.85700
H  -5.07000 18.85800 31.17900
H  -4.23600 19.59500 32.56300
H  -4.74700 17.92900 32.56700
H  -0.56900 16.35200 32.29900
H  -1.84900 15.41300 33.14000
H  -2.42400 17.98900 33.89200
H  -0.69000 18.09600 33.60800
H  -1.26100 23.02600 28.43700
H  -2.70700 22.38800 29.32300
H  -2.77000 23.24400 27.79100
H  -0.70200 24.14900 24.71600
H  -0.38100 23.51100 26.33000
H  -2.05400 24.03200 25.71300
H  -0.93200 17.49700 22.14300
H  -3.15200 15.40400 22.51400
H  -3.65800 18.40500 22.46000
H  -3.53000 17.18400 21.24300
H  -2.66600 18.60400 20.99300
H  -1.07700 15.04800 21.00800
H  -1.54900 13.79300 22.10400
H  1.13300 15.00200 21.87900
H  0.45300 14.10700 23.35100
H  0.43200 15.90200 23.13400
H  -2.66400 11.27600 25.33600
H  -2.95300 10.83300 26.96300
H  -1.38000 10.48400 26.24300
H  -3.08600 13.42100 31.09700
H  -1.02500 12.46300 34.50900
H  0.21600 13.46000 33.77000
H  0.41200 11.63100 33.78400
Mg 41.70400 41.64800 26.98300
C  41.21700 43.96200 29.42900
C  43.17200 39.44500 29.45400
C  42.24900 39.31100 24.64100
C  41.03600 44.01900 24.51000
N  42.07100 41.67600 29.13400
C  41.69800 42.74200 29.94600
C  41.88500 42.39600 31.42700
C  42.78100 41.10800 31.39300
C  42.60500 40.66800 29.94200
C  44.32800 41.24100 31.78300
C  40.49900 42.30300 32.18000
C  40.32100 43.12800 33.45500
H  39.76800 42.36600 34.64900
N  42.59300 39.68400 26.98900
C  43.10900 38.95600 28.09400
C  43.57500 37.60600 27.62800
C  43.16900 37.49700 26.21200
C  42.61100 38.90100 25.89200
C  44.10000 36.47500 28.51800
C  43.28700 36.31900 25.26700
O  43.03000 36.44400 24.10600
C  43.89400 35.05000 25.66000
N  42.05100 41.79800 24.83500
C  42.07700 40.65200 24.09600
C  41.66500 40.93700 22.58700
C  41.42100 42.43900 22.54500
C  41.51400 42.81700 24.03600
C  42.82300 40.43900 21.61300
C  40.18700 42.87200 21.77200
C  40.21600 44.08400 20.88700
N  41.20700 43.67200 26.86900
C  40.77600 44.43900 25.86600
C  40.35200 45.70000 26.43100
C  40.45000 45.51900 27.81400
C  41.05700 44.30300 28.03800
C  39.87500 46.83100 25.59500
C  40.22900 46.16500 29.08800
O  39.64000 47.22900 29.36400
C  40.69100 45.16800 30.18200
C  41.72400 45.80000 31.01300
O  42.74400 46.23000 30.52600
O  41.37000 45.86200 32.33900
C  42.21800 46.70500 33.23500
H  43.61200 38.79300 30.21100
H  42.21100 38.51600 23.89400
H  40.82800 44.76600 23.74200
H  42.42800 43.17000 31.96900
H  42.26100 40.38500 32.02300
H  44.50800 42.24300 32.17100
H  44.93600 41.10100 30.88900
H  44.62400 40.62400 32.63200
H  40.27900 41.27300 32.46200
H  39.74500 42.62900 31.46300
H  39.65300 43.97100 33.27800
H  41.26100 43.59600 33.74700
H  45.11400 36.22000 28.20900
H  43.44400 35.61100 28.41300
H  44.16700 36.78500 29.56100
H  43.19900 34.54400 26.33000
H  44.79200 35.27700 26.23500
H  44.22400 34.37600 24.86900
H  40.72200 40.45500 22.33200
H  42.35500 42.89700 22.22100
H  43.61100 41.14500 21.35200
H  42.35000 40.22300 20.65500
H  43.18000 39.48100 21.99300
H  39.41800 42.96900 22.53800
H  39.73800 42.13000 21.11100
H  39.97200 43.85500 19.84900
H  41.24700 44.43400 20.84800
H  39.38500 44.72000 21.19200
H  40.27300 46.83000 24.58000
H  40.06600 47.76100 26.13000
H  38.79300 46.71200 25.53700
H  39.84600 44.97600 30.84300
H  43.20500 46.93400 32.83400
H  42.23500 46.16400 34.18100
H  41.70000 47.65800 33.35200

