158

Mg 25.81700 -0.39300 29.98000
C  27.57900 -0.32700 32.84400
C  22.89300 0.25800 31.63400
C  24.12700 -0.41900 26.90200
C  28.81400 -1.12200 28.09700
N  25.31300 -0.02300 31.96300
C  26.21600 -0.05400 33.08000
C  25.60900 0.31400 34.38700
C  24.12400 0.54400 33.97300
C  24.07600 0.18700 32.41200
C  23.02100 -0.18900 34.79700
C  26.30500 1.56200 35.12900
C  26.82700 1.25600 36.56800
H  26.55200 2.39800 37.57300
N  23.72300 -0.19000 29.36000
C  22.68500 0.17000 30.19800
C  21.48800 0.32000 29.43100
C  21.81500 -0.04300 28.09900
C  23.26300 -0.30000 28.06700
C  20.12400 0.75700 30.04900
C  20.87400 -0.02900 26.78200
O  21.31300 -0.17200 25.68400
C  19.44100 0.27600 26.89900
N  26.39000 -0.74800 27.84600
C  25.53600 -0.54100 26.81000
C  26.21600 -0.50800 25.43500
C  27.72300 -0.59400 25.80500
C  27.65000 -0.89400 27.33900
C  25.68700 -1.61600 24.46000
C  28.56900 0.59400 25.38500
C  27.95100 1.96400 25.07700
N  27.72400 -0.71000 30.34700
C  28.86800 -1.05300 29.50900
C  30.06300 -1.08500 30.44600
C  29.57100 -0.79400 31.68400
C  28.16900 -0.60500 31.57900
C  31.50200 -1.41000 30.10200
C  30.03700 -0.67200 33.09900
O  31.19100 -0.72700 33.48600
C  28.75900 -0.36600 33.89400
C  28.62000 -1.46300 34.87500
O  27.71300 -2.25400 34.93300
O  29.62700 -1.35200 35.81100
C  29.45000 -1.99700 37.11400
H  22.01000 0.53800 32.21300
H  23.61600 -0.16200 25.97200
H  29.84200 -1.21900 27.74300
H  25.70000 -0.52900 35.07100
H  23.89500 1.60700 34.03600
H  23.40500 -0.35900 35.80300
H  22.80500 -1.15300 34.33600
H  22.09700 0.37100 34.93900
H  25.59000 2.37500 35.25700
H  27.09100 2.02400 34.53000
H  27.91600 1.21100 36.58500
H  26.53400 0.25200 36.87700
H  19.24200 0.18100 29.76900
H  19.89300 1.77300 29.72700
H  20.18500 0.84400 31.13400
H  18.89500 -0.46100 27.48700
H  19.12300 0.55600 25.89500
H  19.37700 1.21200 27.45400
H  25.97200 0.41700 24.91200
H  28.22200 -1.45500 25.36000
H  25.50600 -2.59600 24.90200
H  26.47300 -1.68100 23.70800
H  24.79300 -1.22400 23.97500
H  29.04300 0.32900 24.44000
H  29.38500 0.75900 26.08900
H  28.20000 2.36500 24.09500
H  28.41700 2.69600 25.73700
H  26.86800 2.05000 25.15500
H  31.52400 -1.90200 29.13000
H  31.91700 -2.21400 30.71000
H  32.07600 -0.48400 30.06600
H  28.94100 0.55100 34.45400
H  29.48700 -3.08600 37.07800
H  28.60800 -1.64900 37.71200
H  30.27800 -1.76200 37.78300
Mg 7.23800 54.11600 40.64400
C  6.67900 50.55400 40.52400
C  10.42100 53.55700 39.72500
C  7.34900 57.20400 39.79000
C  3.55300 54.49800 41.28900
N  8.39100 52.28200 40.31000
C  8.00900 50.96200 40.33900
C  9.20300 49.99400 40.02900
C  10.40800 51.01700 40.04200
C  9.72100 52.37700 40.07100
C  11.44000 50.87200 41.20600
C  9.20100 49.11200 38.76700
C  9.02500 49.92900 37.51100
H  7.65000 50.01900 36.76200
N  8.68800 55.20300 39.86600
C  9.92200 54.80300 39.61600
C  10.67100 55.95400 39.11400
C  9.88100 57.09700 39.13500
C  8.56100 56.51900 39.61500
C  12.08700 55.83600 38.69900
C  10.17800 58.63000 38.82300
O  11.23900 58.89800 38.34700
C  9.16900 59.76100 38.81800
N  5.57300 55.66200 40.46500
C  6.03000 56.85700 40.25300
C  4.90500 57.93600 40.52500
C  3.62600 57.04300 40.84700
C  4.32100 55.63900 40.95400
C  5.34000 58.97300 41.57300
C  2.52100 57.03100 39.75300
C  2.04400 58.34200 39.23700
N  5.49100 52.90500 40.93700
C  4.08000 53.20400 41.19900
C  3.43800 51.91400 41.55300
C  4.39600 50.97400 41.17000
C  5.63200 51.55600 40.88700
C  2.04000 51.64700 41.86300
C  4.56200 49.55900 41.08000
O  3.75100 48.70000 41.28400
C  6.04400 49.17000 40.68500
C  6.00300 48.27800 39.41600
O  5.54300 48.63000 38.33600
O  6.50400 47.03300 39.69800
C  6.44600 46.02200 38.66600
H  11.45300 53.43300 39.39100
H  7.31600 58.29500 39.75700
H  2.49500 54.58300 41.54500
H  9.26000 49.31400 40.87900
H  10.90700 50.83500 39.09000
H  11.63700 51.82800 41.69200
H  12.32100 50.44700 40.72500
H  10.96800 50.26900 41.98200
H  8.42600 48.34900 38.83500
H  10.12300 48.53000 38.75900
H  9.82500 49.59500 36.85000
H  9.13100 50.99700 37.69900
H  12.35800 54.93700 38.14600
H  12.70200 55.87000 39.59900
H  12.38900 56.61700 38.00200
H  8.43700 59.44200 38.07700
H  9.42100 60.76100 38.46500
H  8.65100 60.00500 39.74600
H  4.76800 58.37500 39.53700
H  3.33500 57.33000 41.85700
H  5.68400 59.88000 41.07500
H  6.17100 58.61000 42.17600
H  4.50900 59.21800 42.23400
H  1.65400 56.42400 40.01100
H  3.13000 56.47400 39.04100
H  2.55300 59.20600 39.66600
H  0.96400 58.48800 39.27200
H  2.26500 58.32700 38.17000
H  1.56400 51.39700 40.91500
H  1.49500 52.47900 42.31000
H  1.95000 50.74100 42.46200
H  6.53700 48.66500 41.51500
H  6.94500 45.14600 39.07900
H  7.00300 46.25500 37.75900
H  5.39200 45.83300 38.46300

