158

Mg 25.11600 1.43000 29.35100
C  27.40600 1.34300 32.00100
C  22.63900 1.38800 31.57200
C  22.85800 1.68100 26.82100
C  27.71500 0.95600 27.14100
N  25.15400 1.52500 31.54400
C  26.07600 1.50000 32.43400
C  25.60100 1.54900 33.93100
C  24.12200 1.39900 33.70000
C  23.88700 1.46700 32.15600
C  23.40900 0.27000 34.49500
C  26.18100 2.67600 34.77100
C  25.21500 3.21500 35.86000
H  25.98900 3.68100 37.05000
N  23.00900 1.48300 29.23600
C  22.17000 1.44500 30.26100
C  20.77900 1.42200 29.76600
C  20.81700 1.58100 28.38900
C  22.22000 1.70500 28.06300
C  19.56500 1.35900 30.67000
C  19.68500 1.62900 27.39900
O  19.97100 1.78400 26.24700
C  18.15600 1.44600 27.71200
N  25.28100 1.28000 27.35600
C  24.23800 1.57500 26.51600
C  24.70600 1.67100 25.01900
C  26.24000 1.57800 25.19200
C  26.44600 1.25000 26.63700
C  24.02600 0.62100 23.99500
C  27.12200 2.64900 24.56400
C  27.34800 3.99400 25.40100
N  27.15500 1.15900 29.48100
C  28.10700 1.03400 28.49400
C  29.38200 0.85800 29.06900
C  29.19300 1.05700 30.42200
C  27.78000 1.19100 30.65400
C  30.56500 0.45200 28.28000
C  29.78000 1.14500 31.72200
O  30.95300 0.87300 31.97700
C  28.66800 1.29900 32.79000
C  28.76700 0.16700 33.84300
O  28.16000 -0.87200 33.69400
O  29.47800 0.59100 34.92900
C  29.52300 -0.35800 36.07400
H  21.82400 1.30500 32.29400
H  22.26900 1.60600 25.90400
H  28.41000 0.97300 26.29800
H  25.97600 0.62400 34.37000
H  23.53200 2.24200 34.06000
H  22.81200 0.72700 35.28400
H  24.18800 -0.36400 34.91800
H  22.75700 -0.31500 33.84700
H  26.41300 3.46000 34.05100
H  27.17500 2.49700 35.17900
H  24.46800 2.49000 36.18200
H  24.61700 4.07300 35.55300
H  19.20000 2.35500 30.92000
H  19.96000 0.88100 31.56700
H  18.77900 0.72700 30.25800
H  17.99100 0.48800 28.20500
H  17.56300 1.57500 26.80700
H  17.96400 2.24900 28.42400
H  24.62900 2.69500 24.65200
H  26.54800 0.61700 24.77900
H  24.87800 0.09600 23.56400
H  23.42400 1.22500 23.31700
H  23.39600 -0.08900 24.53100
H  26.58300 2.94900 23.66500
H  28.14500 2.32800 24.37000
H  26.87700 3.85800 26.37500
H  26.81900 4.76600 24.84100
H  28.38000 4.27000 25.61700
H  31.17700 1.35300 28.26900
H  30.39400 0.04500 27.28300
H  31.13200 -0.35600 28.74400
H  28.71900 2.27000 33.28100
H  29.64200 -1.37100 35.68900
H  28.63600 -0.23600 36.69500
H  30.36600 -0.18500 36.74300
Mg -12.37900 17.03100 42.24100
C  -9.24900 15.36700 42.08400
C  -10.73200 19.77000 40.90700
C  -15.34200 18.07300 41.42700
C  -13.73400 13.99100 43.46500
N  -10.20600 17.48000 41.58600
C  -9.09400 16.66000 41.53100
C  -7.80300 17.40600 41.15700
C  -8.36200 18.89700 41.11500
C  -9.86100 18.78800 41.15500
C  -7.80800 19.72600 42.22900
C  -7.23100 16.88600 39.84400
C  -5.72900 16.63700 39.86000
H  -5.25100 15.34600 39.18700
N  -12.95500 18.77600 41.39200
C  -12.12600 19.79500 40.97100
C  -13.05300 20.79200 40.36500
C  -14.36400 20.42200 40.58800
C  -14.30500 19.06600 41.21700
C  -12.59200 22.06700 39.55500
C  -15.58100 21.10400 40.08000
O  -15.54800 22.21800 39.49200
C  -16.93900 20.59000 40.37000
N  -14.21800 16.20300 42.54500
C  -15.34500 16.87700 42.14000
C  -16.64400 16.21300 42.58900
C  -16.16100 14.82300 43.17500
C  -14.58600 15.01600 43.05100
C  -17.46900 17.01100 43.56800
C  -16.66800 13.55200 42.47600
C  -17.67100 12.60800 43.20200
N  -11.69700 15.14600 42.70700
C  -12.33500 14.03800 43.25300
C  -11.34200 13.00700 43.61500
C  -10.15800 13.53700 43.18800
C  -10.42200 14.79100 42.61600
C  -11.63800 11.61600 44.17100
C  -8.81800 13.25000 43.09400
O  -8.18500 12.25400 43.45300
C  -8.16100 14.38300 42.36900
C  -7.08100 14.96300 43.31700
O  -7.41800 15.52800 44.31800
O  -5.86900 14.82300 42.81100
C  -4.77000 15.41400 43.65300
H  -10.29000 20.69500 40.53200
H  -16.33000 18.26200 41.00100
H  -14.07800 13.04900 43.89800
H  -7.00600 17.19500 41.87000
H  -8.14300 19.52200 40.24900
H  -7.35100 19.11200 43.00500
H  -8.65900 20.16100 42.75300
H  -7.13900 20.50100 41.85300
H  -7.41000 17.59800 39.03900
H  -7.76900 15.97100 39.59400
H  -5.36000 16.57900 40.88300
H  -5.31400 17.50900 39.35500
H  -13.04500 22.10700 38.56400
H  -11.50600 22.06600 39.46100
H  -12.76500 22.99200 40.10500
H  -17.73300 21.33600 40.33200
H  -16.80200 20.32100 41.41700
H  -17.13500 19.78600 39.66000
H  -17.23500 15.99000 41.70100
H  -16.39400 14.72300 44.23500
H  -17.55600 16.58500 44.56700
H  -18.43800 17.11700 43.07900
H  -17.05800 18.01200 43.70100
H  -15.75700 12.98700 42.27900
H  -17.10800 13.86500 41.53000
H  -17.14900 11.65600 43.28900
H  -18.51800 12.55300 42.51800
H  -17.84000 13.11700 44.15200
H  -11.96900 11.80400 45.19300
H  -10.71200 11.04200 44.14100
H  -12.41800 11.04600 43.66700
H  -7.74500 13.93100 41.46900
H  -5.16000 15.73300 44.62000
H  -4.34100 16.29200 43.17100
H  -3.96400 14.68500 43.73800

