158

Mg 9.05100 47.72300 27.43000
C  6.85800 47.57100 30.10900
C  11.66200 48.44300 29.65800
C  11.02800 48.12400 24.79400
C  6.27600 47.86100 25.23800
N  9.21200 47.95800 29.67700
C  8.19200 47.77900 30.58900
C  8.77300 47.74800 32.02200
C  10.27500 48.11400 31.85600
C  10.41400 48.20100 30.32400
C  10.65800 49.53900 32.49700
C  8.47900 46.34700 32.63900
C  9.34800 45.85300 33.79100
H  8.66700 45.40200 35.07700
N  11.07500 48.13900 27.24300
C  11.99400 48.34200 28.24500
C  13.30300 48.48500 27.62800
C  13.14900 48.25500 26.21900
C  11.68600 48.04800 26.05800
C  14.52800 48.84900 28.42600
C  14.15400 48.14900 25.16700
O  13.83000 48.07900 23.96500
C  15.56900 48.20700 25.47900
N  8.68800 48.17300 25.25800
C  9.64800 48.18500 24.43500
C  9.13100 48.31600 22.95400
C  7.59400 48.27600 23.12200
C  7.49600 48.00100 24.58900
C  9.60100 49.55100 22.19800
C  6.79900 47.29100 22.19700
C  7.42500 46.55300 21.00200
N  7.01300 47.60300 27.58900
C  6.01300 47.64500 26.61800
C  4.71000 47.50900 27.21300
C  4.95200 47.48300 28.60400
C  6.35600 47.57300 28.75200
C  3.31800 47.56200 26.45600
C  4.40200 47.43500 29.97900
O  3.23900 47.31900 30.34400
C  5.59800 47.45600 31.01200
C  5.46900 46.18800 31.67900
O  5.95900 45.11700 31.26100
O  4.71700 46.25200 32.84600
C  4.69000 45.07000 33.68000
H  12.54000 48.64300 30.27600
H  11.60400 48.13300 23.86600
H  5.31500 47.71600 24.74000
H  8.17500 48.33200 32.72200
H  10.80500 47.22700 32.20200
H  11.69700 49.48300 32.82100
H  9.98000 49.78100 33.31500
H  10.60900 50.31800 31.73700
H  8.39900 45.57800 31.87100
H  7.50300 46.56900 33.07100
H  10.06900 46.63300 34.03200
H  9.86600 44.96500 33.42800
H  15.25400 48.06400 28.63500
H  14.30100 49.32000 29.38300
H  15.09200 49.56300 27.82600
H  16.09400 48.05800 24.53500
H  15.79000 47.55800 26.32600
H  15.73700 49.24500 25.76700
H  9.49700 47.46500 22.37900
H  7.16900 49.26800 22.96900
H  10.03500 50.23300 22.93000
H  8.73000 49.98400 21.70700
H  10.37200 49.20900 21.50700
H  6.01100 47.95400 21.84200
H  6.40400 46.47300 22.79900
H  6.78500 46.53100 20.11900
H  7.59200 45.51600 21.29200
H  8.39300 46.94500 20.69100
H  2.94200 46.56600 26.22400
H  3.35300 48.08500 25.50000
H  2.54800 48.07500 27.03200
H  5.46900 48.29200 31.69900
H  4.81900 45.44100 34.69600
H  5.48800 44.34500 33.51900
H  3.68400 44.68800 33.50100
Mg -2.32800 34.91100 25.62000
C  -3.69900 33.12200 28.24800
C  -0.85600 37.11900 27.99400
C  -1.77000 37.13400 23.32900
C  -4.35300 33.07500 23.47900
N  -2.25900 35.17000 27.88100
C  -2.79400 34.11800 28.68100
C  -2.47100 34.41000 30.21000
C  -1.50000 35.64500 30.13700
C  -1.54900 36.08000 28.59600
C  -1.71200 36.79100 31.11800
C  -1.80300 33.12000 30.87700
C  -2.34700 32.68100 32.23300
H  -1.52000 32.84800 33.52400
N  -1.32900 36.72800 25.63700
C  -0.71200 37.44300 26.66200
C  0.06200 38.49800 26.13200
C  -0.05300 38.45900 24.72200
C  -1.10700 37.47100 24.49700
C  0.84100 39.45100 27.05900
C  0.61100 39.35500 23.68400
O  0.22600 39.45200 22.51500
C  1.80600 40.20600 24.13700
N  -2.92700 35.05000 23.70700
C  -2.61300 36.09000 22.94000
C  -3.21500 36.07400 21.50100
C  -3.75800 34.60300 21.45800
C  -3.60600 34.17900 22.93500
C  -4.30300 37.12500 21.30200
C  -3.02400 33.75100 20.42600
C  -1.61700 33.26000 20.79500
N  -3.72700 33.38600 25.76500
C  -4.40400 32.67400 24.79300
C  -5.22400 31.63800 25.41900
C  -4.96300 31.74500 26.80900
C  -4.08400 32.85100 26.96900
C  -6.19300 30.71300 24.74400
C  -5.33600 31.21000 28.10400
O  -6.07700 30.29600 28.45800
C  -4.52500 32.14900 29.08000
C  -5.49300 32.82800 29.91400
O  -6.17300 33.82300 29.65500
O  -5.51100 32.03200 31.06500
C  -6.27500 32.56000 32.23700
H  -0.32400 37.66000 28.77900
H  -1.66600 37.89900 22.55600
H  -5.13400 32.62800 22.86100
H  -3.39500 34.79100 30.64600
H  -0.49900 35.27700 30.35900
H  -2.36000 36.43300 31.91800
H  -2.02200 37.66600 30.54700
H  -0.73200 37.12700 31.45700
H  -0.74000 33.29500 31.03900
H  -1.72100 32.24100 30.23800
H  -2.61100 31.62500 32.16300
H  -3.24600 33.23100 32.51200
H  0.67600 40.46900 26.70600
H  1.88400 39.14700 27.15500
H  0.36400 39.38900 28.03700
H  1.44800 41.13700 24.57700
H  2.28900 40.51700 23.21000
H  2.48600 39.66300 24.79300
H  -2.48800 36.36200 20.74200
H  -4.80200 34.53700 21.15200
H  -4.60600 37.61300 22.22800
H  -5.01100 36.66000 20.61600
H  -3.84300 37.87500 20.65900
H  -2.88000 34.41700 19.57500
H  -3.67900 32.92900 20.13700
H  -1.24300 33.53300 21.78100
H  -0.94200 33.81700 20.14400
H  -1.49100 32.18400 20.67200
H  -6.08100 29.74400 25.23100
H  -5.99100 30.56400 23.68400
H  -7.18600 31.09600 24.97800
H  -3.84300 31.42900 29.53300
H  -6.58400 33.57400 31.98300
H  -5.87200 32.46600 33.24500
H  -7.20400 31.98900 32.22500

