158

Mg 17.40800 51.01000 26.20700
C  19.03500 49.61000 28.89600
C  14.99800 52.14100 28.26800
C  15.60300 52.04900 23.43100
C  19.71400 49.51100 24.07900
N  17.00100 50.75500 28.34600
C  17.87800 50.28400 29.26800
C  17.38300 50.71800 30.62900
C  15.99000 51.27900 30.34900
C  15.99500 51.42200 28.92900
C  14.81300 50.53600 30.99400
C  18.46500 51.73300 31.27100
C  18.18900 52.28100 32.69800
H  17.28800 51.39300 33.60000
N  15.68000 52.09000 25.93000
C  14.82900 52.38900 26.92700
C  13.71000 53.21700 26.38100
C  13.86800 53.15200 24.96600
C  15.11400 52.41900 24.72700
C  12.58800 53.79800 27.20900
C  12.79600 53.68000 23.87500
O  12.96900 53.63300 22.64200
C  11.55100 54.28100 24.33800
N  17.58200 50.89100 24.05400
C  16.73100 51.33100 23.16500
C  17.17600 51.10800 21.74100
C  18.57300 50.34900 21.96200
C  18.64800 50.25700 23.49900
C  16.25600 50.25300 20.87700
C  19.83700 51.07100 21.33200
C  20.70200 52.03700 22.15600
N  19.07700 49.82700 26.40200
C  19.93100 49.28300 25.44800
C  20.94100 48.49300 26.05900
C  20.66300 48.57900 27.45800
C  19.50800 49.40400 27.58100
C  21.89900 47.63400 25.31600
C  21.01600 48.16300 28.79300
O  21.82000 47.37100 29.22200
C  20.08500 48.95200 29.75700
C  19.52200 48.12600 30.77800
O  18.62300 47.28000 30.70800
O  20.03400 48.44500 31.94700
C  19.58500 47.71700 33.09600
H  14.25900 52.51000 28.98200
H  14.95400 52.24000 22.57400
H  20.51500 49.09000 23.46800
H  17.26500 49.79500 31.19700
H  16.01900 52.33800 30.60700
H  14.97900 50.47200 32.06900
H  14.65700 49.52500 30.61900
H  13.87600 51.09300 30.97300
H  18.44700 52.58500 30.59100
H  19.46700 51.33900 31.10400
H  17.90700 53.31600 32.50400
H  19.16900 52.31500 33.17300
H  12.66200 53.66300 28.28800
H  11.58600 53.44700 26.96500
H  12.65600 54.84500 26.91400
H  11.85700 55.06200 25.03300
H  11.02200 53.54800 24.94600
H  10.95200 54.59500 23.48300
H  17.33400 52.08200 21.27700
H  18.48700 49.30700 21.65400
H  16.78400 49.60100 20.18100
H  15.51500 50.90400 20.41300
H  15.92200 49.56500 21.65300
H  19.38700 51.54000 20.45600
H  20.57300 50.36800 20.94200
H  20.99500 52.87900 21.53000
H  21.51000 51.51500 22.66900
H  20.11500 52.55100 22.91800
H  21.48700 47.04300 24.49700
H  22.44000 46.88100 25.89000
H  22.51600 48.43800 24.91500
H  20.58900 49.74300 30.31100
H  19.79500 46.65800 32.94500
H  18.52000 47.78300 33.31600
H  20.11700 48.07100 33.97900
Mg -11.63200 38.07700 42.34900
C  -9.35300 35.48700 41.37500
C  -9.54200 40.28400 40.60000
C  -13.92100 40.40400 42.57000
C  -13.90200 35.58300 43.14700
N  -9.75200 37.83500 41.15900
C  -8.96600 36.71700 40.91000
C  -7.70900 37.04700 40.11100
C  -7.66100 38.60900 40.20700
C  -9.07200 38.93800 40.67100
C  -6.56200 39.19000 41.10300
C  -7.67900 36.39200 38.68000
C  -6.50400 35.49300 38.36300
H  -5.51000 36.00100 37.24900
N  -11.74800 40.10100 41.71500
C  -10.79000 40.85800 41.04000
C  -11.14500 42.24800 41.00800
C  -12.43000 42.26300 41.53200
C  -12.76000 40.91800 41.99600
C  -10.34400 43.31700 40.32200
C  -13.30500 43.55000 41.62900
O  -12.85200 44.56500 41.34400
C  -14.79500 43.46300 41.93600
N  -13.66300 37.91800 42.63500
C  -14.33300 39.08400 42.92000
C  -15.72100 38.73800 43.47300
C  -15.83300 37.20100 43.61400
C  -14.41600 36.85300 43.01800
C  -16.15700 39.57200 44.70400
C  -16.94300 36.61800 42.76100
C  -17.50500 35.27800 43.17100
N  -11.55500 35.98300 42.50600
C  -12.51500 35.09900 42.89000
C  -12.03900 33.69300 42.82100
C  -10.71900 33.84300 42.35900
C  -10.51700 35.23700 42.04700
C  -12.80200 32.50000 43.20400
C  -9.54500 33.16000 42.00300
O  -9.28100 31.94200 42.00300
C  -8.56100 34.21500 41.45800
C  -7.39300 34.17200 42.30300
O  -7.31900 34.63900 43.38900
O  -6.42100 33.47600 41.65500
C  -5.35500 33.19800 42.61800
H  -8.73100 40.91700 40.23200
H  -14.56000 41.23800 42.86700
H  -14.59300 34.82200 43.51500
H  -6.86600 36.67500 40.69400
H  -7.47000 39.07100 39.23800
H  -6.02600 38.38200 41.60100
H  -7.06600 39.90000 41.75800
H  -5.80100 39.83400 40.66200
H  -7.76100 37.25200 38.01500
H  -8.69600 36.01100 38.58700
H  -6.87800 34.53800 37.99300
H  -5.97800 35.30200 39.29800
H  -9.29300 43.02700 40.30700
H  -10.50000 44.22700 40.90300
H  -10.81900 43.45100 39.35100
H  -15.10500 42.60800 41.33500
H  -15.31800 44.37500 41.64600
H  -14.93900 43.27900 43.00000
H  -16.38100 39.13000 42.69900
H  -15.84100 36.89400 44.65900
H  -16.55500 38.99300 45.53700
H  -16.84100 40.37800 44.43900
H  -15.24900 40.07100 45.04400
H  -16.66200 36.44700 41.72100
H  -17.78400 37.31000 42.80500
H  -18.58800 35.38500 43.24200
H  -17.25600 35.01300 44.19900
H  -17.24000 34.55800 42.39800
H  -12.64800 31.74400 42.43300
H  -13.84300 32.62800 43.50000
H  -12.18600 32.10600 44.01200
H  -8.26400 33.84700 40.47500
H  -4.83400 34.11800 42.88400
H  -4.62000 32.49800 42.22100
H  -5.79200 32.79100 43.53000

