158

Mg -2.21900 17.58000 25.71800
C  -2.83400 15.19400 28.23800
C  -2.91500 20.03800 27.85700
C  -2.02100 19.63100 23.09700
C  -2.08500 14.79500 23.51600
N  -2.81200 17.54300 27.75400
C  -2.98200 16.48900 28.66800
C  -3.53700 16.98400 29.99600
C  -3.43000 18.53600 29.79700
C  -3.09500 18.74100 28.37100
C  -4.68400 19.36500 30.30000
C  -2.68100 16.47700 31.23300
C  -2.50700 17.41100 32.45700
H  -2.51000 16.84200 33.82800
N  -2.36700 19.61700 25.48900
C  -2.54900 20.45000 26.56100
C  -2.38800 21.80400 26.12800
C  -2.23400 21.70900 24.69100
C  -2.16500 20.30900 24.35900
C  -2.53800 22.99100 26.96000
C  -2.03900 22.76200 23.63800
O  -1.77200 22.44400 22.46500
C  -2.13400 24.18100 24.04300
N  -1.97700 17.23400 23.64200
C  -2.03000 18.26600 22.77700
C  -2.00000 17.81800 21.31000
C  -1.95200 16.28000 21.48500
C  -1.98400 16.05800 22.94400
C  -3.21800 18.38100 20.38700
C  -0.67600 15.65000 20.82500
C  0.52500 15.30200 21.69100
N  -2.26900 15.43500 25.80900
C  -2.18000 14.46600 24.88600
C  -2.41000 13.15100 25.45200
C  -2.59600 13.40700 26.80900
C  -2.53900 14.83200 26.93400
C  -2.29300 11.82000 24.82400
C  -2.68100 12.76400 28.10700
O  -2.57000 11.55600 28.42600
C  -2.88600 13.89200 29.08000
C  -1.63300 13.68900 29.99800
O  -0.50200 14.00600 29.77400
O  -2.03100 12.83100 31.03000
C  -0.96600 12.35000 31.93400
H  -3.03900 20.78000 28.64900
H  -1.97200 20.24600 22.19600
H  -2.18800 13.97300 22.80400
H  -4.55400 16.60200 30.09200
H  -2.54700 19.02500 30.20800
H  -5.14900 19.77600 29.40400
H  -4.52200 20.22000 30.95600
H  -5.36900 18.75900 30.89200
H  -1.68500 16.32600 30.81800
H  -3.15300 15.53000 31.49500
H  -3.37100 18.07500 32.47400
H  -1.56500 17.94900 32.34500
H  -3.46000 23.54300 26.77500
H  -1.65600 23.60500 26.77800
H  -2.47600 22.65600 27.99500
H  -2.05300 24.75500 23.12000
H  -1.24100 24.40400 24.62600
H  -3.07500 24.11100 24.58900
H  -0.96800 18.13500 21.16300
H  -2.78000 15.70100 21.07400
H  -3.86200 19.10300 20.88800
H  -3.65600 17.44800 20.03400
H  -2.77800 18.91500 19.54500
H  -0.22800 16.34400 20.11400
H  -0.98000 14.77700 20.24700
H  0.96500 14.38300 21.30200
H  0.37200 15.25200 22.76900
H  1.33700 16.02800 21.64200
H  -1.26400 11.49800 24.98500
H  -2.53500 11.80400 23.76200
H  -2.97900 11.18900 25.38900
H  -3.83500 13.80600 29.60900
H  -0.61400 11.33200 31.76900
H  -1.29900 12.28000 32.97000
H  -0.07900 12.95900 32.10600
Mg 0.82900 7.73600 25.49400
C  1.49500 9.52900 28.30800
C  0.94100 4.87100 27.31700
C  0.48200 5.94900 22.55300
C  1.14700 10.58800 23.45700
N  1.12300 7.26900 27.56400
C  1.36700 8.14600 28.56800
C  1.49700 7.44900 29.99300
C  1.49900 5.99500 29.55100
C  1.11400 6.01400 28.07000
C  2.85700 5.14100 29.87200
C  0.32600 7.84900 30.99000
C  0.67300 7.87000 32.45400
H  1.92000 7.07100 32.94000
N  0.73700 5.69900 24.99600
C  0.72100 4.64600 25.86800
C  0.33700 3.40200 25.19100
C  0.20300 3.75100 23.82100
C  0.51700 5.17600 23.68700
C  0.14500 2.11700 25.93800
C  -0.15800 2.83300 22.71100
O  -0.28700 3.31300 21.58300
C  -0.50700 1.42400 22.85300
N  0.92600 8.21400 23.22600
C  0.63300 7.29700 22.28500
C  0.52300 7.93100 20.86600
C  0.68100 9.45900 21.17200
C  0.88500 9.44900 22.70800
C  1.74300 7.37300 19.94000
C  -0.65300 10.26800 20.86500
C  -0.56200 11.77600 20.36800
N  1.23700 9.66100 25.73700
C  1.28900 10.72100 24.82900
C  1.51500 11.96100 25.54100
C  1.58600 11.55000 26.90200
C  1.40600 10.17400 27.00700
C  1.57400 13.32300 24.88600
C  1.76000 12.06900 28.31300
O  2.11400 13.20800 28.57700
C  1.56000 10.79900 29.25600
C  2.68500 10.70300 30.22400
O  3.77700 10.32700 29.88900
O  2.35600 11.39900 31.39400
C  3.35200 11.28600 32.47200
H  1.12100 3.98000 27.92300
H  0.26700 5.46400 21.59800
H  1.10400 11.55000 22.94300
H  2.47600 7.73500 30.38000
H  0.62600 5.50900 29.98700
H  2.73500 4.13900 30.28500
H  3.55400 5.69200 30.50300
H  3.35500 5.12500 28.90200
H  -0.60900 7.29200 30.92800
H  0.04200 8.85100 30.67000
H  -0.27000 7.77500 32.99100
H  1.02800 8.89000 32.60200
H  -0.93000 1.94900 25.86300
H  0.45700 2.14000 26.98200
H  0.73100 1.29000 25.53800
H  -0.97000 1.09200 21.92400
H  -1.18800 1.20700 23.67700
H  0.35600 0.77900 23.01900
H  -0.37000 7.53400 20.38300
H  1.53100 9.99300 20.74700
H  1.44900 7.57200 18.91000
H  1.97900 6.31400 20.04600
H  2.67400 7.91500 20.10500
H  -1.29900 10.15000 21.73500
H  -1.29100 9.70500 20.18300
H  -1.20200 11.87600 19.49100
H  0.45700 12.00700 20.05900
H  -0.85000 12.48000 21.14900
H  2.44400 13.45800 24.24400
H  1.55700 14.15600 25.58900
H  0.70900 13.47500 24.24100
H  0.66700 11.12000 29.79200
H  3.73500 10.26900 32.55800
H  3.01100 11.64800 33.44200
H  4.17900 11.92200 32.15600

