158

Mg 40.60600 8.66900 29.68900
C  42.31000 10.03600 32.53300
C  38.35900 7.25100 31.85500
C  39.10400 7.33600 27.01200
C  42.96400 10.19500 27.69100
N  40.49500 8.53500 31.98200
C  41.22200 9.21700 32.88700
C  40.61600 9.07200 34.30200
C  39.55300 7.97800 34.05300
C  39.46900 7.85100 32.50800
C  39.80300 6.65100 34.74500
C  40.11300 10.55800 34.70700
C  40.77700 11.19500 35.94000
H  39.93000 11.87800 36.97000
N  38.97900 7.50600 29.48300
C  38.18500 7.03200 30.43400
C  37.11400 6.28700 29.89000
C  37.22000 6.40100 28.48200
C  38.46800 7.06700 28.26200
C  36.04500 5.61800 30.74500
C  36.16600 5.98400 27.38700
O  36.32400 6.11800 26.15200
C  34.86100 5.22800 27.84500
N  40.89700 8.87800 27.66900
C  40.19600 8.17200 26.72600
C  40.75600 8.34600 25.24100
C  41.93900 9.28200 25.47900
C  41.92200 9.45600 27.06100
C  41.15500 7.03400 24.48600
C  41.83800 10.71900 24.79100
C  42.95700 11.08700 23.77200
N  42.37100 9.85800 29.98600
C  43.24000 10.33800 29.07100
C  44.30400 11.02500 29.72700
C  44.00100 10.96900 31.02800
C  42.79500 10.23300 31.14800
C  45.40700 11.70600 29.09100
C  44.36100 11.41800 32.34700
O  45.27000 12.14100 32.73600
C  43.26800 10.91400 33.26200
C  43.93600 10.17900 34.42800
O  44.40700 9.11000 34.34900
O  44.03300 11.02100 35.54300
C  44.72700 10.34400 36.66400
H  37.49300 7.03700 32.48600
H  38.66200 6.81900 26.15800
H  43.65900 10.63000 26.97000
H  41.43000 8.65800 34.89800
H  38.57700 8.42100 34.25000
H  39.88700 5.77700 34.10000
H  38.97800 6.38300 35.40500
H  40.71000 6.74700 35.34300
H  39.08400 10.31700 34.97100
H  40.10900 11.34900 33.95700
H  41.53700 11.91200 35.62900
H  41.40900 10.43300 36.39600
H  36.59900 5.13500 31.55000
H  35.52900 4.78400 30.26800
H  35.27500 6.29800 31.11000
H  34.31100 5.81200 28.58300
H  35.36900 4.30300 28.11800
H  34.23300 5.23300 26.95400
H  39.86100 8.75200 24.77000
H  42.88900 8.87500 25.13200
H  40.47100 6.95000 23.64200
H  41.02600 6.25000 25.23300
H  42.20800 7.10900 24.21800
H  41.77200 11.55300 25.49000
H  40.86500 10.81000 24.30800
H  43.76900 10.36100 23.80200
H  43.32400 11.97300 24.29000
H  42.46600 11.08000 22.79900
H  45.13600 12.67500 28.67300
H  45.72200 11.04800 28.28100
H  46.28200 11.68100 29.74100
H  42.93600 11.87500 33.65600
H  45.79300 10.14100 36.55900
H  44.15000 9.51100 37.06600
H  44.67500 10.96700 37.55700
Mg 9.25000 48.08700 24.69800
C  7.00900 48.88600 27.43600
C  11.79800 49.28900 26.78200
C  11.46700 47.48800 22.24900
C  6.52700 47.57500 22.67800
N  9.35000 48.79900 26.86400
C  8.33900 48.99900 27.77400
C  8.80100 49.54000 29.11700
C  10.13500 50.16600 28.58600
C  10.48700 49.31300 27.36300
C  10.05700 51.65100 28.23800
C  8.98000 48.42900 30.20200
C  8.84300 48.84300 31.65900
H  8.14400 47.86000 32.62500
N  11.33100 48.28100 24.57200
C  12.20800 48.78400 25.54000
C  13.60600 48.61100 25.11700
C  13.46000 48.04400 23.78200
C  12.06600 47.92000 23.47800
C  14.75600 48.93600 25.94800
C  14.57800 47.68900 22.83900
O  14.38600 47.22300 21.74100
C  15.92800 47.95700 23.31800
N  9.02600 47.71600 22.74500
C  10.12700 47.52400 21.90000
C  9.69300 47.00500 20.58200
C  8.10400 46.99200 20.57600
C  7.83600 47.46300 22.09100
C  10.14600 47.87800 19.38000
C  7.47100 45.64200 20.14800
C  7.32400 45.55400 18.57900
N  7.23200 48.17200 24.91900
C  6.23900 48.06700 23.99900
C  4.96800 48.38600 24.48700
C  5.16800 48.59200 25.84900
C  6.54700 48.51100 26.13900
C  3.69900 48.19800 23.74900
C  4.50900 48.85000 27.16300
O  3.29700 48.83200 27.45500
C  5.73300 49.18900 28.15400
C  5.50100 48.46900 29.38500
O  5.74900 47.32400 29.63900
O  4.84300 49.35500 30.23900
C  4.58100 48.84100 31.58800
H  12.59400 49.80300 27.32500
H  12.10100 47.24900 21.39200
H  5.64700 47.32800 22.08000
H  8.10900 50.29100 29.49900
H  10.89000 49.95900 29.34400
H  9.18400 52.19400 28.60100
H  9.87300 51.77900 27.17100
H  10.87400 52.24700 28.64400
H  10.00300 48.08900 30.04700
H  8.38400 47.52000 30.12000
H  8.56000 49.86200 31.92300
H  9.86300 48.85200 32.04300
H  14.44400 48.89500 26.99200
H  15.15800 49.89300 25.61700
H  15.45700 48.10700 25.84600
H  16.04800 48.91900 23.81600
H  16.74300 47.97600 22.59400
H  16.06900 47.17200 24.06100
H  10.19400 46.05400 20.40500
H  7.71800 47.80800 19.96500
H  9.35800 48.37300 18.81300
H  10.79800 47.38400 18.65900
H  10.72900 48.73200 19.72500
H  6.49900 45.51400 20.62600
H  8.17000 44.93100 20.58800
H  7.78500 46.42700 18.11800
H  6.27000 45.40000 18.34700
H  7.83900 44.66100 18.22600
H  3.52800 47.14400 23.52900
H  3.73200 48.79800 22.83900
H  2.95000 48.68000 24.37800
H  5.56600 50.24900 28.34600
H  3.50400 48.93100 31.72900
H  4.87900 49.61800 32.29200
H  4.94300 47.89600 31.99300

