158

Mg 24.84800 0.79200 30.09200
C  27.02700 1.19900 32.72900
C  22.29000 1.08900 32.11100
C  22.91400 0.61600 27.34500
C  27.59400 0.16300 27.89200
N  24.71000 1.35900 32.18000
C  25.70200 1.49600 33.11500
C  25.15000 1.82800 34.51900
C  23.60700 1.64600 34.24200
C  23.48800 1.27600 32.75700
C  22.93400 0.68400 35.29000
C  25.63500 3.22400 35.02200
C  26.10100 3.18200 36.47300
H  25.55000 4.21100 37.42800
N  22.85900 0.80900 29.79700
C  21.95200 0.95300 30.76000
C  20.63000 0.85100 30.22800
C  20.82000 0.64400 28.86200
C  22.26000 0.70900 28.58100
C  19.34300 0.95100 30.99800
C  19.77500 0.24100 27.87000
O  19.98100 0.11800 26.66300
C  18.37000 -0.06900 28.28300
N  25.24500 0.30900 27.83800
C  24.22400 0.43500 26.95200
C  24.73600 0.27600 25.52700
C  26.27200 0.21000 25.67300
C  26.40900 0.28200 27.22800
C  24.10200 -0.83900 24.63400
C  26.99900 1.39500 24.91600
C  27.62500 0.98400 23.66500
N  26.89400 0.55600 30.23300
C  27.87300 0.27100 29.33600
C  29.14500 0.22700 30.05400
C  28.81900 0.65200 31.32400
C  27.48100 0.78200 31.43400
C  30.49900 0.03400 29.31100
C  29.42800 0.95700 32.58300
O  30.62000 0.84400 32.93100
C  28.31700 1.32300 33.55700
C  28.37900 0.41400 34.76700
O  27.92100 -0.69400 34.87800
O  29.07200 1.12200 35.79000
C  29.09000 0.52300 37.14100
H  21.50100 1.27200 32.84200
H  22.26400 0.71500 26.47300
H  28.44400 0.33600 27.23000
H  25.48300 1.01600 35.16600
H  23.12900 2.61700 34.37700
H  22.88200 -0.29900 34.82100
H  21.94100 1.10900 35.43500
H  23.45300 0.62700 36.24700
H  24.86700 3.99800 35.00600
H  26.51400 3.48100 34.43000
H  27.18900 3.20000 36.53400
H  25.94500 2.19800 36.91600
H  18.76700 0.04200 31.17300
H  18.77600 1.74600 30.51300
H  19.56200 1.38200 31.97500
H  17.78600 -0.32300 27.39800
H  17.75900 0.76200 28.63400
H  18.41900 -0.94500 28.93000
H  24.36200 1.19500 25.07600
H  26.72700 -0.76700 25.51400
H  23.27400 -1.31300 25.16000
H  24.67400 -1.62700 24.14300
H  23.61900 -0.32600 23.80300
H  27.71000 1.79100 25.64100
H  26.25900 2.18000 24.76400
H  27.24800 0.02200 23.31700
H  28.71100 0.98400 23.76300
H  27.47900 1.73100 22.88500
H  30.40100 0.24800 28.24700
H  30.76700 -1.02000 29.38000
H  31.24500 0.68300 29.77100
H  28.40000 2.33300 33.95800
H  28.10400 0.54100 37.60700
H  29.80500 1.04200 37.77900
H  29.56000 -0.44300 36.95600
Mg -12.12300 16.78700 40.49200
C  -8.89300 15.47600 40.13000
C  -10.70200 19.90200 40.22600
C  -15.19600 18.03200 40.21000
C  -13.38900 13.55600 40.53600
N  -10.04500 17.65700 40.08300
C  -8.90800 16.90000 39.99700
C  -7.59400 17.80000 40.00200
C  -8.18800 19.28100 40.14300
C  -9.71200 18.96100 40.18800
C  -7.73800 20.20600 41.32800
C  -6.76800 17.69900 38.67100
C  -5.36500 17.08700 38.73400
H  -4.80700 15.73200 38.17200
N  -12.85600 18.74400 40.11600
C  -12.11400 19.84900 40.05800
C  -13.08800 20.95100 39.82700
C  -14.37400 20.42100 39.78400
C  -14.23200 18.99800 40.01900
C  -12.54500 22.34000 39.67000
C  -15.57400 21.21400 39.56000
O  -15.51600 22.43800 39.34800
C  -16.95400 20.56300 39.47600
N  -14.01500 15.87200 40.24900
C  -15.14200 16.60200 40.31100
C  -16.40500 15.74900 40.42700
C  -15.86200 14.34000 40.26500
C  -14.27400 14.58100 40.51800
C  -17.13100 15.99700 41.81800
C  -16.08200 13.60000 38.84600
C  -17.51100 13.31800 38.51300
N  -11.38000 14.90600 40.31300
C  -11.98800 13.66700 40.50600
C  -11.06500 12.61500 40.48700
C  -9.79000 13.22900 40.26300
C  -10.04700 14.65900 40.22700
C  -11.47100 11.19500 40.62800
C  -8.35200 13.08600 40.19300
O  -7.67400 12.08000 40.34800
C  -7.74700 14.49000 40.14300
C  -6.82000 14.53100 41.26400
O  -7.09900 14.99800 42.34000
O  -5.55100 14.18000 40.89000
C  -4.57300 14.35500 41.96300
H  -10.23500 20.88300 40.12100
H  -16.23300 18.36500 40.13800
H  -13.80200 12.54500 40.55600
H  -6.99400 17.51000 40.86400
H  -8.10000 19.88400 39.24000
H  -8.60100 20.45500 41.94600
H  -7.40000 21.11900 40.83800
H  -6.95800 19.67900 41.87800
H  -6.74800 18.61700 38.08300
H  -7.29200 17.05300 37.96700
H  -5.11500 17.15500 39.79300
H  -4.63000 17.75800 38.29000
H  -13.08800 22.92200 38.92500
H  -11.53100 22.36200 39.26900
H  -12.49400 22.93700 40.58000
H  -16.80800 19.75000 38.76400
H  -17.73900 21.25300 39.17000
H  -17.20400 20.24700 40.48900
H  -17.06800 16.04200 39.61200
H  -16.18800 13.63700 41.03200
H  -18.05400 16.57500 41.86300
H  -16.41300 16.29000 42.58300
H  -17.55700 15.02800 42.08100
H  -15.39100 12.78000 38.65100
H  -15.68600 14.36500 38.17700
H  -17.69900 12.24500 38.49000
H  -17.82900 13.60100 37.50900
H  -18.18500 13.81100 39.21400
H  -11.84800 10.76200 39.70100
H  -12.11100 10.91400 41.46400
H  -10.46500 10.79300 40.75200
H  -7.14500 14.60000 39.24000
H  -4.40200 15.43000 42.02400
H  -3.58100 13.99200 41.69400
H  -4.83300 13.98500 42.95400

