158

Mg 47.46600 34.63000 27.61800
C  45.72500 32.89700 30.14900
C  47.62300 37.29300 29.61800
C  48.45700 36.51300 24.97900
C  46.62600 32.01200 25.46400
N  46.81400 34.93600 29.57900
C  46.28700 34.10300 30.51500
C  46.36400 34.61300 31.92500
C  46.75500 36.12800 31.68400
C  47.04700 36.20200 30.18900
C  45.81100 37.23900 32.16300
C  47.54400 33.89000 32.76400
C  47.81000 34.33900 34.22400
H  46.80300 35.30300 34.91600
N  48.18000 36.60900 27.35300
C  48.20900 37.56900 28.33200
C  48.69900 38.84100 27.72500
C  48.88900 38.55200 26.33500
C  48.48500 37.16700 26.18300
C  48.81900 40.07300 28.48700
C  49.36600 39.49400 25.18800
O  49.36500 39.26500 23.97500
C  49.93800 40.78600 25.62900
N  47.50100 34.30400 25.52300
C  48.14400 35.14000 24.68400
C  48.31700 34.53500 23.25000
C  47.61800 33.19000 23.42100
C  47.27400 33.12900 24.88600
C  47.79900 35.37100 22.06500
C  48.54500 32.01900 22.93900
C  49.63500 31.39400 23.88400
N  46.44500 32.77000 27.74800
C  46.19200 31.82800 26.77700
C  45.47000 30.69100 27.37600
C  45.22800 31.09800 28.70900
C  45.85100 32.38400 28.86400
C  44.99400 29.41100 26.59900
C  44.56800 30.71600 29.91400
O  43.80100 29.79800 30.18700
C  44.75200 31.99600 30.87400
C  45.11700 31.56800 32.24300
O  45.94600 30.72000 32.53600
O  44.20700 32.02900 33.09900
C  44.24000 31.54400 34.46000
H  47.64500 38.18800 30.24300
H  48.70300 37.09300 24.08700
H  46.40900 31.19300 24.77500
H  45.39300 34.52700 32.41200
H  47.67400 36.36500 32.22000
H  46.40800 37.90000 32.79100
H  44.98700 36.84700 32.75900
H  45.41900 37.83300 31.33700
H  48.48300 33.96500 32.21600
H  47.27600 32.83300 32.75200
H  48.85300 34.60900 34.38800
H  47.61200 33.37400 34.69000
H  48.43600 40.01100 29.50600
H  48.38400 40.89800 27.92300
H  49.87100 40.29400 28.66800
H  49.16100 41.43000 26.04100
H  50.43400 41.33200 24.82700
H  50.60800 40.60400 26.46900
H  49.37700 34.36500 23.06400
H  46.66500 33.19800 22.89200
H  47.43500 36.38900 22.20300
H  46.99800 34.87400 21.51800
H  48.55700 35.63900 21.32900
H  49.01200 32.26200 21.98500
H  47.76800 31.27800 22.75000
H  50.60900 31.17700 23.44400
H  49.28800 30.44600 24.29500
H  49.71700 32.10200 24.70800
H  43.96700 29.53500 26.25700
H  44.95200 28.47100 27.14800
H  45.54500 29.32500 25.66200
H  43.76900 32.46800 30.84500
H  44.87200 30.67500 34.64400
H  43.24600 31.20200 34.75000
H  44.48600 32.36300 35.13500
Mg -1.49300 34.49600 26.47400
C  -3.27800 32.59800 29.00600
C  -0.93500 36.82400 28.93300
C  -0.63300 36.65600 24.06900
C  -3.20900 32.47500 24.06400
N  -2.12200 34.68500 28.72200
C  -2.60200 33.65300 29.58900
C  -2.37200 33.95700 31.06700
C  -1.75200 35.44200 31.02100
C  -1.64200 35.70800 29.47100
C  -2.47400 36.55700 31.79100
C  -1.56200 32.81900 31.83500
C  -2.19500 32.20900 33.09900
H  -1.32100 32.26000 34.36900
N  -0.67000 36.33700 26.52000
C  -0.50400 37.13400 27.61000
C  0.37700 38.14200 27.19700
C  0.50100 38.25500 25.80900
C  -0.30800 37.06900 25.38300
C  1.06900 39.10400 28.23500
C  1.24600 39.20000 24.88400
O  1.17700 39.08400 23.64900
C  2.06700 40.27100 25.51600
N  -1.83700 34.45300 24.37700
C  -1.30900 35.50000 23.60300
C  -1.49000 35.19300 22.07300
C  -2.17000 33.80900 22.06000
C  -2.40300 33.49400 23.58500
C  -2.32800 36.31900 21.25800
C  -1.28400 32.73300 21.39600
C  0.04800 32.33900 22.02000
N  -2.93600 32.84800 26.47100
C  -3.50200 32.15500 25.44500
C  -4.40800 31.08800 25.88100
C  -4.32000 31.24800 27.27200
C  -3.43700 32.35200 27.59500
C  -5.09000 30.20400 24.93900
C  -4.79600 30.69900 28.53900
O  -5.60200 29.81900 28.93800
C  -3.96600 31.51000 29.66300
C  -5.00400 31.99200 30.68300
O  -5.92200 32.84700 30.59700
O  -4.95800 31.24900 31.85000
C  -5.89300 31.61300 32.93400
H  -0.60900 37.54200 29.68800
H  -0.09300 37.24300 23.32400
H  -3.58400 31.80100 23.29100
H  -3.38800 34.06800 31.44600
H  -0.75700 35.38900 31.46200
H  -3.00000 37.18600 31.07300
H  -1.65700 37.06700 32.30200
H  -3.21200 36.14500 32.48000
H  -0.55900 33.17900 32.06500
H  -1.30500 32.01800 31.14100
H  -2.57400 31.21200 32.87600
H  -3.05200 32.85600 33.28800
H  1.11300 40.16100 27.97400
H  2.14800 38.96500 28.15800
H  0.71600 39.06600 29.26600
H  2.82100 39.90800 26.21400
H  1.46800 41.08100 25.93100
H  2.61000 40.65200 24.65100
H  -0.44600 35.20500 21.76000
H  -3.17400 33.89100 21.64300
H  -3.33900 35.98800 21.02000
H  -1.83400 36.67200 20.35300
H  -2.30900 37.16800 21.94100
H  -1.14600 32.91600 20.33000
H  -1.92800 31.85400 21.42200
H  0.15700 33.03700 22.85000
H  0.84200 32.41200 21.27700
H  0.15400 31.34200 22.44900
H  -4.51300 29.92700 24.05700
H  -6.09900 30.49500 24.64500
H  -5.26800 29.31000 25.53600
H  -3.43800 30.74600 30.23400
H  -5.38900 32.27600 33.63700
H  -6.14500 30.67000 33.42100
H  -6.86800 31.91700 32.55300

