158

Mg 25.87600 2.02000 28.81100
C  27.57100 1.79900 31.93500
C  22.94200 2.37200 30.66100
C  24.22500 1.88200 26.00700
C  28.85700 1.02900 27.13700
N  25.30500 2.02600 31.13300
C  26.21800 2.08700 32.12700
C  25.49800 2.37300 33.48900
C  23.97400 2.50300 33.05400
C  24.01700 2.34300 31.55100
C  22.97200 1.57300 33.74900
C  26.04500 3.60600 34.16600
C  25.36000 4.01500 35.51700
H  26.32600 4.12300 36.67700
N  23.82100 2.16400 28.43100
C  22.76300 2.30300 29.28000
C  21.53000 2.43900 28.51900
C  21.95700 2.22600 27.14200
C  23.37500 2.15500 27.15000
C  20.15500 2.62900 29.19500
C  21.03500 2.21700 25.87500
O  21.40300 2.01000 24.72900
C  19.63400 2.43800 26.09500
N  26.49600 1.38800 26.89900
C  25.59100 1.56400 25.90200
C  26.16500 1.29600 24.52000
C  27.68800 1.30500 24.80800
C  27.72800 1.28900 26.37000
C  25.59600 -0.03100 24.01700
C  28.37300 2.58500 24.17700
C  29.74100 2.46400 23.47000
N  27.91300 1.56900 29.36200
C  28.94300 1.10200 28.59000
C  30.14800 0.94900 29.48500
C  29.70700 1.19400 30.79200
C  28.35100 1.57400 30.64300
C  31.50600 0.65600 29.08200
C  30.04000 1.13800 32.19800
O  31.14000 0.82400 32.69200
C  28.81100 1.63100 32.92000
C  28.44500 0.78500 34.10000
O  27.76800 -0.17400 34.03000
O  28.87700 1.31000 35.32400
C  28.41300 0.67800 36.52800
H  22.10300 2.70800 31.27300
H  23.68400 1.90200 25.05800
H  29.84900 0.92300 26.69300
H  25.60200 1.46800 34.08700
H  23.69700 3.54100 33.24000
H  22.12400 2.09800 34.18800
H  23.47300 1.01700 34.54100
H  22.55600 0.82500 33.07500
H  25.99500 4.37900 33.39900
H  27.10300 3.41500 34.34600
H  24.64000 3.25900 35.83000
H  24.83800 4.96700 35.42500
H  20.25000 2.68100 30.27900
H  19.52600 1.74200 29.11500
H  19.61100 3.47900 28.78100
H  19.10300 1.54400 26.42400
H  19.14000 2.90900 25.24500
H  19.65400 3.29300 26.77100
H  25.74900 1.99800 23.79600
H  28.14200 0.39300 24.42100
H  25.05300 0.15400 23.09100
H  24.95200 -0.34800 24.83800
H  26.44200 -0.71500 23.94900
H  28.56600 3.32600 24.95300
H  27.69400 3.13500 23.52500
H  30.20400 1.47800 23.52100
H  30.46000 3.15100 23.91500
H  29.70900 2.78800 22.42900
H  32.18200 1.28100 29.66700
H  31.59700 0.76200 28.00100
H  31.71600 -0.38600 29.32200
H  29.11800 2.59700 33.32200
H  27.98200 1.49700 37.10300
H  29.33700 0.27500 36.94400
H  27.76600 -0.19700 36.46200
Mg 35.43400 3.16000 29.29400
C  33.24900 4.22900 31.69300
C  38.01900 3.28700 31.58900
C  37.77200 2.74600 26.81100
C  32.91100 3.37700 26.92500
N  35.57200 3.67100 31.35400
C  34.50200 3.98300 32.18500
C  34.93200 4.20800 33.65000
C  36.50700 4.24800 33.50300
C  36.77300 3.65600 32.05800
C  37.09800 5.67100 33.81600
C  34.42500 2.99200 34.43300
C  33.89600 3.41800 35.81400
H  34.74700 4.46000 36.67700
N  37.60700 2.92200 29.23300
C  38.42600 2.94200 30.29400
C  39.77700 2.70000 29.88200
C  39.75600 2.50100 28.48700
C  38.34500 2.74800 28.10800
C  40.88000 2.65900 30.87000
C  40.97300 2.26700 27.51900
O  40.71800 2.03900 26.32400
C  42.36500 2.43000 27.84400
N  35.36500 3.07000 27.15500
C  36.49300 3.05200 26.34400
C  35.97000 3.15900 24.86800
C  34.42500 2.87900 24.92700
C  34.17200 3.12400 26.41300
C  36.21400 4.51700 24.13100
C  34.03900 1.43800 24.48700
C  33.27400 1.22200 23.10100
N  33.49900 3.68400 29.20800
C  32.56600 3.83100 28.22800
C  31.31300 4.37800 28.74800
C  31.63400 4.49000 30.11200
C  32.88700 4.04700 30.33900
C  30.02000 4.65800 28.10300
C  31.00300 4.91700 31.41400
O  29.91200 5.40100 31.62500
C  32.12000 4.70100 32.50400
C  32.33200 5.96400 33.23500
O  32.85600 7.00800 32.80200
O  31.77100 5.85600 34.48700
C  32.06600 7.10100 35.30700
H  38.80900 3.39400 32.33500
H  38.49200 2.63700 25.99800
H  32.16800 3.44700 26.12800
H  34.58900 5.14700 34.08400
H  37.10100 3.55100 34.09400
H  38.08700 5.70800 33.36100
H  37.09900 5.88500 34.88400
H  36.37900 6.29200 33.28000
H  35.24700 2.27600 34.46400
H  33.57700 2.65500 33.83800
H  34.00700 2.50900 36.40600
H  32.82400 3.61400 35.80900
H  41.82700 2.56300 30.33800
H  40.67900 1.74400 31.42700
H  40.82900 3.51800 31.53900
H  42.96900 2.16900 26.97500
H  42.65200 1.69500 28.59700
H  42.59400 3.45000 28.15400
H  36.47500 2.41600 24.25200
H  33.84100 3.64100 24.41000
H  36.80100 4.35900 23.22700
H  36.76900 5.14100 24.83200
H  35.30900 5.01600 23.78600
H  33.44300 0.93500 25.24700
H  34.92400 0.81900 24.34400
H  33.89100 0.60200 22.45000
H  33.02600 2.12100 22.53700
H  32.37300 0.69400 23.41400
H  30.12500 4.78100 27.02500
H  29.48600 5.52700 28.48700
H  29.34800 3.82000 28.28800
H  31.80200 3.84800 33.10300
H  31.28600 7.85400 35.19700
H  33.10500 7.41000 35.18900
H  32.03300 6.76800 36.34500

