158

Mg 16.90900 -1.88100 28.05100
C  16.18000 0.35300 30.54700
C  19.00600 -3.66300 30.13800
C  18.37000 -3.56100 25.46200
C  15.29700 0.30800 25.81800
N  17.64700 -1.62400 30.03300
C  17.08200 -0.71400 30.93900
C  17.58700 -1.06300 32.32300
C  18.69100 -2.18700 32.09800
C  18.35600 -2.56800 30.64600
C  20.17000 -1.69100 32.17600
C  16.40900 -1.44900 33.22800
C  16.47500 -0.99900 34.69400
H  17.64800 -0.11100 35.21900
N  18.31800 -3.61900 27.84600
C  19.04400 -4.15300 28.80800
C  19.80100 -5.25900 28.31000
C  19.56200 -5.27200 26.89700
C  18.68100 -4.16200 26.69000
C  20.52900 -6.28900 29.21900
C  20.17300 -6.13000 25.78100
O  19.85100 -6.00300 24.60900
C  21.20500 -7.22700 26.15600
N  16.72900 -1.75200 25.99700
C  17.60800 -2.42600 25.17600
C  17.42100 -1.97100 23.73000
C  16.21700 -0.96300 23.76300
C  15.98400 -0.83600 25.25500
C  18.71200 -1.37800 23.17800
C  14.96900 -1.47900 22.99900
C  13.96100 -0.45400 22.56800
N  15.80200 -0.13300 28.14800
C  15.20100 0.59000 27.16000
C  14.44700 1.65500 27.77700
C  14.75800 1.60500 29.12800
C  15.70700 0.55500 29.23800
C  13.45100 2.58300 27.08400
C  14.50400 2.22100 30.41300
O  13.88800 3.22000 30.74700
C  15.57300 1.47400 31.38900
C  16.56800 2.41000 32.16500
O  17.83500 2.30200 32.09900
O  15.87900 3.28300 33.04000
C  16.79000 3.76900 34.12400
H  19.63600 -4.22600 30.83000
H  18.84200 -3.95800 24.56100
H  14.78800 0.93800 25.08500
H  18.01900 -0.17000 32.77400
H  18.54000 -2.99800 32.81000
H  20.46000 -1.69500 33.22600
H  20.28400 -0.64500 31.89100
H  20.87500 -2.26300 31.57400
H  16.39000 -2.53900 33.24700
H  15.45300 -1.16900 32.78600
H  16.55200 -1.90700 35.29100
H  15.46500 -0.67500 34.94100
H  21.60900 -6.14200 29.22800
H  20.28100 -7.31700 28.95500
H  20.22500 -6.17300 30.26000
H  21.27100 -7.85700 25.26900
H  20.80200 -7.88500 26.92600
H  22.17300 -6.83600 26.46800
H  17.19800 -2.92600 23.25500
H  16.59200 -0.08000 23.24400
H  19.35400 -1.16800 24.03400
H  18.56000 -0.38400 22.75900
H  19.17400 -2.13400 22.54400
H  14.42700 -2.15400 23.66200
H  15.33000 -2.05900 22.15000
H  14.34100 0.52900 22.84600
H  12.98900 -0.67500 23.01000
H  13.90900 -0.43900 21.47900
H  13.31500 2.41100 26.01600
H  13.86900 3.58800 27.15500
H  12.54200 2.61400 27.68400
H  15.01000 1.11800 32.25100
H  16.38400 4.74100 34.40400
H  17.86000 3.82600 33.92500
H  16.66200 3.15100 35.01300
Mg 48.05300 44.93900 43.72800
C  44.58700 44.57400 42.86800
C  48.45900 41.37900 43.25000
C  51.33100 45.33800 43.94900
C  47.57600 48.34300 43.82900
N  46.68000 43.17300 42.93300
C  45.32600 43.34700 42.78900
C  44.70200 41.96400 42.61000
C  45.86500 40.96700 43.01800
C  47.11300 41.89800 43.00800
C  45.59700 40.32100 44.35600
C  44.01200 41.77900 41.14100
C  44.45000 42.53200 39.92100
H  43.83900 42.09600 38.56100
N  49.74300 43.59800 43.44600
C  49.65400 42.19300 43.34600
C  51.07100 41.76600 43.41200
C  51.93600 42.86000 43.44400
C  51.04000 43.98500 43.61300
C  51.46400 40.25400 43.25200
C  53.42200 42.91000 43.25400
O  54.06300 41.88500 43.16500
C  54.17400 44.23100 43.14800
N  49.28400 46.62200 43.82100
C  50.61300 46.53400 43.97500
C  51.29500 47.92500 44.11700
C  49.99800 48.84300 44.14500
C  48.86800 47.88300 43.88400
C  52.28600 48.16000 45.25900
C  49.99200 50.17100 43.24700
C  50.05700 51.44900 44.05400
N  46.48900 46.22400 43.46100
C  46.39300 47.63200 43.60100
C  45.01100 48.07300 43.42000
C  44.26500 46.87300 43.13500
C  45.19300 45.82800 43.14400
C  44.59600 49.47300 43.50900
C  42.95400 46.35300 42.84100
O  41.93800 46.92700 42.61300
C  43.08700 44.80900 42.90600
C  42.31700 44.10900 43.94500
O  41.17200 43.75100 43.76600
O  43.12800 43.80900 45.03300
C  42.39000 43.36300 46.14900
H  48.55500 40.29100 43.23600
H  52.38200 45.48100 44.20900
H  47.37800 49.40500 43.98900
H  43.91000 41.82400 43.34600
H  45.84000 40.13600 42.31400
H  44.56500 40.29700 44.70500
H  46.17400 40.77100 45.16300
H  45.85900 39.26300 44.33400
H  43.00200 42.04800 41.44800
H  44.17600 40.74400 40.84000
H  45.53900 42.51500 39.92000
H  44.21000 43.58600 40.06500
H  52.20400 40.01400 44.01500
H  51.97700 40.12100 42.29900
H  50.63800 39.54300 43.22900
H  53.65400 44.92200 42.48500
H  55.16500 44.09000 42.71700
H  54.25900 44.67800 44.13800
H  51.80900 48.22000 43.20200
H  50.02900 49.14500 45.19200
H  53.24700 48.51000 44.88300
H  52.35200 47.32200 45.95400
H  51.90700 48.93700 45.92300
H  49.17000 50.25700 42.53600
H  50.93600 50.22500 42.70400
H  50.29300 51.39000 45.11600
H  49.09200 51.89900 43.82100
H  50.73200 52.22200 43.68700
H  45.19000 50.01200 42.77100
H  44.75100 49.92600 44.48800
H  43.53300 49.30700 43.33300
H  42.76900 44.51500 41.90600
H  41.41500 43.76300 46.42600
H  43.12800 43.50200 46.93800
H  42.35200 42.27900 46.03500

