158

Mg 47.49800 34.47800 27.68400
C  46.03000 32.77900 30.34800
C  47.77100 37.22800 29.60100
C  48.77200 36.00700 24.97400
C  46.50000 31.72500 25.58100
N  47.11700 34.86300 29.76700
C  46.62100 34.02200 30.69600
C  46.62300 34.68400 32.04100
C  46.65100 36.22500 31.69500
C  47.13400 36.15100 30.24500
C  45.39500 37.12300 31.79800
C  47.83300 34.11500 32.80500
C  48.21000 34.51100 34.25200
H  47.10900 35.21300 35.11800
N  48.35000 36.37300 27.35200
C  48.39100 37.34000 28.23600
C  49.03700 38.46900 27.63900
C  49.40000 38.11700 26.26100
C  48.82300 36.77500 26.10600
C  49.18200 39.79200 28.39000
C  50.07700 38.89200 25.25200
O  50.38700 38.42100 24.19500
C  50.62900 40.33000 25.50600
N  47.54300 33.95800 25.50700
C  48.17100 34.76600 24.66000
C  48.24400 34.09800 23.28200
C  47.41200 32.78800 23.42300
C  47.11700 32.80200 24.93200
C  47.84900 35.04000 22.13900
C  48.10200 31.54300 22.96600
C  47.18900 30.51800 22.24800
N  46.45600 32.71500 27.84700
C  46.21600 31.63000 26.93400
C  45.61000 30.49800 27.66400
C  45.52600 30.88500 29.02200
C  46.05300 32.22300 29.05200
C  45.32200 29.14500 27.12000
C  45.15800 30.51700 30.38900
O  44.64700 29.48100 30.81300
C  45.13900 31.84700 31.16200
C  45.23600 31.72000 32.62000
O  46.24400 31.27900 33.17400
O  44.04400 32.13300 33.19300
C  43.96300 32.24800 34.61500
H  47.80000 38.15000 30.18600
H  49.24000 36.48900 24.11300
H  46.14000 30.93200 24.92200
H  45.67900 34.36800 32.48600
H  47.50400 36.63000 32.23900
H  45.13600 37.36300 32.83000
H  44.51700 36.60900 31.40500
H  45.43000 38.09600 31.30900
H  48.73500 34.46100 32.29900
H  47.89400 33.03400 32.68100
H  49.11500 35.10200 34.39500
H  48.38900 33.61700 34.84900
H  50.18900 39.93600 28.78200
H  48.49000 39.83700 29.23100
H  49.01100 40.69000 27.79700
H  51.19700 40.65700 24.63400
H  51.08900 40.35400 26.49400
H  49.75600 40.97700 25.59400
H  49.28500 33.84900 23.07700
H  46.47700 32.89200 22.87200
H  47.09900 35.78700 22.40000
H  47.31100 34.46100 21.38800
H  48.73000 35.58900 21.80900
H  48.52400 30.91200 23.74800
H  48.97800 31.65800 22.32800
H  46.53100 30.92500 21.48000
H  46.53900 30.12400 23.03000
H  47.72700 29.65400 21.85800
H  45.46300 29.15400 26.03900
H  44.27300 28.92100 27.31700
H  46.00000 28.44400 27.60700
H  44.13300 32.22600 30.98000
H  44.51800 31.44800 35.10600
H  42.91700 32.27300 34.92100
H  44.55400 33.11800 34.90000
Mg 0.93000 43.19400 25.62000
C  2.95700 42.59200 28.37000
C  -1.77900 42.15700 27.38800
C  -0.90200 43.21200 22.73600
C  3.70000 44.17100 23.78300
N  0.66900 42.26100 27.69200
C  1.61600 42.35600 28.70200
C  0.92100 42.18900 30.00500
C  -0.60900 41.86100 29.71500
C  -0.57600 42.02700 28.19000
C  -1.11300 40.41300 30.10000
C  1.11600 43.36700 30.96900
C  0.68500 43.09200 32.42300
H  0.20200 41.67300 32.77500
N  -1.05300 42.71100 25.17700
C  -2.04500 42.36900 25.98800
C  -3.29400 42.11500 25.34100
C  -3.04300 42.43800 23.97600
C  -1.59300 42.84900 23.94700
C  -4.57800 41.80800 26.04900
C  -4.10800 42.43500 22.88500
O  -3.82800 42.75000 21.76200
C  -5.49200 41.88000 23.10700
N  1.29600 43.71900 23.52800
C  0.36500 43.72100 22.53200
C  0.97000 44.20000 21.24700
C  2.37200 44.74100 21.67200
C  2.50400 44.29800 23.10800
C  1.08800 43.16800 20.14900
C  2.56200 46.27000 21.56000
C  1.47900 47.10100 22.15700
N  2.81900 43.16800 25.94200
C  3.84800 43.50100 25.04400
C  5.10300 43.21000 25.66200
C  4.80300 42.89300 26.95900
C  3.41600 42.87600 27.10300
C  6.41800 43.40000 24.99300
C  5.35400 42.59300 28.26100
O  6.53000 42.43600 28.61100
C  4.16000 42.51900 29.23700
C  4.29800 41.35500 30.24400
O  4.36500 40.10400 30.04900
O  4.22300 41.89400 31.49100
C  4.19700 40.88000 32.58400
H  -2.68000 42.07700 28.00100
H  -1.45300 43.15000 21.79600
H  4.56900 44.62300 23.30100
H  1.43800 41.34000 30.45300
H  -1.29400 42.56000 30.19500
H  -1.95000 40.47400 30.79500
H  -0.33800 39.88100 30.65000
H  -1.49500 39.91700 29.20700
H  0.45100 44.16800 30.64300
H  2.09400 43.82700 30.82300
H  -0.22800 43.67300 32.55400
H  1.43000 43.41200 33.15100
H  -5.36000 42.48400 25.70500
H  -4.41000 41.95600 27.11600
H  -4.89800 40.78500 25.85500
H  -5.95800 42.64200 23.73300
H  -5.53700 40.89300 23.56700
H  -6.00200 41.93600 22.14500
H  0.40600 45.07400 20.92100
H  3.23100 44.43900 21.07300
H  2.11900 43.08100 19.80600
H  0.61800 43.51200 19.22800
H  0.73900 42.16500 20.39400
H  2.74700 46.54100 20.52100
H  3.41900 46.60900 22.14300
H  0.56300 46.57500 22.42500
H  1.12100 47.81500 21.41500
H  1.77300 47.74900 22.98300
H  6.40400 44.27300 24.34100
H  6.67400 42.59900 24.30000
H  7.05200 43.65800 25.84200
H  4.18900 43.48300 29.74400
H  3.89600 39.89700 32.22200
H  3.50700 41.15200 33.38300
H  5.15100 40.74500 33.09400

