158

Mg 35.06700 2.77200 30.64100
C  32.74300 3.72000 33.09400
C  37.57200 3.14700 32.96300
C  37.27000 2.11400 28.22300
C  32.49900 2.91200 28.24200
N  35.13600 3.40100 32.74100
C  34.03100 3.48200 33.56700
C  34.43000 3.35300 35.00800
C  36.02200 3.42400 34.97500
C  36.24200 3.26300 33.52400
C  36.63800 4.75800 35.59800
C  33.81700 2.01200 35.66800
C  33.52500 2.05900 37.19100
H  34.31300 3.05500 38.07600
N  37.15400 2.57600 30.59400
C  37.98900 2.79700 31.61000
C  39.39900 2.72800 31.18200
C  39.35400 2.40100 29.79200
C  37.89900 2.29400 29.48300
C  40.59300 2.88100 32.15400
C  40.39700 2.24700 28.71600
O  40.20900 2.22400 27.55400
C  41.83100 2.30900 29.06700
N  34.94300 2.53700 28.55700
C  36.01200 2.29100 27.74600
C  35.54300 2.07800 26.22400
C  33.99500 2.08100 26.37100
C  33.79100 2.64000 27.76400
C  36.14700 2.93300 25.08400
C  33.28400 0.73400 26.00200
C  31.91800 0.97900 25.22900
N  33.07800 3.33300 30.58300
C  32.15500 3.35200 29.51900
C  30.83500 3.72000 30.06800
C  31.04900 3.85800 31.44000
C  32.38700 3.57300 31.67700
C  29.65200 4.04500 29.16800
C  30.41400 4.27100 32.68500
O  29.25700 4.56700 32.91700
C  31.40800 3.94600 33.84600
C  31.41500 5.22500 34.74000
O  31.60300 6.39900 34.43800
O  31.37400 4.85100 36.09400
C  31.33800 5.99500 37.02000
H  38.21400 3.37800 33.81600
H  37.89700 1.91400 27.35100
H  31.77500 2.98800 27.42900
H  33.99900 4.21300 35.52000
H  36.36600 2.61500 35.61900
H  35.90900 5.56100 35.70200
H  37.43100 5.02900 34.90100
H  37.12000 4.39800 36.50700
H  34.38000 1.07900 35.64100
H  32.87600 1.79000 35.16500
H  33.68800 1.08000 37.64200
H  32.47100 2.33500 37.13800
H  40.22500 2.71800 33.16700
H  41.05600 3.86500 32.08500
H  41.30100 2.11700 31.83100
H  42.04600 1.45700 29.71100
H  41.90100 3.29600 29.52400
H  42.46300 2.30000 28.17800
H  35.98800 1.15800 25.84400
H  33.50500 2.80400 25.71900
H  36.75000 2.49800 24.28700
H  36.79800 3.72500 25.45800
H  35.33500 3.44500 24.56800
H  33.01200 0.15000 26.88100
H  33.89800 0.03400 25.43500
H  31.78700 2.01000 24.90200
H  31.15900 0.69100 25.95800
H  31.92100 0.48400 24.25800
H  29.01000 4.80600 29.61200
H  29.14800 3.08200 29.09200
H  30.07000 4.48000 28.26100
H  31.21200 2.97400 34.29700
H  32.28400 6.28800 37.47600
H  30.73300 5.76400 37.89600
H  30.81500 6.85500 36.60100
Mg 36.16000 48.46800 24.52500
C  36.30400 46.68400 27.53000
C  34.80100 51.08900 26.33600
C  35.57800 50.02600 21.71300
C  37.32400 45.68400 22.83600
N  35.65500 48.83800 26.74300
C  35.90100 47.99100 27.71800
C  35.65800 48.69500 29.08400
C  34.98300 50.06800 28.72000
C  35.07800 50.00700 27.17400
C  33.47600 50.29000 29.20100
C  36.96000 48.84700 29.93000
C  36.91800 48.37900 31.35500
H  35.58300 48.51800 32.08700
N  35.24100 50.23600 24.07000
C  34.78700 51.22300 24.91600
C  34.27700 52.34700 24.14900
C  34.46900 52.07000 22.77800
C  35.10700 50.70200 22.82800
C  33.81400 53.57700 24.80300
C  34.32100 53.05800 21.50600
O  34.71800 52.81200 20.37300
C  33.84000 54.51600 21.72700
N  36.35100 47.94800 22.56600
C  36.09800 48.76300 21.56400
C  36.37400 48.14300 20.20000
C  37.15800 46.84400 20.59200
C  36.98700 46.80700 22.13100
C  35.08600 47.89500 19.31100
C  38.63500 46.65300 20.09000
C  39.81000 46.98500 21.08600
N  36.87700 46.63900 25.03600
C  37.25900 45.60500 24.21800
C  37.64000 44.47800 25.05000
C  37.28300 44.86800 26.36900
C  36.76700 46.13700 26.28500
C  38.18900 43.16300 24.54600
C  37.15100 44.47200 27.75000
O  37.42900 43.39500 28.32900
C  36.54700 45.69700 28.55100
C  35.40300 45.18500 29.32300
O  34.20800 45.08700 29.02500
O  35.87600 44.97500 30.54700
C  34.98000 44.46600 31.57300
H  34.45900 51.97800 26.87000
H  35.50600 50.50000 20.73200
H  37.69400 44.75900 22.39000
H  34.98100 48.11700 29.71200
H  35.64400 50.88800 29.00100
H  33.22700 49.43700 29.83300
H  32.77900 50.29700 28.36300
H  33.32200 51.12700 29.88300
H  37.24800 49.89900 29.91800
H  37.76900 48.36000 29.38500
H  37.65000 48.89400 31.97800
H  37.17000 47.32000 31.41100
H  34.67300 54.24200 24.71100
H  33.45100 53.41100 25.81700
H  32.92500 53.90600 24.26600
H  32.84000 54.50000 22.16100
H  33.82500 54.84500 20.68800
H  34.53700 55.08400 22.34300
H  37.15100 48.79500 19.80000
H  36.56500 45.99900 20.24300
H  34.25700 48.50000 19.67800
H  34.64600 46.90400 19.42700
H  35.27600 48.11000 18.25900
H  38.78000 47.32700 19.24600
H  38.75000 45.68700 19.60000
H  40.28400 47.87900 20.68300
H  40.54900 46.18700 21.16200
H  39.55700 47.20100 22.12400
H  38.91800 43.30500 23.74800
H  37.33600 42.62100 24.13900
H  38.62500 42.65100 25.40400
H  37.28900 45.97600 29.29900
H  34.23800 45.24300 31.75900
H  35.45200 44.25100 32.53200
H  34.30300 43.69300 31.20900

