158

Mg 51.51500 46.28600 42.30200
C  48.40500 47.43500 40.60400
C  51.14800 43.52900 40.51400
C  54.77400 45.67200 43.16300
C  51.90100 49.71500 43.24600
N  49.95400 45.65300 40.66200
C  48.78800 46.16200 40.32200
C  47.92500 45.14100 39.54200
C  48.84300 43.85600 39.48200
C  50.11900 44.38600 40.23500
C  48.12600 42.53900 39.93200
C  47.32800 45.57700 38.12200
C  45.77800 45.33500 38.00100
H  45.48800 44.20600 37.02200
N  52.75300 44.76500 41.95300
C  52.33300 43.62600 41.21200
C  53.37200 42.65500 41.34500
C  54.48800 43.26700 42.08400
C  54.05800 44.61300 42.46400
C  53.28800 41.27900 40.75800
C  55.77000 42.57100 42.44000
O  56.00600 41.47900 41.89600
C  56.72500 43.03800 43.46300
N  53.04900 47.53700 43.11100
C  54.24300 46.96300 43.49500
C  55.09300 48.01500 44.27800
C  54.12500 49.20200 44.36700
C  52.98400 48.89200 43.42500
C  55.59000 47.53500 45.73100
C  54.79700 50.54900 44.09400
C  55.13500 51.39500 45.42100
N  50.40500 48.24100 42.11000
C  50.66800 49.52000 42.65200
C  49.53500 50.33600 42.44500
C  48.69200 49.61700 41.57300
C  49.19600 48.31400 41.44000
C  49.39200 51.76900 43.01300
C  47.35100 49.67100 40.96900
O  46.47100 50.50400 41.04200
C  47.12300 48.26700 40.26400
C  45.92900 47.77400 40.89900
O  45.80600 47.32100 42.01400
O  44.86300 47.89100 40.03900
C  43.48300 47.74600 40.54300
H  50.93900 42.52500 40.14000
H  55.83500 45.56000 43.39700
H  52.10100 50.73300 43.58600
H  47.12200 45.04600 40.27200
H  49.21300 43.75200 38.46200
H  48.17500 41.81100 39.12300
H  47.14100 42.74500 40.34900
H  48.59100 42.15900 40.84200
H  47.86400 45.00700 37.36300
H  47.54400 46.63100 37.94900
H  45.46600 46.33500 37.70100
H  45.20200 45.07500 38.88900
H  53.00200 41.24000 39.70700
H  52.42200 40.82000 41.23500
H  54.07700 40.55500 40.96500
H  56.21400 43.31500 44.38500
H  57.25000 43.85800 42.97400
H  57.42200 42.21000 43.60100
H  55.90600 48.29400 43.60700
H  53.69900 49.18800 45.37000
H  54.89800 47.74500 46.54800
H  56.50400 48.06200 46.00400
H  55.69100 46.46400 45.55800
H  54.24600 51.18200 43.39900
H  55.69100 50.43500 43.48100
H  55.84200 50.87800 46.07000
H  54.26500 51.62600 46.03600
H  55.64600 52.31900 45.15400
H  48.53000 52.20000 42.50400
H  50.30900 52.35800 43.01500
H  49.05700 51.49500 44.01400
H  47.09600 48.55100 39.21200
H  43.31100 46.90000 41.20800
H  42.78800 47.88500 39.71400
H  43.29600 48.61300 41.17600
Mg 41.59600 41.25800 26.90900
C  40.68300 43.85500 29.32800
C  42.57400 39.31600 29.37900
C  42.35600 39.10400 24.59100
C  41.32600 43.75000 24.50800
N  41.77900 41.64500 29.09300
C  41.23300 42.63500 29.90600
C  41.35300 42.30700 31.40100
C  42.10900 40.93500 31.38200
C  42.17800 40.57800 29.85300
C  43.49000 40.85900 32.09900
C  39.98500 42.29500 32.14000
C  39.78800 43.10700 33.49600
H  39.10800 42.33400 34.66500
N  42.40500 39.44900 26.96900
C  42.64000 38.76400 28.08200
C  42.98700 37.39100 27.75600
C  43.01000 37.34000 26.27700
C  42.53000 38.65200 25.88200
C  43.30900 36.31600 28.74400
C  43.34900 36.22700 25.35900
O  43.26300 36.33700 24.11500
C  43.85400 35.01800 25.92500
N  41.91600 41.47500 24.78200
C  42.04600 40.38900 24.04000
C  41.89300 40.57100 22.56500
C  41.55300 42.06800 22.47800
C  41.58000 42.50000 24.01500
C  43.05500 40.06100 21.67000
C  40.10800 42.55500 21.89700
C  38.89700 41.99800 22.77500
N  40.97400 43.32400 26.87900
C  40.94900 44.15600 25.80200
C  40.50600 45.51200 26.27200
C  40.31900 45.37500 27.63700
C  40.64500 44.07700 27.99500
C  40.30100 46.75700 25.43900
C  39.85400 46.08600 28.81100
O  39.35400 47.18700 28.96200
C  40.09200 45.15800 30.02200
C  41.07000 45.84100 30.90100
O  42.21900 46.22700 30.62000
O  40.49900 45.92100 32.15100
C  41.20900 46.46000 33.25800
H  42.88200 38.69400 30.22200
H  42.23000 38.34600 23.81400
H  41.21900 44.49800 23.71900
H  42.03900 43.00400 31.88100
H  41.59800 40.13200 31.91300
H  44.28300 40.51800 31.43400
H  43.40300 40.12900 32.90500
H  43.75600 41.87100 32.40400
H  39.64400 41.28700 32.37900
H  39.24100 42.76000 31.49300
H  39.05900 43.89600 33.31300
H  40.72700 43.60200 33.74500
H  42.51500 35.60800 28.50700
H  43.23500 36.63500 29.78300
H  44.29800 35.90300 28.54400
H  44.08100 34.27400 25.16100
H  42.97500 34.71800 26.49500
H  44.72800 35.14300 26.56500
H  40.96400 40.02800 22.39000
H  42.41800 42.57900 22.05700
H  43.85300 39.79900 22.36400
H  43.44900 40.84000 21.01800
H  42.99900 39.08100 21.19700
H  40.05600 42.07300 20.92200
H  40.00600 43.64000 21.84900
H  38.21600 42.84800 22.82400
H  39.12500 41.67800 23.79200
H  38.43400 41.20700 22.18500
H  40.52000 46.46200 24.41200
H  40.91900 47.60900 25.72200
H  39.29500 47.15200 25.57800
H  39.17500 44.77700 30.47100
H  42.16400 46.92200 33.00600
H  41.16900 45.60300 33.93000
H  40.66300 47.28600 33.71600

