158

Mg 16.79300 52.56000 25.40200
C  18.21400 51.43500 28.32400
C  14.34800 53.94000 27.31400
C  15.09400 53.06900 22.56000
C  19.15500 50.66400 23.54300
N  16.36100 52.54300 27.63600
C  17.23000 52.29900 28.61300
C  16.60100 52.57900 30.01600
C  15.30600 53.44200 29.60100
C  15.33500 53.39700 28.09400
C  13.94500 52.88600 30.19700
C  17.58100 53.32700 31.02500
C  17.37800 53.40900 32.55300
H  16.27000 52.41400 33.07600
N  15.05200 53.45400 24.97600
C  14.14300 53.91700 25.91500
C  12.98300 54.46600 25.22000
C  13.17500 54.25300 23.81900
C  14.45300 53.53300 23.73900
C  11.83400 55.27400 25.97600
C  12.30400 54.71500 22.66600
O  12.50000 54.43200 21.47500
C  11.08200 55.59000 22.97000
N  17.18800 52.11600 23.33700
C  16.29100 52.37800 22.37800
C  16.68400 51.72400 21.08100
C  18.11000 51.14900 21.30700
C  18.15000 51.31300 22.84400
C  15.69700 50.58000 20.61900
C  19.39500 51.83800 20.68500
C  19.83000 51.20700 19.40900
N  18.33800 51.30900 25.81700
C  19.30100 50.68600 24.97700
C  20.32400 50.06500 25.77900
C  19.85600 50.25100 27.09000
C  18.71600 51.07900 27.04700
C  21.56400 49.30700 25.38800
C  20.17200 50.06400 28.53200
O  21.10700 49.44400 29.02000
C  19.12300 50.77700 29.35700
C  18.58500 49.72900 30.37100
O  17.90700 48.68500 30.12400
O  19.03900 50.03100 31.60500
C  18.94600 49.03300 32.60700
H  13.54400 54.30900 27.95300
H  14.67800 53.25800 21.56800
H  19.85400 50.01500 23.01000
H  16.31300 51.60200 30.40400
H  15.24200 54.49000 29.89400
H  13.19000 52.55600 29.48400
H  13.45500 53.62000 30.83600
H  14.16800 52.02100 30.82200
H  17.43900 54.33800 30.64400
H  18.63200 53.10100 30.84500
H  17.25300 54.44900 32.85400
H  18.28100 53.02200 33.02500
H  11.45100 56.15400 25.45800
H  12.15000 55.49600 26.99600
H  11.01600 54.56800 26.11900
H  10.55400 55.80800 22.04200
H  11.41800 56.56300 23.32800
H  10.45200 55.09300 23.70800
H  16.68900 52.52400 20.34100
H  18.01400 50.08600 21.08800
H  14.64200 50.75200 20.83400
H  15.99800 49.61000 21.01500
H  15.77200 50.46600 19.53800
H  20.14500 51.92300 21.47100
H  19.03500 52.85200 20.51100
H  20.78500 50.71400 19.58800
H  20.16700 51.98300 18.72000
H  19.07800 50.52300 19.01500
H  21.58800 49.18100 24.30600
H  21.49900 48.28700 25.76800
H  22.45600 49.86000 25.68100
H  19.49100 51.52600 30.05800
H  19.53200 49.44200 33.42900
H  19.36700 48.08200 32.27700
H  17.92700 48.84300 32.94300
Mg -5.13200 25.45200 25.69500
C  -3.71500 26.99100 28.46300
C  -6.68200 23.20000 27.78000
C  -6.65900 24.20400 22.94600
C  -3.31600 27.63300 23.52000
N  -5.03500 25.03000 27.90400
C  -4.49900 25.86900 28.83300
C  -4.84000 25.46400 30.26000
C  -5.67300 24.16200 30.02700
C  -5.77700 24.05600 28.51300
C  -5.11300 22.83600 30.63300
C  -5.56600 26.66800 31.00100
C  -5.56500 26.81300 32.52200
H  -4.82000 25.80800 33.36900
N  -6.40700 23.84200 25.40400
C  -6.89700 22.99000 26.38700
C  -7.87300 22.03600 25.72800
C  -7.87100 22.34600 24.31400
C  -6.90900 23.51600 24.14800
C  -8.56100 20.99900 26.49400
C  -8.76100 21.75000 23.22500
O  -8.56800 21.99000 22.04300
C  -9.86900 20.84700 23.47500
N  -4.99600 25.87400 23.46700
C  -5.85100 25.26200 22.64900
C  -5.52300 25.64500 21.19200
C  -4.39200 26.79500 21.32100
C  -4.17200 26.73300 22.84900
C  -5.02900 24.42800 20.31600
C  -4.89600 28.18900 20.81100
C  -3.89000 29.00100 20.01100
N  -3.79000 26.99100 25.85500
C  -3.11300 27.77100 24.94900
C  -2.31000 28.72300 25.66400
C  -2.48400 28.42300 27.02300
C  -3.46600 27.40900 27.14400
C  -1.46300 29.88000 25.20100
C  -2.06700 28.74800 28.30100
O  -1.14800 29.48800 28.68600
C  -2.86000 27.91000 29.34700
C  -1.85200 27.12400 30.11500
O  -1.32400 26.06100 29.73400
O  -1.51400 27.76600 31.23300
C  -0.46300 27.24800 32.11000
H  -7.15500 22.48200 28.45300
H  -7.21800 23.97700 22.03600
H  -2.75200 28.43300 23.03500
H  -3.91900 25.25700 30.80500
H  -6.68400 24.35100 30.38600
H  -4.77800 22.11500 29.88700
H  -5.90800 22.34900 31.19800
H  -4.27300 23.08000 31.28300
H  -6.63500 26.62800 30.79300
H  -5.26400 27.64000 30.61300
H  -6.59400 26.60400 32.81600
H  -5.24400 27.82000 32.78800
H  -9.52400 20.73700 26.05500
H  -8.77200 21.49300 27.44300
H  -7.91800 20.12300 26.41900
H  -9.58700 20.08000 24.19600
H  -10.20300 20.33700 22.57200
H  -10.75100 21.31500 23.91200
H  -6.33500 26.10600 20.63000
H  -3.44000 26.49400 20.88400
H  -4.11000 24.61100 19.75900
H  -5.84400 24.16600 19.64100
H  -4.90300 23.53100 20.92200
H  -5.24200 28.65100 21.73500
H  -5.78700 28.20100 20.18300
H  -4.22300 29.27500 19.01000
H  -2.89800 28.56200 19.90400
H  -3.69800 29.88500 20.62000
H  -0.45200 29.49800 25.06100
H  -1.58600 30.72700 25.87500
H  -1.84800 30.23700 24.24600
H  -3.39100 28.55300 30.04800
H  0.34500 27.96900 31.98400
H  -0.02000 26.31600 31.75900
H  -0.91700 27.13600 33.09400

