158

Mg 9.33300 4.07500 28.04000
C  10.25700 2.18100 30.94900
C  7.02100 5.75800 29.96900
C  8.19200 5.53100 25.22900
C  10.85700 1.59500 26.09900
N  8.60300 3.84100 30.18600
C  9.40100 3.26400 31.18200
C  8.87800 3.61600 32.56600
C  7.82100 4.75600 32.26200
C  7.84500 4.79600 30.71900
C  6.44500 4.59800 32.81300
C  9.97000 3.78000 33.62300
C  9.77300 4.84800 34.69500
H  10.00700 4.49300 36.15000
N  7.92100 5.52400 27.67100
C  7.05000 6.06000 28.56800
C  6.27800 7.10900 27.95700
C  6.70500 7.22600 26.54300
C  7.62600 6.04800 26.40300
C  5.29300 7.98500 28.70600
C  6.30300 8.14300 25.48300
O  6.67200 8.11100 24.31800
C  5.31200 9.32800 25.76200
N  9.61000 3.74300 25.92800
C  9.04200 4.50100 25.01900
C  9.49000 4.05300 23.63100
C  10.35600 2.79100 23.89300
C  10.24200 2.67100 25.40100
C  8.37400 3.94300 22.51400
C  11.77400 2.91400 23.31500
C  12.35800 1.80600 22.35100
N  10.45300 2.31400 28.36900
C  10.97900 1.37900 27.49100
C  11.55900 0.31400 28.23100
C  11.45700 0.66300 29.53800
C  10.67100 1.83200 29.61900
C  12.23900 -0.87300 27.58200
C  11.78100 0.25100 30.86300
O  12.50200 -0.64600 31.28800
C  11.04700 1.23000 31.86000
C  10.15500 0.43300 32.68600
O  8.98500 0.05700 32.47100
O  10.65700 0.27400 33.95700
C  9.66000 -0.23100 34.95600
H  6.35200 6.37200 30.57500
H  7.81200 5.91500 24.28000
H  11.33600 0.96400 25.34700
H  8.35300 2.74000 32.94900
H  8.24800 5.72400 32.52500
H  5.61500 5.01300 32.24000
H  6.53100 5.04500 33.80400
H  6.17500 3.54500 32.88600
H  10.89000 3.90800 33.05200
H  10.13200 2.85900 34.18400
H  8.70300 5.05000 34.74300
H  10.37600 5.72300 34.45500
H  4.94200 7.61200 29.66900
H  4.43800 7.99400 28.03000
H  5.63200 9.01300 28.83200
H  5.63200 10.12500 25.09100
H  5.46800 9.70300 26.77400
H  4.25800 9.08500 25.62700
H  10.20400 4.74900 23.19200
H  9.90600 1.90100 23.45400
H  7.42500 4.34800 22.86400
H  8.26200 2.89100 22.25000
H  8.76300 4.51200 21.67000
H  12.51700 3.04400 24.10300
H  11.83300 3.81900 22.71000
H  12.12300 2.18000 21.35500
H  11.87800 0.83200 22.44300
H  13.44300 1.84500 22.44700
H  13.16200 -0.45000 27.18500
H  11.57400 -1.37800 26.88100
H  12.41200 -1.71100 28.25700
H  11.69200 1.69300 32.60600
H  9.00900 0.61500 35.17900
H  10.18400 -0.53700 35.86100
H  9.02500 -1.07800 34.69500
Mg 47.10700 24.65300 27.81000
C  48.11700 26.85100 30.32600
C  46.12300 22.43500 30.19900
C  46.29600 22.63700 25.24800
C  48.03300 27.11500 25.44100
N  47.04900 24.76000 29.95200
C  47.45100 25.74500 30.79500
C  47.02200 25.42700 32.28700
C  46.51000 23.97800 32.23400
C  46.53000 23.67600 30.70000
C  47.31200 22.98500 33.17100
C  46.09900 26.53300 32.95600
C  46.58800 26.91600 34.36600
H  45.68500 27.44100 35.48800
N  46.55100 22.79300 27.75500
C  46.16000 21.97000 28.84400
C  45.77400 20.64400 28.25600
C  45.78400 20.74200 26.84600
C  46.18300 22.15600 26.56400
C  45.45400 19.48600 29.09700
C  45.47100 19.71900 25.76300
O  45.65600 19.91200 24.58700
C  44.69300 18.44100 26.03700
N  47.43300 24.72500 25.65100
C  46.85900 23.78900 24.84700
C  46.80500 24.24000 23.42600
C  47.14300 25.73400 23.43200
C  47.62700 25.88400 24.92700
C  47.70700 23.43800 22.46000
C  45.93600 26.61700 23.23200
C  46.18600 28.06300 22.55800
N  48.02900 26.51100 27.76800
C  48.29100 27.41900 26.82400
C  48.92000 28.52900 27.33800
C  48.91400 28.39300 28.71900
C  48.29600 27.12300 28.94100
C  49.56400 29.61000 26.45400
C  49.23500 28.98400 29.92300
O  49.77200 30.06000 30.15400
C  48.57700 28.09300 31.02700
C  49.67500 27.87000 32.08800
O  50.61300 27.16700 32.02200
O  49.38800 28.70800 33.16200
C  50.18400 28.54100 34.38500
H  45.77000 21.65200 30.87400
H  45.92400 22.05400 24.40300
H  48.30500 27.87800 24.71000
H  47.97600 25.50600 32.80800
H  45.46200 23.96900 32.53400
H  47.81700 22.20800 32.59700
H  46.67500 22.46000 33.88300
H  48.01100 23.54400 33.79400
H  45.06800 26.18500 33.01300
H  46.10500 27.44900 32.36400
H  47.19900 27.81300 34.26300
H  47.11200 26.03900 34.74700
H  46.03600 19.64400 30.00500
H  45.87200 18.58700 28.64500
H  44.38100 19.29700 29.11800
H  43.91700 18.66800 26.76800
H  45.34500 17.79400 26.62400
H  44.38600 17.91100 25.13500
H  45.75900 24.05700 23.18300
H  47.91300 26.07400 22.73900
H  48.71600 23.38800 22.86900
H  47.89200 23.99800 21.54300
H  47.16900 22.51600 22.23900
H  45.37800 26.61600 24.16800
H  45.21300 26.13600 22.57300
H  45.94900 28.18500 21.50200
H  47.20400 28.44400 22.63900
H  45.53300 28.71000 23.14400
H  49.18000 29.76700 25.44500
H  50.55700 29.16100 26.46100
H  49.57300 30.48600 27.10200
H  47.80800 28.70900 31.49300
H  49.76400 27.69000 34.92100
H  50.02600 29.46200 34.94600
H  51.21900 28.23200 34.23800

