158

Mg 46.67400 35.16100 28.73500
C  45.08800 33.07000 31.19500
C  46.90300 37.54500 31.17200
C  47.65200 37.31200 26.39500
C  45.87200 32.74500 26.41900
N  46.26000 35.20000 30.98300
C  45.58600 34.22000 31.76000
C  45.45900 34.66400 33.19000
C  45.69200 36.21400 33.06700
C  46.34800 36.30600 31.67100
C  44.42800 37.00400 33.23000
C  46.48200 34.03900 34.16600
C  45.86900 33.89100 35.63600
H  46.14100 35.01200 36.63500
N  47.55800 37.11900 28.78900
C  47.59600 37.88900 29.94000
C  48.18700 39.16700 29.54400
C  48.29500 39.14300 28.11800
C  47.86600 37.79700 27.68300
C  48.38000 40.31100 30.53500
C  48.76800 40.20400 27.18000
O  48.83000 40.03700 25.97700
C  49.29800 41.54900 27.72600
N  46.61700 35.15200 26.66600
C  47.16900 36.11200 25.89500
C  46.87200 35.87500 24.37400
C  46.36400 34.34600 24.42000
C  46.29800 34.05000 25.98600
C  45.92600 36.96700 23.78200
C  47.32900 33.37400 23.60800
C  46.78500 32.45900 22.51800
N  45.84300 33.19700 28.74600
C  45.60200 32.36700 27.70500
C  45.01500 31.11100 28.16800
C  44.76400 31.37300 29.52500
C  45.25400 32.65500 29.82000
C  44.64300 29.89500 27.41900
C  44.18600 30.74400 30.69800
O  43.79000 29.62500 30.91200
C  44.20300 31.91900 31.77000
C  44.70500 31.39200 33.02500
O  45.63100 30.62000 33.23400
O  43.77600 31.74100 34.00200
C  43.85200 31.03200 35.27900
H  46.71700 38.31400 31.92400
H  47.91500 38.05200 25.63700
H  45.68400 32.03100 25.61500
H  44.48500 34.49500 33.64900
H  46.30800 36.63400 33.86100
H  43.58500 36.42100 33.59900
H  44.06800 37.35400 32.26300
H  44.63300 37.87700 33.85000
H  47.32100 34.73400 34.20500
H  46.83800 33.08300 33.78300
H  46.25100 33.01100 36.15500
H  44.79400 33.72000 35.58100
H  48.15100 41.32800 30.21500
H  49.43400 40.35800 30.80900
H  47.77100 40.20800 31.43300
H  49.93000 42.10400 27.03200
H  49.83000 41.39000 28.66400
H  48.41600 42.18500 27.80800
H  47.82100 35.92700 23.84000
H  45.35500 34.34800 24.00700
H  45.60600 37.71800 24.50400
H  45.05000 36.50500 23.32500
H  46.48300 37.50700 23.01700
H  47.86000 32.81800 24.38100
H  47.99700 34.02500 23.04400
H  45.78300 32.10000 22.75300
H  47.55300 31.68500 22.49500
H  46.84300 33.11300 21.64700
H  43.66800 30.05300 26.95900
H  44.54300 29.09300 28.15000
H  45.40000 29.57300 26.70400
H  43.22800 32.38500 31.91000
H  42.83000 31.21800 35.60700
H  44.55300 31.43700 36.00900
H  43.98200 29.94900 35.29600
Mg -2.73900 34.82500 26.67800
C  -3.84800 33.19400 29.57300
C  -0.96000 36.91000 28.67200
C  -1.89200 36.57700 23.86000
C  -4.62800 32.54800 24.83700
N  -2.43300 34.94800 28.95200
C  -2.92100 34.22900 29.92400
C  -2.37700 34.60900 31.31300
C  -1.48300 35.88700 30.94500
C  -1.61200 35.95300 29.41900
C  -1.82900 37.07500 31.71800
C  -1.65400 33.39900 31.96900
C  -2.39600 32.89800 33.32800
H  -1.49600 32.74600 34.54400
N  -1.59300 36.49000 26.26200
C  -0.94400 37.19700 27.26200
C  -0.14100 38.19000 26.63700
C  -0.19400 37.90900 25.26700
C  -1.20400 36.92100 25.06400
C  0.81100 39.17200 27.37500
C  0.63400 38.48100 24.05900
O  0.33700 38.29300 22.94600
C  1.92400 39.36700 24.34000
N  -3.57100 34.83700 24.70100
C  -2.94900 35.60300 23.72300
C  -3.53400 35.20300 22.38600
C  -4.06300 33.75100 22.67600
C  -4.12300 33.71800 24.19500
C  -4.51500 36.21800 21.71800
C  -3.19200 32.58300 22.15700
C  -3.29900 32.24700 20.67500
N  -3.99000 33.21900 27.07700
C  -4.67300 32.40100 26.25500
C  -5.48300 31.45000 26.92300
C  -5.17500 31.76700 28.28700
C  -4.24400 32.81800 28.25800
C  -6.50500 30.57800 26.39600
C  -5.35800 31.31800 29.67200
O  -5.98200 30.38600 30.15000
C  -4.57800 32.28000 30.54100
C  -5.54800 32.92500 31.49500
O  -6.31300 33.86600 31.23800
O  -5.52400 32.33900 32.70700
C  -6.50800 32.63700 33.69400
H  -0.33700 37.71300 29.07300
H  -1.62100 37.05800 22.91700
H  -5.11900 31.80600 24.20400
H  -3.21300 34.90700 31.94600
H  -0.47500 35.80000 31.35100
H  -0.92200 37.58800 32.03600
H  -2.47400 36.85800 32.56900
H  -2.36500 37.77800 31.08100
H  -0.60200 33.60800 32.16000
H  -1.51300 32.61200 31.22800
H  -2.73000 31.87100 33.17900
H  -3.26800 33.52500 33.51500
H  1.80300 38.74100 27.51100
H  0.45800 39.39300 28.38300
H  0.94200 40.02500 26.70900
H  2.59500 38.90800 25.06600
H  1.57400 40.36800 24.59500
H  2.46100 39.37700 23.39100
H  -2.67700 35.21000 21.71300
H  -5.03700 33.65600 22.19700
H  -5.47600 35.76700 21.47100
H  -4.24300 36.59100 20.73100
H  -4.80900 37.02300 22.39200
H  -3.46600 31.65300 22.65600
H  -2.17000 32.92300 22.32600
H  -4.14400 32.72200 20.17500
H  -3.46800 31.18200 20.52000
H  -2.39300 32.55600 20.15300
H  -6.17900 29.54700 26.54000
H  -6.66300 30.76600 25.33400
H  -7.42200 30.80700 26.93700
H  -3.98300 31.79300 31.31300
H  -6.04700 33.30500 34.42100
H  -6.78200 31.69200 34.16300
H  -7.36700 33.13500 33.24300

