158

Mg 49.06100 45.81500 43.15200
C  45.63000 45.74900 42.21900
C  49.09400 42.51800 42.28600
C  52.49400 46.06300 42.97000
C  48.80900 49.27500 43.63100
N  47.55000 44.34300 42.23100
C  46.23800 44.50900 41.99000
C  45.42300 43.18900 41.64900
C  46.54700 42.21000 41.88600
C  47.78900 43.06100 42.31200
C  46.28700 41.05600 42.82300
C  44.70700 43.07000 40.23000
C  45.39600 43.76200 39.03000
H  45.24600 42.91700 37.75000
N  50.59800 44.50800 42.59600
C  50.38800 43.17100 42.39500
C  51.62300 42.50800 42.23400
C  52.63600 43.49100 42.37600
C  51.95400 44.74700 42.63700
C  51.77100 41.01000 41.86300
C  54.11100 43.18300 42.33400
O  54.45800 41.98700 42.10100
C  55.09200 44.29900 42.46900
N  50.39100 47.50100 43.14000
C  51.78200 47.27700 43.16200
C  52.52100 48.62900 43.33900
C  51.33200 49.63400 43.56900
C  50.11600 48.77500 43.46000
C  53.67500 48.67000 44.32500
C  51.21700 50.73400 42.50600
C  50.74400 52.15800 42.94700
N  47.48100 47.24800 43.17300
C  47.55300 48.61900 43.38800
C  46.22800 49.17500 43.27700
C  45.41000 48.13300 42.76600
C  46.21600 46.94300 42.76500
C  45.82600 50.68500 43.46600
C  44.12100 47.77700 42.16600
O  43.11500 48.44000 41.95600
C  44.15200 46.21500 41.84200
C  43.07000 45.48600 42.62300
O  42.37900 44.53900 42.30200
O  42.90200 46.12100 43.86900
C  41.94400 45.45600 44.76800
H  49.17700 41.47600 41.97100
H  53.56800 46.22300 43.08400
H  48.64800 50.30000 43.97200
H  44.66500 43.15200 42.43100
H  46.84600 41.83000 40.90900
H  46.53100 40.13900 42.28700
H  45.24800 41.05900 43.15400
H  46.82300 41.26800 43.74800
H  43.64900 43.32600 40.29800
H  44.69200 42.00000 40.02500
H  46.47700 43.71900 39.16000
H  45.06000 44.77800 38.82200
H  51.96400 41.01300 40.79000
H  50.96700 40.32000 42.11800
H  52.64800 40.64700 42.40000
H  55.02100 44.69500 41.45600
H  56.06100 43.80100 42.50400
H  54.95600 44.88800 43.37600
H  52.92600 48.87600 42.35700
H  51.39400 50.01500 44.58800
H  53.38500 49.39700 45.08400
H  54.52200 49.00600 43.72800
H  53.81400 47.68200 44.76500
H  50.46100 50.41600 41.78900
H  52.20800 50.90500 42.08500
H  50.41400 52.13200 43.98600
H  49.89400 52.40300 42.31000
H  51.48900 52.93000 42.75600
H  46.66000 51.26300 43.06800
H  45.75400 50.80200 44.54700
H  44.89400 50.82300 42.91700
H  44.10600 45.87300 40.80800
H  42.07400 45.77400 45.80300
H  42.42400 44.47800 44.74400
H  40.93300 45.49600 44.36300
Mg -11.58700 38.02400 42.85700
C  -8.99600 35.58000 42.17000
C  -9.29600 40.43400 41.89300
C  -14.18100 40.10200 42.68400
C  -13.72900 35.28800 43.70300
N  -9.40600 37.93900 41.99900
C  -8.50600 36.91800 41.88800
C  -7.05100 37.37100 41.47100
C  -7.20100 38.93600 41.77300
C  -8.72400 39.10500 41.90900
C  -6.54000 39.57900 42.99400
C  -6.72300 36.93700 39.99600
C  -5.63500 35.88400 39.74300
H  -6.07300 34.82600 38.81000
N  -11.69200 40.04500 42.37000
C  -10.64200 40.84900 42.01200
C  -11.06900 42.22500 42.04000
C  -12.50800 42.20300 42.26600
C  -12.89400 40.75400 42.49900
C  -10.26600 43.42300 41.88000
C  -13.46200 43.35300 42.20700
O  -13.17300 44.50300 41.87600
C  -14.81400 43.17500 42.68700
N  -13.67700 37.69500 43.08200
C  -14.51800 38.77700 43.07700
C  -15.87700 38.34800 43.58500
C  -15.75900 36.82100 43.72300
C  -14.28300 36.57500 43.57800
C  -16.16400 39.11200 44.95000
C  -16.71900 36.12900 42.72600
C  -16.07000 35.81400 41.36500
N  -11.42300 35.85600 43.02600
C  -12.34600 34.87600 43.47400
C  -11.69000 33.58700 43.50600
C  -10.42900 33.81600 43.02100
C  -10.29000 35.22700 42.69400
C  -12.18800 32.26600 43.99300
C  -9.20500 33.21700 42.78600
O  -8.76300 32.07200 43.04200
C  -8.17800 34.33200 42.25000
C  -7.15300 34.32500 43.27600
O  -7.05900 34.90300 44.34200
O  -6.18500 33.49300 42.79600
C  -4.95500 33.36300 43.60000
H  -8.58000 41.23900 41.71400
H  -15.07200 40.73200 42.64100
H  -14.44600 34.55400 44.07700
H  -6.30300 36.88800 42.09900
H  -7.02300 39.52700 40.87500
H  -6.01400 38.79200 43.53400
H  -7.26900 39.94200 43.71900
H  -5.74000 40.23500 42.65200
H  -6.31200 37.88400 39.64700
H  -7.59700 36.78600 39.36300
H  -5.38300 35.37600 40.67400
H  -4.71700 36.34400 39.37700
H  -9.95800 43.66400 40.86200
H  -9.34300 43.14800 42.39100
H  -10.63300 44.26000 42.47300
H  -15.39800 42.72400 41.88400
H  -15.22100 44.14200 42.98300
H  -14.83100 42.44600 43.49600
H  -16.58700 38.61700 42.80300
H  -16.14300 36.47100 44.68100
H  -15.95700 38.41500 45.76200
H  -17.14500 39.58200 45.00900
H  -15.53400 39.99300 45.07400
H  -17.61000 36.74700 42.61800
H  -17.17100 35.25900 43.20300
H  -16.79900 36.03200 40.58400
H  -15.79000 34.76400 41.44100
H  -15.19500 36.44300 41.20500
H  -12.45200 32.31500 45.04900
H  -11.47300 31.45700 43.84700
H  -13.03500 31.94500 43.38700
H  -7.67400 34.09900 41.31200
H  -4.37700 34.25700 43.36500
H  -4.43700 32.42100 43.42000
H  -5.19900 33.42300 44.66100

