158

Mg 49.33700 45.35800 42.38200
C  46.04400 46.31200 41.36700
C  48.87800 42.40200 40.79700
C  52.66400 44.93600 42.41600
C  49.83700 48.67000 43.38500
N  47.58400 44.45900 41.25900
C  46.38500 45.05500 40.93700
C  45.53800 44.04600 40.18800
C  46.38900 42.64300 40.30500
C  47.73300 43.20300 40.81600
C  45.60600 41.57800 41.28400
C  45.13500 44.46000 38.68700
C  43.94400 43.73400 38.06100
H  44.23600 42.65500 37.04400
N  50.59000 43.72700 41.93700
C  50.21100 42.64000 41.23600
C  51.34200 41.76100 41.19400
C  52.41300 42.34200 41.87500
C  51.93400 43.75500 42.08200
C  51.32400 40.39300 40.44300
C  53.83700 41.91100 42.14200
O  54.15800 40.81400 41.75600
C  54.91500 42.64700 42.86000
N  50.96800 46.66800 42.70700
C  52.22700 46.22700 42.67400
C  53.28900 47.32000 42.91900
C  52.43500 48.41200 43.63000
C  50.98700 47.96600 43.26300
C  54.51300 46.93200 43.86300
C  52.81900 49.86600 43.23100
C  53.87600 50.52400 44.15000
N  48.18200 47.08100 42.52100
C  48.54800 48.35700 42.95300
C  47.39800 49.17500 42.90200
C  46.38100 48.44200 42.30200
C  46.89100 47.16300 42.03100
C  47.42200 50.62800 43.33900
C  44.93900 48.40800 41.87200
O  44.00500 49.23700 41.89800
C  44.79800 47.10400 41.09700
C  43.55400 46.46800 41.33500
O  42.66800 46.30400 40.55300
O  43.56600 45.90800 42.60700
C  42.45500 44.93900 42.85700
H  48.71700 41.46700 40.25600
H  53.73500 44.72700 42.38000
H  50.00500 49.67700 43.77300
H  44.63200 43.85000 40.76200
H  46.44600 42.26700 39.28300
H  46.29000 41.36100 42.10400
H  45.41100 40.65900 40.73100
H  44.66900 41.91300 41.73100
H  46.06100 44.19500 38.17700
H  45.12300 45.54500 38.59200
H  43.30200 44.50100 37.62600
H  43.34300 43.38100 38.89900
H  52.23700 39.79700 40.42500
H  50.92100 40.52400 39.43900
H  50.69600 39.98500 41.23500
H  55.36000 43.36100 42.16600
H  55.61800 41.96100 43.33000
H  54.52600 43.06000 43.79100
H  53.69500 47.64300 41.96000
H  52.50900 48.28000 44.71000
H  54.46800 45.92300 44.27500
H  54.73100 47.55700 44.72900
H  55.39800 46.80200 43.24000
H  52.01700 50.60100 43.16600
H  53.34000 49.85900 42.27400
H  54.16400 49.88600 44.98500
H  53.52000 51.45100 44.60100
H  54.75700 50.76500 43.55500
H  47.70200 51.45000 42.68100
H  48.01000 50.73500 44.25000
H  46.45900 51.03700 43.64400
H  44.76900 47.41000 40.05200
H  42.58400 43.98000 42.35600
H  41.46200 45.20000 42.48900
H  42.41900 44.81600 43.94000
Mg -3.21800 35.16900 26.38900
C  -4.90400 33.41800 28.77600
C  -1.64700 37.05400 28.66600
C  -1.99900 37.16900 23.81800
C  -5.17300 33.55800 24.02400
N  -3.54400 35.41800 28.45100
C  -4.12200 34.45900 29.27400
C  -3.73400 34.57000 30.75500
C  -2.81700 35.86100 30.63300
C  -2.66400 36.20600 29.13700
C  -3.38800 37.07800 31.37300
C  -2.84000 33.32500 31.20000
C  -3.25200 32.79500 32.59200
H  -2.32200 32.89800 33.84200
N  -2.02800 36.95800 26.27200
C  -1.34100 37.45500 27.35300
C  -0.33500 38.29800 26.93400
C  -0.39500 38.30300 25.48200
C  -1.51800 37.42100 25.10800
C  0.70600 38.94200 27.86900
C  0.43700 39.02300 24.44500
O  0.25100 39.01800 23.18400
C  1.71000 39.68300 24.88900
N  -3.76600 35.57400 24.26800
C  -3.10000 36.37900 23.42900
C  -3.52100 36.34000 21.97800
C  -4.18400 34.95800 22.02400
C  -4.49400 34.67000 23.50400
C  -4.44100 37.58000 21.57200
C  -3.31200 33.79900 21.41000
C  -2.49700 32.90700 22.33500
N  -4.66200 33.73600 26.30300
C  -5.34500 33.14600 25.31300
C  -6.03000 32.01800 25.80000
C  -5.90200 32.04200 27.22400
C  -5.05400 33.11500 27.46000
C  -6.82200 31.05500 25.05100
C  -6.28100 31.46200 28.48700
O  -7.03900 30.51500 28.65500
C  -5.65000 32.40400 29.58000
C  -6.71000 32.97400 30.36000
O  -7.51400 33.81800 29.97800
O  -6.82400 32.35100 31.50400
C  -7.88100 32.70600 32.48100
H  -1.03000 37.53000 29.43100
H  -1.62100 37.69400 22.93800
H  -5.69600 32.89900 23.32800
H  -4.61300 34.74800 31.37300
H  -1.74800 35.71700 30.78800
H  -3.55000 37.91400 30.69300
H  -2.61300 37.36600 32.08300
H  -4.37000 36.87700 31.80200
H  -1.80100 33.63200 31.32100
H  -2.81300 32.51200 30.47400
H  -3.38400 31.74100 32.35000
H  -4.23600 33.08100 32.96400
H  1.69200 38.87800 27.40800
H  0.68600 38.44500 28.83900
H  0.53900 40.01600 27.94100
H  1.35700 40.42800 25.60200
H  2.06400 40.39500 24.14300
H  2.44100 38.95000 25.23000
H  -2.67100 36.52300 21.32100
H  -5.09600 34.97500 21.42700
H  -4.01200 37.94900 20.64100
H  -4.39700 38.35800 22.33400
H  -5.42000 37.16900 21.32400
H  -2.51400 34.18800 20.77800
H  -4.10400 33.19100 20.97100
H  -2.35900 33.45200 23.26800
H  -1.45500 32.86800 22.01800
H  -2.99100 31.93500 22.31200
H  -6.74600 31.02000 23.96500
H  -7.86200 31.33200 25.22200
H  -6.74500 30.00500 25.33300
H  -5.05700 31.72100 30.19000
H  -8.61500 33.36600 32.01900
H  -7.37400 33.16600 33.32900
H  -8.22500 31.70600 32.74500

