158

Mg 47.39800 25.09300 28.76300
C  48.29300 27.18500 31.32900
C  46.14800 22.97500 31.25600
C  46.80400 22.96900 26.40000
C  48.77600 27.30700 26.42200
N  47.02800 25.18000 31.02400
C  47.46200 26.17200 31.82700
C  47.07100 25.96800 33.26800
C  46.54600 24.43700 33.27300
C  46.56800 24.17400 31.76500
C  47.24800 23.29800 34.06500
C  46.02700 26.99300 33.78100
C  46.23800 27.75800 35.13800
H  44.95600 28.08100 35.98700
N  46.51700 23.34300 28.79800
C  46.04200 22.59500 29.85100
C  45.43800 21.42600 29.43900
C  45.61800 21.35700 27.99000
C  46.38300 22.57200 27.67300
C  44.79400 20.41900 30.31400
C  45.32000 20.20100 27.04200
O  45.69100 20.25900 25.86200
C  44.74200 18.80700 27.49400
N  48.09200 24.98900 26.66800
C  47.40900 24.07700 25.91300
C  47.84600 24.24600 24.47000
C  48.14400 25.77900 24.41800
C  48.38500 26.07200 25.90200
C  49.09900 23.32200 24.16800
C  46.98700 26.59100 23.79300
C  47.03800 26.47900 22.21200
N  48.39100 26.86900 28.83900
C  48.86900 27.72000 27.79600
C  49.33000 28.93800 28.38300
C  49.22000 28.70600 29.75600
C  48.61200 27.48000 29.99200
C  49.84000 30.12800 27.64800
C  49.40100 29.31800 31.09500
O  49.82200 30.41500 31.45300
C  48.96800 28.25800 32.17300
C  50.05700 27.79200 33.11100
O  51.05400 27.15600 32.76100
O  49.82700 28.33100 34.38300
C  51.02300 28.23500 35.28500
H  45.64400 22.28900 31.94000
H  46.45300 22.28700 25.62200
H  49.10600 27.98100 25.63000
H  48.01100 26.02600 33.81700
H  45.48500 24.31700 33.49200
H  47.96600 22.70600 33.49800
H  46.56100 22.56300 34.48500
H  47.74900 23.79100 34.89900
H  45.04000 26.53300 33.79800
H  45.94200 27.79500 33.04700
H  46.77700 28.70500 35.11200
H  46.77500 27.10400 35.82500
H  45.54400 19.71000 30.66400
H  44.00200 19.84200 29.83800
H  44.36600 20.86700 31.21100
H  45.42400 18.43300 28.25800
H  44.67500 18.11000 26.65900
H  43.76100 18.97000 27.94200
H  47.06500 24.01100 23.74700
H  49.06300 25.99400 23.87300
H  49.16900 22.70200 25.06100
H  50.09100 23.76900 24.09400
H  48.98100 22.68100 23.29400
H  47.02700 27.63500 24.10500
H  46.04800 26.08300 24.00900
H  46.19900 26.07100 21.64700
H  47.93900 26.00300 21.82600
H  47.17100 27.51800 21.90900
H  50.88300 30.28100 27.92300
H  49.24400 30.97400 27.99000
H  49.71800 30.12800 26.56500
H  48.17100 28.81200 32.66800
H  50.88000 27.41200 35.98500
H  51.12700 29.21400 35.75200
H  51.93300 28.06400 34.71100
Mg 28.52300 58.17200 41.56600
C  25.99000 56.18000 40.14500
C  30.81700 56.40200 39.73800
C  30.75400 60.49200 42.36000
C  25.91300 60.44300 42.76500
N  28.41800 56.52100 40.17800
C  27.29700 55.86500 39.74000
C  27.58400 54.91000 38.63400
C  29.18400 54.78000 38.66800
C  29.53600 56.01500 39.52600
C  29.85000 53.54400 39.35500
C  27.06800 55.43200 37.21600
C  26.72300 54.23000 36.33100
H  27.26300 54.16700 34.86800
N  30.58900 58.36500 41.27400
C  31.30500 57.52700 40.46200
C  32.69900 58.07200 40.49300
C  32.64300 59.35500 41.07600
C  31.25200 59.44100 41.63400
C  33.75700 57.33600 39.84300
C  33.87500 60.31000 41.03400
O  34.91200 59.75900 40.68100
C  33.88000 61.71300 41.53200
N  28.28700 60.21600 42.35900
C  29.41400 60.94400 42.70800
C  29.04000 62.34700 43.23300
C  27.49000 62.25000 43.43200
C  27.18700 60.86900 42.81000
C  29.89700 62.92400 44.38600
C  26.77300 63.46100 42.73200
C  25.59300 64.04700 43.53600
N  26.45100 58.22200 41.63500
C  25.53700 59.17200 42.17600
C  24.19200 58.65500 42.10200
C  24.27900 57.55200 41.24400
C  25.65400 57.28700 40.96800
C  22.97800 59.36000 42.64100
C  23.50300 56.58600 40.46800
O  22.33100 56.36800 40.30300
C  24.67300 55.66900 39.72400
C  24.35600 54.17900 40.00100
O  24.47000 53.62300 41.08800
O  23.99900 53.52200 38.88900
C  23.40100 52.16600 38.99400
H  31.61200 55.93400 39.15300
H  31.41000 61.30600 42.67400
H  25.14600 61.11000 43.16400
H  27.22000 53.92500 38.92600
H  29.52800 54.77300 37.63400
H  30.31400 53.82800 40.30000
H  30.63000 53.14700 38.70500
H  29.10900 52.78900 39.61700
H  27.82700 56.08500 36.78500
H  26.25300 56.14400 37.34400
H  25.63400 54.18800 36.32800
H  27.02800 53.32900 36.86400
H  33.60500 57.43100 38.76800
H  33.62000 56.27200 40.03800
H  34.82900 57.45100 40.00000
H  33.07500 62.06100 40.88400
H  34.79800 62.21900 41.23400
H  33.73300 61.79200 42.61000
H  29.27600 63.04700 42.43100
H  27.27500 62.35100 44.49600
H  29.41700 62.89200 45.36400
H  30.21600 63.92300 44.08600
H  30.84600 62.40000 44.49700
H  26.45300 63.12300 41.74600
H  27.51200 64.19700 42.41800
H  25.68300 63.56800 44.51100
H  24.71900 63.68200 42.99800
H  25.64200 65.13500 43.49800
H  22.20400 59.00200 41.96300
H  23.05100 60.44400 42.56400
H  22.95600 59.08000 43.69500
H  24.36100 55.88400 38.70200
H  24.24000 51.47000 39.00900
H  22.72700 51.85900 38.19500
H  22.88600 52.13300 39.95400

