158

Mg 2.03800 8.24500 27.06200
C  2.15000 10.45000 29.86500
C  2.07200 5.69700 29.32900
C  1.91600 6.15800 24.50300
C  2.46200 10.96900 24.87700
N  2.05300 8.12800 29.38100
C  2.00800 9.10100 30.25200
C  1.86400 8.57500 31.71800
C  2.20800 7.05900 31.59800
C  2.19000 6.93800 30.02700
C  3.62100 6.60300 32.22900
C  0.44300 8.85300 32.39800
C  0.54000 9.60400 33.70300
H  1.13100 8.83600 34.92300
N  1.87500 6.27200 26.90000
C  1.90500 5.35200 27.93400
C  1.78300 3.97800 27.44400
C  1.81600 4.09400 26.06200
C  1.88800 5.57400 25.80200
C  1.57600 2.75000 28.39800
C  1.74600 3.02900 24.94700
O  1.90300 3.25500 23.77100
C  1.64400 1.58600 25.33500
N  2.01200 8.51900 25.02300
C  1.98000 7.49000 24.11400
C  2.19400 8.08400 22.67500
C  1.86600 9.58800 22.88700
C  2.25000 9.69200 24.35600
C  3.58800 7.85400 21.98100
C  0.35500 9.98800 22.57600
C  -0.00900 11.35600 22.11400
N  2.42300 10.27200 27.27500
C  2.60100 11.24200 26.27700
C  2.73900 12.47100 26.93600
C  2.63000 12.21500 28.33000
C  2.49000 10.84300 28.52200
C  2.95800 13.83500 26.20800
C  2.55200 12.80200 29.66200
O  2.76000 13.93200 30.02700
C  2.25600 11.67300 30.63900
C  3.34000 11.61500 31.69300
O  4.44100 11.07900 31.62600
O  2.81800 12.18700 32.85700
C  3.71200 12.08700 34.00900
H  2.03400 4.90300 30.07900
H  1.74600 5.46200 23.67900
H  2.75000 11.74800 24.16800
H  2.68800 9.03200 32.26600
H  1.50300 6.39200 32.09400
H  3.37900 5.60800 32.60300
H  3.95100 7.34000 32.96100
H  4.43800 6.59600 31.50800
H  -0.11200 7.93700 32.60100
H  -0.14500 9.38100 31.64600
H  -0.44900 10.03100 33.86900
H  1.17600 10.45500 33.46000
H  2.47000 2.42600 28.93000
H  1.13800 1.91500 27.85000
H  0.93700 3.05800 29.22700
H  0.63200 1.28400 25.60300
H  2.31400 1.51200 26.19100
H  2.00200 0.85700 24.60700
H  1.50300 7.67800 21.93700
H  2.68700 10.01600 22.31200
H  4.00900 7.03200 22.56100
H  4.29800 8.68000 22.00500
H  3.47800 7.40200 20.99500
H  -0.21600 9.76700 23.47800
H  0.03800 9.24400 21.84500
H  0.87200 11.83100 21.68100
H  -0.56600 11.99500 22.79900
H  -0.74800 11.30700 21.31400
H  2.18000 13.83700 25.44500
H  3.92000 13.91700 25.70300
H  2.78800 14.69000 26.86300
H  1.33600 11.86700 31.19000
H  3.78300 11.05600 34.35600
H  3.40100 12.75700 34.81000
H  4.71300 12.43200 33.75100
Mg 6.58000 54.97300 40.65000
C  5.76900 51.55000 40.88900
C  9.82300 54.04700 39.64600
C  7.15700 58.22800 40.04700
C  3.34000 55.83100 41.77100
N  7.61900 53.09600 40.15200
C  7.03400 51.79300 40.31400
C  7.99500 50.68400 39.83500
C  9.39500 51.49300 39.81900
C  8.90600 52.98000 39.84400
C  10.32000 51.15000 41.05000
C  7.66900 50.01000 38.43000
C  6.86800 50.85300 37.40400
H  6.16700 50.04600 36.21300
N  8.27700 56.03600 39.95900
C  9.53100 55.46400 39.65500
C  10.42900 56.50300 39.24400
C  9.70100 57.76200 39.28300
C  8.30900 57.42700 39.78000
C  11.89300 56.31200 38.88700
C  10.30300 59.06100 38.98900
O  11.40700 59.06600 38.52000
C  9.65500 60.33100 39.45500
N  5.41400 56.70200 40.71800
C  5.89100 57.88600 40.49500
C  4.91100 59.06600 40.71000
C  3.67400 58.33900 41.34500
C  4.19100 56.85900 41.32800
C  5.46300 60.16200 41.65700
C  2.23400 58.61100 40.72000
C  1.73500 60.01900 41.08100
N  4.82800 53.89500 41.17300
C  3.58900 54.42100 41.60500
C  2.68300 53.24400 41.90700
C  3.48700 52.11400 41.65900
C  4.77600 52.56700 41.17500
C  1.26500 53.29200 42.51600
C  3.49100 50.71100 41.76000
O  2.64300 49.98300 42.20500
C  4.94700 50.21700 41.24800
C  4.62000 49.29400 40.05700
O  4.12300 49.58100 38.93000
O  4.98800 48.01000 40.42800
C  4.98000 47.09200 39.28200
H  10.71800 53.57300 39.23700
H  7.39000 59.22600 39.66800
H  2.33000 56.10200 42.08500
H  7.90500 50.03800 40.70800
H  10.03400 51.26800 38.96500
H  10.29900 52.03600 41.68600
H  11.36600 51.02900 40.77000
H  9.92100 50.34100 41.66100
H  7.22000 49.05100 38.68800
H  8.56100 49.80800 37.83700
H  7.58200 51.58300 37.02200
H  6.12900 51.39300 37.99500
H  12.05100 55.29300 38.53200
H  12.61400 56.64500 39.63400
H  12.10900 56.90300 37.99700
H  8.97300 60.79300 38.74100
H  10.43300 61.07500 39.62500
H  9.11600 60.20500 40.39400
H  4.66100 59.54900 39.76600
H  3.62700 58.64100 42.39100
H  6.54800 60.17800 41.76700
H  4.86200 60.38400 42.53900
H  5.30900 61.05500 41.05200
H  1.46500 57.99100 41.18100
H  2.23600 58.43800 39.64300
H  0.86600 59.90100 41.72800
H  1.61500 60.72200 40.25700
H  2.50100 60.32600 41.79200
H  1.31500 53.93200 43.39700
H  0.74000 52.40100 42.85800
H  0.76400 53.74800 41.66200
H  5.34600 49.58000 42.03700
H  4.98500 46.10100 39.73500
H  5.85000 47.30000 38.66000
H  4.08900 47.15100 38.65600

