158

Mg 40.76100 10.14100 29.73600
C  42.95000 10.95700 32.38400
C  38.54500 8.86300 32.07500
C  38.89300 9.07700 27.27400
C  43.45100 10.75800 27.51100
N  40.86100 9.92000 31.97100
C  41.78300 10.45600 32.87000
C  41.24500 10.47800 34.31600
C  39.98800 9.54600 34.16800
C  39.72000 9.42000 32.61400
C  39.92800 8.28400 34.97700
C  41.12600 11.92300 34.86200
C  40.17200 12.25800 36.06400
H  40.88500 12.71000 37.34000
N  38.89400 9.20000 29.69500
C  38.17700 8.76500 30.74100
C  36.90700 8.28800 30.24500
C  37.02500 8.33700 28.81700
C  38.29200 8.96900 28.53900
C  35.76200 7.82200 31.19900
C  36.04000 7.95200 27.73300
O  36.21100 8.15100 26.51200
C  34.71400 7.30900 28.07700
N  41.14200 9.86000 27.73700
C  40.21400 9.43400 26.87900
C  40.66800 9.41100 25.40600
C  41.98800 10.20900 25.58300
C  42.23300 10.27400 27.04300
C  40.84700 7.93500 24.89200
C  42.07700 11.54700 24.77300
C  41.27700 12.63800 25.36700
N  42.83100 10.67500 29.88700
C  43.76200 10.94100 28.91100
C  44.99100 11.43400 29.45500
C  44.66600 11.50000 30.85900
C  43.35200 11.03300 31.01900
C  46.33400 11.72900 28.72100
C  45.19900 11.87500 32.15800
O  46.26000 12.36900 32.37900
C  44.06300 11.58900 33.20600
C  44.63000 10.81500 34.29800
O  45.14300 9.67900 34.09600
O  44.56900 11.53800 35.53100
C  45.23800 10.92600 36.65100
H  37.81400 8.51800 32.80900
H  38.37900 8.76500 26.36200
H  44.31600 10.98600 26.88500
H  41.94600 9.93000 34.94600
H  39.14000 10.11400 34.55000
H  40.16600 7.40600 34.37700
H  38.87200 8.32800 35.24400
H  40.52400 8.38300 35.88400
H  40.87400 12.69000 34.13000
H  42.06400 12.19800 35.34400
H  39.74000 11.30300 36.36400
H  39.32300 12.91900 35.88700
H  35.98200 7.88000 32.26500
H  35.42400 6.80500 31.00000
H  34.94200 8.50400 30.97700
H  34.08200 7.89200 28.74700
H  34.90600 6.31300 28.47600
H  34.25400 7.18800 27.09700
H  39.88000 9.89800 24.83200
H  42.85900 9.61300 25.30800
H  41.62500 7.76000 24.14900
H  39.99500 7.85000 24.21700
H  40.92500 7.25400 25.74000
H  41.57200 11.22900 23.86100
H  43.12600 11.84100 24.77900
H  41.95100 13.46000 25.60800
H  40.72600 12.39700 26.27600
H  40.56300 12.97800 24.61600
H  46.43000 12.81100 28.63100
H  46.29500 11.32100 27.71100
H  47.22100 11.36300 29.23900
H  43.86200 12.56800 33.64100
H  44.74000 10.04300 37.05100
H  45.23900 11.72500 37.39300
H  46.25500 10.72000 36.31800
Mg 49.23800 46.14900 43.84300
C  46.04300 46.60600 42.55500
C  49.56400 43.26900 41.98800
C  52.47800 46.36800 44.29300
C  48.92300 49.53400 45.21600
N  47.95800 45.06400 42.35700
C  46.71200 45.46000 42.00800
C  46.10800 44.45500 40.98400
C  47.07300 43.29400 41.16000
C  48.30300 43.91900 41.78000
C  46.69400 41.97900 41.91500
C  45.87400 45.09100 39.56200
C  44.50200 44.82700 38.94300
H  44.33500 43.77700 37.82800
N  50.77100 44.95900 43.29300
C  50.69300 43.78000 42.58200
C  51.93800 43.15800 42.55900
C  52.83600 43.98800 43.21400
C  52.02800 45.15100 43.66800
C  52.19600 41.77200 41.97100
C  54.25800 43.76700 43.44200
O  54.78500 42.77300 43.00900
C  55.10700 44.61100 44.24600
N  50.59600 47.88700 44.44700
C  51.91100 47.57900 44.68800
C  52.51600 48.66300 45.55700
C  51.40300 49.75000 45.79800
C  50.24500 49.01400 45.13700
C  53.25600 48.04900 46.74700
C  51.80000 51.13800 45.19400
C  52.89900 51.81500 46.02200
N  47.75000 47.72400 44.01900
C  47.76500 48.95700 44.66100
C  46.46000 49.47100 44.64300
C  45.74500 48.57900 43.81100
C  46.55500 47.59300 43.41700
C  45.91800 50.62500 45.39400
C  44.48600 48.31300 43.11400
O  43.44700 48.95500 43.06200
C  44.64900 47.04200 42.29800
C  43.63100 46.07000 42.80000
O  43.59600 45.45800 43.86200
O  42.68900 45.87400 41.84100
C  41.55500 44.95700 42.08200
H  49.60600 42.34900 41.40100
H  53.52300 46.41700 44.60800
H  48.82600 50.49000 45.73600
H  45.15400 44.05600 41.33000
H  47.44200 43.03900 40.16700
H  46.47100 41.20200 41.18300
H  45.81600 42.21600 42.51500
H  47.45800 41.69100 42.63700
H  46.63900 44.68200 38.90200
H  46.08100 46.15300 39.69800
H  44.23200 45.73100 38.39600
H  43.68400 44.72200 39.65500
H  53.12300 41.79800 41.39800
H  51.35400 41.41800 41.37600
H  52.32200 41.13500 42.84600
H  55.96300 43.99900 44.53000
H  54.62500 44.76600 45.21100
H  55.39700 45.54600 43.76600
H  53.31600 49.11500 44.97100
H  51.16500 49.99300 46.83300
H  52.98600 47.02100 46.99100
H  53.03100 48.62400 47.64500
H  54.31100 48.30200 46.64200
H  50.89100 51.74000 45.16200
H  52.17500 51.05800 44.17400
H  52.55100 52.53000 46.76700
H  53.53400 52.36300 45.32600
H  53.41300 50.92500 46.38300
H  46.53200 50.74300 46.28700
H  44.84400 50.57200 45.56900
H  46.12800 51.48700 44.76000
H  44.28800 47.29900 41.30200
H  40.91000 45.11400 41.21800
H  40.95200 45.24100 42.94500
H  41.87600 43.91700 42.12600

