158

Mg 16.38200 -0.71200 27.84300
C  15.59000 1.36400 30.52400
C  18.27300 -2.61100 30.00400
C  17.73700 -2.37300 25.10300
C  14.84800 1.52400 25.75500
N  16.92200 -0.57100 29.96600
C  16.41700 0.35000 30.87400
C  16.80000 -0.13400 32.29700
C  17.98200 -1.07600 32.03300
C  17.71100 -1.52800 30.56500
C  19.43300 -0.72200 32.33100
C  15.56000 -0.70200 33.08400
C  15.30600 0.09500 34.45100
H  16.53700 0.46600 35.34700
N  17.71500 -2.33600 27.65400
C  18.33900 -3.03100 28.66200
C  19.05400 -4.18300 28.13100
C  18.97600 -4.14000 26.69000
C  18.13100 -2.94700 26.43500
C  19.64000 -5.27300 29.01800
C  19.56700 -5.03200 25.61200
O  19.47300 -4.79400 24.40700
C  20.54100 -6.26700 25.91200
N  16.39300 -0.43600 25.71000
C  17.01200 -1.24400 24.77400
C  16.82500 -0.65900 23.39800
C  15.81300 0.43900 23.59600
C  15.64900 0.50700 25.04500
C  18.16500 -0.19200 22.71600
C  14.50700 0.27600 22.79300
C  13.28400 -0.22100 23.49300
N  15.32600 0.99300 28.05100
C  14.72100 1.79700 27.12300
C  14.04500 2.96100 27.76500
C  14.38300 2.76900 29.11600
C  15.17100 1.60000 29.23300
C  13.33500 4.08400 26.98400
C  14.16600 3.41700 30.44800
O  13.46800 4.36800 30.76400
C  14.97100 2.46300 31.44300
C  15.99000 3.29500 32.21700
O  17.09600 3.61200 31.86200
O  15.44200 3.69400 33.37600
C  16.21900 4.66200 34.21800
H  18.67500 -3.31200 30.73900
H  18.02500 -2.90400 24.19400
H  14.41300 2.21000 25.02500
H  17.25700 0.71600 32.80300
H  17.84000 -2.00300 32.59000
H  20.04700 -0.87300 31.44300
H  19.74400 -1.32900 33.18100
H  19.58700 0.31200 32.64000
H  15.72700 -1.73500 33.38800
H  14.66100 -0.57500 32.48000
H  14.59200 -0.44700 35.07000
H  14.92100 1.09000 34.22800
H  19.98800 -6.14200 28.45900
H  18.87400 -5.49900 29.75900
H  20.56700 -4.93300 29.47900
H  20.03900 -7.13900 26.33000
H  21.23000 -5.70000 26.53900
H  20.99800 -6.57900 24.97300
H  16.46800 -1.31000 22.60000
H  16.23200 1.40800 23.32400
H  19.06500 -0.70200 23.05900
H  18.37500 0.85700 22.92900
H  18.13300 -0.26400 21.62900
H  14.66100 -0.38500 21.94000
H  14.21600 1.24700 22.39200
H  12.75200 0.64100 23.89500
H  13.59500 -0.86300 24.31800
H  12.69300 -0.86000 22.83700
H  13.23600 4.94000 27.65100
H  12.38400 3.58800 26.79200
H  13.85300 4.34900 26.06200
H  14.22700 2.02300 32.10700
H  15.97600 4.40800 35.25000
H  16.01300 5.69100 33.92300
H  17.30900 4.65800 34.23300
Mg -4.77900 25.81600 26.10700
C  -3.56900 27.62800 28.84900
C  -6.41400 23.67100 28.24000
C  -5.84100 24.02100 23.35100
C  -2.57500 27.61600 24.00400
N  -4.80500 25.58800 28.22800
C  -4.36700 26.48100 29.19600
C  -4.79100 25.90300 30.64200
C  -5.27200 24.50900 30.34600
C  -5.52700 24.57800 28.85800
C  -4.43200 23.34300 30.89800
C  -5.91600 26.88000 31.10700
C  -6.60400 26.64400 32.48500
H  -5.97100 25.66200 33.53300
N  -6.08600 24.11600 25.80100
C  -6.69700 23.45100 26.82600
C  -7.63700 22.52200 26.24500
C  -7.48900 22.53300 24.79000
C  -6.47300 23.60300 24.51400
C  -8.54300 21.71200 27.12700
C  -8.10800 21.61400 23.76000
O  -7.79400 21.61800 22.54800
C  -9.03500 20.47900 24.13800
N  -4.25500 25.81500 23.94700
C  -4.73600 24.87500 23.09900
C  -4.15200 25.10200 21.71500
C  -2.97000 26.16500 21.94100
C  -3.30400 26.58200 23.39100
C  -3.63300 23.75200 20.98700
C  -3.04800 27.42700 20.98500
C  -2.43000 27.24300 19.58100
N  -3.40500 27.35900 26.30000
C  -2.62600 28.06500 25.40200
C  -1.88000 29.11000 26.11300
C  -2.20500 28.99700 27.47500
C  -3.09900 27.91000 27.50700
C  -1.07000 30.10700 25.48700
C  -2.01700 29.52900 28.80600
O  -1.28600 30.46200 29.18400
C  -2.91300 28.66300 29.72400
C  -2.02200 28.07400 30.77500
O  -1.00500 27.49700 30.61600
O  -2.73900 28.25500 31.98600
C  -2.09500 27.62800 33.22400
H  -6.82500 22.94200 28.94100
H  -6.22500 23.55700 22.43900
H  -1.73800 28.10800 23.50500
H  -3.98100 25.80000 31.36500
H  -6.30200 24.42700 30.69300
H  -4.94200 22.91300 31.76100
H  -3.49100 23.73800 31.28100
H  -4.30000 22.57900 30.13200
H  -6.67900 26.78300 30.33500
H  -5.55300 27.90600 31.05600
H  -7.65400 26.42600 32.29100
H  -6.59100 27.65100 32.90300
H  -9.54400 21.80500 26.70400
H  -8.62300 22.14200 28.12500
H  -8.25600 20.66000 27.11200
H  -10.05600 20.82800 24.29000
H  -8.61600 19.89600 24.95900
H  -9.12900 19.86200 23.24500
H  -4.91800 25.47900 21.03800
H  -2.00700 25.65400 21.95000
H  -2.55200 23.65300 20.88500
H  -4.05300 23.65000 19.98700
H  -3.96500 22.94400 21.63900
H  -2.45700 28.24200 21.40100
H  -4.05200 27.80700 20.79000
H  -1.38500 27.55300 19.61000
H  -3.00000 27.85600 18.88300
H  -2.42700 26.18000 19.34100
H  -1.62500 31.03600 25.36300
H  -0.76800 29.71400 24.51600
H  -0.14100 30.23400 26.04300
H  -3.65300 29.32300 30.17800
H  -2.02600 26.57100 32.96500
H  -2.82600 27.66900 34.03100
H  -1.06600 27.91300 33.44500

