158

Mg 26.83000 0.81400 29.90600
C  28.58800 0.40700 32.87700
C  23.99300 1.13600 32.02700
C  24.82700 0.47700 27.21700
C  29.64900 -0.11300 28.10200
N  26.35500 0.75600 32.24600
C  27.24200 0.65600 33.22800
C  26.64300 0.70900 34.61100
C  25.13500 1.12000 34.24100
C  25.14500 0.94100 32.72100
C  24.06500 0.24600 34.93800
C  27.45200 1.71700 35.54200
C  26.68800 2.33700 36.72200
H  27.47200 2.78000 37.96600
N  24.72800 0.84100 29.64100
C  23.73700 1.02900 30.62400
C  22.46200 1.18600 29.96900
C  22.66500 0.81200 28.61400
C  24.14500 0.67900 28.42600
C  21.19600 1.59100 30.58600
C  21.63700 0.65100 27.48200
O  21.93000 0.28100 26.32200
C  20.14200 0.74000 27.75300
N  27.21000 0.23400 27.89100
C  26.23400 0.26700 26.96600
C  26.83600 -0.12400 25.55900
C  28.40800 -0.17200 25.84400
C  28.46500 0.06200 27.38600
C  26.20400 -1.48900 25.12400
C  29.39900 0.74200 25.07700
C  29.84100 2.06000 25.61600
N  28.75000 0.32000 30.33600
C  29.75700 -0.05600 29.47300
C  30.99900 -0.21900 30.25600
C  30.57600 -0.05500 31.56800
C  29.18100 0.25000 31.59300
C  32.34000 -0.64200 29.75800
C  30.98100 -0.09900 32.97900
O  32.08500 -0.36400 33.49000
C  29.78200 0.24700 33.88100
C  29.62800 -0.97000 34.69700
O  29.21200 -2.01200 34.29400
O  30.00400 -0.76900 35.99400
C  29.83600 -1.89900 36.93200
H  23.19400 1.45300 32.70100
H  24.14300 0.28000 26.38900
H  30.54000 -0.33800 27.51200
H  26.76900 -0.29500 35.01600
H  24.98800 2.19900 34.28500
H  23.38200 0.81700 35.56600
H  24.62300 -0.28800 35.70600
H  23.58200 -0.45900 34.26000
H  27.87100 2.52200 34.93800
H  28.28700 1.11800 35.90500
H  25.99800 1.52500 36.95300
H  26.14500 3.17300 36.28200
H  21.41200 2.12300 31.51200
H  20.60900 0.69700 30.79800
H  20.62400 2.27100 29.95500
H  19.89700 0.23200 28.68600
H  19.66800 0.27000 26.89100
H  19.74700 1.74500 27.90300
H  26.48900 0.63200 24.85500
H  28.79700 -1.19000 25.81200
H  25.52200 -2.08500 25.73000
H  27.06900 -2.04200 24.75700
H  25.56000 -1.29000 24.26800
H  29.02400 0.82100 24.05600
H  30.21400 0.06200 24.82900
H  29.45500 2.25800 26.61700
H  29.40200 2.81400 24.96300
H  30.92200 2.18400 25.56600
H  32.63800 0.04700 28.96800
H  32.30700 -1.68700 29.44900
H  33.14500 -0.53700 30.48500
H  29.98200 1.10500 34.52300
H  29.99500 -2.89700 36.52500
H  28.86900 -1.87200 37.43300
H  30.59600 -1.71900 37.69400
Mg 0.19500 43.84700 26.93600
C  2.62700 43.83500 29.55900
C  -2.12100 43.11800 29.33800
C  -1.89800 43.25400 24.42200
C  2.88100 44.47200 24.66100
N  0.34800 43.63900 29.24300
C  1.34600 43.63000 30.10300
C  0.79300 43.62600 31.56100
C  -0.63700 43.06600 31.36800
C  -0.83400 43.16600 29.89500
C  -1.00800 41.70300 31.94000
C  0.88600 45.02300 32.27700
C  1.41300 44.99800 33.66400
H  0.93000 43.78700 34.53300
N  -1.79000 43.42200 26.87700
C  -2.54200 43.19800 27.97600
C  -3.93400 43.10500 27.50100
C  -3.89700 42.88400 26.04800
C  -2.49100 43.20700 25.73600
C  -5.12900 42.92600 28.44700
C  -5.03400 42.44000 25.21700
O  -4.85100 42.09200 24.06000
C  -6.47500 42.17800 25.72300
N  0.50100 43.90400 24.89300
C  -0.55300 43.60400 24.03300
C  -0.18100 43.62100 22.58200
C  1.25400 44.38400 22.67400
C  1.62800 44.22500 24.14900
C  -0.29800 42.27000 21.88400
C  1.17600 45.95300 22.27800
C  2.03200 46.34600 21.06000
N  2.29900 44.07000 27.05200
C  3.24300 44.28000 26.03600
C  4.56600 44.31100 26.59700
C  4.30300 44.15700 27.98000
C  2.98900 44.09400 28.17900
C  5.82300 44.44900 25.86500
C  4.99500 44.00600 29.26100
O  6.18100 43.90100 29.49000
C  3.94100 43.94900 30.35100
C  4.16000 42.79500 31.27800
O  4.07900 41.64900 30.86600
O  4.65000 43.09600 32.52600
C  4.95900 41.89400 33.36200
H  -2.91000 42.81500 30.02900
H  -2.55500 42.93600 23.60900
H  3.65900 44.74300 23.94400
H  1.43800 42.91000 32.07100
H  -1.32600 43.80400 31.78000
H  -0.50600 40.93800 31.34800
H  -2.09800 41.70600 31.91500
H  -0.61300 41.70600 32.95600
H  -0.06100 45.56000 32.31200
H  1.46800 45.63900 31.59100
H  1.27500 45.91800 34.23300
H  2.47800 44.78000 33.59100
H  -5.85900 43.73500 28.41700
H  -4.82200 42.65200 29.45700
H  -5.60000 42.02000 28.06600
H  -6.42300 41.24200 26.27900
H  -7.07500 42.14900 24.81400
H  -6.90800 42.99100 26.30600
H  -0.90200 44.25300 22.06400
H  1.94700 43.86900 22.00800
H  -0.63200 42.47800 20.86800
H  -0.91900 41.54100 22.40500
H  0.71300 41.93100 21.65800
H  1.49700 46.54100 23.13800
H  0.14800 46.19100 22.00400
H  1.32500 46.78700 20.35600
H  2.50000 45.46800 20.61600
H  2.76000 47.12100 21.29800
H  5.77100 43.95500 24.89500
H  6.68900 44.22300 26.48800
H  5.79200 45.51000 25.61900
H  4.01400 44.83900 30.97600
H  5.84700 41.32800 33.08000
H  4.08700 41.24100 33.35700
H  5.00200 42.25400 34.39000

