158

Mg 1.12900 7.38300 26.10700
C  1.68700 9.59300 28.98200
C  0.77000 4.89200 28.32900
C  0.68900 5.45800 23.46500
C  1.60400 10.17700 24.06200
N  1.31500 7.32500 28.43300
C  1.53300 8.23500 29.37200
C  1.57700 7.60900 30.76200
C  1.36000 6.13300 30.43600
C  1.18600 6.06200 28.96600
C  2.43400 5.09900 30.94800
C  0.57800 8.22100 31.80600
C  0.81700 8.00600 33.30300
H  2.08900 7.43400 33.88600
N  0.86700 5.37400 25.93300
C  0.61300 4.52300 26.89700
C  0.24900 3.22100 26.40500
C  0.35000 3.32400 24.99000
C  0.63000 4.75700 24.75500
C  0.12700 1.97700 27.25600
C  0.16800 2.29900 23.90200
O  0.42400 2.54000 22.72000
C  -0.11900 0.87200 24.31200
N  1.04600 7.81600 24.10800
C  0.84900 6.81700 23.16600
C  0.62000 7.37100 21.74300
C  1.06800 8.87800 21.91800
C  1.26000 8.98900 23.41800
C  1.40800 6.62800 20.67200
C  -0.00600 9.99900 21.51400
C  0.19900 10.74300 20.18500
N  1.54000 9.42300 26.41300
C  1.70200 10.37400 25.46500
C  1.94600 11.71400 26.16200
C  1.96100 11.39800 27.57500
C  1.67600 10.01500 27.67300
C  2.23700 13.05600 25.49700
C  2.20500 11.91000 28.90500
O  2.52200 12.97600 29.31600
C  2.04800 10.77300 29.93800
C  3.35500 10.70600 30.70000
O  4.38700 10.19400 30.33400
O  3.14200 11.07300 32.02200
C  4.40100 11.55300 32.68000
H  0.66800 4.16000 29.13300
H  0.48900 4.84400 22.58500
H  2.03700 10.93600 23.40800
H  2.56800 7.76400 31.18900
H  0.42300 5.85100 30.91500
H  3.13700 5.57100 31.63400
H  2.95500 4.61700 30.12100
H  1.95100 4.24500 31.42400
H  -0.43400 7.86600 31.61400
H  0.58500 9.30800 31.72900
H  -0.06100 7.46700 33.66000
H  0.71700 9.01700 33.69800
H  0.67600 1.11300 26.88200
H  -0.94200 1.84300 27.41700
H  0.63000 2.24600 28.18500
H  -0.31400 0.31600 23.39600
H  -1.02100 0.82500 24.92200
H  0.72300 0.41500 24.83100
H  -0.44400 7.27200 21.52700
H  2.04600 8.96700 21.44700
H  2.04900 7.31200 20.11600
H  0.81900 6.03100 19.97700
H  2.05300 5.89000 21.15000
H  -0.24000 10.69300 22.32200
H  -0.94200 9.44000 21.52300
H  -0.60600 10.54200 19.47900
H  1.04400 10.39300 19.59300
H  0.38900 11.80000 20.37400
H  3.22500 13.50000 25.62100
H  1.49900 13.70800 25.96400
H  2.07500 13.02200 24.42000
H  1.31400 11.03900 30.69800
H  4.96100 12.11600 31.93300
H  5.03200 10.79500 33.14400
H  3.95400 12.29700 33.33900
Mg -1.50800 34.35000 26.62900
C  -2.89300 32.66600 29.31600
C  0.12000 36.35900 28.69900
C  -0.67500 36.26300 23.87300
C  -3.54800 32.37500 24.35600
N  -1.46200 34.55900 28.77500
C  -2.07500 33.72600 29.69100
C  -1.66900 34.00100 31.12200
C  -0.75500 35.26900 30.93500
C  -0.65400 35.44300 29.40100
C  -1.24200 36.64000 31.60600
C  -1.02200 32.83900 31.97200
C  -1.51200 32.69400 33.42500
H  -0.46200 32.56500 34.51100
N  -0.33100 36.03900 26.32700
C  0.22700 36.70700 27.35800
C  1.20300 37.66000 26.75000
C  1.05600 37.63700 25.32200
C  -0.06600 36.64100 25.12300
C  2.04900 38.58900 27.55000
C  1.79900 38.30000 24.21100
O  1.48400 38.14900 23.05800
C  3.01200 39.21500 24.57500
N  -1.98200 34.31200 24.40200
C  -1.58700 35.24500 23.50100
C  -2.23300 35.04000 22.14600
C  -3.03600 33.70900 22.35300
C  -2.82700 33.44800 23.82100
C  -3.08200 36.29000 21.73200
C  -2.68500 32.48600 21.45900
C  -1.44900 31.68500 21.85700
N  -2.91800 32.80600 26.73300
C  -3.51100 32.02200 25.75700
C  -4.29700 30.97400 26.37200
C  -4.05300 31.19100 27.71400
C  -3.22000 32.32000 27.91600
C  -5.14800 29.90100 25.73100
C  -4.38700 30.74900 28.96600
O  -5.15300 29.87300 29.30100
C  -3.58800 31.57200 30.11200
C  -4.54300 32.11000 31.07500
O  -4.99000 33.20900 30.99600
O  -4.77300 31.23100 32.09000
C  -5.51700 31.68000 33.24600
H  0.76000 36.89500 29.40300
H  -0.63500 36.98300 23.05300
H  -4.18200 31.83700 23.64800
H  -2.52100 34.39700 31.67400
H  0.21600 35.01300 31.35900
H  -2.09000 36.45300 32.26400
H  -1.51400 37.33600 30.81200
H  -0.40700 36.93300 32.24300
H  0.05400 32.93600 32.11600
H  -1.25700 32.01600 31.29700
H  -2.23800 31.88800 33.53500
H  -2.00100 33.65600 33.57900
H  3.04500 38.14700 27.58500
H  1.63200 38.75100 28.54300
H  1.99500 39.53900 27.01900
H  3.66100 38.50700 25.09100
H  2.75500 40.11200 25.13900
H  3.42800 39.44900 23.59600
H  -1.45200 34.83700 21.41400
H  -4.10200 33.83600 22.16300
H  -2.91300 37.03200 22.51200
H  -4.16000 36.13300 21.70000
H  -2.63300 36.74800 20.85100
H  -2.44300 33.05200 20.55900
H  -3.64100 31.99100 21.28700
H  -1.70900 30.64100 22.03200
H  -1.06300 32.04200 22.81200
H  -0.74400 31.74200 21.02700
H  -4.56800 29.58500 24.86400
H  -6.19200 30.21000 25.67600
H  -5.13400 29.13900 26.51000
H  -2.94200 30.89200 30.66600
H  -4.95700 32.41200 33.82800
H  -5.77300 30.86500 33.92300
H  -6.40800 32.28100 33.06400

