158

Mg -1.57500 17.64900 26.29900
C  -2.05500 15.07100 28.71500
C  -2.60000 19.88300 28.60100
C  -1.44900 19.79100 23.84400
C  -1.29300 14.94100 23.86200
N  -2.32000 17.39800 28.45100
C  -2.21000 16.33000 29.30000
C  -2.59100 16.76900 30.67100
C  -2.91900 18.32600 30.54800
C  -2.61200 18.58400 29.11900
C  -4.29500 18.81300 31.07800
C  -1.59400 16.39600 31.74800
C  -1.49800 17.20700 33.04400
H  -1.24000 16.59600 34.43800
N  -1.87200 19.55900 26.23200
C  -2.25700 20.33300 27.29300
C  -2.12800 21.75400 26.83900
C  -1.69500 21.79300 25.50700
C  -1.69400 20.35500 25.07600
C  -2.44200 22.90800 27.71200
C  -1.26800 23.02100 24.69500
O  -0.97200 22.96300 23.47800
C  -1.06400 24.27500 25.31100
N  -1.37500 17.39500 24.11400
C  -1.35300 18.46500 23.33300
C  -1.19700 18.12600 21.82000
C  -0.86600 16.61700 21.91600
C  -1.21800 16.25500 23.34900
C  -2.44400 18.42800 20.89900
C  0.58000 16.22200 21.56300
C  1.70800 17.08500 22.15300
N  -1.69600 15.41100 26.17900
C  -1.58600 14.52800 25.15500
C  -1.66500 13.19500 25.75500
C  -1.77800 13.44300 27.08500
C  -1.93500 14.75500 27.29600
C  -1.40700 11.84700 25.17500
C  -1.76200 12.66600 28.27700
O  -1.64200 11.39600 28.43300
C  -1.92800 13.73600 29.36000
C  -0.70200 13.65000 30.23900
O  0.35600 14.31100 30.11300
O  -0.85000 12.76500 31.27600
C  0.32800 12.66800 32.13400
H  -2.78300 20.67800 29.32700
H  -1.35600 20.55900 23.07200
H  -1.11100 14.11600 23.17000
H  -3.60500 16.39000 30.79500
H  -2.14500 18.92100 31.03300
H  -4.66300 19.55800 30.37200
H  -4.33800 19.39500 31.99900
H  -5.01700 18.05700 31.38800
H  -0.58100 16.57800 31.38800
H  -1.88400 15.36000 31.92600
H  -2.38800 17.83600 33.08900
H  -0.68100 17.91600 32.91400
H  -2.97600 22.61300 28.61500
H  -3.02800 23.65900 27.18300
H  -1.47000 23.33900 27.95400
H  -0.44000 24.23700 26.20300
H  -2.03200 24.72100 25.54100
H  -0.52800 24.91800 24.61200
H  -0.29300 18.65200 21.51300
H  -1.56000 16.02800 21.31700
H  -2.76600 17.55200 20.33600
H  -2.24900 19.19700 20.15100
H  -3.16800 18.70200 21.66700
H  0.66800 16.42000 20.49500
H  0.68300 15.14700 21.71300
H  2.22900 17.49300 21.28700
H  2.38900 16.42900 22.69600
H  1.48400 17.93500 22.79800
H  -1.09400 11.94600 24.13500
H  -2.39900 11.40000 25.11400
H  -0.75800 11.09200 25.61900
H  -2.90300 13.54800 29.81100
H  0.14000 13.37000 32.94700
H  1.27800 12.84800 31.63100
H  0.34800 11.67100 32.57500
Mg 36.48400 0.41700 29.64300
C  34.26700 1.60500 32.01700
C  38.89300 0.43800 32.05600
C  38.74800 0.00400 27.15400
C  34.00900 1.11700 27.15500
N  36.50700 0.94200 31.77200
C  35.51700 1.41000 32.57000
C  35.93300 1.49300 34.01400
C  37.50700 1.38300 33.90800
C  37.66800 0.89900 32.47500
C  38.32500 2.70400 34.08100
C  35.20900 0.43500 34.85600
C  35.61800 0.25400 36.37200
H  36.41400 1.39600 37.09300
N  38.48600 0.14300 29.63000
C  39.31400 0.15100 30.75400
C  40.62000 -0.10400 30.32300
C  40.65200 -0.35300 28.93300
C  39.26200 -0.07500 28.48000
C  41.70700 -0.24500 31.33300
C  41.82300 -0.67000 27.94200
O  41.63500 -0.79800 26.69700
C  43.26200 -0.74800 28.45700
N  36.36400 0.45200 27.51000
C  37.45200 0.21300 26.75900
C  37.08000 0.19000 25.21500
C  35.62900 0.47400 25.23600
C  35.31100 0.71000 26.71000
C  37.93800 1.06000 24.22800
C  34.62500 -0.56400 24.52100
C  34.16800 -1.77900 25.38000
N  34.47900 1.07100 29.60300
C  33.65500 1.37100 28.51800
C  32.39800 1.91700 29.01300
C  32.58400 2.01600 30.41300
C  33.83900 1.46400 30.69200
C  31.34100 2.38500 28.12000
C  32.04000 2.50700 31.57400
O  31.00500 3.10000 31.78000
C  33.04000 2.21000 32.70500
C  33.25900 3.43500 33.48200
O  33.96600 4.39500 33.16900
O  32.73300 3.31900 34.76200
C  32.89900 4.53900 35.60000
H  39.64800 0.47100 32.84400
H  39.36100 -0.27500 26.29500
H  33.27000 1.31100 26.37500
H  35.77000 2.51400 34.35800
H  37.99600 0.70100 34.60400
H  37.72800 3.60800 34.20600
H  38.98700 2.84400 33.22600
H  39.10300 2.58300 34.83500
H  35.50900 -0.46900 34.32600
H  34.12400 0.53100 34.87800
H  36.32700 -0.55600 36.19800
H  34.89500 -0.18000 37.06300
H  42.23500 0.67400 31.58700
H  42.44400 -0.93800 30.92600
H  41.40200 -0.82000 32.20700
H  43.46100 0.03500 29.18800
H  43.88800 -0.63400 27.57100
H  43.45100 -1.72700 28.89700
H  37.19200 -0.82600 24.83800
H  35.38400 1.37400 24.67100
H  38.85700 1.37700 24.71900
H  37.34000 1.91300 23.90600
H  38.21100 0.37200 23.42800
H  34.93900 -1.00500 23.57600
H  33.71600 0.01000 24.33800
H  34.27500 -2.71100 24.82600
H  33.11400 -1.70000 25.64600
H  34.88700 -1.85700 26.19600
H  31.14600 1.63000 27.35900
H  31.72600 3.23700 27.55900
H  30.35600 2.55900 28.55500
H  32.62500 1.45900 33.37700
H  32.38500 5.38500 35.14200
H  33.97100 4.73300 35.62700
H  32.51000 4.32600 36.59600

