158

Mg 52.74900 23.19700 43.96100
C  49.83100 24.96800 43.17800
C  51.08000 20.38200 44.04500
C  55.68700 21.69000 43.72200
C  54.39900 26.32200 43.64000
N  50.66300 22.69900 43.35800
C  49.65500 23.56300 43.35100
C  48.26900 22.84100 43.42900
C  48.82600 21.47900 44.04300
C  50.28500 21.47400 43.83500
C  48.47600 21.03700 45.51600
C  47.54400 22.71000 42.04900
C  48.12100 22.01800 40.87100
H  47.94600 22.71900 39.49100
N  53.31900 21.32300 43.74900
C  52.47400 20.28500 43.95000
C  53.27000 19.09400 44.04900
C  54.65700 19.40100 44.08900
C  54.62400 20.84000 43.82500
C  52.70300 17.72300 44.06100
C  55.74800 18.34400 44.33000
O  55.49200 17.22700 44.63400
C  57.14900 18.70000 44.04700
N  54.74100 23.94100 43.59100
C  55.81000 23.02400 43.68600
C  57.15100 23.76900 43.97100
C  56.75400 25.28100 43.65000
C  55.18300 25.15500 43.64700
C  57.78900 23.53900 45.41500
C  57.16900 25.89800 42.30200
C  57.81900 27.28600 42.39400
N  52.29700 25.31100 43.72100
C  52.96000 26.45200 43.62700
C  52.14400 27.59900 43.56800
C  50.86400 27.08600 43.29800
C  51.04500 25.67600 43.37800
C  52.61600 29.07500 43.53600
C  49.53900 27.43900 42.98700
O  49.02400 28.51300 42.91800
C  48.86500 26.02100 42.73800
C  48.72100 26.04500 41.23600
O  49.50600 25.63300 40.37900
O  47.48700 26.59600 40.94000
C  47.25000 26.67000 39.50200
H  50.60800 19.40600 44.18200
H  56.60700 21.10400 43.77400
H  54.81700 27.31900 43.48700
H  47.64300 23.39200 44.13000
H  48.40600 20.70100 43.40600
H  49.38700 20.79300 46.06100
H  47.82100 20.16700 45.47400
H  48.01000 21.80300 46.13600
H  47.15800 23.66700 41.69700
H  46.67300 22.16900 42.41800
H  47.74900 20.99500 40.92500
H  49.20400 21.94700 40.98000
H  53.32900 17.02700 43.50400
H  51.67600 17.67900 43.69900
H  52.54200 17.27900 45.04300
H  57.69200 17.75500 44.01100
H  57.45100 19.23000 44.95100
H  57.19500 19.29200 43.13300
H  57.85900 23.36100 43.24900
H  56.98300 25.96800 44.46500
H  58.02000 24.49600 45.88400
H  58.67100 22.89900 45.36800
H  56.91600 23.09500 45.89400
H  56.22100 25.95300 41.76500
H  57.88200 25.18000 41.89700
H  57.24000 28.09700 41.95100
H  58.73700 27.06700 41.85000
H  58.11700 27.56700 43.40400
H  52.02500 29.71500 44.19100
H  52.55600 29.40700 42.50000
H  53.63200 29.17000 43.92000
H  47.90700 25.93600 43.25100
H  46.68400 25.80900 39.14700
H  48.13700 26.75700 38.87500
H  46.57900 27.52800 39.45600
Mg 26.19400 50.69200 26.46600
C  24.00100 51.82800 29.04400
C  28.37200 49.83500 28.88300
C  28.42800 50.26300 24.05800
C  23.92700 52.25900 24.12300
N  26.27300 51.00100 28.82400
C  25.20700 51.29900 29.59700
C  25.57700 51.09600 31.14600
C  27.03100 50.40400 31.02200
C  27.27300 50.40300 29.50200
C  28.25200 51.05000 31.81600
C  24.54100 50.25900 31.93800
C  24.84400 49.86500 33.37900
H  24.16300 50.71200 34.46500
N  28.08600 49.98000 26.43700
C  28.84300 49.68200 27.55900
C  30.14500 49.10800 27.13900
C  30.24400 49.39400 25.75700
C  28.91500 49.89600 25.31500
C  31.08400 48.32900 28.00800
C  31.36400 49.18200 24.89800
O  31.34900 49.39800 23.71200
C  32.69700 48.73900 25.44500
N  26.15000 51.14500 24.40000
C  27.19000 50.83800 23.64200
C  27.08700 51.38900 22.18300
C  25.58400 51.85800 22.15500
C  25.16900 51.75500 23.62000
C  28.21600 52.47000 21.89200
C  24.62000 51.05800 21.22700
C  24.12400 49.63600 21.66600
N  24.33300 51.68600 26.53700
C  23.52700 52.24100 25.50300
C  22.29100 52.70300 26.10300
C  22.43900 52.57000 27.46600
C  23.65900 51.95000 27.69100
C  21.09000 53.21200 25.37100
C  21.79000 52.82900 28.77400
O  20.77800 53.43200 29.06700
C  22.82400 52.38500 29.83400
C  23.15000 53.58000 30.64900
O  23.98100 54.46700 30.46400
O  22.43600 53.56900 31.78400
C  22.59900 54.71600 32.78600
H  28.94500 49.21100 29.57300
H  29.12000 50.13200 23.22400
H  23.24800 52.60400 23.34000
H  25.77800 52.02600 31.67700
H  26.95300 49.35200 31.29600
H  29.13200 51.19600 31.19000
H  28.54200 50.25900 32.50700
H  28.00700 51.96900 32.35000
H  24.36900 49.37300 31.32700
H  23.60400 50.81400 31.97200
H  25.90500 49.99200 33.59600
H  24.61700 48.79900 33.36300
H  31.37900 47.33400 27.67400
H  30.63900 48.28400 29.00200
H  32.03300 48.85600 28.10900
H  32.65000 47.78300 25.96600
H  32.93900 49.52600 26.15900
H  33.44400 48.79700 24.65400
H  27.40200 50.52000 21.60600
H  25.56600 52.86600 21.74000
H  27.78200 53.28500 21.31400
H  28.95400 52.05600 21.20500
H  28.65100 52.96000 22.76300
H  25.07100 50.85400 20.25600
H  23.71700 51.64500 21.05800
H  24.24400 48.96600 20.81500
H  23.09900 49.53400 22.02400
H  24.69900 49.25500 22.51000
H  21.13100 53.16100 24.28300
H  20.91800 54.21300 25.76700
H  20.27200 52.54900 25.65400
H  22.39400 51.65300 30.51800
H  22.48900 55.65300 32.24000
H  23.53000 54.67500 33.35200
H  21.84100 54.83300 33.56100

