158

Mg 40.70700 9.76400 29.26300
C  42.61900 10.82800 31.93600
C  38.63400 8.01200 31.42900
C  39.34800 7.87700 26.52700
C  43.24000 10.87700 27.07100
N  40.76000 9.35900 31.51700
C  41.50700 10.08100 32.41300
C  41.02400 9.82600 33.81100
C  39.64500 9.14200 33.58800
C  39.69600 8.74500 32.09300
C  39.37600 7.86600 34.49500
C  40.98200 10.99100 34.75600
C  41.46200 10.75600 36.21900
H  40.86500 11.47100 37.38200
N  39.14800 8.28500 29.00800
C  38.32500 7.78100 30.02300
C  37.29200 6.98700 29.45200
C  37.49900 6.92700 28.08400
C  38.70200 7.74300 27.81800
C  36.15600 6.30600 30.36400
C  36.63600 6.23900 27.00800
O  36.86800 6.40300 25.79900
C  35.44500 5.37800 27.37000
N  41.26100 9.33700 27.11100
C  40.49400 8.55600 26.22800
C  40.91300 8.87100 24.81800
C  42.19000 9.78800 25.03000
C  42.27100 10.00200 26.48800
C  41.19100 7.55900 24.06900
C  42.26500 10.98600 24.11500
C  41.75400 12.36200 24.61800
N  42.52400 10.82100 29.41100
C  43.45300 11.19900 28.43100
C  44.58200 11.85800 29.08200
C  44.28300 11.77700 30.44800
C  43.03200 11.07400 30.60300
C  45.68500 12.55000 28.39500
C  44.72300 12.18300 31.75400
O  45.67900 12.79000 32.17000
C  43.65000 11.57300 32.72200
C  44.39300 10.72100 33.77200
O  44.66700 9.54200 33.79200
O  44.82300 11.59600 34.74300
C  45.51700 11.14100 35.90100
H  37.85700 7.68900 32.12500
H  38.89400 7.35800 25.68100
H  43.91000 11.33800 26.34200
H  41.80700 9.17900 34.20600
H  38.79100 9.81200 33.69100
H  39.84600 7.00400 34.02100
H  38.33600 7.63200 34.72300
H  39.80500 7.93800 35.49400
H  39.91200 11.17700 34.84200
H  41.37600 11.90500 34.31100
H  42.48900 11.12100 36.24900
H  41.33800 9.73800 36.58800
H  36.24500 5.22000 30.32700
H  35.17700 6.53700 29.94400
H  36.14200 6.71200 31.37600
H  34.96100 5.16200 26.41700
H  34.80800 5.98700 28.01100
H  35.76400 4.53400 27.98200
H  40.11300 9.48000 24.39700
H  43.08500 9.21000 24.80100
H  42.18600 7.55900 23.62200
H  40.56100 7.33400 23.20900
H  41.21900 6.69200 24.72900
H  41.76900 10.73100 23.17900
H  43.29700 11.17200 23.81800
H  42.58600 13.03400 24.82900
H  41.19800 12.24600 25.54800
H  41.15100 12.81000 23.82800
H  45.47000 12.59100 27.32700
H  46.57100 11.92400 28.50000
H  45.86600 13.47300 28.94700
H  43.08100 12.33700 33.25200
H  44.86200 11.26400 36.76300
H  46.30900 11.87100 36.06800
H  45.83500 10.09800 35.89200
Mg 46.96300 25.23600 27.49500
C  48.06400 27.40800 30.02100
C  45.67800 23.18300 29.89500
C  46.17200 23.02100 25.08000
C  48.70200 27.19100 25.22900
N  46.90200 25.35200 29.66400
C  47.29400 26.37800 30.53300
C  46.96000 26.03600 32.00000
C  46.29700 24.66400 31.94600
C  46.29000 24.35700 30.40700
C  46.94600 23.60300 32.80900
C  46.23300 27.08700 32.79300
C  46.70800 27.39600 34.29400
H  45.51100 27.32700 35.35700
N  45.94200 23.40700 27.46900
C  45.46400 22.72700 28.57000
C  44.81300 21.56900 28.09600
C  44.82200 21.55600 26.64400
C  45.70600 22.72200 26.27600
C  44.21600 20.52200 28.99600
C  44.09700 20.70100 25.69500
O  44.24900 20.76700 24.48900
C  42.89600 19.99300 26.15800
N  47.47800 24.98200 25.48200
C  47.01600 24.05600 24.65600
C  47.65400 24.18400 23.26900
C  48.12600 25.66300 23.21100
C  48.03300 26.02400 24.68700
C  48.78200 22.99300 23.06500
C  47.38000 26.64200 22.22300
C  48.17900 27.23200 21.01500
N  48.09000 26.99300 27.53400
C  48.67200 27.70800 26.53200
C  49.30800 28.87100 27.02400
C  49.24900 28.77500 28.43600
C  48.41900 27.64200 28.69000
C  49.89400 29.95300 26.25600
C  49.49900 29.39200 29.66600
O  49.98800 30.43100 29.98600
C  48.82800 28.43600 30.80900
C  49.88800 27.96100 31.72200
O  51.05900 27.81600 31.39500
O  49.46900 27.95700 33.07900
C  50.45000 27.46200 34.02500
H  45.20400 22.51400 30.61600
H  46.03200 22.33100 24.24600
H  49.14100 27.81400 24.44800
H  47.94100 25.96800 32.47000
H  45.24200 24.70800 32.21700
H  46.18600 23.04100 33.35100
H  47.57600 24.06700 33.56900
H  47.43500 22.84500 32.19800
H  45.16000 26.94500 32.65800
H  46.47100 28.02600 32.29200
H  47.11400 28.40600 34.34700
H  47.51000 26.72500 34.60000
H  43.13400 20.52100 29.12800
H  44.63700 20.43400 29.99800
H  44.42300 19.52300 28.61100
H  42.39200 20.49900 26.98100
H  43.11800 18.95100 26.38800
H  42.27600 20.03600 25.26300
H  46.86700 24.02400 22.53200
H  49.19700 25.73800 23.02300
H  48.85100 22.49200 24.03100
H  49.68200 23.47500 22.68200
H  48.47000 22.20700 22.37800
H  46.94400 27.48400 22.76200
H  46.47500 26.18200 21.82700
H  47.64400 26.98300 20.09900
H  49.24400 27.01000 20.94500
H  48.30500 28.31300 21.07100
H  50.89400 30.10500 26.66100
H  49.24700 30.80600 26.46400
H  49.95600 29.66400 25.20700
H  48.09500 29.05400 31.32700
H  51.04800 28.20500 34.55400
H  51.18100 26.82900 33.52200
H  49.93700 26.87200 34.78400

