158

Mg 34.69100 2.75100 31.09100
C  32.50200 3.67500 33.71400
C  37.25500 2.85300 33.49700
C  36.90700 2.38400 28.63400
C  32.16100 3.14500 28.94900
N  34.89800 3.50400 33.34200
C  33.80900 3.54900 34.17300
C  34.26400 3.68900 35.61500
C  35.85000 3.62100 35.58800
C  36.01900 3.30000 34.02300
C  36.55200 5.01500 35.90700
C  33.71900 2.64000 36.53700
C  33.52900 3.13900 37.98100
H  34.35000 4.36400 38.49900
N  36.76700 2.44300 31.09500
C  37.63100 2.49700 32.17100
C  38.97100 2.28000 31.65200
C  38.88400 2.14000 30.22600
C  37.47900 2.36500 29.91100
C  40.12500 1.93900 32.63300
C  39.95100 1.77600 29.17300
O  39.69600 1.57900 27.99000
C  41.35800 1.68800 29.69600
N  34.57400 2.87500 29.10100
C  35.58600 2.63400 28.26100
C  35.15700 2.54000 26.79400
C  33.58700 2.59000 26.90700
C  33.43800 2.88100 28.37900
C  35.75800 3.68500 25.98600
C  32.91300 1.29300 26.40600
C  31.69500 1.47200 25.42900
N  32.67500 3.21400 31.23900
C  31.80400 3.46600 30.25300
C  30.49000 3.79500 30.74800
C  30.74000 3.88000 32.11700
C  32.05600 3.52500 32.36600
C  29.23900 3.88400 29.87800
C  30.15300 4.17500 33.36000
O  28.95700 4.46900 33.63400
C  31.23600 4.12600 34.42600
C  31.48800 5.42800 35.09900
O  32.03000 6.46300 34.66800
O  30.86700 5.38200 36.36500
C  30.68500 6.64300 37.07000
H  38.10100 2.77500 34.18200
H  37.48800 2.20600 27.72700
H  31.39000 3.03200 28.18400
H  34.00500 4.71200 35.88900
H  36.22000 2.89200 36.31000
H  37.11100 4.86300 36.83000
H  35.74600 5.74000 36.01800
H  37.27200 5.36100 35.16500
H  34.37400 1.77100 36.60600
H  32.74200 2.26900 36.22700
H  33.82600 2.35400 38.67700
H  32.45500 3.27300 38.11100
H  40.38100 0.88300 32.54800
H  40.04800 2.10500 33.70800
H  40.90700 2.63800 32.33700
H  41.73900 2.64200 30.06000
H  42.03000 1.21300 28.98200
H  41.22200 0.91400 30.45100
H  35.57400 1.68300 26.26600
H  33.14300 3.48400 26.46900
H  36.47500 3.34100 25.24100
H  36.25700 4.40900 26.63100
H  34.90700 4.17900 25.51600
H  32.74900 0.58300 27.21600
H  33.57000 0.82100 25.67600
H  31.74400 0.81000 24.56400
H  31.59800 2.50300 25.08900
H  30.77100 1.40400 26.00200
H  29.57500 4.35600 28.95500
H  28.37500 4.48500 30.16100
H  28.86100 2.92300 29.52800
H  30.99000 3.34800 35.14800
H  30.91100 7.48900 36.42000
H  31.31400 6.65500 37.96100
H  29.64500 6.79600 37.35600
Mg -5.41400 25.91300 26.04900
C  -4.06400 27.05200 29.06200
C  -7.44100 23.64300 27.93200
C  -6.32700 24.45400 23.27400
C  -2.87800 27.73600 24.40500
N  -5.69600 25.46400 28.16100
C  -5.05400 26.04800 29.19100
C  -5.53600 25.54600 30.58000
C  -6.42800 24.31300 30.18500
C  -6.60500 24.51800 28.66200
C  -5.75800 22.96200 30.65500
C  -6.34400 26.65400 31.24400
C  -6.71500 26.51900 32.75800
H  -6.12100 25.34800 33.62400
N  -6.85000 24.37000 25.65100
C  -7.62600 23.62500 26.50600
C  -8.48500 22.74200 25.71300
C  -8.16700 22.93600 24.29800
C  -7.06200 23.89200 24.35400
C  -9.51600 21.84600 26.29200
C  -8.84000 22.32600 23.13300
O  -8.41700 22.44200 21.98700
C  -10.00700 21.42400 23.23200
N  -4.86900 26.12500 24.17300
C  -5.37400 25.42700 23.13000
C  -4.68300 25.71300 21.79100
C  -3.87100 26.99300 22.12200
C  -3.87400 26.96500 23.67200
C  -3.97600 24.44200 21.24300
C  -4.55100 28.29200 21.58900
C  -3.68500 29.17400 20.65300
N  -3.91200 27.30700 26.57900
C  -3.00900 27.92200 25.77600
C  -2.13500 28.75000 26.56500
C  -2.56700 28.43900 27.87200
C  -3.61000 27.60200 27.80600
C  -1.10400 29.67000 26.12400
C  -2.25300 28.69100 29.27000
O  -1.47100 29.44700 29.86100
C  -3.24500 27.79100 30.08300
C  -2.45300 27.07700 31.05500
O  -1.81000 26.01600 30.95200
O  -2.57000 27.80900 32.21800
C  -1.89100 27.11400 33.39200
H  -8.07600 22.98800 28.53200
H  -6.63300 23.98000 22.33900
H  -2.12100 28.20800 23.77400
H  -4.74200 25.17500 31.22900
H  -7.39300 24.46500 30.67000
H  -5.10100 23.07600 31.51700
H  -5.18100 22.45600 29.88000
H  -6.52400 22.22300 30.89000
H  -7.20200 26.88200 30.61100
H  -5.71900 27.54700 31.27500
H  -7.80300 26.48900 32.80400
H  -6.34800 27.44500 33.20100
H  -10.46900 22.30300 26.02600
H  -9.55300 21.97300 27.37400
H  -9.43300 20.79200 26.02700
H  -9.84200 20.42200 23.62800
H  -10.36800 21.20600 22.22600
H  -10.80400 21.86600 23.83100
H  -5.51300 25.98700 21.14100
H  -2.87100 26.96000 21.69000
H  -4.46800 24.20600 20.29900
H  -3.99600 23.56400 21.88800
H  -2.90600 24.61300 21.13300
H  -4.73900 28.90200 22.47300
H  -5.54700 28.10800 21.18600
H  -2.76800 28.63800 20.40800
H  -3.49200 30.18300 21.01800
H  -4.25600 29.30400 19.73400
H  -0.31700 29.25300 25.49600
H  -0.51000 29.94700 26.99400
H  -1.48700 30.59100 25.68600
H  -3.96200 28.43600 30.59100
H  -0.80700 27.22700 33.40900
H  -2.03000 26.03400 33.42000
H  -2.09800 27.54800 34.37100

