158

Mg 47.13200 44.19900 43.13800
C  43.73900 43.37900 42.74500
C  47.83100 40.84400 42.42900
C  50.36500 45.08600 42.79800
C  46.23000 47.67200 42.77000
N  45.87300 42.30900 42.70000
C  44.52400 42.19700 42.67900
C  44.09200 40.75900 42.54800
C  45.45600 39.98600 42.55100
C  46.44600 41.07500 42.49500
C  45.64700 38.85800 43.56800
C  43.13700 40.54300 41.32500
C  43.57500 41.20800 39.99400
H  43.23900 40.48200 38.67000
N  48.87700 43.14800 42.71400
C  48.90000 41.78100 42.41300
C  50.25600 41.40200 42.19100
C  51.07500 42.59400 42.32000
C  50.11100 43.69900 42.56600
C  50.71600 39.94700 41.92300
C  52.55100 42.63600 42.04600
O  53.21100 41.65100 41.62800
C  53.22800 43.90800 42.17700
N  48.14500 46.14100 42.63300
C  49.51700 46.17900 42.90900
C  50.00100 47.65500 42.97600
C  48.65300 48.43700 42.87300
C  47.58200 47.34800 42.68000
C  50.98700 47.96500 44.18400
C  48.57000 49.52300 41.74500
C  48.41400 50.96800 42.27100
N  45.44800 45.37200 42.96600
C  45.18700 46.68500 42.85600
C  43.74000 46.96100 42.81500
C  43.17900 45.65700 42.81400
C  44.23100 44.75900 42.86000
C  43.02100 48.30000 42.74700
C  41.93200 45.02300 42.71100
O  40.77800 45.46200 42.53000
C  42.23400 43.49600 42.79800
C  41.74200 43.15300 44.16700
O  40.91600 42.29600 44.30600
O  42.35300 43.79700 45.21200
C  42.02500 43.24800 46.54400
H  48.13100 39.80300 42.29800
H  51.38900 45.39000 43.02500
H  45.90300 48.71200 42.83600
H  43.51900 40.48100 43.43200
H  45.52500 39.52400 41.56700
H  44.85700 38.58300 44.26700
H  46.43400 39.09800 44.28300
H  45.92500 37.95400 43.02600
H  42.15000 40.90800 41.60800
H  43.05800 39.47300 41.13200
H  44.65400 41.34500 40.06100
H  43.02600 42.14000 39.86200
H  51.78600 39.75100 41.85900
H  50.14600 39.51800 41.09900
H  50.46600 39.36600 42.81000
H  52.76400 44.62600 41.50100
H  54.26600 43.82300 41.85600
H  53.19600 44.19200 43.22900
H  50.50400 47.82100 42.02300
H  48.55300 48.91500 43.84800
H  52.00700 47.95200 43.80000
H  50.97800 47.13800 44.89300
H  50.63700 48.85600 44.70500
H  47.85500 49.16400 41.00500
H  49.55500 49.59600 41.28300
H  49.16000 51.66500 41.88800
H  48.56700 51.04500 43.34800
H  47.36100 51.22200 42.15300
H  42.06100 48.27400 43.26300
H  42.77700 48.51200 41.70600
H  43.71000 49.03300 43.16500
H  41.68900 42.95300 42.02600
H  42.68300 42.39900 46.72500
H  41.03500 42.81500 46.68800
H  42.14800 44.02000 47.30400
Mg -11.24400 38.98200 42.20600
C  -10.17500 35.65400 41.74200
C  -8.33900 39.93800 40.58000
C  -12.42000 42.06400 42.26200
C  -14.41100 37.68800 43.23300
N  -9.48900 37.83200 41.09600
C  -9.23000 36.49700 41.11000
C  -7.89800 36.19300 40.45700
C  -7.30600 37.58400 39.99600
C  -8.44900 38.52700 40.58400
C  -5.97000 37.98300 40.69900
C  -7.97600 35.28800 39.18200
C  -6.73400 34.33600 38.87100
H  -5.84100 34.93900 37.82800
N  -10.47700 40.70800 41.57800
C  -9.25300 40.94900 40.99800
C  -8.95600 42.43100 40.94100
C  -10.07000 42.99000 41.58800
C  -11.07400 41.93900 41.79200
C  -7.69300 43.07100 40.41300
C  -10.27100 44.45300 41.95000
O  -9.54000 45.33300 41.49100
C  -11.35300 44.89400 42.90000
N  -13.12400 39.75100 42.78700
C  -13.41200 41.06400 42.65000
C  -14.90800 41.43200 42.94700
C  -15.49000 40.02600 43.33100
C  -14.30500 39.08100 43.15200
C  -15.11600 42.44600 44.11100
C  -16.71500 39.51900 42.37800
C  -18.08000 39.33100 43.09200
N  -12.09800 37.12300 42.68700
C  -13.39600 36.75700 43.04100
C  -13.49000 35.33900 43.18400
C  -12.26800 34.90900 42.72400
C  -11.45000 35.99300 42.36700
C  -14.69200 34.58300 43.56100
C  -11.49500 33.73700 42.49500
O  -11.69200 32.59700 42.70400
C  -10.10700 34.10800 41.83900
C  -8.88000 33.63100 42.57400
O  -8.78200 33.63500 43.76600
O  -7.95700 33.18600 41.72200
C  -6.63700 32.94700 42.46000
H  -7.38300 40.36100 40.26300
H  -12.81700 43.08100 42.23200
H  -15.39400 37.23900 43.38800
H  -7.34100 35.68000 41.24100
H  -7.19100 37.66400 38.91500
H  -6.10900 38.62500 41.56800
H  -5.47900 38.44500 39.84300
H  -5.34800 37.14400 41.01300
H  -8.16800 35.85100 38.26900
H  -8.90000 34.70900 39.16700
H  -7.04600 33.31400 38.65500
H  -6.16000 34.33700 39.79700
H  -7.50200 44.04200 40.86900
H  -7.83300 43.25700 39.34800
H  -6.84000 42.48500 40.75500
H  -11.49400 44.15400 43.68700
H  -12.15600 45.02300 42.17400
H  -11.03900 45.74100 43.51000
H  -15.27100 41.81700 41.99400
H  -15.77500 40.00300 44.38300
H  -15.81100 41.98200 44.81200
H  -15.45100 43.41400 43.73600
H  -14.17700 42.60600 44.64100
H  -16.42000 38.62300 41.83300
H  -16.76700 40.35600 41.68200
H  -18.05100 39.53900 44.16200
H  -18.36700 38.29000 42.94200
H  -18.89600 39.98500 42.78400
H  -14.77000 34.17900 44.57000
H  -14.66200 33.68200 42.94900
H  -15.67200 34.94700 43.25400
H  -10.08300 33.73500 40.81500
H  -6.38600 31.89200 42.34700
H  -6.52200 33.28600 43.49000
H  -5.88600 33.39900 41.81300

