158

Mg 16.63500 51.96100 26.31100
C  18.80700 50.62200 28.70100
C  14.56400 52.89700 28.84600
C  14.52100 53.14800 23.90600
C  18.72900 50.87000 23.84400
N  16.68000 51.69100 28.49600
C  17.66900 51.08900 29.27300
C  17.36500 51.17000 30.82000
C  15.86400 51.72100 30.74000
C  15.63600 52.08500 29.26300
C  14.77900 50.74100 31.25200
C  18.32200 52.14000 31.65500
C  18.85100 51.74600 33.05300
H  17.96000 52.20900 34.25900
N  14.76600 52.80000 26.33800
C  14.06900 53.11100 27.52000
C  12.94000 53.96000 27.10300
C  12.85300 53.93100 25.69400
C  14.10500 53.28700 25.22800
C  11.96400 54.70500 28.20600
C  11.79000 54.53800 24.86300
O  11.73000 54.23900 23.66800
C  10.56400 55.26400 25.45100
N  16.63600 52.06500 24.21600
C  15.69500 52.58300 23.39500
C  15.95900 52.49100 21.89400
C  17.40000 51.90900 21.99500
C  17.63000 51.63700 23.46300
C  14.91700 51.52800 21.19900
C  18.50400 52.84900 21.33900
C  18.87800 54.19100 22.11700
N  18.39500 50.87800 26.23400
C  19.15100 50.50300 25.14300
C  20.29700 49.84000 25.58400
C  20.15600 49.74500 26.97800
C  19.03200 50.48200 27.37800
C  21.37500 49.21800 24.83300
C  20.83600 49.29200 28.21400
O  21.81000 48.72900 28.52300
C  19.91400 49.84200 29.39800
C  19.40600 48.59500 30.07800
O  18.56700 47.83400 29.59700
O  19.78600 48.61600 31.35600
C  19.15500 47.65100 32.20100
H  13.92800 53.21200 29.67600
H  13.92900 53.66400 23.14700
H  19.30800 50.56900 22.96900
H  17.27400 50.17900 31.26500
H  15.74400 52.64600 31.30400
H  13.81400 51.24700 31.28000
H  15.10800 50.45700 32.25200
H  14.60500 49.88000 30.60600
H  17.78300 53.07900 31.78000
H  19.19600 52.45300 31.08400
H  19.90000 52.04000 33.06700
H  18.68700 50.67000 33.00100
H  12.27900 55.74800 28.18700
H  12.31600 54.45100 29.20500
H  10.89500 54.50100 28.14300
H  10.95500 56.17500 25.90400
H  9.93200 54.63800 26.08100
H  9.89400 55.62700 24.67100
H  15.86300 53.49000 21.46700
H  17.42100 50.90900 21.56100
H  15.47600 50.62700 20.94500
H  14.54300 51.93600 20.26000
H  14.17900 51.38100 21.98700
H  18.03100 53.13100 20.39800
H  19.43800 52.29200 21.26500
H  18.37000 54.27000 23.07800
H  18.66400 55.02300 21.44700
H  19.93600 53.97700 22.26600
H  21.89500 50.00400 24.28600
H  20.89000 48.55000 24.12100
H  22.09200 48.67600 25.45000
H  20.44200 50.49400 30.09400
H  19.31800 46.63200 31.85000
H  18.11100 47.95700 32.26200
H  19.38100 47.83600 33.25100
Mg -11.03600 17.14000 42.07500
C  -7.58000 18.05000 41.99200
C  -11.87200 20.38100 41.89100
C  -14.24100 16.06400 42.04100
C  -9.97300 13.79100 42.04500
N  -9.80900 18.99200 41.82200
C  -8.46800 19.17600 41.88900
C  -8.06900 20.64400 41.98800
C  -9.42800 21.30000 42.30600
C  -10.42100 20.16600 42.06600
C  -9.53300 21.86700 43.80200
C  -7.37200 21.14300 40.70300
C  -5.83600 21.45400 40.82600
H  -4.98800 20.81200 39.72200
N  -12.82000 18.05500 41.80400
C  -12.99300 19.43000 41.74600
C  -14.39600 19.73000 41.47900
C  -15.15000 18.48500 41.52700
C  -14.09500 17.45900 41.85200
C  -14.94800 21.11500 41.35200
C  -16.62600 18.33000 41.27400
O  -17.39700 19.26600 40.91800
C  -17.22900 17.03600 41.22200
N  -11.98300 15.21100 42.07500
C  -13.29500 15.05700 42.25300
C  -13.72800 13.57800 42.40700
C  -12.28800 12.89200 42.41800
C  -11.36500 13.98900 42.06300
C  -14.68600 13.20900 43.59800
C  -12.16800 11.63700 41.56900
C  -12.13100 10.35000 42.29500
N  -9.19500 16.08600 42.02500
C  -8.94000 14.73900 41.98600
C  -7.51400 14.44000 42.08800
C  -6.99800 15.74400 42.03500
C  -8.01500 16.73700 41.99600
C  -6.67800 13.18300 42.02500
C  -5.76200 16.43600 42.06800
O  -4.65000 15.96000 42.07600
C  -6.09000 17.93000 42.13400
C  -5.57700 18.46400 43.40000
O  -5.95400 18.20200 44.50600
O  -4.36000 19.14400 43.12100
C  -3.45900 19.54300 44.25500
H  -12.10200 21.43600 42.04900
H  -15.30800 15.83100 42.06800
H  -9.62600 12.77400 42.23800
H  -7.33700 20.77000 42.78600
H  -9.74300 22.14100 41.68800
H  -10.27500 21.29400 44.35800
H  -9.80800 22.92000 43.75000
H  -8.55600 21.88000 44.28600
H  -7.94300 21.97200 40.28400
H  -7.45600 20.36600 39.94200
H  -5.46700 21.17800 41.81300
H  -5.64700 22.52800 40.81500
H  -15.28500 21.43000 40.36400
H  -14.28400 21.83800 41.82700
H  -15.90000 21.14500 41.88100
H  -18.21500 17.10600 40.76200
H  -17.35000 16.59800 42.21300
H  -16.68100 16.51600 40.43500
H  -14.29200 13.34700 41.50300
H  -11.95900 12.65300 43.43000
H  -15.66000 13.11100 43.12000
H  -14.69200 14.11500 44.20300
H  -14.39700 12.26200 44.05500
H  -11.38800 11.73700 40.81400
H  -13.06300 11.66800 40.94800
H  -11.48400 9.60600 41.83000
H  -13.10000 9.85900 42.19600
H  -11.79100 10.31800 43.33000
H  -6.15800 12.91700 42.94500
H  -5.98800 13.18600 41.18000
H  -7.33600 12.35900 41.74900
H  -5.63300 18.47000 41.30400
H  -3.01000 20.50700 44.01200
H  -2.57500 18.90600 44.26800
H  -3.93100 19.52600 45.23800

