158

Mg 55.29000 23.59400 44.66600
C  53.14400 26.19200 43.71700
C  52.93300 21.23200 43.67400
C  57.65600 21.23200 44.73400
C  57.75900 26.14300 45.32500
N  53.32900 23.76500 43.73200
C  52.61700 24.94100 43.45400
C  51.25200 24.57800 42.82100
C  51.11600 23.02800 43.19900
C  52.55300 22.60600 43.59700
C  50.03800 22.72700 44.32600
C  51.04900 24.82400 41.29100
C  49.73300 25.37500 40.90200
H  49.00900 24.61600 39.86000
N  55.25300 21.47600 44.31500
C  54.21200 20.70400 43.96200
C  54.59700 19.28200 43.95600
C  55.98100 19.23900 44.31200
C  56.34200 20.67900 44.51900
C  53.69000 18.15300 43.57400
C  56.71900 18.01200 44.53300
O  56.19700 16.96000 44.35400
C  58.20300 17.98600 45.00100
N  57.42500 23.68900 44.93400
C  58.13800 22.58400 44.86200
C  59.64600 22.87200 45.10800
C  59.63100 24.40700 45.51900
C  58.18300 24.78900 45.15300
C  60.46200 21.95800 46.15900
C  60.84800 25.25500 44.95700
C  61.70700 26.00800 46.00000
N  55.38400 25.71200 44.73800
C  56.42100 26.60600 45.05100
C  55.88000 27.95400 45.08100
C  54.63100 27.83700 44.48800
C  54.40800 26.47700 44.28600
C  56.57300 29.21800 45.58900
C  53.44100 28.56100 44.18600
O  53.28300 29.75600 44.40000
C  52.47700 27.58200 43.48900
C  52.34400 27.94500 42.05000
O  53.06300 27.70700 41.14400
O  51.19700 28.68600 41.90500
C  50.89200 29.04700 40.53600
H  52.13100 20.53200 43.43200
H  58.34500 20.40600 44.55100
H  58.51600 26.86900 45.63000
H  50.49500 25.14800 43.36000
H  50.82200 22.39400 42.36200
H  49.16300 22.27000 43.86400
H  49.57700 23.62700 44.73200
H  50.55200 22.08900 45.04500
H  50.99300 23.82400 40.86100
H  51.94100 25.29100 40.87500
H  49.89200 26.43800 40.71900
H  49.07400 25.53600 41.75400
H  54.24600 17.40800 43.00500
H  52.98700 18.49400 42.81400
H  53.30900 17.72700 44.50200
H  58.85300 18.42500 44.24300
H  58.57700 17.01400 45.32000
H  58.26800 18.64100 45.87000
H  60.09500 22.61600 44.14800
H  59.58100 24.51500 46.60200
H  59.85900 21.19200 46.64600
H  60.91400 22.61400 46.90300
H  61.22700 21.58600 45.47700
H  60.58100 25.91500 44.13200
H  61.44100 24.56200 44.36000
H  62.70500 25.57000 45.98300
H  61.22900 25.92900 46.97700
H  61.74200 27.06300 45.72800
H  56.77500 29.83500 44.71300
H  57.51000 29.01900 46.11100
H  55.78000 29.72200 46.14200
H  51.48000 27.56400 43.92800
H  50.22200 29.90300 40.60800
H  50.50900 28.23500 39.91700
H  51.78500 29.44200 40.05100
Mg 47.63400 35.12100 26.14300
C  45.85300 33.74300 28.76700
C  48.09300 38.03900 27.99000
C  48.97600 36.49500 23.50700
C  46.56300 32.30400 24.16500
N  47.07200 35.70900 28.07700
C  46.53000 34.94100 29.07100
C  46.64900 35.71000 30.40200
C  46.81600 37.14500 29.98700
C  47.36800 36.97700 28.56400
C  45.53800 38.00100 30.10200
C  47.85400 35.10500 31.17000
C  47.70000 35.11800 32.68200
H  46.68500 36.02600 33.31700
N  48.54800 36.97200 25.82200
C  48.55500 38.07100 26.64900
C  49.11000 39.17800 25.93700
C  49.55300 38.67100 24.70100
C  49.05200 37.33200 24.65300
C  49.11000 40.64200 26.40000
C  50.38100 39.40700 23.59800
O  50.73600 38.81600 22.53600
C  50.68600 40.90100 23.72400
N  47.72900 34.49900 24.08500
C  48.29400 35.29200 23.20500
C  48.30000 34.71700 21.84400
C  47.88700 33.20800 22.03800
C  47.37900 33.32500 23.49700
C  47.35100 35.56000 20.85100
C  49.02900 32.28300 21.67200
C  50.31200 32.32000 22.52400
N  46.45000 33.33600 26.36700
C  46.14700 32.31800 25.46700
C  45.32900 31.30900 26.13000
C  45.11500 31.85200 27.42900
C  45.88800 33.06400 27.49900
C  44.83300 29.98600 25.46700
C  44.43200 31.70200 28.66100
O  43.63500 30.84700 29.06900
C  44.85900 32.87100 29.55000
C  45.35200 32.42500 30.89400
O  46.51800 31.97600 31.14100
O  44.32800 32.32000 31.84200
C  44.61300 32.33200 33.28900
H  48.38300 38.87300 28.63200
H  49.53500 36.88700 22.65500
H  46.16800 31.43600 23.63300
H  45.73000 35.61000 30.97900
H  47.46200 37.71400 30.65500
H  44.65800 37.54200 30.55400
H  45.30400 38.23700 29.06400
H  45.78500 38.84400 30.74900
H  48.72100 35.68400 30.85400
H  48.13200 34.09600 30.86500
H  48.72400 35.35900 32.96800
H  47.65300 34.08500 33.02900
H  48.61400 41.23100 25.62800
H  50.10700 41.01300 26.64100
H  48.60400 40.74200 27.36000
H  51.10200 41.22600 24.67800
H  49.65600 41.24900 23.79400
H  51.24800 41.33600 22.89700
H  49.30100 34.77500 21.41700
H  47.01500 32.98500 21.42200
H  46.76000 34.87100 20.24800
H  48.06300 36.18100 20.30700
H  46.61200 36.16000 21.38200
H  49.41300 32.65000 20.72000
H  48.58900 31.29000 21.57200
H  50.61000 31.28700 22.70400
H  50.09900 32.72800 23.51200
H  51.11400 32.87700 22.04000
H  45.58200 29.45100 24.88400
H  44.08400 30.31000 24.74400
H  44.42000 29.29700 26.20400
H  43.99400 33.49600 29.77100
H  45.69400 32.26200 33.40200
H  44.16500 31.45600 33.75900
H  44.29600 33.31000 33.65000

