158

Mg 46.67000 24.77100 28.28400
C  47.55700 27.11600 30.87200
C  45.24200 22.85000 30.71500
C  46.64900 22.23500 25.94200
C  48.42800 26.73000 26.03200
N  46.49600 24.92500 30.56100
C  46.90500 25.99300 31.34600
C  46.38800 25.89100 32.75400
C  45.79300 24.36200 32.76700
C  45.84000 23.97400 31.25800
C  46.52400 23.27500 33.69600
C  45.39800 26.98600 33.08900
C  45.28200 27.23800 34.67100
H  43.92500 27.80400 35.20800
N  46.02300 22.85900 28.24800
C  45.38800 22.26200 29.38000
C  44.80000 20.98600 28.89600
C  45.14100 20.82600 27.53000
C  45.98300 22.00000 27.17500
C  44.13700 20.12100 29.91900
C  44.82200 19.72300 26.61300
O  45.09800 19.70900 25.36400
C  44.18600 18.41300 27.25200
N  47.60400 24.42700 26.37800
C  47.39700 23.34700 25.56800
C  48.29500 23.49500 24.31000
C  48.26600 25.06000 24.16700
C  48.10800 25.44300 25.59700
C  49.71500 22.89500 24.50300
C  47.16200 25.49700 23.23700
C  47.62800 26.22500 21.95600
N  47.70900 26.57600 28.35500
C  48.25300 27.26100 27.28200
C  48.63000 28.60200 27.77000
C  48.39500 28.53500 29.13600
C  47.86200 27.30600 29.49300
C  49.40200 29.62700 27.04800
C  48.64800 29.23600 30.38700
O  49.18600 30.35600 30.53700
C  48.06500 28.38200 31.54700
C  49.09600 28.23000 32.66500
O  50.13400 27.60700 32.52200
O  48.68700 28.76800 33.88500
C  49.47300 28.43500 35.08800
H  44.66100 22.48300 31.56400
H  46.63300 21.46100 25.17200
H  48.91500 27.37100 25.29400
H  47.22100 25.89600 33.45700
H  44.77400 24.45000 33.14300
H  46.70100 22.36000 33.13000
H  46.03900 23.08000 34.65200
H  47.46700 23.72500 34.00500
H  44.38300 26.72800 32.78800
H  45.51200 27.92200 32.54100
H  46.06200 27.93300 34.98200
H  45.56300 26.33200 35.20900
H  43.27000 19.53500 29.61500
H  43.64200 20.71600 30.68600
H  44.87800 19.59400 30.52100
H  43.12900 18.50000 27.50300
H  44.84200 18.18500 28.09200
H  44.26800 17.54300 26.60100
H  47.81400 23.02700 23.45100
H  49.24600 25.37600 23.81100
H  49.64300 22.33300 25.43400
H  50.53700 23.60700 24.57700
H  50.01800 22.12400 23.79400
H  46.59600 26.29100 23.72600
H  46.60000 24.58400 23.04100
H  47.33300 27.27200 22.01800
H  47.07100 25.76900 21.13700
H  48.70600 26.21800 21.79600
H  49.73900 30.37700 27.76300
H  48.70400 30.13800 26.38400
H  50.29300 29.20900 26.57900
H  47.30800 28.86200 32.16800
H  49.57500 29.29000 35.75600
H  50.48100 28.08000 34.87000
H  49.04300 27.64400 35.70200
Mg 17.44600 52.46500 25.58000
C  19.16200 50.89100 28.17600
C  15.32300 53.76600 27.96900
C  15.82700 53.99400 23.12300
C  19.56500 50.94000 23.37900
N  17.20200 52.17400 27.80400
C  18.11700 51.60000 28.62300
C  17.72800 52.04800 30.10300
C  16.36500 52.76600 30.05100
C  16.23600 52.87200 28.49900
C  15.18100 52.08100 30.81100
C  18.92300 52.90700 30.72000
C  19.16000 52.78300 32.25600
H  18.09200 52.07900 33.15500
N  15.67900 53.56500 25.50300
C  15.06100 54.02800 26.62300
C  13.84800 54.74300 26.18500
C  13.92800 54.87900 24.78300
C  15.18300 54.11200 24.42700
C  12.73600 55.05200 27.18400
C  13.03000 55.71700 23.86200
O  13.23400 55.77900 22.63500
C  11.88500 56.56900 24.44300
N  17.46200 52.18900 23.59100
C  16.85500 53.09300 22.77600
C  17.12800 52.94900 21.34600
C  18.53900 52.21800 21.40400
C  18.53200 51.68000 22.86200
C  16.03900 52.12600 20.56000
C  19.78300 52.96300 20.86300
C  20.89600 52.10100 20.39000
N  18.99900 51.13000 25.70200
C  19.84600 50.66100 24.70800
C  20.98300 49.97100 25.24800
C  20.67800 49.95400 26.61500
C  19.47500 50.70400 26.84700
C  22.03000 49.12300 24.40000
C  21.19100 49.59800 27.88500
O  22.18200 49.05900 28.21200
C  20.23400 50.22500 28.99600
C  19.72100 49.19300 29.86500
O  18.95700 48.33900 29.53900
O  20.17600 49.39800 31.14600
C  19.46400 48.43500 32.06400
H  14.77000 54.42400 28.64300
H  15.40500 54.62400 22.33700
H  20.46200 50.83400 22.76500
H  17.58700 51.13700 30.68500
H  16.36000 53.76200 30.49400
H  14.60200 52.71800 31.48100
H  15.62200 51.38000 31.52000
H  14.62300 51.72000 29.94800
H  18.55600 53.92600 30.59400
H  19.78400 52.72300 30.07800
H  19.33300 53.78000 32.66200
H  20.10000 52.34200 32.58600
H  12.98800 55.95400 27.74200
H  12.61800 54.36600 28.02300
H  11.77300 55.17400 26.68800
H  12.28500 57.05100 25.33600
H  11.19100 55.73200 24.50500
H  11.45000 57.31400 23.77700
H  17.34100 53.85800 20.78300
H  18.57700 51.25600 20.89300
H  15.35300 51.77400 21.33100
H  16.55800 51.29900 20.07600
H  15.61000 52.87200 19.89100
H  20.14900 53.52700 21.72100
H  19.38600 53.56900 20.04800
H  20.57500 51.06100 20.32400
H  21.75600 52.27900 21.03600
H  21.02800 52.45100 19.36600
H  21.85100 49.20000 23.32700
H  21.93300 48.07700 24.69100
H  23.06400 49.35800 24.65200
H  20.88900 50.77100 29.67600
H  18.38700 48.60200 32.04500
H  19.82200 48.44400 33.09300
H  19.66900 47.42900 31.69900

