158

Mg 29.99000 56.98900 41.13500
C  27.33600 55.16700 39.56900
C  32.14200 54.84400 39.45100
C  32.25400 59.23700 41.58900
C  27.37100 59.40900 41.80000
N  29.72900 55.31400 39.60500
C  28.60400 54.74200 39.15000
C  28.76700 53.57500 38.19000
C  30.34600 53.40500 38.21700
C  30.79900 54.53800 39.16100
C  30.81900 51.95800 38.77800
C  28.24300 53.98100 36.81500
C  27.45900 52.89000 36.01800
H  26.54300 53.50400 34.94200
N  31.96400 56.93400 40.83300
C  32.68000 55.96500 40.15700
C  34.08800 56.37800 40.22600
C  34.15000 57.65000 40.85100
C  32.76200 58.01800 41.14300
C  35.16400 55.58000 39.51300
C  35.47200 58.37100 41.22300
O  36.54900 57.97400 40.75700
C  35.54500 59.56600 42.13500
N  29.80400 59.04200 41.50800
C  30.93000 59.74600 41.74800
C  30.60400 61.16400 42.13300
C  29.06300 61.26600 42.30200
C  28.70100 59.88600 41.81700
C  31.41600 61.70600 43.32900
C  28.40500 62.52300 41.60000
C  27.24500 63.11300 42.40600
N  27.75700 57.22800 40.96600
C  26.96100 58.15000 41.34300
C  25.58200 57.70700 41.18200
C  25.67700 56.52600 40.51000
C  27.00800 56.30500 40.31100
C  24.27000 58.39500 41.50600
C  24.88300 55.44400 39.94500
O  23.67300 55.32100 39.84100
C  25.96700 54.51600 39.39600
C  25.80000 53.31000 40.22300
O  26.35200 53.01000 41.23700
O  24.82400 52.53700 39.67300
C  24.46300 51.23800 40.27100
H  32.78700 54.19400 38.85600
H  33.08600 59.88200 41.87900
H  26.50400 60.02600 42.04700
H  28.22800 52.70100 38.55800
H  30.97800 53.58200 37.34700
H  30.01700 51.23200 38.91300
H  31.47200 52.07500 39.64200
H  31.53100 51.66700 38.00600
H  29.18100 54.11000 36.27500
H  27.73900 54.93700 36.67500
H  26.88400 52.35600 36.77500
H  28.19900 52.27400 35.50700
H  35.28800 54.74700 40.20500
H  36.06800 56.12900 39.24900
H  34.70800 55.21300 38.59400
H  35.42300 60.46100 41.52400
H  36.52400 59.58700 42.61300
H  34.81500 59.46300 42.93700
H  30.93900 61.80800 41.32000
H  28.80300 61.32900 43.35800
H  32.09800 60.93300 43.68300
H  30.72100 62.15200 44.04100
H  32.06500 62.50600 42.97200
H  28.04000 62.09400 40.66700
H  29.20200 63.23400 41.38200
H  26.31200 63.01800 41.85200
H  27.38700 64.17700 42.59800
H  27.17300 62.46600 43.28100
H  23.51200 58.03800 40.80900
H  24.39000 59.45400 41.27600
H  24.01700 58.15700 42.53900
H  25.59700 54.25400 38.40500
H  24.36900 51.27000 41.35600
H  25.20700 50.45900 40.10400
H  23.54000 50.93600 39.77700
Mg -2.07700 35.37100 26.69500
C  -3.92600 34.07100 29.37400
C  -0.84600 37.76100 28.78100
C  -0.46000 36.71900 23.96900
C  -3.55300 32.98700 24.68100
N  -2.25900 35.82000 28.88400
C  -3.05600 35.15400 29.74500
C  -2.84800 35.64500 31.16900
C  -1.93600 36.88800 30.95900
C  -1.64800 36.89700 29.42500
C  -2.66500 38.28600 31.41200
C  -2.23800 34.48900 32.07300
C  -1.78100 34.98400 33.42900
H  -2.17600 34.11200 34.59100
N  -0.87400 37.08500 26.39700
C  -0.46800 37.95800 27.42100
C  0.43800 38.97100 26.94500
C  0.47300 38.72400 25.49300
C  -0.29900 37.44200 25.23400
C  1.06400 39.99700 27.79700
C  1.31100 39.43300 24.46500
O  1.34600 39.12700 23.28800
C  2.21000 40.54800 24.87000
N  -1.99100 34.94200 24.66400
C  -1.25900 35.58200 23.71100
C  -1.22200 34.77000 22.38000
C  -2.28200 33.68300 22.59700
C  -2.69300 33.83900 24.07900
C  -1.24200 35.66000 21.11500
C  -1.64300 32.27200 22.36100
C  -2.56400 31.18400 21.84700
N  -3.56400 33.89900 26.84200
C  -4.05400 32.97800 25.98400
C  -4.89000 31.99200 26.57700
C  -4.87500 32.39200 27.92300
C  -4.05200 33.54200 28.04800
C  -5.52900 30.72100 25.94000
C  -5.40600 32.05500 29.24800
O  -6.10600 31.14600 29.62000
C  -4.69400 33.09700 30.21200
C  -5.63700 33.75300 31.08400
O  -6.54300 34.50700 30.84300
O  -5.34700 33.36300 32.38300
C  -6.09600 33.97600 33.47800
H  -0.30900 38.37900 29.50300
H  0.11500 36.86500 23.05200
H  -3.86800 32.20000 23.99200
H  -3.80500 35.96800 31.57700
H  -0.97400 36.86900 31.46900
H  -2.63100 38.97900 30.57100
H  -2.07700 38.74500 32.20600
H  -3.68400 37.99800 31.67100
H  -1.46100 33.96100 31.51900
H  -2.93400 33.66600 32.23500
H  -2.10400 35.97800 33.74000
H  -0.70000 35.12100 33.45600
H  0.73800 40.08000 28.83400
H  0.91700 40.94800 27.28500
H  2.14400 39.84500 27.78000
H  3.04700 40.20800 25.48000
H  1.68200 41.31300 25.43900
H  2.59400 41.00100 23.95600
H  -0.25500 34.28000 22.27600
H  -3.19800 33.87700 22.03900
H  -1.39500 36.71600 21.33900
H  -1.99000 35.31800 20.39900
H  -0.25300 35.62500 20.65700
H  -1.35500 31.94200 23.35900
H  -0.72400 32.25700 21.77400
H  -3.54500 31.59100 21.60300
H  -2.60900 30.38300 22.58600
H  -2.19300 30.84900 20.87900
H  -6.55100 31.01400 25.70200
H  -5.59000 29.88300 26.63500
H  -5.03000 30.43600 25.01400
H  -3.93400 32.54600 30.76600
H  -5.44300 34.01600 34.35100
H  -7.02000 33.40800 33.58800
H  -6.35100 34.98900 33.16700

