158

Mg 8.82400 3.46100 27.51100
C  10.12200 2.01200 30.35300
C  6.79200 5.40500 29.50600
C  7.28200 4.78500 24.76800
C  10.08300 0.92200 25.60800
N  8.46700 3.62800 29.71000
C  9.15700 2.93900 30.69000
C  8.81200 3.44300 32.07000
C  7.65500 4.42800 31.71900
C  7.58700 4.48400 30.21800
C  6.29800 4.00200 32.34800
C  10.07000 4.05600 32.79600
C  10.38500 3.48400 34.20400
H  9.21600 2.91700 34.88100
N  7.25400 4.94700 27.17700
C  6.69800 5.69500 28.13800
C  5.95400 6.76900 27.58900
C  6.03100 6.59800 26.14900
C  6.90700 5.41500 25.93900
C  5.21300 7.86000 28.32300
C  5.41400 7.43800 25.00100
O  5.52600 7.10700 23.81100
C  4.59600 8.74700 25.39200
N  8.55500 2.87500 25.51700
C  7.99000 3.56900 24.53500
C  8.16700 2.95800 23.10900
C  9.10800 1.70400 23.40600
C  9.29500 1.85300 24.94400
C  6.83300 2.54900 22.51200
C  10.48900 1.60800 22.65600
C  10.66000 0.37000 21.73000
N  9.95400 1.88700 27.81900
C  10.49600 0.95800 26.94000
C  11.33400 0.07900 27.67900
C  11.23300 0.43100 28.99000
C  10.45700 1.61200 29.00300
C  11.92700 -1.17500 27.12900
C  11.71000 0.11000 30.32900
O  12.41000 -0.78400 30.74400
C  11.09500 1.22200 31.22000
C  10.54600 0.46100 32.36500
O  9.52200 -0.22000 32.30100
O  11.34200 0.59600 33.50100
C  11.18800 -0.01500 34.85200
H  6.22800 6.05300 30.18000
H  7.05600 5.32700 23.84700
H  10.40200 0.11600 24.94400
H  8.34000 2.59200 32.56000
H  7.95300 5.42200 32.05300
H  5.56500 3.74500 31.58400
H  5.93500 4.85700 32.91800
H  6.32500 3.10400 32.96500
H  9.98300 5.14200 32.82100
H  10.97800 3.97900 32.19900
H  10.70400 4.39300 34.71400
H  11.24600 2.82800 34.07100
H  5.48900 8.84400 27.94600
H  5.45400 7.87900 29.38600
H  4.14900 7.70200 28.15100
H  3.96000 9.09600 24.57800
H  5.21100 9.57900 25.73300
H  3.93700 8.47000 26.21600
H  8.71100 3.67300 22.49200
H  8.54000 0.81700 23.12800
H  6.72500 1.51500 22.18400
H  6.66100 3.27800 21.72000
H  6.02700 2.71400 23.22800
H  11.24900 1.47000 23.42500
H  10.73800 2.55600 22.18000
H  11.19700 -0.36400 22.33100
H  11.25700 0.58900 20.84500
H  9.65500 0.02800 21.48200
H  11.24500 -1.99900 27.34000
H  12.92700 -1.36300 27.51900
H  11.98100 -1.06800 26.04500
H  11.87200 1.86700 31.63100
H  10.91900 0.85000 35.45900
H  12.06500 -0.49300 35.28800
H  10.30200 -0.64800 34.80900
Mg 47.60200 15.20500 28.10000
C  45.53200 15.07800 30.94900
C  49.52300 17.45100 29.94900
C  49.54200 15.51400 25.45300
C  45.12100 13.60700 26.40700
N  47.48900 16.19000 30.20500
C  46.57900 15.94500 31.18000
C  46.89700 16.61900 32.51400
C  48.13500 17.51700 32.07900
C  48.44100 17.05300 30.66400
C  47.89600 19.02600 32.10000
C  47.06900 15.72700 33.86100
C  47.34300 16.56700 35.10000
H  48.61300 16.19900 36.01700
N  49.42400 16.16700 27.80700
C  50.03600 17.07700 28.63300
C  51.30000 17.52800 28.03500
C  51.35800 16.90900 26.79200
C  50.08900 16.14000 26.62700
C  52.25300 18.61800 28.60500
C  52.45400 17.06700 25.76000
O  52.41700 16.51700 24.64800
C  53.59800 18.00800 26.13000
N  47.26000 14.79800 26.15300
C  48.29800 14.82800 25.23000
C  47.81800 14.23100 23.91100
C  46.35000 13.68400 24.22100
C  46.24900 14.07500 25.72600
C  47.84200 15.21800 22.69400
C  46.18400 12.15000 23.85600
C  46.81300 11.13700 24.81200
N  45.59700 14.43500 28.55700
C  44.71400 13.79100 27.71400
C  43.55700 13.39200 28.49700
C  43.83100 14.02500 29.71600
C  45.14800 14.45500 29.75000
C  42.25300 12.70500 28.07800
C  43.28400 14.18300 31.04700
O  42.14200 13.85600 31.41900
C  44.40100 14.81700 31.93600
C  43.83700 16.05500 32.42300
O  43.66200 17.07400 31.78500
O  43.47200 15.90300 33.74800
C  42.98000 17.07000 34.45100
H  50.20800 18.10600 30.49200
H  50.03400 15.54500 24.47800
H  44.43100 13.03300 25.78500
H  46.14500 17.37000 32.75200
H  49.07100 17.34100 32.60900
H  48.38500 19.44400 32.98100
H  46.82600 19.23000 32.14000
H  48.27700 19.54400 31.22000
H  47.92300 15.11000 33.58300
H  46.18500 15.10300 33.99500
H  46.52700 16.60500 35.82200
H  47.53400 17.59200 34.78400
H  52.30900 19.58300 28.10100
H  53.23000 18.17300 28.79100
H  51.89900 18.88800 29.60000
H  53.20200 19.02200 26.20000
H  54.20900 17.95900 25.22900
H  54.32700 17.67300 26.86600
H  48.50500 13.41000 23.70800
H  45.64000 14.22800 23.59900
H  48.15600 16.18300 23.09100
H  46.86600 15.32200 22.22100
H  48.67400 14.99500 22.02600
H  46.51500 12.04100 22.82300
H  45.12900 11.87700 23.89000
H  47.11200 10.27200 24.22000
H  46.03200 10.77800 25.48200
H  47.69800 11.51800 25.32100
H  42.00100 12.92000 27.03900
H  41.37800 13.06100 28.62000
H  42.31600 11.63000 28.24100
H  44.63100 14.01100 32.63300
H  41.93800 16.84300 34.67500
H  43.02900 17.95400 33.81500
H  43.50500 17.19900 35.39700

