158

Mg -2.42900 17.02000 26.14100
C  -2.84200 14.72900 28.74100
C  -2.94700 19.61800 28.31400
C  -2.23000 19.15900 23.53200
C  -2.55300 14.37900 23.80600
N  -2.69400 17.12100 28.31900
C  -2.79400 16.07900 29.19600
C  -2.78500 16.56900 30.69900
C  -2.90400 18.16000 30.49900
C  -2.92600 18.34300 28.95500
C  -4.13400 18.82200 31.12200
C  -1.46700 16.13000 31.48500
C  -0.99400 16.81500 32.77200
H  -0.53200 15.96100 33.97200
N  -2.63100 19.04800 25.98600
C  -2.73600 19.99200 27.00700
C  -2.78200 21.33800 26.47400
C  -2.57200 21.13100 25.13300
C  -2.39400 19.73300 24.80100
C  -3.03800 22.63500 27.24000
C  -2.44500 22.17400 24.02200
O  -2.31700 22.02100 22.79200
C  -2.43700 23.57800 24.43300
N  -2.36800 16.76400 23.97400
C  -2.32900 17.82500 23.11600
C  -2.28300 17.37600 21.66400
C  -2.67100 15.86500 21.78400
C  -2.46000 15.66700 23.27100
C  -3.15500 18.05900 20.67800
C  -2.04500 14.87900 20.72300
C  -2.96500 14.26100 19.65800
N  -2.58100 14.99300 26.18800
C  -2.59300 13.99100 25.17700
C  -2.93600 12.69200 25.72500
C  -3.00300 12.89200 27.14500
C  -2.78200 14.29400 27.35100
C  -3.19100 11.49100 24.95600
C  -3.25900 12.28500 28.39800
O  -3.57700 11.14300 28.64400
C  -3.07600 13.42300 29.44500
C  -1.93600 13.09000 30.26300
O  -0.75400 13.36600 29.95300
O  -2.32900 12.46500 31.38800
C  -1.27300 12.08500 32.35700
H  -3.03200 20.38100 29.09100
H  -2.17000 19.76700 22.62800
H  -2.86100 13.59800 23.10700
H  -3.62800 16.13700 31.24000
H  -1.99900 18.60900 30.90900
H  -5.05300 18.82800 30.53700
H  -3.85100 19.82700 31.43500
H  -4.42200 18.39800 32.08400
H  -0.59400 16.19000 30.83500
H  -1.53300 15.08200 31.77600
H  -1.84600 17.42400 33.07500
H  -0.21200 17.45700 32.36800
H  -3.28400 22.39300 28.27400
H  -3.85900 23.20500 26.80400
H  -2.11700 23.21700 27.26200
H  -3.46100 23.75500 24.76100
H  -2.15500 24.25700 23.62800
H  -1.81300 23.79700 25.29900
H  -1.29100 17.44600 21.21700
H  -3.75000 15.83100 21.63300
H  -3.56900 17.41000 19.90600
H  -2.65800 18.82500 20.08300
H  -3.96500 18.55200 21.21700
H  -1.49300 14.02100 21.10800
H  -1.33900 15.47900 20.14800
H  -3.98100 14.58200 19.89000
H  -2.77400 13.18800 19.63700
H  -2.84900 14.73100 18.68100
H  -3.81300 10.75300 25.46400
H  -2.20100 11.08500 24.74800
H  -3.73100 11.80700 24.06300
H  -3.93400 13.47000 30.11400
H  -1.21500 10.99900 32.42900
H  -1.52300 12.63900 33.26200
H  -0.29400 12.49800 32.11300
Mg 8.09100 3.39200 27.19700
C  9.26300 1.93800 30.20200
C  5.89200 5.24400 29.06000
C  6.81300 4.34500 24.38800
C  9.75000 0.79400 25.42600
N  7.73500 3.66600 29.39900
C  8.38400 3.03400 30.45300
C  7.91600 3.71900 31.74800
C  6.76800 4.68000 31.36600
C  6.80300 4.56900 29.86800
C  5.42600 4.26800 31.96000
C  9.13900 4.31200 32.52900
C  9.51700 3.71400 33.90900
H  9.59400 4.68200 35.09600
N  6.71700 4.71900 26.75900
C  5.91500 5.43900 27.65000
C  5.15000 6.40500 26.92700
C  5.41800 6.16300 25.54500
C  6.35200 5.04900 25.52800
C  4.19000 7.34800 27.75300
C  4.85900 6.83900 24.22400
O  5.03300 6.45500 23.07500
C  3.83700 7.91800 24.40100
N  8.12600 2.50900 25.19700
C  7.61300 3.22600 24.14400
C  7.94600 2.69500 22.76800
C  8.90600 1.51700 23.07900
C  8.92900 1.53800 24.61900
C  6.77300 2.24000 21.94700
C  10.39000 1.72500 22.60400
C  10.88200 0.77800 21.54400
N  9.31100 1.79300 27.69600
C  9.98000 0.88100 26.85700
C  10.74100 -0.07600 27.62800
C  10.52100 0.36600 28.98400
C  9.58400 1.42800 28.93200
C  11.52200 -1.26900 27.07400
C  10.87700 0.09600 30.37500
O  11.66200 -0.68900 30.84800
C  10.10700 1.09300 31.25000
C  9.21800 0.43200 32.28700
O  8.27500 -0.23500 32.06000
O  9.78000 0.57800 33.53600
C  8.91600 0.04100 34.65300
H  5.27600 5.95500 29.61400
H  6.47300 4.68300 23.40700
H  10.28900 0.05100 24.83400
H  7.56400 2.84200 32.29100
H  7.03700 5.71900 31.55600
H  4.65000 4.15000 31.20400
H  5.08600 5.06100 32.62600
H  5.58300 3.39700 32.59700
H  8.92700 5.37300 32.66700
H  10.03800 4.33400 31.91400
H  10.48100 3.21600 33.80300
H  8.74200 2.97200 34.10200
H  4.74100 7.79900 28.57900
H  3.31500 6.79600 28.09500
H  3.87900 8.08400 27.01100
H  3.40700 8.08500 23.41300
H  4.34400 8.76200 24.86800
H  3.00100 7.58000 25.01300
H  8.40500 3.50100 22.19500
H  8.51700 0.53300 22.82100
H  6.73600 1.18200 21.68900
H  6.83600 2.74800 20.98400
H  5.87700 2.58200 22.46400
H  11.17700 1.62600 23.35100
H  10.42400 2.72800 22.18100
H  11.73100 1.25600 21.05600
H  10.18000 0.46400 20.77200
H  11.16400 -0.09100 22.13700
H  11.93000 -0.86600 26.14600
H  10.90700 -2.16000 26.95100
H  12.28700 -1.39000 27.84100
H  10.79200 1.80400 31.71200
H  8.15800 -0.67200 34.32900
H  8.38300 0.90100 35.05800
H  9.56000 -0.18500 35.50400

