158

Mg 49.24100 46.24400 41.77500
C  45.87000 46.58100 40.72600
C  49.07200 42.93500 40.32200
C  52.31200 45.88700 42.60900
C  49.32500 49.64400 42.48800
N  47.70100 44.97500 40.60300
C  46.41300 45.36600 40.31200
C  45.57500 44.31000 39.57400
C  46.52400 43.00800 39.85700
C  47.88000 43.66400 40.25600
C  46.00400 42.02200 40.82500
C  45.60300 44.76300 38.09000
C  44.25600 45.01500 37.45800
H  44.01100 44.64600 36.03000
N  50.51300 44.70000 41.46600
C  50.28300 43.50100 40.84600
C  51.57900 42.82500 40.76900
C  52.49400 43.54400 41.57500
C  51.80900 44.80700 41.93000
C  51.78500 41.55000 39.94400
C  53.87600 43.05300 41.96300
O  54.31400 42.00800 41.43000
C  54.73400 43.79400 42.96500
N  50.64000 47.65200 42.19700
C  51.81500 47.19500 42.73600
C  52.79400 48.25200 43.26200
C  51.89300 49.48100 43.06600
C  50.55200 48.93300 42.55400
C  53.29700 48.06600 44.69300
C  52.44500 50.56200 42.09400
C  52.59000 51.99500 42.72600
N  47.88500 47.81100 41.74000
C  48.06700 49.14300 42.08600
C  46.76900 49.85900 41.88600
C  45.86100 48.84300 41.46000
C  46.60200 47.63900 41.30800
C  46.60800 51.32000 42.06800
C  44.54800 48.61200 41.01800
O  43.58900 49.31500 40.95600
C  44.49900 47.12500 40.55100
C  43.35400 46.59900 41.31900
O  43.37500 46.08700 42.45500
O  42.20700 46.73600 40.54200
C  41.01400 45.98400 41.02700
H  49.12600 42.04500 39.69200
H  53.37800 45.85600 42.84500
H  49.45000 50.72800 42.54200
H  44.64700 44.18800 40.13200
H  46.80300 42.51000 38.92800
H  45.69600 41.11700 40.30200
H  45.16000 42.45500 41.36200
H  46.76500 41.67100 41.52100
H  46.13400 43.99200 37.53100
H  46.26900 45.61500 37.95100
H  44.04900 46.08300 37.53300
H  43.45500 44.71800 38.13500
H  51.29900 41.62700 38.97200
H  51.57800 40.63600 40.50100
H  52.84000 41.44700 39.69100
H  54.18700 44.04300 43.87500
H  55.23500 44.71000 42.65200
H  55.49100 43.07600 43.27800
H  53.60200 48.21900 42.53100
H  51.68200 49.99300 44.00500
H  54.15900 47.41500 44.84200
H  52.44000 47.71200 45.26600
H  53.64900 49.00400 45.12000
H  51.66500 50.71500 41.34800
H  53.30900 50.24000 41.51400
H  53.39700 52.22200 43.42300
H  51.64300 52.28800 43.18000
H  52.71700 52.63600 41.85400
H  47.19200 51.78500 41.27400
H  46.85500 51.64400 43.07900
H  45.55900 51.58600 41.93600
H  44.24400 47.21500 39.49500
H  40.80500 46.11900 42.08800
H  41.16000 44.90800 40.93700
H  40.16100 46.35600 40.45800
Mg 28.55300 59.10000 42.44500
C  25.94000 57.30800 40.87300
C  30.73900 56.86300 41.30100
C  30.88100 61.43400 42.91100
C  26.07600 61.49000 43.40700
N  28.38200 57.31900 41.07500
C  27.19700 56.70200 40.66600
C  27.53600 55.31200 39.97500
C  29.09200 55.14600 40.30200
C  29.41100 56.48700 40.92200
C  29.40000 53.89900 41.15500
C  27.07000 55.36800 38.50400
C  26.72100 54.03200 37.87800
H  27.41200 53.64500 36.55400
N  30.56200 59.09800 42.22100
C  31.32600 58.07300 41.69400
C  32.73200 58.46400 41.64000
C  32.77300 59.81100 42.08100
C  31.35200 60.20700 42.42400
C  33.85000 57.55800 41.16700
C  34.06600 60.61500 42.22700
O  35.08500 60.15500 41.71900
C  34.11600 61.88900 42.93400
N  28.49300 61.17800 42.98200
C  29.62400 61.89900 43.16900
C  29.36900 63.27900 43.46900
C  27.81600 63.35500 43.78200
C  27.43400 61.92100 43.36500
C  30.22400 63.93600 44.58600
C  27.06500 64.40000 42.93000
C  25.97900 65.29600 43.62700
N  26.45600 59.29400 42.29800
C  25.62100 60.26900 42.83100
C  24.21700 59.80800 42.69200
C  24.32200 58.69300 41.84200
C  25.70800 58.42300 41.66200
C  23.04000 60.51100 43.27100
C  23.59600 57.68800 41.20700
O  22.36600 57.56400 41.15200
C  24.55400 56.72300 40.52500
C  24.31700 55.33700 41.02100
O  24.17500 54.95900 42.19400
O  24.23400 54.56800 39.89900
C  24.06400 53.11500 39.97400
H  31.54400 56.12700 41.25300
H  31.70400 62.11700 43.12800
H  25.32400 62.23500 43.67600
H  26.89200 54.56000 40.43000
H  29.51400 55.21100 39.29900
H  28.50400 53.28100 41.18200
H  29.75500 54.12500 42.16100
H  30.24900 53.38500 40.70400
H  27.89500 55.70400 37.87500
H  26.25100 56.03600 38.23700
H  25.64300 53.94000 37.74000
H  26.88100 53.21700 38.58500
H  34.19600 57.90100 40.19200
H  33.69400 56.48200 41.08000
H  34.70700 57.58900 41.84000
H  33.54400 62.54300 42.27700
H  35.11900 62.26600 43.13500
H  33.63100 61.77100 43.90300
H  29.52600 63.85100 42.55500
H  27.58700 63.38000 44.84700
H  30.94300 64.61200 44.12300
H  30.69300 63.08900 45.08600
H  29.63100 64.41500 45.36600
H  26.68600 63.83700 42.07700
H  27.89300 65.00800 42.56500
H  26.41100 66.29600 43.64900
H  25.87400 64.95900 44.65800
H  24.99800 65.20900 43.15900
H  22.50800 59.86800 43.97300
H  22.27900 60.73700 42.52500
H  23.21400 61.40600 43.86900
H  24.50400 56.67500 39.43800
H  25.03200 52.73300 40.29600
H  23.72500 52.82100 38.98000
H  23.41500 52.78900 40.78700

