158

Mg 41.11300 7.61900 29.03700
C  42.68800 9.24200 31.84300
C  38.76100 6.55600 31.38100
C  39.70100 6.29700 26.53300
C  43.83900 8.66400 27.05000
N  40.80600 7.84100 31.42300
C  41.55000 8.62100 32.25100
C  40.92900 8.59000 33.68500
C  39.66900 7.66800 33.46600
C  39.75600 7.24600 31.99000
C  39.42900 6.58800 34.63500
C  40.60600 9.96600 34.30900
C  39.55600 10.11500 35.49000
H  39.99900 10.81800 36.83800
N  39.45100 6.61800 28.90700
C  38.56400 6.27500 29.95200
C  37.32500 5.70300 29.37900
C  37.53100 5.72700 27.97300
C  38.91900 6.22100 27.72300
C  36.19100 5.11500 30.23700
C  36.50300 5.41500 26.81100
O  36.89300 5.56600 25.67300
C  35.04800 4.97800 27.09700
N  41.81100 7.42200 27.00200
C  40.94900 6.82300 26.11600
C  41.51500 6.79800 24.66100
C  42.65700 7.87400 24.84200
C  42.77600 7.99500 26.38700
C  41.88600 5.40600 24.02800
C  42.47300 9.24800 24.20400
C  43.70000 9.97400 23.78900
N  42.85300 8.69200 29.35000
C  43.81800 9.03600 28.42600
C  44.76600 9.91800 29.04700
C  44.35400 9.95900 30.36800
C  43.16700 9.15800 30.55100
C  45.89000 10.71600 28.46900
C  44.71500 10.54800 31.59500
O  45.66500 11.18300 31.92800
C  43.59100 10.21600 32.55400
C  44.15100 9.58600 33.77200
O  44.32900 8.39300 33.98600
O  44.42800 10.57500 34.73300
C  44.65500 10.03300 36.06500
H  38.06300 6.24800 32.16200
H  39.14400 5.95500 25.65800
H  44.69300 8.95500 26.43500
H  41.80900 8.16100 34.16500
H  38.76600 8.27700 33.50900
H  38.39500 6.81200 34.89400
H  40.07300 6.82300 35.48300
H  39.52300 5.55300 34.30700
H  40.28700 10.51700 33.42400
H  41.55900 10.38800 34.62900
H  39.29300 9.10500 35.80600
H  38.63400 10.58300 35.14600
H  35.43100 5.89500 30.18400
H  36.34200 4.96300 31.30600
H  35.87800 4.21600 29.70700
H  35.14600 4.03200 27.62900
H  34.54500 4.75400 26.15600
H  34.59700 5.82500 27.61400
H  40.75600 7.18300 23.98000
H  43.59800 7.51900 24.42200
H  42.94200 5.19200 23.85900
H  41.18500 5.07800 23.26200
H  41.54500 4.81000 24.87500
H  42.06100 9.78300 25.05900
H  41.71300 9.39100 23.43500
H  43.50900 10.15500 22.73100
H  44.62700 9.40300 23.83100
H  43.75000 10.86700 24.41200
H  45.81200 10.77600 27.38300
H  46.74500 10.09600 28.73700
H  45.88300 11.71200 28.91100
H  43.02900 11.13600 32.70900
H  43.75700 9.45100 36.27600
H  44.83800 10.85300 36.76000
H  45.54000 9.40800 35.94600
Mg 36.34900 49.48800 24.99100
C  36.59400 47.92000 28.06400
C  36.01100 52.47600 26.58200
C  36.07200 50.92000 22.02100
C  37.04600 46.41900 23.52400
N  36.34900 50.17400 27.13400
C  36.40000 49.31400 28.23300
C  36.09200 50.01100 29.61400
C  35.78700 51.47100 29.04500
C  36.10800 51.38200 27.46400
C  34.35300 52.03200 29.34800
C  37.30700 49.97300 30.65200
C  36.89600 50.16600 32.13100
H  35.34700 50.15300 32.50700
N  36.10300 51.40200 24.39900
C  35.95400 52.49700 25.13800
C  35.86700 53.68000 24.37700
C  35.80400 53.27700 23.02300
C  36.01700 51.80100 23.08900
C  35.72600 55.07300 24.96000
C  35.45100 54.02000 21.83700
O  35.45300 53.50300 20.71500
C  35.13900 55.45900 21.90100
N  36.36100 48.74400 23.00600
C  36.31900 49.54300 21.92600
C  36.48700 48.80600 20.57200
C  36.92600 47.34400 21.06700
C  36.75400 47.49400 22.59300
C  35.08000 48.85500 19.93800
C  38.23400 46.89500 20.53800
C  39.44500 46.83300 21.46100
N  36.74900 47.50900 25.56100
C  36.91400 46.37600 24.90100
C  37.16800 45.28300 25.80300
C  37.04100 45.86100 27.03100
C  36.76800 47.18000 26.82200
C  37.62700 43.90000 25.47800
C  37.11700 45.59100 28.45000
O  37.45500 44.55600 29.02500
C  36.75500 46.86400 29.18300
C  35.55200 46.50800 29.97800
O  34.41000 46.57200 29.50500
O  35.85500 46.04300 31.17400
C  34.78100 45.61900 32.00000
H  35.82800 53.42100 27.09800
H  35.87900 51.32600 21.02600
H  37.25900 45.42900 23.11500
H  35.23100 49.49300 30.03600
H  36.55700 52.12600 29.45300
H  33.81600 51.44000 30.08900
H  33.77300 51.88100 28.43800
H  34.50300 53.07300 29.63400
H  38.00200 50.76500 30.37400
H  37.92100 49.09900 30.43500
H  37.39300 51.07500 32.46900
H  37.37300 49.41800 32.76400
H  34.80900 55.64200 24.80500
H  36.54500 55.65300 24.53700
H  35.79000 55.03900 26.04800
H  35.96400 56.01100 22.35100
H  34.34900 55.61900 22.63500
H  34.85600 55.90800 20.94900
H  37.27500 49.27700 19.98500
H  36.16500 46.62500 20.76200
H  34.94200 47.90900 19.41400
H  34.98800 49.54000 19.09600
H  34.33100 48.86400 20.73100
H  38.42000 47.42500 19.60400
H  38.05200 45.83800 20.34700
H  39.37000 47.73800 22.06500
H  40.25700 47.00200 20.75400
H  39.64900 45.92000 22.02000
H  36.94400 43.15200 25.88100
H  38.57000 43.66900 25.97400
H  37.79300 43.79400 24.40600
H  37.53800 47.19100 29.86700
H  35.05700 45.70400 33.05100
H  34.52600 44.60500 31.69000
H  33.91800 46.26500 31.84200

