158

Mg 2.63300 -2.31300 44.35800
C  6.00700 -1.26500 43.98200
C  1.76800 0.32100 42.29300
C  -0.32400 -3.79600 44.00200
C  3.98000 -5.16700 45.97700
N  3.74900 -0.66100 43.25000
C  5.12400 -0.51400 43.17100
C  5.60200 0.51200 42.12300
C  4.20400 1.27700 41.87800
C  3.15400 0.28800 42.53600
C  4.05600 2.67300 42.50500
C  6.27400 -0.11600 40.83800
C  7.71700 0.28800 40.50100
H  8.17200 0.44700 39.05900
N  0.92600 -1.73700 43.36000
C  0.74900 -0.64700 42.63400
C  -0.60000 -0.54400 42.17500
C  -1.30400 -1.71400 42.59600
C  -0.24400 -2.48600 43.35600
C  -1.20500 0.62100 41.47300
C  -2.75900 -1.99000 42.38000
O  -3.47500 -1.15000 41.88200
C  -3.37200 -3.28800 42.83000
N  1.93100 -4.16300 45.00400
C  0.61500 -4.50900 44.81000
C  0.27000 -5.89400 45.36600
C  1.68800 -6.46100 45.73700
C  2.61500 -5.20700 45.58100
C  -0.62000 -5.87500 46.57500
C  2.07500 -7.60700 44.74100
C  2.12100 -9.04200 45.34200
N  4.52700 -2.98400 45.09900
C  4.93700 -4.13900 45.77200
C  6.39300 -4.07300 46.00200
C  6.85500 -2.90800 45.39000
C  5.70400 -2.28100 44.89400
C  7.21600 -5.11700 46.80400
C  8.04100 -2.20300 45.09900
O  9.26000 -2.30100 45.41300
C  7.45800 -0.99900 44.20000
C  7.56600 0.23500 44.90900
O  6.96600 0.49000 45.94000
O  8.68600 0.98100 44.40100
C  9.01300 2.14400 45.23900
H  1.52600 1.11400 41.58200
H  -1.31500 -4.25500 43.96800
H  4.44400 -6.00500 46.50200
H  6.30100 1.18100 42.62600
H  3.89900 1.38000 40.83700
H  5.00100 3.14300 42.78100
H  3.46900 2.74100 43.42000
H  3.71000 3.41200 41.78200
H  5.66100 -0.17600 39.93900
H  6.35300 -1.18200 41.05300
H  8.43900 -0.28300 41.08500
H  7.64900 1.30000 40.90100
H  -1.79000 0.36300 40.59100
H  -0.36500 1.22700 41.13400
H  -1.86100 1.09600 42.20300
H  -2.85300 -4.17700 42.47100
H  -4.43400 -3.31000 42.58600
H  -3.29300 -3.38200 43.91300
H  -0.15100 -6.59300 44.64300
H  1.90500 -6.79100 46.75200
H  -0.23700 -6.41000 47.44400
H  -1.48500 -6.48300 46.31100
H  -0.94600 -4.85300 46.77000
H  3.07500 -7.47400 44.32800
H  1.34300 -7.58200 43.93400
H  1.92800 -9.13900 46.41000
H  3.09300 -9.48200 45.11800
H  1.33600 -9.68100 44.93700
H  6.98300 -6.12400 46.45700
H  7.08200 -5.09800 47.88600
H  8.25200 -4.88300 46.56100
H  8.07000 -0.95600 43.29900
H  9.52700 2.88700 44.62900
H  9.44100 1.92000 46.21600
H  8.04900 2.63500 45.37500
Mg 7.35900 1.77700 27.75300
C  9.28200 0.60900 30.58200
C  5.81300 4.06000 29.75600
C  5.82800 2.90300 25.04700
C  8.84000 -0.77700 25.95800
N  7.40200 2.04500 30.05800
C  8.32400 1.57900 30.96600
C  8.21200 2.46400 32.25700
C  6.92200 3.35200 32.00800
C  6.65600 3.10000 30.51600
C  5.76800 2.98700 33.01100
C  9.54200 3.25600 32.48000
C  9.53800 4.17000 33.73800
H  10.42000 3.75800 34.90400
N  6.04700 3.27000 27.40400
C  5.50800 4.13200 28.33000
C  4.61300 5.10000 27.65700
C  4.73700 4.87700 26.31400
C  5.57400 3.62700 26.19100
C  3.72300 6.11700 28.40300
C  4.16900 5.71000 25.16500
O  4.46800 5.45300 23.98100
C  3.23300 6.77800 25.34400
N  7.48900 1.25700 25.67200
C  6.60100 1.74900 24.83300
C  6.66900 1.05000 23.49700
C  7.67300 -0.05200 23.77200
C  8.08300 0.14300 25.20100
C  5.35300 0.56200 23.00900
C  8.76200 -0.25500 22.76900
C  8.62100 -1.59000 22.11100
N  8.84200 0.24900 28.05500
C  9.37400 -0.71300 27.24300
C  10.42500 -1.48700 27.93300
C  10.47000 -0.90400 29.20800
C  9.42300 0.05000 29.29400
C  11.27200 -2.58300 27.29700
C  11.05100 -1.06200 30.50800
O  11.94700 -1.79500 30.92000
C  10.36600 -0.07200 31.38600
C  9.83600 -0.62600 32.63800
O  8.97400 -1.46700 32.78300
O  10.50800 -0.00900 33.67600
C  10.14800 -0.54000 35.05400
H  5.31600 4.84500 30.33000
H  5.36800 3.33600 24.15600
H  9.34500 -1.55300 25.38000
H  8.12600 1.78600 33.10600
H  7.18800 4.39500 32.17900
H  6.05400 2.11000 33.59100
H  4.97400 2.78700 32.29100
H  5.59100 3.85400 33.64800
H  9.95800 3.64100 31.54800
H  10.28300 2.50500 32.75500
H  8.52200 4.04300 34.11200
H  9.71700 5.22100 33.50800
H  3.82300 7.16800 28.13200
H  3.84600 5.96900 29.47600
H  2.81100 5.65800 28.02000
H  2.43300 6.24200 25.85500
H  2.78200 6.93300 24.36400
H  3.61500 7.70300 25.77600
H  7.00100 1.73400 22.71700
H  7.14800 -1.00500 23.83500
H  4.42000 0.72400 23.54900
H  5.40800 -0.52600 23.04400
H  5.32500 0.81000 21.94800
H  9.79700 -0.13000 23.08600
H  8.64300 0.57400 22.07100
H  7.76400 -1.77400 21.46300
H  8.74000 -2.32800 22.90400
H  9.47800 -1.74100 21.45500
H  11.84100 -2.09000 26.50900
H  10.75000 -3.36400 26.74400
H  11.94100 -3.05900 28.01300
H  11.12900 0.69400 31.52400
H  10.45500 -1.57900 35.17400
H  9.11800 -0.50400 35.40900
H  10.79700 0.04300 35.70800

