158

Mg 49.25400 34.74000 26.54000
C  46.91000 33.84700 29.15800
C  50.10200 37.57900 28.50100
C  50.63500 36.02400 23.90100
C  47.68700 32.19000 24.65600
N  48.61900 35.60000 28.55600
C  47.80000 34.92700 29.43700
C  47.74300 35.67800 30.76700
C  48.39400 37.07700 30.40600
C  49.13400 36.71300 29.10600
C  47.43100 38.24100 30.22800
C  48.34600 35.07600 32.03900
C  47.59000 35.16900 33.37400
H  47.95300 36.24800 34.37400
N  50.35900 36.52200 26.29700
C  50.69300 37.51000 27.17400
C  51.49900 38.54000 26.53400
C  51.57800 38.16900 25.13800
C  50.83300 36.86100 25.06800
C  52.01800 39.73100 27.23000
C  52.33700 38.92500 23.96400
O  52.37300 38.43400 22.83500
C  52.87700 40.29100 24.04900
N  49.11300 34.21800 24.55200
C  49.93100 34.84600 23.72700
C  50.06900 33.99500 22.43400
C  49.22200 32.73900 22.73600
C  48.53900 33.09100 24.01800
C  49.61500 34.76200 21.10500
C  49.98600 31.38600 22.85300
C  50.03400 30.59800 21.51000
N  47.80900 33.09300 26.93400
C  47.24900 32.22200 25.95800
C  46.27100 31.34800 26.57200
C  46.10700 31.97900 27.85700
C  47.06500 33.03300 28.01200
C  45.60000 30.12100 25.96300
C  45.33900 31.94200 29.10600
O  44.47700 31.18000 29.48200
C  45.77800 33.17200 30.02400
C  46.11800 32.62100 31.32400
O  46.91300 31.70800 31.54300
O  45.32300 33.11500 32.24800
C  45.09800 32.40400 33.51800
H  50.38000 38.48500 29.04200
H  51.33200 36.29800 23.10500
H  47.39500 31.32300 24.05900
H  46.70900 35.91000 31.02000
H  49.10900 37.39100 31.16700
H  47.30400 38.48400 29.17300
H  47.84900 39.12600 30.70700
H  46.52300 37.98800 30.77500
H  49.33900 35.50100 32.18800
H  48.49600 33.99800 31.97300
H  47.70400 34.22400 33.90600
H  46.51800 35.31400 33.24800
H  51.95800 40.64900 26.64500
H  53.00400 39.57700 27.66900
H  51.42700 39.95000 28.11900
H  53.68600 40.39800 24.77200
H  52.06600 40.99700 24.22900
H  53.22400 40.58800 23.06000
H  51.12300 33.73000 22.34600
H  48.45000 32.55000 21.98900
H  49.07100 34.08200 20.45000
H  50.55200 35.07900 20.64600
H  49.12500 35.71800 21.29100
H  49.48300 30.73400 23.56700
H  51.01500 31.63400 23.11300
H  49.46300 29.68200 21.65900
H  51.06400 30.40700 21.21200
H  49.46600 31.14700 20.75900
H  46.21300 29.22100 26.00200
H  45.35300 30.07500 24.90200
H  44.72800 29.79400 26.53100
H  44.96100 33.88100 30.15900
H  44.10300 31.97800 33.64900
H  45.18900 33.19900 34.25900
H  45.84300 31.68100 33.85400
Mg -5.79800 25.40400 26.14800
C  -4.40300 26.73700 29.12100
C  -7.45000 23.08200 27.93100
C  -6.32000 23.85100 23.27800
C  -3.42600 27.49700 24.34200
N  -5.74100 24.93500 28.21200
C  -5.33600 25.66800 29.24300
C  -5.89300 25.13800 30.56800
C  -6.63900 23.88600 30.22600
C  -6.64900 23.95100 28.71200
C  -5.89700 22.57600 30.68500
C  -6.73200 26.24800 31.29300
C  -6.38600 26.39800 32.82100
H  -5.68500 25.26400 33.52700
N  -6.93500 23.79100 25.63100
C  -7.57400 22.99200 26.52600
C  -8.36600 22.09900 25.78000
C  -8.13900 22.32300 24.39400
C  -7.12400 23.39300 24.36000
C  -9.28400 21.02800 26.41100
C  -8.78700 21.70500 23.21700
O  -8.59000 22.09600 22.06500
C  -9.60200 20.39600 23.32000
N  -4.87400 25.57700 24.08000
C  -5.32800 24.78800 23.12700
C  -4.63800 25.06700 21.73200
C  -3.88800 26.38400 22.02100
C  -4.04200 26.47800 23.54200
C  -3.85400 23.80300 21.23400
C  -4.52200 27.60700 21.35900
C  -3.95700 27.95000 19.96100
N  -4.36100 26.94100 26.60000
C  -3.43700 27.63700 25.75700
C  -2.58600 28.47700 26.57000
C  -2.95900 28.15300 27.85100
C  -3.97700 27.23500 27.85600
C  -1.69400 29.45400 26.03500
C  -2.65700 28.42300 29.33600
O  -1.84500 29.19100 29.84000
C  -3.62000 27.41900 30.19700
C  -2.70700 26.57400 30.89000
O  -2.10100 25.56500 30.51100
O  -2.51800 27.20900 32.13800
C  -1.47300 26.63900 32.97200
H  -8.13100 22.49800 28.55300
H  -6.44500 23.21100 22.40200
H  -2.68200 28.12100 23.84200
H  -5.04600 24.69700 31.09300
H  -7.66600 23.79900 30.58200
H  -5.34100 22.62400 31.62200
H  -5.08400 22.22700 30.04900
H  -6.63500 21.77400 30.68300
H  -7.76900 25.91300 31.29900
H  -6.64100 27.21000 30.78800
H  -7.35300 26.53100 33.30500
H  -5.74300 27.23700 33.08700
H  -10.25400 21.05700 25.91500
H  -9.49500 21.21800 27.46300
H  -8.84500 20.03100 26.41100
H  -9.09200 19.76900 24.05200
H  -9.72800 19.82100 22.40300
H  -10.60600 20.72400 23.59000
H  -5.44600 25.22300 21.01700
H  -2.86400 26.24200 21.67700
H  -2.77900 23.98200 21.20800
H  -4.23900 23.55800 20.24400
H  -4.07700 22.94300 21.86500
H  -4.35100 28.47000 22.00300
H  -5.56100 27.50100 21.04700
H  -3.51200 27.09200 19.45600
H  -3.20500 28.69800 20.21400
H  -4.69500 28.48400 19.36200
H  -0.69800 29.45100 26.47700
H  -2.14000 30.44800 26.06600
H  -1.45200 29.33000 24.98000
H  -4.27300 27.99500 30.85300
H  -1.81700 26.38500 33.97500
H  -0.69300 27.35600 33.22800
H  -0.90100 25.80200 32.57100

