158

Mg 7.74900 2.73400 27.44300
C  9.07600 0.90100 30.16400
C  5.86900 4.57700 29.47800
C  6.24100 3.96400 24.73700
C  9.11800 0.26800 25.31300
N  7.53600 2.75800 29.53300
C  8.28100 2.06500 30.48900
C  8.11100 2.73500 31.87700
C  6.94600 3.74400 31.66200
C  6.69100 3.67900 30.12700
C  5.81700 3.65700 32.62900
C  9.39500 3.40800 32.42400
C  9.18600 3.95100 33.82300
H  10.10600 3.51500 34.95700
N  6.21500 4.15400 27.10200
C  5.54500 4.81500 28.12900
C  4.67600 5.81900 27.56400
C  4.78400 5.67900 26.17700
C  5.80300 4.55600 25.95100
C  3.70200 6.62400 28.37600
C  4.00200 6.41500 25.07800
O  4.06200 6.11600 23.88800
C  2.96100 7.45400 25.45000
N  7.55100 2.01600 25.30400
C  6.92100 2.84800 24.44300
C  7.02200 2.29600 23.02500
C  8.01500 1.10100 23.22000
C  8.21700 1.07100 24.71900
C  5.69100 1.70800 22.47000
C  9.32200 1.37900 22.47100
C  9.98000 0.05400 22.13800
N  8.93500 1.07000 27.65600
C  9.41400 0.12300 26.68100
C  10.24800 -0.88600 27.30300
C  10.26600 -0.53200 28.66600
C  9.28100 0.54100 28.85000
C  11.00000 -1.99800 26.63200
C  10.80000 -0.85500 30.00200
O  11.59300 -1.68600 30.44000
C  10.03300 0.15200 31.03400
C  9.33200 -0.67400 32.08100
O  8.44600 -1.44500 31.86100
O  9.84400 -0.34400 33.28900
C  9.49900 -1.19500 34.50000
H  5.34800 5.28700 30.12400
H  5.91600 4.54000 23.86800
H  9.67700 -0.46900 24.73200
H  7.78400 2.01900 32.63100
H  7.41300 4.72100 31.77900
H  4.98200 3.15600 32.14100
H  5.46800 4.68100 32.76400
H  6.10300 3.12100 33.53300
H  9.73500 4.15600 31.70800
H  10.17500 2.64700 32.45600
H  8.15600 3.64000 33.99700
H  9.26100 5.03600 33.74700
H  3.90800 7.69400 28.34500
H  3.75600 6.41600 29.44500
H  2.64500 6.51100 28.13400
H  2.15300 6.93100 25.96200
H  2.58700 8.11600 24.66900
H  3.40000 8.16100 26.15300
H  7.38800 3.08600 22.37000
H  7.53200 0.20000 22.84000
H  4.93400 1.93700 23.22000
H  5.60800 0.64400 22.24900
H  5.39700 2.25800 21.57600
H  9.98000 1.95900 23.11800
H  9.13200 1.94400 21.55800
H  9.34000 -0.79500 22.37900
H  10.95200 0.03500 22.63100
H  10.03100 -0.04400 21.05400
H  11.44500 -1.75600 25.66700
H  10.54700 -2.97700 26.47400
H  11.84900 -2.06000 27.31300
H  10.75500 0.73400 31.60600
H  9.25500 -0.49800 35.30100
H  10.40200 -1.68800 34.85900
H  8.64800 -1.81700 34.22200
Mg 40.70500 9.89400 30.04500
C  42.56300 11.10300 32.68300
C  38.23200 8.79300 32.12300
C  39.12200 8.54200 27.49700
C  43.36300 10.82900 27.83400
N  40.49100 9.84500 32.19200
C  41.33700 10.48800 33.04400
C  40.65000 10.55900 34.49500
C  39.34100 9.73700 34.26000
C  39.35300 9.41700 32.83500
C  39.20900 8.42500 35.06400
C  40.28400 11.96700 34.94200
C  39.95200 12.06600 36.42400
H  40.91500 12.90000 37.34500
N  38.96000 8.64400 29.85600
C  38.04100 8.41000 30.83800
C  36.86000 7.87200 30.31500
C  37.13400 7.67600 28.90000
C  38.46900 8.24700 28.68900
C  35.69300 7.29700 31.20100
C  36.29500 7.07800 27.76700
O  36.72900 6.90000 26.58500
C  34.92000 6.60100 28.17500
N  41.20400 9.79600 27.93700
C  40.32800 9.11900 27.16500
C  40.81500 9.14000 25.70600
C  42.15300 10.00900 25.74500
C  42.31000 10.13100 27.24500
C  41.11500 7.66000 25.16000
C  41.89100 11.46700 25.23400
C  40.60200 12.25400 25.60500
N  42.60200 10.78500 30.20100
C  43.48500 11.15400 29.25700
C  44.59200 11.79800 29.84100
C  44.21200 11.95000 31.21100
C  43.03600 11.19300 31.35600
C  45.93300 12.21000 29.20800
C  44.66900 12.49100 32.46000
O  45.63000 13.12700 32.76900
C  43.45900 12.03400 33.48500
C  44.11200 11.33100 34.54200
O  44.86300 10.36700 34.46500
O  43.71100 11.83500 35.72500
C  44.06400 11.13900 36.92300
H  37.33600 8.54800 32.69700
H  38.67800 8.27300 26.53600
H  44.26000 11.06900 27.26000
H  41.27800 10.08600 35.25000
H  38.40000 10.28700 34.27400
H  38.14200 8.20500 35.08700
H  39.66300 8.64600 36.02900
H  39.80800 7.67000 34.55600
H  39.51000 12.29900 34.25100
H  41.15000 12.61900 34.83200
H  39.99500 11.07900 36.88600
H  38.93500 12.45600 36.43200
H  34.68900 7.37900 30.78400
H  35.69700 7.54500 32.26200
H  35.73600 6.20800 31.21700
H  35.08800 5.84700 28.94400
H  34.43200 6.13800 27.31700
H  34.39600 7.51600 28.45200
H  40.10200 9.59600 25.02000
H  42.96900 9.40900 25.34200
H  41.67200 7.03100 25.85400
H  41.61500 7.61900 24.19200
H  40.16800 7.13300 25.04400
H  42.04200 11.49500 24.15500
H  42.65300 12.19500 25.51300
H  40.18600 12.56400 24.64700
H  40.77000 13.11100 26.25600
H  39.89000 11.59100 26.09700
H  46.69300 12.43800 29.95600
H  45.79100 13.06700 28.54900
H  46.38500 11.43800 28.58500
H  43.15900 13.00000 33.89200
H  45.15300 11.13300 36.97000
H  43.70400 10.11800 36.79400
H  43.59400 11.50800 37.83400

