158

Mg -2.35500 16.79600 26.31900
C  -2.65000 14.77300 29.00300
C  -2.89900 19.51600 28.29400
C  -1.85900 18.70300 23.59500
C  -2.02400 13.88600 24.22800
N  -2.53800 17.06300 28.48000
C  -2.68200 16.10500 29.40000
C  -2.85900 16.63500 30.80400
C  -2.98400 18.15700 30.56700
C  -2.85800 18.30300 29.03500
C  -4.29800 18.69800 31.23300
C  -1.68500 16.17800 31.70100
C  -1.23700 16.81100 33.02600
H  -1.02900 16.00800 34.26900
N  -2.31000 18.82500 26.01600
C  -2.66900 19.77800 26.97600
C  -2.51300 21.11800 26.44700
C  -1.98200 20.91000 25.06800
C  -2.08000 19.39000 24.81100
C  -2.96300 22.34900 27.16300
C  -1.54800 21.88600 24.02100
O  -1.51900 21.56800 22.83600
C  -1.29600 23.28800 24.40000
N  -1.84800 16.32700 24.21800
C  -1.78000 17.37200 23.33400
C  -1.65000 16.80700 21.95100
C  -1.55900 15.25300 22.11900
C  -1.93600 15.12100 23.56000
C  -2.64700 17.23100 20.91400
C  -0.18200 14.66100 21.76200
C  0.05700 14.14800 20.35200
N  -2.48400 14.78400 26.49000
C  -2.31100 13.70400 25.59000
C  -2.47600 12.46400 26.27600
C  -2.59600 12.83200 27.64500
C  -2.60400 14.19900 27.70900
C  -2.39200 11.12300 25.64300
C  -2.69700 12.31100 28.96100
O  -2.69600 11.13500 29.33800
C  -2.67600 13.47800 29.89700
C  -1.50000 13.17400 30.69400
O  -0.37600 13.27900 30.28200
O  -1.78100 12.69200 31.96900
C  -0.73000 12.11500 32.82600
H  -3.01600 20.43500 28.87300
H  -1.63600 19.32600 22.72600
H  -1.77600 13.02200 23.60800
H  -3.73000 16.12400 31.21400
H  -2.12000 18.69500 30.95700
H  -4.92900 19.22000 30.51400
H  -4.02400 19.46700 31.95500
H  -4.87800 18.00600 31.84300
H  -0.79400 15.95000 31.11600
H  -2.04300 15.20600 32.04100
H  -2.05900 17.50800 33.18800
H  -0.25700 17.28200 32.95200
H  -3.64900 22.07400 27.96400
H  -3.59000 23.04700 26.60800
H  -2.01700 22.78400 27.48600
H  -2.23200 23.72200 24.75200
H  -0.95300 23.75400 23.47500
H  -0.48400 23.44200 25.11000
H  -0.70700 17.22100 21.59600
H  -2.31300 14.71400 21.54600
H  -2.13500 17.75400 20.10600
H  -3.32500 17.97900 21.32400
H  -3.26000 16.43600 20.48900
H  0.06700 13.88900 22.49000
H  0.49700 15.51200 21.81500
H  -0.92000 14.37300 19.92400
H  0.23200 13.07200 20.35200
H  0.80100 14.83100 19.94200
H  -1.75100 10.99500 24.77100
H  -3.35400 10.73400 25.31100
H  -1.94500 10.46300 26.38600
H  -3.57400 13.49600 30.51400
H  0.10300 12.78700 33.03100
H  -0.42700 11.20500 32.30900
H  -1.07400 11.80700 33.81400
Mg 30.92400 58.72400 40.73900
C  28.32400 56.62900 39.78000
C  33.14700 56.35700 39.46400
C  33.41400 61.07000 40.93300
C  28.57400 61.16800 41.69000
N  30.70700 56.77400 39.75500
C  29.55600 56.17500 39.35500
C  29.73100 54.88200 38.58700
C  31.29400 54.72500 38.76600
C  31.74700 56.00800 39.38300
C  31.69700 53.41900 39.52200
C  29.27200 54.95900 37.09900
C  28.23300 53.98800 36.54100
H  27.14300 54.52000 35.55200
N  32.92000 58.72100 40.25100
C  33.69300 57.63600 39.82700
C  35.07800 57.97000 39.76300
C  35.16100 59.30000 40.12000
C  33.80300 59.76500 40.41100
C  36.19500 56.96800 39.40200
C  36.51900 60.00900 40.29500
O  37.53300 59.37700 40.18900
C  36.62500 61.46100 40.61000
N  30.93600 60.92100 41.03600
C  32.16200 61.55500 41.24800
C  31.90600 62.93900 41.81200
C  30.37600 63.02600 42.05300
C  29.88600 61.63700 41.56600
C  32.81000 63.38200 43.10100
C  29.65400 64.15800 41.33800
C  28.31200 64.64700 41.90200
N  28.92400 58.83900 40.81300
C  28.06100 59.94300 41.16100
C  26.74000 59.61800 40.80700
C  26.74400 58.29900 40.30900
C  28.06700 57.87300 40.42600
C  25.52300 60.54200 41.05400
C  25.98800 57.21500 39.80900
O  24.81100 57.11400 39.57800
C  26.92800 56.08700 39.38200
C  26.59100 54.91100 40.17600
O  26.96200 54.60700 41.29900
O  25.69900 54.16000 39.42800
C  25.24900 52.85800 40.05500
H  33.78600 55.59300 39.01500
H  34.19100 61.81800 41.10400
H  27.88400 61.91900 42.08000
H  29.12100 54.19400 39.17400
H  31.79300 54.78500 37.79900
H  32.01200 53.72800 40.51900
H  32.57700 52.97300 39.05900
H  30.95500 52.62200 39.55500
H  30.14200 54.76600 36.47100
H  28.95900 55.98900 36.93200
H  27.66900 53.63300 37.40300
H  28.71300 53.11200 36.10400
H  35.79100 56.23500 38.70400
H  36.64000 56.62000 40.33400
H  36.98900 57.46800 38.84700
H  36.00700 62.15000 40.03400
H  37.67000 61.76500 40.54200
H  36.27100 61.70600 41.61100
H  32.18400 63.57100 40.96900
H  30.12400 62.90600 43.10700
H  32.20800 63.37800 44.00900
H  33.33800 64.33400 43.04600
H  33.58100 62.63600 43.29500
H  29.62600 63.69700 40.35100
H  30.27700 65.05100 41.31300
H  28.15600 64.27200 42.91300
H  27.54600 64.29100 41.21200
H  28.30800 65.73700 41.90700
H  24.99700 60.18200 41.93900
H  24.82800 60.50300 40.21600
H  25.83200 61.57100 41.23800
H  26.84200 55.95900 38.30300
H  24.38100 52.96700 40.70600
H  26.04400 52.46200 40.68700
H  24.94100 52.13900 39.29500

