158

Mg 16.38200 -0.71200 27.84300
C  15.59000 1.36400 30.52400
C  18.27300 -2.61100 30.00400
C  17.73700 -2.37300 25.10300
C  14.84800 1.52400 25.75500
N  16.92200 -0.57100 29.96600
C  16.41700 0.35000 30.87400
C  16.80000 -0.13400 32.29700
C  17.98200 -1.07600 32.03300
C  17.71100 -1.52800 30.56500
C  19.43300 -0.72200 32.33100
C  15.56000 -0.70200 33.08400
C  15.30600 0.09500 34.45100
H  16.53700 0.46600 35.34700
N  17.71500 -2.33600 27.65400
C  18.33900 -3.03100 28.66200
C  19.05400 -4.18300 28.13100
C  18.97600 -4.14000 26.69000
C  18.13100 -2.94700 26.43500
C  19.64000 -5.27300 29.01800
C  19.56700 -5.03200 25.61200
O  19.47300 -4.79400 24.40700
C  20.54100 -6.26700 25.91200
N  16.39300 -0.43600 25.71000
C  17.01200 -1.24400 24.77400
C  16.82500 -0.65900 23.39800
C  15.81300 0.43900 23.59600
C  15.64900 0.50700 25.04500
C  18.16500 -0.19200 22.71600
C  14.50700 0.27600 22.79300
C  13.28400 -0.22100 23.49300
N  15.32600 0.99300 28.05100
C  14.72100 1.79700 27.12300
C  14.04500 2.96100 27.76500
C  14.38300 2.76900 29.11600
C  15.17100 1.60000 29.23300
C  13.33500 4.08400 26.98400
C  14.16600 3.41700 30.44800
O  13.46800 4.36800 30.76400
C  14.97100 2.46300 31.44300
C  15.99000 3.29500 32.21700
O  17.09600 3.61200 31.86200
O  15.44200 3.69400 33.37600
C  16.21900 4.66200 34.21800
H  18.67500 -3.31200 30.73900
H  18.02500 -2.90400 24.19400
H  14.41300 2.21000 25.02500
H  17.25700 0.71600 32.80300
H  17.84000 -2.00300 32.59000
H  20.04700 -0.87300 31.44300
H  19.74400 -1.32900 33.18100
H  19.58700 0.31200 32.64000
H  15.72700 -1.73500 33.38800
H  14.66100 -0.57500 32.48000
H  14.59200 -0.44700 35.07000
H  14.92100 1.09000 34.22800
H  19.98800 -6.14200 28.45900
H  18.87400 -5.49900 29.75900
H  20.56700 -4.93300 29.47900
H  20.03900 -7.13900 26.33000
H  21.23000 -5.70000 26.53900
H  20.99800 -6.57900 24.97300
H  16.46800 -1.31000 22.60000
H  16.23200 1.40800 23.32400
H  19.06500 -0.70200 23.05900
H  18.37500 0.85700 22.92900
H  18.13300 -0.26400 21.62900
H  14.66100 -0.38500 21.94000
H  14.21600 1.24700 22.39200
H  12.75200 0.64100 23.89500
H  13.59500 -0.86300 24.31800
H  12.69300 -0.86000 22.83700
H  13.23600 4.94000 27.65100
H  12.38400 3.58800 26.79200
H  13.85300 4.34900 26.06200
H  14.22700 2.02300 32.10700
H  15.97600 4.40800 35.25000
H  16.01300 5.69100 33.92300
H  17.30900 4.65800 34.23300
Mg 41.02200 8.95100 29.37600
C  42.81500 10.07000 32.11700
C  38.39400 7.94500 31.44700
C  39.33900 7.69800 26.72000
C  43.82700 9.62700 27.41900
N  40.71900 8.95400 31.56500
C  41.52300 9.61600 32.45600
C  40.77600 9.66300 33.76600
C  39.48300 8.82500 33.58600
C  39.46400 8.55600 32.07200
C  39.52200 7.47000 34.39800
C  40.49100 11.09400 34.27500
C  39.90800 11.11200 35.71500
H  40.77800 11.72900 36.70800
N  39.16500 7.89800 29.12200
C  38.14200 7.69600 30.09000
C  36.93300 7.09000 29.53800
C  37.15900 7.07000 28.09600
C  38.64800 7.54500 27.90900
C  35.70600 6.67400 30.41100
C  36.12700 6.68800 26.95700
O  36.47300 6.54800 25.77900
C  34.74500 6.51600 27.29200
N  41.54500 8.50100 27.41100
C  40.68500 8.08400 26.49100
C  41.31600 7.99000 25.07100
C  42.56800 8.99900 25.28800
C  42.66700 9.04800 26.81500
C  41.62600 6.60700 24.53700
C  42.48800 10.40000 24.70400
C  43.43100 10.78400 23.53500
N  42.90800 9.78000 29.63000
C  43.99700 9.90500 28.74500
C  45.13500 10.49200 29.40900
C  44.61100 10.65200 30.72400
C  43.34300 10.10800 30.79800
C  46.45300 10.96500 28.75100
C  45.01100 11.07500 32.02000
O  45.97600 11.71100 32.36900
C  43.86300 10.74600 32.93900
C  44.28300 9.90900 34.10100
O  44.96800 8.88700 34.12100
O  43.82700 10.40000 35.26300
C  44.23300 9.64900 36.49700
H  37.58400 7.73200 32.14700
H  38.83000 7.35500 25.81700
H  44.59600 9.88300 26.68700
H  41.52000 9.17100 34.39300
H  38.53600 9.32700 33.78800
H  39.96800 6.70500 33.76200
H  38.46600 7.40900 34.66200
H  40.01500 7.59100 35.36300
H  39.67200 11.47400 33.66500
H  41.39500 11.69000 34.15800
H  39.59100 10.09100 35.92600
H  39.03600 11.76300 35.78500
H  34.73200 6.87400 29.96400
H  35.67400 6.99400 31.45300
H  35.71200 5.59200 30.28400
H  34.62100 5.65300 27.94700
H  34.18700 6.31100 26.37900
H  34.41500 7.49800 27.63000
H  40.58900 8.45000 24.40200
H  43.49200 8.52600 24.95600
H  42.69900 6.42200 24.58200
H  41.17900 6.57600 23.54300
H  41.09400 5.82700 25.08200
H  42.50500 11.21800 25.42500
H  41.53000 10.55600 24.20800
H  43.60900 9.81600 23.06600
H  44.36100 11.12300 23.99200
H  43.02200 11.60500 22.94700
H  46.28600 12.03000 28.59400
H  46.72500 10.42400 27.84500
H  47.26800 10.69200 29.42100
H  43.36200 11.60200 33.39200
H  44.36400 8.60500 36.21300
H  43.43800 9.85800 37.21400
H  45.16200 10.01000 36.93800

