158

Mg 17.97000 -1.85900 27.60300
C  17.18900 0.23000 30.32000
C  19.88600 -3.77300 29.70500
C  18.94000 -3.54100 24.92500
C  16.08300 0.45800 25.54800
N  18.42700 -1.76500 29.80700
C  17.98100 -0.83100 30.67100
C  18.41400 -1.17400 32.06200
C  19.49100 -2.30500 31.95800
C  19.33100 -2.61000 30.40000
C  20.93100 -2.08100 32.30100
C  17.20100 -1.70300 32.95400
C  17.08000 -1.10800 34.38600
H  18.31400 -0.43300 35.04300
N  19.22400 -3.49700 27.37100
C  19.79700 -4.19400 28.34600
C  20.40200 -5.41700 27.75700
C  20.30200 -5.25400 26.38700
C  19.49300 -4.06700 26.14800
C  21.00700 -6.36800 28.68200
C  20.79900 -6.23800 25.23600
O  20.66200 -5.98100 24.04600
C  21.45500 -7.55300 25.46600
N  17.55400 -1.59100 25.57200
C  18.12300 -2.36900 24.63700
C  17.67900 -1.97200 23.23100
C  16.57500 -0.85900 23.50800
C  16.75400 -0.62800 25.01600
C  18.80200 -1.56100 22.31400
C  15.13800 -1.14400 23.03000
C  14.55600 -0.10700 22.03500
N  16.89500 -0.05600 27.83300
C  16.12700 0.71900 26.93300
C  15.45500 1.85100 27.56700
C  15.91700 1.71100 28.90800
C  16.74100 0.55100 29.03300
C  14.61400 3.01100 27.01800
C  15.78900 2.16500 30.22600
O  15.23800 3.17000 30.58200
C  16.48700 1.25800 31.21100
C  17.45500 1.99700 32.06200
O  18.46100 2.57300 31.61900
O  16.82900 2.26200 33.26000
C  17.52500 3.28500 34.05600
H  20.60100 -4.33200 30.31300
H  19.32000 -4.04000 24.03100
H  15.42700 1.02700 24.88400
H  18.82500 -0.30100 32.56900
H  19.09600 -3.20100 32.43600
H  21.56000 -2.07400 31.41100
H  21.20300 -2.94300 32.91100
H  20.92200 -1.20900 32.95400
H  17.29500 -2.78000 33.09700
H  16.20300 -1.57100 32.53700
H  16.63900 -1.78300 35.11900
H  16.26000 -0.39200 34.43100
H  22.07500 -6.15800 28.74100
H  20.79400 -7.37700 28.33000
H  20.48300 -6.26900 29.63200
H  22.37100 -7.43000 26.04400
H  21.68100 -7.94400 24.47400
H  20.76000 -8.21500 25.98300
H  17.24200 -2.82800 22.71600
H  16.90000 0.07000 23.04000
H  18.75600 -0.48100 22.17400
H  18.69000 -2.08700 21.36600
H  19.77200 -1.83800 22.72600
H  14.40400 -1.23000 23.83200
H  15.28300 -2.13600 22.60300
H  15.08200 -0.42900 21.13600
H  14.93300 0.90700 22.16300
H  13.46900 -0.14200 21.95700
H  14.57500 3.05200 25.93000
H  15.01800 3.88500 27.52900
H  13.58500 2.92000 27.36700
H  15.72500 0.75800 31.80800
H  16.97400 4.22400 34.11300
H  18.56000 3.53000 33.81600
H  17.56700 2.86900 35.06200
Mg 6.41700 55.56000 42.13000
C  5.90500 52.13800 42.06100
C  9.33200 55.15600 40.32800
C  6.31500 58.85500 41.54800
C  3.13300 55.83800 43.65600
N  7.38700 53.85200 41.26700
C  6.98500 52.55400 41.25900
C  7.91900 51.67100 40.35700
C  9.21500 52.58500 40.25900
C  8.59500 53.96600 40.58700
C  10.24700 52.33100 41.37200
C  7.16200 51.53200 38.98300
C  7.62100 50.20500 38.21700
H  6.83500 49.85900 36.98900
N  7.63600 56.86100 41.07700
C  8.86900 56.50100 40.49500
C  9.46300 57.66700 39.95500
C  8.58000 58.79800 40.22500
C  7.40300 58.24400 40.93400
C  10.78300 57.68200 39.19100
C  8.77700 60.26300 39.93600
O  9.76000 60.66100 39.36800
C  7.74500 61.31400 40.00900
N  4.77500 57.11500 42.29800
C  5.10400 58.39700 42.13500
C  3.97100 59.33700 42.57400
C  2.98000 58.34400 43.13900
C  3.65600 56.96700 42.97400
C  4.37700 60.44000 43.70100
C  1.56800 58.26700 42.46500
C  0.42000 57.89600 43.38800
N  4.90900 54.24800 42.99000
C  3.65200 54.47500 43.59300
C  3.10900 53.27400 44.14200
C  3.88400 52.30900 43.47600
C  4.95700 52.99200 42.79600
C  1.79900 53.14800 44.84200
C  4.06500 50.91900 43.21800
O  3.42400 49.91600 43.57000
C  5.27500 50.75700 42.28800
C  4.91800 49.97600 41.04000
O  3.83400 50.09200 40.39200
O  5.79500 48.95100 40.93500
C  5.30800 47.79800 40.23000
H  10.29600 54.88500 39.89100
H  6.47800 59.92400 41.70000
H  2.14800 55.84900 44.12800
H  8.10900 50.72100 40.85800
H  9.59400 52.54900 39.23700
H  11.13600 51.91600 40.89700
H  9.94300 51.66600 42.18100
H  10.61400 53.27100 41.78200
H  7.24300 52.50300 38.49500
H  6.12500 51.42300 39.29900
H  7.83600 49.35500 38.86600
H  8.58000 50.42400 37.74700
H  10.64600 57.76000 38.11200
H  11.46800 56.89300 39.50200
H  11.34300 58.57300 39.47500
H  6.76300 60.85400 39.90200
H  7.84200 62.01700 39.18100
H  7.82900 61.83100 40.96500
H  3.48000 59.79300 41.71400
H  2.75500 58.38300 44.20500
H  5.36300 60.14700 44.06000
H  3.63800 60.34900 44.49800
H  4.41800 61.45900 43.31700
H  1.56000 57.63400 41.57800
H  1.36100 59.27600 42.10600
H  -0.25100 58.73100 43.58700
H  0.79500 57.55000 44.35100
H  -0.12200 57.12300 42.84300
H  1.29000 54.08600 45.06400
H  1.81600 52.59500 45.78100
H  1.06900 52.60500 44.24200
H  5.96000 50.14400 42.87400
H  5.81700 47.73100 39.26800
H  4.23000 47.87200 40.09000
H  5.54700 46.96500 40.89100

