158

Mg 1.39700 7.64000 26.14800
C  2.14600 9.77300 28.79100
C  1.49300 4.93900 28.35700
C  0.71700 5.67100 23.57000
C  1.71700 10.40700 23.90600
N  1.71300 7.44800 28.33800
C  1.97500 8.45800 29.18900
C  1.88300 7.96000 30.59800
C  1.73400 6.39700 30.49100
C  1.63100 6.23100 28.97900
C  2.96200 5.58700 30.99700
C  0.65000 8.58800 31.33600
C  0.73700 8.77300 32.91200
H  1.85500 7.95400 33.56800
N  1.26400 5.61800 25.98000
C  1.39100 4.66100 26.95500
C  1.19400 3.33300 26.38500
C  0.86200 3.55700 25.03000
C  0.95500 4.99500 24.76500
C  1.15300 2.03300 27.23300
C  0.70800 2.50700 23.97700
O  0.58800 2.81100 22.78300
C  0.55600 1.05200 24.32800
N  1.38600 8.00000 23.98200
C  0.92400 6.95300 23.21500
C  0.87100 7.37200 21.67700
C  0.77100 8.92400 21.91300
C  1.32600 9.14300 23.31300
C  2.16100 6.84900 20.95700
C  -0.55200 9.70600 21.56700
C  -0.76600 10.67300 20.37500
N  1.65700 9.68600 26.23100
C  1.78600 10.68300 25.27000
C  2.11000 11.98200 25.87000
C  2.22200 11.63000 27.27100
C  2.06600 10.20700 27.45600
C  1.91100 13.36700 25.33400
C  2.48200 12.14600 28.62900
O  2.69000 13.28600 29.05600
C  2.37200 11.02200 29.63700
C  3.56300 11.08900 30.58600
O  4.63400 10.59000 30.33100
O  3.12600 11.70000 31.77700
C  4.04300 11.95200 32.92700
H  1.37900 4.05500 28.98700
H  0.56700 5.01800 22.70800
H  1.87800 11.22700 23.20200
H  2.78900 8.25700 31.12800
H  0.83100 6.12600 31.03800
H  2.61500 4.55800 31.09200
H  3.47900 5.97400 31.87500
H  3.69500 5.60400 30.18900
H  -0.31000 8.17500 31.02700
H  0.60400 9.59400 30.91800
H  -0.21800 8.41200 33.29500
H  0.79400 9.82500 33.19100
H  1.75900 1.29100 26.71300
H  0.13700 1.64500 27.30700
H  1.47300 2.16100 28.26600
H  1.54200 0.64000 24.54200
H  0.22200 0.48400 23.45900
H  -0.05300 0.95400 25.22600
H  -0.07700 7.14000 21.19100
H  1.58200 9.29900 21.29000
H  2.75500 6.27800 21.67100
H  2.75800 7.66000 20.54000
H  1.84100 6.09400 20.23900
H  -0.78000 10.25900 22.47800
H  -1.34100 8.95800 21.48300
H  0.10800 10.77000 19.73000
H  -0.91600 11.65200 20.83000
H  -1.64600 10.51900 19.75200
H  1.61400 13.46500 24.28900
H  2.94200 13.71400 25.28300
H  1.23400 13.96100 25.94800
H  1.47600 11.32000 30.18100
H  4.78300 12.71000 32.67000
H  4.79500 11.17000 33.03400
H  3.61400 12.12000 33.91500
Mg -4.17000 24.71700 26.84600
C  -2.83000 26.66300 29.28100
C  -5.72400 22.75300 29.23600
C  -5.43600 22.76100 24.37800
C  -2.40200 26.61200 24.37500
N  -4.27600 24.72200 28.99500
C  -3.74300 25.70300 29.74900
C  -4.39000 25.68900 31.11300
C  -5.05300 24.22500 31.15700
C  -5.00800 23.82000 29.72400
C  -4.30100 23.21000 32.13300
C  -5.31900 26.85500 31.50800
C  -5.15300 27.40000 32.85600
H  -4.96900 26.30000 33.93300
N  -5.42600 23.07300 26.81800
C  -6.00300 22.42600 27.92500
C  -6.72100 21.23200 27.45500
C  -6.67900 21.28100 26.02000
C  -5.83600 22.41000 25.68700
C  -7.26100 20.18200 28.44100
C  -7.31700 20.33000 24.98200
O  -7.18000 20.41600 23.75000
C  -8.20200 19.12000 25.41200
N  -4.07100 24.70600 24.60900
C  -4.65300 23.81500 23.78800
C  -4.49000 24.17100 22.31600
C  -3.63200 25.53900 22.44500
C  -3.33400 25.67100 23.94100
C  -3.86100 23.02000 21.53200
C  -4.42100 26.77700 21.87900
C  -3.54400 27.53600 20.77800
N  -2.90400 26.23500 26.74900
C  -2.27300 27.00700 25.72400
C  -1.43600 28.08200 26.26600
C  -1.71500 28.02600 27.61800
C  -2.50500 26.86100 27.87900
C  -0.56900 29.00300 25.50500
C  -1.48800 28.72500 28.87900
O  -0.85700 29.74900 29.14400
C  -2.20400 27.82300 29.99100
C  -1.33100 27.35800 31.14000
O  -0.27500 26.85700 30.99500
O  -1.78500 27.65900 32.41200
C  -0.99100 27.27600 33.53200
H  -6.17500 22.11500 29.99800
H  -5.61200 22.00700 23.60900
H  -1.97000 27.31600 23.66200
H  -3.63300 25.64000 31.89600
H  -6.10000 24.21400 31.46100
H  -3.61400 23.68200 32.83500
H  -3.83300 22.37400 31.61300
H  -5.13900 22.79500 32.69300
H  -6.37000 26.64400 31.31000
H  -5.16900 27.63900 30.76600
H  -6.04700 27.97800 33.09200
H  -4.25600 28.01600 32.78600
H  -7.16800 19.15800 28.07900
H  -8.32700 20.28100 28.64700
H  -6.65000 20.08400 29.33800
H  -9.11100 19.60100 25.77200
H  -7.77400 18.49600 26.19700
H  -8.46300 18.45700 24.58700
H  -5.49100 24.39000 21.94500
H  -2.61900 25.47200 22.04800
H  -3.86400 22.07100 22.06800
H  -2.86100 23.23000 21.15200
H  -4.52000 22.98200 20.66500
H  -4.54700 27.52000 22.66700
H  -5.38800 26.56900 21.42100
H  -2.73600 26.92000 20.38500
H  -3.26400 28.53000 21.12700
H  -4.08000 27.78100 19.86100
H  0.15500 29.36300 26.23700
H  -1.23500 29.77500 25.11800
H  -0.12500 28.37900 24.73000
H  -2.95900 28.39500 30.52900
H  -1.39500 27.97700 34.26300
H  0.09000 27.26600 33.39500
H  -1.33600 26.29000 33.84000

