158

Mg -1.81200 34.66700 26.95200
C  -3.39900 32.89700 29.45200
C  -0.73900 36.98300 29.38000
C  -1.00200 36.99800 24.53600
C  -3.72700 32.98800 24.60000
N  -1.92300 34.72400 29.16900
C  -2.69100 33.95600 30.01100
C  -2.37100 34.21500 31.50500
C  -1.57700 35.56600 31.45100
C  -1.42100 35.80300 29.90600
C  -2.25500 36.66400 32.32700
C  -1.52000 32.95600 32.06800
C  -2.14200 32.31900 33.34600
H  -1.29300 32.18500 34.55600
N  -0.72700 36.63700 26.92400
C  -0.40500 37.35800 28.02500
C  0.40200 38.48600 27.56700
C  0.15800 38.55300 26.12700
C  -0.58500 37.40900 25.84700
C  1.13100 39.35900 28.55300
C  0.69500 39.64500 25.17700
O  0.50200 39.59100 23.97200
C  1.58000 40.66700 25.79600
N  -2.34200 35.02700 24.90800
C  -1.79500 35.93700 24.07400
C  -2.22000 35.69300 22.61000
C  -3.15700 34.41100 22.70900
C  -3.08300 34.17300 24.17300
C  -2.84600 37.04200 22.09100
C  -2.59600 33.20500 21.90000
C  -1.07300 32.97400 22.00200
N  -3.23700 33.23200 26.95500
C  -3.89400 32.56700 25.91100
C  -4.73800 31.53700 26.46300
C  -4.56100 31.65500 27.85000
C  -3.61500 32.66500 28.08000
C  -5.66000 30.59500 25.76200
C  -5.07600 31.04900 29.09500
O  -5.85100 30.12700 29.35800
C  -4.32500 31.89300 30.13900
C  -5.27000 32.40000 31.12500
O  -5.97200 33.40700 31.09400
O  -5.36100 31.57800 32.23900
C  -6.33900 31.90200 33.30500
H  -0.23000 37.58900 30.13200
H  -0.74100 37.74200 23.78100
H  -4.34900 32.41900 23.90600
H  -3.23100 34.28700 32.17100
H  -0.58400 35.41900 31.87600
H  -2.87400 37.31600 31.71100
H  -1.48200 37.26800 32.80100
H  -2.87200 36.18200 33.08500
H  -0.50100 33.27400 32.29100
H  -1.51600 32.21700 31.26600
H  -2.52900 31.32600 33.12000
H  -3.06100 32.85100 33.59300
H  1.20000 38.85600 29.51700
H  0.61000 40.31600 28.55900
H  2.09700 39.38600 28.04900
H  2.50400 40.24900 26.19500
H  1.11900 41.21800 26.61600
H  1.91300 41.43000 25.09200
H  -1.31800 35.57200 22.01100
H  -4.20200 34.64800 22.51500
H  -2.03300 37.58200 21.60400
H  -3.29300 37.56100 22.93900
H  -3.72400 36.92000 21.45700
H  -2.92700 33.42200 20.88500
H  -3.04100 32.24700 22.16600
H  -0.85400 33.47100 22.94700
H  -0.47700 33.43400 21.21400
H  -0.81800 31.93600 22.21600
H  -5.79300 30.76300 24.69300
H  -6.59700 30.82900 26.26800
H  -5.22000 29.60900 25.91300
H  -3.81300 31.09200 30.67400
H  -7.01000 31.06800 33.50900
H  -7.04700 32.71400 33.13800
H  -5.89700 32.23800 34.24300
Mg -11.59600 17.44400 42.63700
C  -8.15700 17.57900 42.77300
C  -11.92100 20.73400 42.35200
C  -14.91700 16.93800 42.18600
C  -11.26300 13.78700 42.34800
N  -10.17600 18.99500 42.47600
C  -8.81500 18.86200 42.53300
C  -8.20900 20.27000 42.65600
C  -9.49500 21.20200 42.82400
C  -10.60400 20.27600 42.52700
C  -9.76300 22.04100 44.15400
C  -7.25200 20.61000 41.45000
C  -5.66100 20.64700 41.53000
H  -4.80600 19.88800 40.51100
N  -13.20700 18.69500 42.32900
C  -13.14900 20.05500 42.26400
C  -14.45200 20.66300 42.22400
C  -15.36100 19.57700 42.16700
C  -14.55200 18.36000 42.11300
C  -14.66500 22.17000 42.12700
C  -16.88000 19.69500 42.09900
O  -17.46600 20.77400 42.25900
C  -17.67600 18.46700 41.96400
N  -12.80200 15.64200 42.15800
C  -14.16200 15.77700 42.07700
C  -14.76500 14.44800 42.01200
C  -13.64600 13.44300 41.70300
C  -12.46900 14.33000 42.09300
C  -15.42400 14.18300 43.42100
C  -13.59900 13.12600 40.19600
C  -14.05600 11.73100 39.88800
N  -10.11200 15.96400 42.73400
C  -10.11900 14.55600 42.68500
C  -8.76500 14.05300 42.81000
C  -7.98500 15.17800 42.96700
C  -8.80200 16.28500 42.80300
C  -8.33800 12.56600 42.80600
C  -6.61700 15.66800 43.06900
O  -5.61100 15.01100 43.11900
C  -6.67800 17.32300 42.94900
C  -6.27200 17.64500 44.42000
O  -7.14400 17.87600 45.25700
O  -4.90900 17.63700 44.61600
C  -4.54400 17.63700 46.04800
H  -11.95100 21.82600 42.34000
H  -15.96100 16.61900 42.22300
H  -11.30000 12.71400 42.14400
H  -7.60200 20.27300 43.56100
H  -9.37300 22.03800 42.13400
H  -9.79200 23.10900 43.94100
H  -8.98700 21.90000 44.90600
H  -10.72000 21.71900 44.56500
H  -7.56800 21.57500 41.05500
H  -7.47300 19.86700 40.68400
H  -5.38700 20.33800 42.53900
H  -5.32700 21.65900 41.30400
H  -14.81600 22.53700 41.11200
H  -13.83400 22.77300 42.49400
H  -15.49100 22.33100 42.82100
H  -18.70400 18.77500 41.77500
H  -17.72800 17.93400 42.91400
H  -17.39900 17.84700 41.11100
H  -15.54900 14.48600 41.25500
H  -13.64800 12.55500 42.33500
H  -16.50000 14.08100 43.28000
H  -15.32400 14.92000 44.21700
H  -15.17300 13.21500 43.85500
H  -12.55700 13.02900 39.89000
H  -14.13800 13.88300 39.62600
H  -14.74900 11.45400 40.68300
H  -13.24600 11.00400 39.83300
H  -14.64400 11.73600 38.96900
H  -8.51200 12.06700 43.75900
H  -7.26100 12.56200 42.63800
H  -8.83900 12.02800 42.00100
H  -5.93800 17.75500 42.27500
H  -3.51800 17.27400 46.10200
H  -5.21500 16.95000 46.56300
H  -4.68600 18.64200 46.44400

