158

Mg 30.11400 58.88100 38.25700
C  27.44200 56.54200 37.65500
C  32.18300 56.15300 38.13800
C  32.65100 61.07100 38.36700
C  27.79200 61.43900 38.12500
N  29.82100 56.53600 37.72700
C  28.65700 55.86400 37.65500
C  28.90500 54.33600 37.59300
C  30.51900 54.19500 37.80500
C  30.89700 55.69700 37.91600
C  30.83100 53.36700 39.02200
C  28.49600 53.60500 36.25000
C  29.12600 54.17700 34.88500
H  28.14900 54.72600 33.91400
N  32.13600 58.65500 38.21400
C  32.81500 57.42300 38.23600
C  34.26700 57.67800 38.30300
C  34.40700 59.13900 38.29600
C  33.01300 59.69100 38.30000
C  35.25500 56.52500 38.21300
C  35.80300 59.83400 38.30400
O  36.85400 59.24300 38.48100
C  35.77900 61.27000 38.29100
N  30.24100 60.93300 38.26500
C  31.38700 61.64300 38.43200
C  31.12500 63.19900 38.55000
C  29.61000 63.23000 38.60700
C  29.18000 61.78200 38.26200
C  31.91300 63.94300 39.66900
C  29.00300 64.35900 37.67900
C  27.92300 65.26100 38.18600
N  28.06700 59.02200 37.84100
C  27.26400 60.16300 37.84400
C  25.91600 59.77000 37.57800
C  25.93000 58.38500 37.53500
C  27.24200 57.96500 37.65400
C  24.74100 60.70500 37.31000
C  25.07900 57.25900 37.37400
O  23.84000 57.18400 37.20700
C  26.04200 56.06100 37.40700
C  25.59600 55.16900 38.51500
O  25.80300 55.35000 39.71200
O  24.95500 54.06700 38.02300
C  24.25100 53.31400 39.05900
H  32.86300 55.32400 37.92700
H  33.31800 61.93500 38.39600
H  27.09700 62.28100 38.10900
H  28.26400 53.79300 38.28800
H  31.05200 53.77200 36.95300
H  30.10800 52.56800 39.18500
H  30.94700 53.95300 39.93400
H  31.75600 52.86200 38.74500
H  27.41100 53.64600 36.15000
H  28.76600 52.55700 36.38100
H  29.53400 53.36200 34.28800
H  29.89200 54.92700 35.07900
H  35.34800 56.18600 37.18100
H  34.78500 55.71400 38.76900
H  36.20500 56.74900 38.69900
H  35.29200 61.65200 39.18800
H  35.20500 61.76100 37.50500
H  36.76200 61.71500 38.13200
H  31.48100 63.56600 37.58700
H  29.39500 63.47700 39.64700
H  32.52500 63.17300 40.13800
H  31.16800 64.40000 40.32100
H  32.55300 64.73500 39.28100
H  28.58900 63.88400 36.78900
H  29.80300 65.03700 37.38200
H  27.18700 65.63900 37.47600
H  28.21400 66.20200 38.65200
H  27.43600 64.67800 38.96800
H  23.96400 60.14600 36.78900
H  25.10700 61.40300 36.55700
H  24.40700 61.09200 38.27300
H  25.93000 55.61000 36.42100
H  23.73800 53.93600 39.79200
H  24.94100 52.60500 39.51600
H  23.40200 52.87600 38.53400
Mg 0.54700 44.00100 24.97500
C  2.51800 43.62600 27.94200
C  -2.30300 43.29800 26.92200
C  -1.24100 43.55100 22.22800
C  3.53600 44.01500 23.04400
N  0.26100 43.43000 27.19500
C  1.13400 43.50700 28.21600
C  0.45200 43.43100 29.63200
C  -1.02400 43.12300 29.12200
C  -1.04500 43.22700 27.64500
C  -1.62900 41.84600 29.73300
C  0.55500 44.73100 30.49800
C  1.09200 44.55600 31.96600
H  0.89900 43.19500 32.73000
N  -1.49100 43.84600 24.66000
C  -2.47400 43.53500 25.53800
C  -3.70000 43.55800 24.89100
C  -3.46800 43.72100 23.49900
C  -1.99600 43.64100 23.41400
C  -4.98800 43.44800 25.60300
C  -4.46200 43.77800 22.31800
O  -4.13500 43.92600 21.13100
C  -5.86300 44.02800 22.69500
N  1.09700 43.83500 22.91300
C  0.16300 43.70500 21.93400
C  0.75700 43.36800 20.58300
C  2.20800 43.99600 20.79600
C  2.31300 43.94700 22.38400
C  0.86900 41.87700 20.16500
C  2.51600 45.39200 20.22300
C  3.30000 45.41100 18.88000
N  2.64900 43.83800 25.32600
C  3.73200 43.95600 24.44300
C  4.94700 43.99900 25.25400
C  4.51100 43.91000 26.57600
C  3.11900 43.77100 26.63800
C  6.32000 44.15600 24.63100
C  5.03300 43.78300 27.95200
O  6.17900 43.78500 28.41400
C  3.71300 43.73200 28.90600
C  3.83700 42.48100 29.67400
O  3.62300 41.38200 29.26400
O  4.24700 42.80400 30.97200
C  4.80900 41.66700 31.79800
H  -3.14300 43.42700 27.60800
H  -1.76900 43.28100 21.31200
H  4.48400 44.16700 22.52400
H  0.81600 42.63300 30.27900
H  -1.72300 43.87600 29.48700
H  -1.86900 41.28200 28.83300
H  -2.52600 42.11000 30.29300
H  -0.92100 41.28500 30.34300
H  -0.40300 45.25100 30.48400
H  1.28500 45.35000 29.97600
H  0.81700 45.42000 32.57200
H  2.16000 44.63700 31.76300
H  -4.96200 43.05500 26.62000
H  -5.76700 42.86900 25.10700
H  -5.29000 44.49500 25.58500
H  -6.45300 44.54900 21.94100
H  -5.91900 44.57600 23.63600
H  -6.25200 43.01500 22.79700
H  0.14800 43.87200 19.83200
H  2.97600 43.32300 20.41300
H  1.87400 41.56500 19.88100
H  0.21200 41.83400 19.29600
H  0.58200 41.20000 20.97000
H  3.05400 46.04900 20.90600
H  1.52200 45.76400 19.97300
H  4.00700 44.58200 18.91800
H  3.88900 46.32400 18.79700
H  2.61100 45.40200 18.03500
H  6.63900 45.19300 24.73500
H  6.35000 43.75700 23.61700
H  7.10000 43.66700 25.21400
H  3.63500 44.59800 29.56300
H  4.37000 40.71700 31.49500
H  4.44300 41.88300 32.80200
H  5.89100 41.53000 31.80000

