158

Mg 34.32000 3.02400 29.67500
C  31.93900 4.09100 32.05500
C  36.68600 3.43700 32.09400
C  36.36600 1.92400 27.38900
C  31.72800 2.88600 27.24200
N  34.32800 3.70900 31.78300
C  33.27200 3.96600 32.53000
C  33.63000 4.15300 33.98700
C  35.23600 4.11000 34.00000
C  35.45200 3.65500 32.57100
C  36.02700 5.42100 34.32800
C  32.90300 3.16600 34.86700
C  32.35300 3.68900 36.21700
H  33.21600 4.71400 37.00000
N  36.33600 2.81600 29.66000
C  37.14300 2.95200 30.80100
C  38.48600 2.55500 30.32500
C  38.41300 2.13500 28.92600
C  37.04400 2.33700 28.59300
C  39.65100 2.85100 31.31600
C  39.55100 1.71600 27.95500
O  39.37300 1.23300 26.82500
C  40.93400 1.65800 28.55100
N  34.13200 2.49100 27.62500
C  35.17900 2.13600 26.82400
C  34.75300 1.87800 25.34000
C  33.22000 1.78400 25.49000
C  33.03100 2.44600 26.88500
C  35.30700 2.94600 24.36900
C  32.55800 0.37300 25.47200
C  31.98400 -0.07000 24.10600
N  32.29400 3.38500 29.59200
C  31.35700 3.29600 28.55300
C  30.09000 3.71500 29.01300
C  30.25700 4.05900 30.41100
C  31.58100 3.80200 30.72100
C  28.86700 3.77400 28.16500
C  29.58500 4.48600 31.59500
O  28.40100 4.72800 31.80800
C  30.62500 4.50700 32.78400
C  30.67100 5.90200 33.37500
O  31.27400 6.84700 32.85600
O  30.04100 5.91900 34.56700
C  30.02900 7.21700 35.21400
H  37.47000 3.63800 32.82700
H  37.09200 1.37200 26.78800
H  30.98500 3.00200 26.44900
H  33.36400 5.15400 34.32600
H  35.56600 3.22000 34.53600
H  35.38900 6.18300 34.77800
H  36.58200 5.71300 33.43600
H  36.71900 5.29500 35.16100
H  33.50900 2.27400 35.03000
H  32.08400 2.59800 34.42500
H  32.23000 2.86700 36.92200
H  31.36900 4.14900 36.12900
H  40.37800 2.04900 31.18300
H  39.29800 2.74500 32.34200
H  40.19800 3.77800 31.14600
H  41.69700 1.48400 27.79200
H  40.92800 0.85500 29.28800
H  41.22200 2.53100 29.13600
H  35.15700 0.91000 25.04400
H  32.73600 2.46700 24.79300
H  34.50400 3.56400 23.96600
H  35.84500 2.51800 23.52300
H  35.96200 3.53400 25.01100
H  31.80800 0.25200 26.25300
H  33.32800 -0.37600 25.65800
H  32.54500 -0.92900 23.73700
H  31.92600 0.69500 23.33200
H  30.97500 -0.46800 24.22100
H  28.00100 3.61500 28.80700
H  28.81300 3.04000 27.36100
H  28.80800 4.77200 27.73100
H  30.47300 3.88700 33.66800
H  29.01100 7.60600 35.19100
H  30.68400 7.98700 34.80600
H  30.18400 6.95300 36.26000
Mg 27.36100 52.03000 25.50700
C  25.50600 52.91400 28.37700
C  29.91700 51.15000 27.64300
C  29.30100 51.64400 22.79600
C  24.84700 53.42200 23.52100
N  27.64200 52.02900 27.83800
C  26.75700 52.31600 28.76200
C  27.25500 51.91600 30.15600
C  28.75500 51.49200 29.92400
C  28.83900 51.60500 28.34800
C  29.73100 52.41800 30.69400
C  26.30100 50.78500 30.70600
C  25.50900 51.03100 32.05800
H  25.75600 50.08300 33.28500
N  29.30200 51.21100 25.24700
C  30.19700 50.94100 26.23200
C  31.33800 50.25100 25.58600
C  31.18000 50.43300 24.18000
C  29.88900 51.13100 24.02000
C  32.43500 49.64200 26.35500
C  32.13400 49.98600 23.08600
O  31.84500 50.11900 21.90100
C  33.58700 49.58000 23.31600
N  27.10300 52.57100 23.49200
C  28.05600 52.29800 22.57100
C  27.46300 52.35300 21.19000
C  25.94800 52.69900 21.34800
C  25.93100 52.95500 22.88100
C  28.34400 53.31400 20.27600
C  24.95200 51.58700 20.97300
C  24.66600 51.60100 19.45400
N  25.57400 53.02300 25.78500
C  24.64700 53.45400 24.87500
C  23.49600 53.97900 25.55400
C  23.82700 53.81000 26.90100
C  25.01800 53.12800 26.97500
C  22.28800 54.65200 25.06500
C  23.29100 54.03000 28.19400
O  22.25700 54.64300 28.48400
C  24.23800 53.19800 29.15300
C  24.49400 54.12900 30.30000
O  25.20400 55.10200 30.34300
O  23.89200 53.52200 31.37100
C  23.80000 54.26100 32.60600
H  30.72700 50.70100 28.22200
H  29.83200 51.45500 21.86100
H  23.97000 53.58900 22.89200
H  27.21600 52.80800 30.78000
H  28.89500 50.42000 30.06200
H  29.34400 53.11100 31.44100
H  30.22400 53.03000 29.93900
H  30.44100 51.74500 31.17600
H  26.87600 49.86300 30.78300
H  25.67700 50.63500 29.82500
H  24.47600 51.03200 31.71200
H  25.75000 52.03100 32.42100
H  32.44400 50.05800 27.36300
H  33.40400 49.70200 25.86000
H  32.21300 48.58500 26.50400
H  33.47000 48.53800 23.61500
H  33.90100 50.31100 24.06000
H  34.28100 49.68100 22.48200
H  27.65900 51.36800 20.76500
H  25.62500 53.63600 20.89400
H  29.21400 53.68000 20.82000
H  27.86000 54.24300 19.97500
H  28.49200 52.84400 19.30400
H  23.99600 51.85400 21.42400
H  25.21400 50.59100 21.33100
H  25.06600 50.73700 18.92500
H  25.07200 52.52100 19.03400
H  23.58500 51.58800 19.31200
H  22.47000 55.72100 25.18000
H  21.40200 54.63000 25.69900
H  22.03000 54.45800 24.02400
H  23.68100 52.33900 29.52500
H  23.82100 55.34400 32.48700
H  24.57700 53.85000 33.25000
H  22.82400 54.03500 33.03400

