158

Mg 53.58400 24.61800 44.41700
C  50.75700 26.68500 43.95000
C  51.60400 21.85800 43.95700
C  56.39400 22.83400 44.27900
C  55.51100 27.57900 44.86500
N  51.51100 24.32600 43.77200
C  50.52800 25.27700 43.56900
C  49.15000 24.70800 43.27600
C  49.39300 23.27300 43.67900
C  50.93900 23.13900 43.82400
C  48.50300 22.70200 44.91700
C  48.58600 24.91600 41.80800
C  49.71900 25.37300 40.86000
H  49.18100 25.71500 39.49600
N  53.94300 22.60600 44.07700
C  53.03100 21.66100 43.98100
C  53.69200 20.34500 43.96700
C  55.07700 20.61900 43.89000
C  55.20100 22.04900 44.10600
C  52.95400 19.01400 44.03000
C  56.21700 19.65600 43.60400
O  55.88400 18.45500 43.44300
C  57.67700 19.97500 43.61500
N  55.73500 25.17300 44.54000
C  56.67100 24.22800 44.40800
C  58.06500 24.80500 44.68400
C  57.69800 26.35200 44.54700
C  56.19300 26.37800 44.72100
C  58.41600 24.31100 46.13700
C  58.25500 26.96100 43.22200
C  59.56900 27.69700 43.31600
N  53.26300 26.73300 44.38800
C  54.10900 27.78500 44.76500
C  53.28700 29.02300 44.93900
C  51.98400 28.58300 44.59000
C  52.01000 27.23800 44.33700
C  53.90300 30.35700 45.33800
C  50.63300 29.03100 44.37300
O  50.16900 30.17700 44.49400
C  49.73600 27.86200 44.00100
C  49.00100 28.13100 42.73500
O  49.58700 28.49700 41.70800
O  47.62600 28.10900 42.88000
C  46.84800 28.33700 41.53400
H  50.98300 20.96000 43.92300
H  57.32200 22.25900 44.32100
H  55.95000 28.57000 45.00000
H  48.42900 25.19400 43.93200
H  49.04600 22.58900 42.90500
H  49.05900 22.11500 45.64800
H  47.75000 22.04100 44.48700
H  47.99700 23.49100 45.47400
H  47.67500 25.50700 41.71200
H  48.24600 23.92700 41.50000
H  50.50000 24.61300 40.83700
H  50.22100 26.23700 41.29500
H  52.50500 18.71200 43.08400
H  52.27000 19.02100 44.87800
H  53.70400 18.23600 44.17700
H  58.19500 19.03800 43.41400
H  57.82400 20.32200 44.63800
H  57.89400 20.75200 42.88100
H  58.72300 24.46700 43.88400
H  58.12100 26.98000 45.33100
H  58.57000 25.21400 46.72800
H  59.30300 23.67800 46.16200
H  57.64700 23.82400 46.73600
H  57.49500 27.56500 42.72800
H  58.45400 26.21500 42.45200
H  59.48500 28.68600 42.86400
H  60.26600 27.08300 42.74400
H  59.86300 27.77400 44.36300
H  53.17600 31.16700 45.28900
H  54.73600 30.68600 44.71700
H  54.40900 30.26400 46.29900
H  49.00200 27.68100 44.78600
H  46.51800 27.32500 41.30000
H  47.35200 28.84600 40.71200
H  45.86100 28.74600 41.74800
Mg -1.38200 34.68100 26.40500
C  -2.69500 33.06100 29.22000
C  0.25400 36.84600 28.47900
C  -0.34500 36.17900 23.68800
C  -3.33000 32.38900 24.39300
N  -1.03000 34.77300 28.66700
C  -1.70700 34.01200 29.61800
C  -1.21300 34.36100 31.00600
C  -0.21900 35.61000 30.73500
C  -0.30000 35.75100 29.20400
C  -0.52000 36.89400 31.47400
C  -0.52900 33.23100 31.80300
C  -1.16300 32.87700 33.14900
H  -0.31100 32.27800 34.37400
N  -0.21800 36.37800 26.10000
C  0.38900 37.00300 27.04300
C  1.16200 38.10800 26.41100
C  1.05100 37.95800 25.01400
C  0.08300 36.83800 24.85000
C  2.10700 38.94700 27.20800
C  1.84100 38.75700 23.90600
O  1.80200 38.49600 22.73000
C  2.76500 39.72300 24.33200
N  -1.91000 34.42700 24.36900
C  -1.20000 35.13800 23.46500
C  -1.60500 34.80100 22.02900
C  -2.32000 33.41800 22.20300
C  -2.51400 33.34500 23.76600
C  -2.27500 35.85600 21.30000
C  -1.41900 32.26200 21.59300
C  0.03500 32.08200 22.17800
N  -2.77300 33.15600 26.70500
C  -3.40700 32.31100 25.83100
C  -4.14500 31.34700 26.51200
C  -3.95700 31.66600 27.90600
C  -3.10100 32.76000 27.96000
C  -4.94500 30.30700 25.93200
C  -4.38600 31.27900 29.26700
O  -5.22800 30.52800 29.70000
C  -3.48000 32.19600 30.20500
C  -4.47400 32.94700 31.00000
O  -5.35200 33.63500 30.56000
O  -4.38300 32.55500 32.34900
C  -5.43100 33.01200 33.20900
H  0.75400 37.51000 29.18800
H  0.15900 36.68100 22.86000
H  -3.77200 31.68000 23.69100
H  -2.07700 34.73600 31.55500
H  0.82500 35.42500 30.98700
H  0.36200 37.43000 31.82700
H  -1.10500 36.76400 32.38500
H  -1.21800 37.52200 30.92000
H  0.48900 33.48900 32.09300
H  -0.45000 32.31100 31.22300
H  -1.88900 32.11300 32.87000
H  -1.65000 33.80100 33.46200
H  3.11100 38.62200 26.93400
H  1.97500 38.82700 28.28300
H  1.95800 40.00000 26.97000
H  3.14700 40.15000 23.40500
H  3.57100 39.27800 24.91500
H  2.21100 40.52400 24.82100
H  -0.66400 34.63000 21.50700
H  -3.30700 33.41400 21.74000
H  -2.32400 36.76500 21.89900
H  -3.26800 35.52500 20.99500
H  -1.77000 36.06500 20.35600
H  -1.29600 32.48600 20.53400
H  -2.00000 31.36800 21.81800
H  0.16000 31.01300 22.35000
H  0.12700 32.57200 23.14700
H  0.76000 32.62300 21.56900
H  -5.85200 30.83200 25.63000
H  -5.20100 29.62600 26.74300
H  -4.50800 29.76300 25.09400
H  -2.78100 31.55100 30.73800
H  -5.06200 33.21100 34.21600
H  -6.31800 32.38000 33.24300
H  -5.88600 33.91600 32.80500

