158

Mg 0.42800 7.69700 26.58600
C  1.52300 9.85200 29.09300
C  0.69000 5.06600 28.77400
C  0.23100 5.48900 23.96700
C  0.79600 10.43800 24.26600
N  0.99700 7.57100 28.67400
C  1.14500 8.58100 29.57400
C  1.03500 8.10200 31.03300
C  1.22100 6.56700 30.80800
C  0.96300 6.31800 29.31300
C  2.62700 5.91900 31.25200
C  -0.30600 8.57500 31.72500
C  -0.38000 8.65600 33.21400
H  0.91600 8.47200 34.00400
N  0.22800 5.63300 26.43800
C  0.28800 4.69300 27.46300
C  -0.14900 3.44200 27.01400
C  -0.14400 3.51900 25.53600
C  0.13600 4.92900 25.25200
C  -0.43700 2.35900 28.00400
C  -0.23600 2.50200 24.50900
O  -0.24100 2.69000 23.32700
C  -0.28000 1.06100 24.98200
N  0.63900 7.93300 24.49000
C  0.51600 6.81300 23.57200
C  0.38700 7.22500 22.09200
C  0.21600 8.78600 22.26000
C  0.53500 9.15000 23.78000
C  1.60200 6.75100 21.27800
C  -1.22200 9.25600 21.93900
C  -1.53900 10.04500 20.65100
N  1.14400 9.69700 26.60200
C  1.06700 10.71300 25.64100
C  1.31200 11.98800 26.19900
C  1.59800 11.65300 27.55900
C  1.38400 10.32400 27.73500
C  1.26600 13.32600 25.55000
C  1.94700 12.26100 28.83600
O  2.25900 13.38400 29.13500
C  1.86600 11.10200 29.87100
C  3.15300 10.99700 30.62100
O  4.16300 10.33200 30.29600
O  3.15500 11.95200 31.59600
C  4.29700 11.70300 32.50300
H  0.82800 4.29700 29.53700
H  0.16300 4.83400 23.09500
H  0.59900 11.30900 23.63700
H  1.89900 8.58900 31.48700
H  0.53200 5.92400 31.35700
H  3.18700 5.54800 30.39300
H  2.54600 5.07900 31.94200
H  3.32700 6.70600 31.53500
H  -1.07200 7.85300 31.44100
H  -0.35200 9.61400 31.40100
H  -1.19700 7.97700 33.45700
H  -0.88600 9.60100 33.41800
H  -0.60900 2.68300 29.03000
H  0.24000 1.51000 27.91000
H  -1.35400 1.90500 27.62700
H  0.51000 0.83900 25.70000
H  -0.03900 0.42400 24.13100
H  -1.29900 0.98100 25.36100
H  -0.54500 6.75100 21.78600
H  0.95400 9.29400 21.63900
H  2.47900 6.67400 21.92000
H  1.83000 7.44200 20.46700
H  1.22900 5.82600 20.83700
H  -1.43800 10.05600 22.64700
H  -1.89100 8.39500 21.91600
H  -0.78400 9.72100 19.93400
H  -1.59500 11.12200 20.81200
H  -2.50600 9.75000 20.24500
H  0.49900 13.35500 24.77600
H  2.22000 13.40000 25.02900
H  1.09400 14.08100 26.31700
H  1.08600 11.34100 30.59300
H  4.25900 10.65600 32.80600
H  4.22400 12.37700 33.35600
H  5.25800 11.95200 32.05200
Mg 29.93500 58.91000 39.88200
C  27.53900 56.59700 38.95400
C  32.39400 56.82500 38.67900
C  32.16700 61.50000 40.08600
C  27.22900 61.18800 40.66500
N  29.96500 56.92000 38.98900
C  28.81900 56.17800 38.69200
C  29.28400 54.77600 38.02300
C  30.81300 54.77200 38.23500
C  31.07500 56.27500 38.68100
C  31.36200 53.60300 39.03700
C  28.74000 54.75600 36.57500
C  27.93300 53.50200 36.12400
H  27.10400 53.85900 34.86900
N  32.05000 59.16600 39.44400
C  32.86000 58.13600 38.98700
C  34.21000 58.71600 38.81900
C  34.18500 60.08800 39.26700
C  32.73400 60.26000 39.63000
C  35.34500 57.92200 38.32100
C  35.33500 61.02300 39.29700
O  36.43300 60.59000 38.92600
C  35.36900 62.36000 40.07300
N  29.71100 61.04100 40.28200
C  30.85100 61.82200 40.41800
C  30.42000 63.24100 40.86800
C  28.89000 63.16000 41.11800
C  28.55000 61.74900 40.65100
C  31.28500 63.84100 41.97800
C  28.08900 64.23400 40.38100
C  27.09600 65.02500 41.30200
N  27.83100 58.92600 39.93600
C  26.92400 59.90800 40.15800
C  25.58200 59.37500 39.97500
C  25.77700 58.12400 39.45700
C  27.13200 57.90200 39.43800
C  24.29900 60.13600 40.19100
C  25.08400 57.01700 38.88100
O  23.87200 56.81900 38.63500
C  26.21700 55.93000 38.61100
C  25.99100 54.76000 39.45600
O  26.44700 54.63900 40.56500
O  25.15300 53.84800 38.87600
C  24.69800 52.58700 39.60300
H  33.17700 56.09000 38.48300
H  32.85200 62.33200 40.26000
H  26.46300 61.92700 40.91200
H  28.80200 53.92800 38.50900
H  31.29500 54.67600 37.26200
H  31.48700 53.92400 40.07100
H  32.26000 53.18300 38.58200
H  30.74400 52.70900 39.11600
H  29.49800 54.82500 35.79400
H  28.21800 55.70200 36.42900
H  27.22600 53.31700 36.93200
H  28.55000 52.64200 35.86700
H  35.02900 56.88000 38.28800
H  36.16200 57.96300 39.04000
H  35.67500 58.21400 37.32400
H  34.74900 62.25000 40.96400
H  34.83500 63.09800 39.47500
H  36.38100 62.66800 40.33500
H  30.55500 63.97300 40.07200
H  28.72800 63.27900 42.18900
H  32.23500 63.30800 42.01200
H  30.74900 63.69200 42.91500
H  31.37700 64.91300 41.80700
H  27.55700 63.78500 39.54200
H  28.77500 64.99800 40.01700
H  26.40000 65.51000 40.61800
H  27.55400 65.77300 41.95000
H  26.60000 64.27700 41.92000
H  24.18300 60.43700 41.23200
H  23.41000 59.61100 39.84200
H  24.50600 61.05900 39.64900
H  26.11000 55.60000 37.57800
H  25.05600 52.65500 40.63000
H  25.24800 51.72900 39.21600
H  23.62500 52.45500 39.46300

