158

Mg 49.07600 35.39300 27.52000
C  47.00700 33.67000 29.65700
C  49.33300 37.99500 29.83800
C  50.52100 37.36500 25.07800
C  48.36900 32.97300 25.13700
N  48.12900 35.81200 29.40300
C  47.47300 34.90700 30.17100
C  47.51000 35.25300 31.70800
C  47.82700 36.81500 31.60200
C  48.47800 36.92200 30.14500
C  46.60300 37.78900 31.84800
C  48.69000 34.40000 32.34800
C  48.55000 34.00700 33.85100
H  47.63500 34.80700 34.69600
N  49.88700 37.34700 27.46500
C  49.87200 38.18900 28.56500
C  50.62600 39.37200 28.22000
C  50.96900 39.31600 26.86300
C  50.46300 37.96800 26.37000
C  50.94100 40.42100 29.26800
C  51.77000 40.28200 25.95600
O  52.07000 40.04000 24.76700
C  52.36000 41.53200 26.57800
N  49.41600 35.13500 25.46300
C  50.08800 36.09700 24.64500
C  50.40100 35.55300 23.33400
C  49.95400 34.00300 23.37100
C  49.16700 34.00000 24.73500
C  49.78300 36.40700 22.17800
C  51.09100 32.92500 23.46100
C  50.95100 31.78200 22.39700
N  48.01100 33.60400 27.40600
C  47.78700 32.73200 26.36600
C  47.07900 31.49400 26.79600
C  46.64400 31.91800 28.04500
C  47.27100 33.12500 28.38300
C  46.62500 30.28100 26.15300
C  45.83800 31.50400 29.21800
O  45.21500 30.45300 29.50400
C  46.05200 32.59300 30.35500
C  46.51500 31.90100 31.55900
O  47.57000 31.27500 31.56700
O  45.69300 32.09200 32.60200
C  46.02200 31.21600 33.72900
H  49.42000 38.63900 30.71500
H  50.94500 37.99400 24.29300
H  48.31000 32.15800 24.41200
H  46.51300 35.06800 32.10900
H  48.55300 37.01100 32.39100
H  46.27000 38.19000 30.89100
H  46.85800 38.68300 32.41700
H  45.70200 37.34000 32.26800
H  49.54900 35.04500 32.16200
H  48.92500 33.53100 31.73400
H  49.56500 34.06900 34.24400
H  48.22500 32.96600 33.84400
H  50.16000 40.45800 30.02800
H  51.08400 41.43800 28.90300
H  51.85900 40.09500 29.75700
H  52.92500 41.37800 27.49700
H  51.57500 42.27100 26.73600
H  52.96900 42.00200 25.80600
H  51.48800 35.58500 23.40000
H  49.23600 33.71500 22.60300
H  49.10500 35.80100 21.57800
H  50.63900 36.64100 21.54400
H  49.36200 37.33100 22.57400
H  51.14900 32.41800 24.42400
H  52.06600 33.39700 23.33800
H  50.33300 32.22200 21.61500
H  50.59700 30.84200 22.82200
H  51.95700 31.54800 22.04900
H  45.66500 30.37100 25.64600
H  46.59300 29.43800 26.84300
H  47.40600 30.05300 25.42700
H  45.15100 33.12900 30.65400
H  45.66200 31.66600 34.65400
H  47.08100 30.98200 33.83800
H  45.53800 30.24500 33.62300
Mg 1.47100 42.91900 26.04900
C  2.94800 43.13600 29.17400
C  -1.30300 41.79300 27.55500
C  0.28300 42.41900 22.96400
C  4.62900 43.54100 24.53900
N  0.88300 42.57500 28.25100
C  1.59000 42.83700 29.32600
C  0.78000 42.77400 30.63700
C  -0.53800 42.16800 30.07800
C  -0.35600 42.17100 28.57900
C  -0.89600 40.80200 30.70600
C  0.58800 44.17700 31.33800
C  1.02100 44.29200 32.78700
H  0.76200 43.12200 33.71600
N  -0.31900 42.21000 25.37000
C  -1.33500 41.76200 26.17600
C  -2.34400 41.24000 25.30000
C  -2.01800 41.58400 23.99200
C  -0.65000 42.08600 24.05400
C  -3.53200 40.47500 25.82800
C  -2.70500 41.40200 22.72600
O  -2.27900 41.80200 21.64900
C  -4.09200 40.74100 22.80800
N  2.34500 42.99200 24.04000
C  1.60700 42.77200 22.95900
C  2.50900 42.86700 21.67300
C  3.86400 43.23500 22.24400
C  3.63000 43.20200 23.71800
C  2.47900 41.58600 20.79700
C  4.36500 44.62200 21.78800
C  3.78200 45.84700 22.52500
N  3.41300 43.23200 26.62900
C  4.63100 43.46400 25.93300
C  5.66000 43.77700 26.96200
C  4.98200 43.54500 28.12800
C  3.66700 43.27100 27.94200
C  7.08700 44.22500 26.70900
C  5.22800 43.55400 29.57400
O  6.29400 43.87400 30.18800
C  3.90500 43.37700 30.31700
C  3.98500 42.36600 31.35000
O  3.67100 41.20900 31.20700
O  4.51300 42.94700 32.51600
C  4.82200 42.05200 33.64900
H  -2.25400 41.50300 28.00600
H  -0.04500 42.21500 21.94300
H  5.61600 43.81600 24.16400
H  1.25200 42.08900 31.34100
H  -1.36300 42.81200 30.38300
H  -0.02100 40.47500 31.26800
H  -1.21300 40.10400 29.93100
H  -1.78800 40.93900 31.31800
H  -0.41100 44.60900 31.27200
H  1.23500 44.87100 30.80200
H  0.38600 45.04100 33.26200
H  2.00000 44.76400 32.86800
H  -3.60200 39.48900 25.36900
H  -4.47700 40.92000 25.51800
H  -3.67300 40.21500 26.87700
H  -3.87100 39.70100 23.04800
H  -4.56200 40.86500 21.83300
H  -4.75200 41.30100 23.47100
H  2.07300 43.67000 21.07900
H  4.67000 42.59400 21.88800
H  2.96400 40.78600 21.35700
H  2.95200 41.77600 19.83300
H  1.46100 41.29000 20.54300
H  4.07500 44.76900 20.74700
H  5.45200 44.62000 21.70000
H  3.39100 45.75200 23.53800
H  2.97900 46.23200 21.89600
H  4.51200 46.64700 22.64200
H  7.01100 44.88100 25.84200
H  7.80600 43.44800 26.44500
H  7.46600 44.79300 27.55800
H  3.69900 44.28200 30.88900
H  4.70700 42.84800 34.38500
H  5.81200 41.60500 33.56200
H  3.99100 41.34800 33.66800

