158

Mg 5.58900 55.32300 40.50000
C  5.04100 51.79400 40.47100
C  8.92100 54.62000 39.52100
C  6.03900 58.57600 39.93300
C  2.20800 55.80100 41.15900
N  6.72700 53.38500 39.96700
C  6.33300 52.11500 39.90700
C  7.36200 51.20200 39.42500
C  8.66900 52.05200 39.52000
C  8.09800 53.49800 39.64900
C  9.63400 51.69800 40.70000
C  7.09500 50.61300 37.96300
C  5.98000 51.15500 37.05400
H  6.39700 52.04400 35.84700
N  7.33000 56.48800 39.89000
C  8.55900 56.02000 39.65100
C  9.45400 57.19900 39.36500
C  8.68300 58.36500 39.54800
C  7.27700 57.86800 39.79100
C  10.90200 56.97400 38.96300
C  9.14500 59.81700 39.48000
O  10.35100 60.06300 39.41400
C  8.18400 61.01200 39.54800
N  4.23200 56.85200 40.31100
C  4.75100 58.14800 40.24500
C  3.62700 59.22300 40.41800
C  2.36000 58.30200 40.70800
C  2.94200 56.89300 40.77900
C  3.87100 60.21900 41.51600
C  1.22200 58.30200 39.55200
C  -0.25800 58.44200 39.99600
N  3.93400 54.06000 40.83100
C  2.64300 54.38000 41.19900
C  1.92300 53.23100 41.67600
C  2.84900 52.18500 41.33900
C  4.01600 52.67900 40.75700
C  0.52500 53.14600 42.11000
C  2.95700 50.81100 41.38200
O  2.13300 49.98000 41.68100
C  4.41500 50.45800 40.75600
C  4.28000 49.52900 39.65600
O  3.91500 49.86100 38.56500
O  4.67100 48.26000 39.98200
C  4.65400 47.31900 38.86000
H  9.97300 54.40000 39.32600
H  5.97800 59.66400 39.85700
H  1.26400 56.21100 41.52300
H  7.35000 50.32800 40.07700
H  9.28200 52.11900 38.62100
H  9.74000 50.61300 40.67600
H  9.27300 52.19600 41.59900
H  10.61500 52.15800 40.58100
H  6.90000 49.54900 38.10200
H  8.08800 50.45800 37.54100
H  5.23900 51.63300 37.69500
H  5.39900 50.31900 36.66500
H  11.52300 57.86900 38.91800
H  10.87400 56.46500 38.00000
H  11.43500 56.22600 39.55000
H  8.70900 61.96500 39.60600
H  7.62300 61.03500 40.48300
H  7.44900 60.94200 38.74600
H  3.61100 59.72500 39.45100
H  1.92300 58.61800 41.65600
H  2.90000 60.52200 41.90800
H  4.41900 61.04500 41.06500
H  4.43200 59.64000 42.25000
H  1.21000 57.44000 38.88500
H  1.53000 59.11200 38.89100
H  -0.36000 59.03800 40.90300
H  -0.69200 57.45400 40.15100
H  -0.83600 58.86400 39.17400
H  0.52900 52.94700 43.18100
H  0.06400 52.34100 41.53800
H  0.06500 54.12800 41.99500
H  5.01700 49.94300 41.50400
H  4.06600 46.46100 39.18500
H  5.60300 46.79500 38.74500
H  4.15900 47.55300 37.91700
Mg 16.53500 51.52300 25.36500
C  18.20400 50.38900 28.20700
C  13.81500 52.47600 27.33000
C  15.06100 52.70100 22.66500
C  19.18500 50.26100 23.50000
N  16.08900 51.37100 27.50500
C  16.92600 50.92500 28.51500
C  16.33700 51.24600 29.92300
C  14.87400 51.70000 29.60700
C  14.93100 51.86900 28.02400
C  13.89700 50.65500 30.10300
C  17.22300 52.25300 30.69900
C  17.61300 51.87600 32.13200
H  17.17300 52.98400 33.16600
N  14.64100 52.42500 25.02000
C  13.70000 52.77300 25.94400
C  12.59100 53.43600 25.26400
C  12.90700 53.50600 23.94800
C  14.28300 52.89000 23.81600
C  11.33600 54.04200 25.98000
C  12.02800 54.01400 22.75200
O  12.31700 53.84200 21.62900
C  10.86200 54.85100 23.08000
N  16.99400 51.36200 23.30900
C  16.26200 52.04900 22.39700
C  17.06300 52.25400 21.09100
C  18.41800 51.48500 21.41000
C  18.18600 50.98100 22.85300
C  16.29600 51.80200 19.85500
C  19.67900 52.35300 21.36400
C  20.93200 51.54800 21.08100
N  18.21600 50.49900 25.76000
C  19.25200 50.03700 24.92700
C  20.26700 49.39600 25.64900
C  19.91500 49.54900 26.94100
C  18.67400 50.18800 26.96000
C  21.54200 48.75800 25.17500
C  20.35000 49.30100 28.24900
O  21.33600 48.71600 28.71300
C  19.21100 49.92000 29.23900
C  18.69300 48.87200 30.21500
O  17.85500 48.02000 29.96200
O  19.44700 48.98000 31.40400
C  19.25800 48.06200 32.48000
H  12.96800 52.83700 27.91800
H  14.59500 53.16700 21.79500
H  19.99700 49.90400 22.86300
H  16.37400 50.27200 30.41100
H  14.78200 52.64600 30.14100
H  12.98900 51.12900 30.47500
H  14.29000 50.04600 30.91700
H  13.66800 50.08700 29.20100
H  16.75300 53.23000 30.80600
H  18.19000 52.40800 30.22000
H  18.70000 51.81100 32.10100
H  17.18600 50.92700 32.45900
H  11.31000 55.11300 25.78100
H  11.42200 53.76800 27.03100
H  10.41700 53.52500 25.70400
H  11.03100 55.82900 23.53000
H  10.07200 54.24600 23.52400
H  10.32000 55.08200 22.16300
H  17.30900 53.31300 21.02300
H  18.53800 50.60600 20.77800
H  16.78700 51.14900 19.13400
H  15.89400 52.68700 19.36000
H  15.36800 51.28100 20.09000
H  19.68500 52.83000 22.34400
H  19.54500 53.16400 20.64900
H  20.65300 50.55800 20.72200
H  21.64600 51.48000 21.90200
H  21.47400 52.02500 20.26400
H  21.29000 47.82800 24.66500
H  22.13100 48.46200 26.04300
H  22.18900 49.33700 24.51700
H  19.72100 50.74800 29.73200
H  18.40400 48.25100 33.13200
H  20.14500 47.84000 33.07300
H  19.04000 47.08600 32.04700

