158

Mg 6.32300 57.03800 41.26000
C  5.17400 53.84600 41.35700
C  9.50500 55.81000 40.35400
C  7.49400 60.25100 40.72700
C  3.12300 58.18800 42.10700
N  7.14700 55.11700 40.59300
C  6.40000 53.92200 40.74100
C  7.29900 52.72500 40.35500
C  8.72900 53.42200 40.33600
C  8.51000 54.87500 40.54700
C  9.80400 52.58500 41.18000
C  7.03600 52.23900 38.85600
C  7.55400 50.90400 38.39400
H  7.00200 50.34500 37.09200
N  8.25900 57.89200 40.51300
C  9.41100 57.22900 40.20600
C  10.42800 58.17600 39.81000
C  9.87300 59.47700 40.11800
C  8.46300 59.30900 40.41800
C  11.86600 57.77500 39.45100
C  10.68200 60.69500 40.08000
O  11.87300 60.59300 39.76700
C  10.18800 62.02600 40.33600
N  5.47400 58.85000 41.32400
C  6.19000 60.12100 41.19500
C  5.27400 61.34500 41.55500
C  3.91400 60.62800 41.86800
C  4.19500 59.08900 41.79700
C  5.85300 62.24700 42.59700
C  2.67000 61.07500 40.93100
C  1.37800 61.43700 41.66900
N  4.46600 56.22100 41.83200
C  3.23600 56.81600 42.03300
C  2.27900 55.74300 42.27100
C  2.97700 54.55200 42.13000
C  4.28100 54.90800 41.73000
C  0.77300 55.91600 42.57100
C  2.89200 53.13800 42.07400
O  1.86900 52.44300 42.19500
C  4.37600 52.63900 41.66700
C  4.09900 51.65900 40.55500
O  3.21300 51.64300 39.75900
O  5.03000 50.62100 40.69200
C  4.81900 49.39100 39.86700
H  10.53200 55.44200 40.41600
H  7.75100 61.31200 40.70700
H  2.22000 58.77400 42.29200
H  7.22300 51.80600 40.93800
H  9.12300 53.49500 39.32200
H  10.59700 52.24900 40.51200
H  9.32200 51.68500 41.56400
H  10.28000 53.09600 42.01700
H  7.35000 53.04300 38.19000
H  5.95000 52.25100 38.76500
H  7.51100 50.19700 39.22300
H  8.58900 50.97600 38.05900
H  11.88100 56.70300 39.25100
H  12.47900 57.99300 40.32600
H  12.15300 58.37000 38.58400
H  9.74200 62.12500 41.32600
H  9.46900 62.32800 39.57500
H  11.07600 62.65500 40.39900
H  5.26400 61.76600 40.55000
H  3.64600 60.90500 42.88800
H  6.84900 61.85300 42.79800
H  5.27900 62.27000 43.52300
H  5.99900 63.23900 42.17000
H  2.39100 60.49000 40.05500
H  2.95400 62.00500 40.43800
H  0.50500 61.07000 41.12900
H  1.40600 62.49100 41.94300
H  1.35800 60.87700 42.60400
H  0.83500 56.24400 43.60900
H  0.33200 54.91900 42.56800
H  0.19400 56.61200 41.96400
H  4.83100 52.07000 42.47800
H  4.02500 48.86900 40.40100
H  5.72100 48.78300 39.79800
H  4.60000 49.57400 38.81500
Mg -9.31600 18.65600 42.93700
C  -5.90200 17.79800 43.08300
C  -8.48200 21.97800 42.60200
C  -12.54500 19.32700 42.38600
C  -10.04700 15.14500 42.76600
N  -7.36100 19.70000 42.63600
C  -6.03800 19.20600 42.82500
C  -5.01800 20.38600 42.81300
C  -5.96300 21.67500 42.97800
C  -7.37800 21.07900 42.61900
C  -5.88500 22.55200 44.31900
C  -4.14300 20.19700 41.55200
C  -4.71000 19.52700 40.27800
H  -4.35400 20.08500 38.91500
N  -10.40400 20.41500 42.68700
C  -9.82900 21.63500 42.57800
C  -10.90600 22.57700 42.26100
C  -12.15700 21.88600 42.18200
C  -11.68300 20.47600 42.42200
C  -10.80200 24.07200 42.04900
C  -13.56900 22.49900 42.08700
O  -13.79400 23.73200 41.94700
C  -14.92600 21.66200 42.16600
N  -10.96600 17.39900 42.46500
C  -12.21900 17.95800 42.46500
C  -13.31500 16.90100 42.34200
C  -12.50000 15.62100 42.57100
C  -11.09900 16.07200 42.56100
C  -14.48100 17.00500 43.34600
C  -12.76300 14.43800 41.55700
C  -13.48100 13.15500 42.16400
N  -8.28400 16.79800 43.03200
C  -8.71300 15.48300 43.01800
C  -7.58200 14.58300 43.32000
C  -6.52800 15.53900 43.39600
C  -6.90800 16.79600 43.13900
C  -7.63900 13.13000 43.58700
C  -5.07600 15.61800 43.61900
O  -4.25800 14.69300 43.93000
C  -4.65800 17.07900 43.42500
C  -3.79800 17.42200 44.65100
O  -2.57700 17.43200 44.70500
O  -4.66100 17.63100 45.69800
C  -3.98800 18.01200 46.98300
H  -8.22700 23.04000 42.58700
H  -13.62200 19.44600 42.24800
H  -10.18200 14.06100 42.77300
H  -4.34100 20.32700 43.66500
H  -5.62800 22.39100 42.22700
H  -5.01600 22.43400 44.96700
H  -6.84600 22.47900 44.82900
H  -5.91500 23.58900 43.98600
H  -3.18900 19.79000 41.88700
H  -3.82200 21.16500 41.16600
H  -5.78800 19.69200 40.28700
H  -4.44100 18.47300 40.21400
H  -10.96600 24.40600 41.02400
H  -9.79000 24.31000 42.37700
H  -11.63800 24.52600 42.58100
H  -14.93800 20.99500 43.02800
H  -15.22900 21.19000 41.23100
H  -15.73600 22.37500 42.31900
H  -13.78900 16.84700 41.36200
H  -12.69000 15.25500 43.58000
H  -14.09300 17.75100 44.04000
H  -14.55200 16.05400 43.87300
H  -15.35100 17.36300 42.79700
H  -11.81400 14.12600 41.12000
H  -13.35100 14.72400 40.68500
H  -13.87700 13.25100 43.17500
H  -12.68200 12.41900 42.25100
H  -14.27500 12.76600 41.52500
H  -6.61400 12.81300 43.77900
H  -7.92600 12.57400 42.69500
H  -8.17200 12.86100 44.49900
H  -4.10200 17.12100 42.48800
H  -4.65600 18.70800 47.49000
H  -2.99300 18.44400 46.87200
H  -3.91400 17.17500 47.67700

