158

Mg 24.28400 -6.43300 47.47100
C  26.96700 -4.37900 46.55400
C  22.26200 -4.90700 45.14100
C  22.03200 -8.73900 48.06700
C  26.67500 -8.34100 49.38100
N  24.66600 -4.89100 46.02500
C  25.80600 -4.12500 45.83300
C  25.54500 -3.15900 44.59700
C  23.97400 -3.13400 44.51200
C  23.53100 -4.42000 45.29000
C  23.37500 -1.90800 45.15000
C  26.33300 -3.73100 43.34800
C  26.76500 -2.60100 42.47700
H  25.99600 -2.36100 41.20300
N  22.33000 -6.71300 46.76300
C  21.65300 -5.98300 45.85200
C  20.27800 -6.38100 45.80100
C  20.12800 -7.59400 46.70800
C  21.50900 -7.77400 47.18500
C  19.14900 -5.63300 45.06500
C  18.92200 -8.44700 46.86600
O  17.94200 -8.18600 46.21900
C  18.88500 -9.53200 47.79700
N  24.34400 -8.32000 48.43500
C  23.25800 -8.96700 48.67800
C  23.47000 -10.26100 49.61700
C  24.96400 -10.02600 50.18400
C  25.37300 -8.84900 49.24400
C  22.34500 -10.54500 50.65400
C  25.79700 -11.28700 50.36100
C  26.60500 -11.73500 49.14600
N  26.33500 -6.36700 48.04000
C  27.15400 -7.19900 48.77900
C  28.53500 -6.69900 48.72900
C  28.45200 -5.52300 47.97600
C  27.13900 -5.45500 47.47700
C  29.65900 -7.29800 49.49100
C  29.23300 -4.44100 47.50900
O  30.42800 -4.17900 47.71300
C  28.28300 -3.59200 46.50700
C  28.08800 -2.22000 46.93600
O  27.37400 -1.81100 47.86100
O  28.68300 -1.42500 45.98100
C  28.03100 -0.14300 45.91000
H  21.74200 -4.20400 44.48800
H  21.36900 -9.54400 48.39000
H  27.36200 -8.87400 50.04100
H  25.99800 -2.20400 44.86300
H  23.65400 -3.27400 43.48000
H  24.00700 -1.51700 45.94800
H  22.36300 -1.93700 45.55300
H  23.32000 -1.20500 44.31800
H  25.67600 -4.40800 42.80200
H  27.24000 -4.25800 43.64300
H  27.74900 -2.92900 42.14300
H  26.99000 -1.68900 43.02900
H  18.60500 -6.25700 44.35600
H  19.45900 -4.72200 44.55400
H  18.36300 -5.28300 45.73500
H  19.22700 -9.24900 48.79300
H  19.48200 -10.40800 47.54700
H  17.83800 -9.82400 47.87800
H  23.35900 -11.10100 48.93100
H  24.81800 -9.69800 51.21300
H  22.70900 -10.71300 51.66700
H  21.85000 -11.50900 50.53900
H  21.59800 -9.75100 50.68600
H  25.14600 -12.12500 50.60900
H  26.34600 -11.08600 51.28100
H  26.25200 -11.19600 48.26700
H  26.36600 -12.76100 48.86600
H  27.66600 -11.49800 49.22400
H  30.62200 -6.85400 49.23900
H  29.70500 -8.38200 49.39100
H  29.34600 -7.10900 50.51800
H  28.67200 -3.59300 45.48900
H  28.39800 0.42500 46.76400
H  26.95000 -0.21100 45.78800
H  28.32600 0.30900 44.96300
Mg 44.06200 3.00600 47.46400
C  42.15900 5.79600 46.70500
C  41.29700 1.02800 47.36500
C  46.04800 0.31600 47.57200
C  46.95200 5.03900 47.17700
N  41.92300 3.39500 47.04300
C  41.40800 4.61600 46.72300
C  39.88700 4.42500 46.51200
C  39.61300 2.94400 46.91200
C  41.03600 2.40200 47.13300
C  38.68400 2.66100 48.11200
C  39.38700 4.63300 45.02200
C  37.98500 5.10700 44.63500
H  38.01400 5.99900 43.45500
N  43.73000 0.93600 47.39900
C  42.52200 0.31000 47.41700
C  42.72100 -1.03600 47.52900
C  44.11300 -1.34000 47.52400
C  44.73300 0.00100 47.52000
C  41.56400 -2.00000 47.72900
C  44.74100 -2.75700 47.61600
O  44.03700 -3.80300 47.65900
C  46.24100 -2.90200 47.73700
N  46.18800 2.71200 47.41300
C  46.74700 1.47400 47.54100
C  48.27500 1.56900 47.64100
C  48.57700 3.15500 47.74500
C  47.20100 3.64700 47.41300
C  48.97700 0.65100 48.69500
C  49.67100 3.55500 46.73000
C  49.09600 3.62600 45.25800
N  44.49800 5.00400 47.02300
C  45.71200 5.71200 47.04800
C  45.52600 7.11000 46.86500
C  44.14700 7.18400 46.74500
C  43.59300 5.89200 46.83000
C  46.62800 8.13300 46.76400
C  43.00500 8.03500 46.50900
O  42.93900 9.23900 46.25400
C  41.68600 7.23900 46.48700
C  40.78000 7.82000 47.62000
O  40.91000 7.39200 48.77700
O  39.87300 8.74400 47.21000
C  38.77500 8.97800 48.14600
H  40.40600 0.40200 47.45300
H  46.69800 -0.56200 47.56500
H  47.84000 5.67400 47.14700
H  39.35200 5.10000 47.18000
H  39.14900 2.41400 46.08100
H  38.09500 3.53000 48.40500
H  39.23800 2.17400 48.91500
H  38.01900 1.83700 47.85700
H  39.47400 3.67300 44.51300
H  40.13400 5.32000 44.62600
H  37.46100 5.49900 45.50600
H  37.55300 4.16000 44.31300
H  41.77700 -3.03700 47.47100
H  40.66800 -1.69300 47.19000
H  41.35200 -1.99100 48.79900
H  46.77600 -2.59300 46.83900
H  46.56400 -3.90900 48.00200
H  46.63000 -2.26800 48.53400
H  48.62800 1.20700 46.67500
H  48.70500 3.51400 48.76600
H  48.14200 0.12100 49.15400
H  49.40100 1.24800 49.50200
H  49.73400 0.02500 48.22300
H  50.54500 2.90400 46.72800
H  49.90100 4.57000 47.05500
H  48.67000 4.61000 45.06200
H  48.24300 2.95600 45.16100
H  49.87400 3.30300 44.56600
H  46.29400 9.08600 46.35400
H  47.44300 7.95200 46.06300
H  47.03700 8.38800 47.74100
H  41.31700 7.35300 45.46700
H  38.79700 9.93300 48.67100
H  38.67400 8.17200 48.87300
H  37.80500 8.86100 47.66400

