158

Mg 36.44300 50.16600 24.66700
C  36.71500 48.00500 27.37700
C  34.96200 52.44900 26.51200
C  35.51500 51.80800 21.84200
C  37.42300 47.44900 22.53800
N  35.94600 50.21900 26.76400
C  36.18700 49.29100 27.74600
C  35.74900 49.87100 29.10700
C  34.95500 51.19100 28.70800
C  35.27400 51.34200 27.20800
C  33.42500 51.25800 29.19300
C  37.05300 50.15100 29.90000
C  37.07300 49.83900 31.45900
H  35.66900 49.86000 32.13800
N  35.66300 51.99100 24.24500
C  35.12400 52.81800 25.13500
C  34.77200 54.09000 24.58000
C  34.99500 53.95400 23.15600
C  35.42300 52.51700 23.04100
C  34.31600 55.37300 25.38700
C  34.96300 54.99300 22.09400
O  35.21900 54.74500 20.87200
C  34.63100 56.44900 22.49600
N  36.25300 49.58800 22.48400
C  36.03000 50.58700 21.57500
C  36.32800 50.04700 20.18100
C  36.94600 48.59300 20.39100
C  36.91600 48.51800 21.90400
C  35.15100 50.05000 19.20500
C  38.36200 48.39500 19.76600
C  38.64000 47.03100 19.17000
N  37.03000 48.21700 24.90300
C  37.36400 47.19300 23.94600
C  37.79100 46.03800 24.65800
C  37.53200 46.32500 25.94100
C  37.07600 47.63100 26.08700
C  38.37500 44.83600 24.10800
C  37.59200 45.72400 27.30400
O  37.97400 44.64800 27.60400
C  37.15600 46.82900 28.24000
C  36.18000 46.24800 29.15500
O  35.04200 45.95700 28.85200
O  36.68200 46.07200 30.40300
C  35.75600 45.53800 31.40400
H  34.34500 53.17100 27.05100
H  35.43700 52.38300 20.91700
H  37.94000 46.65400 21.99600
H  35.07700 49.19700 29.63900
H  35.37100 51.99300 29.31800
H  32.80500 51.53300 28.34000
H  33.39300 52.10900 29.87400
H  33.12300 50.32600 29.67100
H  37.32500 51.20100 29.79600
H  37.90400 49.61600 29.47800
H  37.73800 50.61400 31.84000
H  37.63300 48.92100 31.63700
H  35.02400 56.16300 25.63700
H  33.93800 55.24500 26.40100
H  33.45900 55.85700 24.91800
H  33.62100 56.54300 22.89500
H  34.76800 57.00000 21.56600
H  35.33900 56.88500 23.20200
H  37.04200 50.73700 19.73300
H  36.29200 47.80500 20.01800
H  34.26500 50.37700 19.74900
H  34.87400 49.03800 18.91100
H  35.24000 50.72300 18.35300
H  39.04100 48.65600 20.57700
H  38.43200 49.18900 19.02200
H  37.84600 46.29200 19.27400
H  39.57200 46.70500 19.63200
H  38.64400 47.30300 18.11500
H  39.07100 44.95500 23.27700
H  37.61800 44.14000 23.74700
H  38.96300 44.28200 24.83900
H  38.06300 46.99700 28.82100
H  34.91600 46.17400 31.68300
H  36.39500 45.45700 32.28400
H  35.30800 44.60200 31.07200
Mg -11.88500 16.30900 40.76500
C  -8.72000 14.83400 40.34700
C  -10.52900 19.22100 39.31900
C  -15.04300 17.64600 40.45900
C  -13.25300 13.02400 40.89100
N  -9.78200 16.92000 39.93200
C  -8.66300 16.21000 40.05100
C  -7.55600 17.04900 39.44000
C  -8.11900 18.46600 39.29500
C  -9.55500 18.20800 39.54200
C  -7.44400 19.55200 40.14300
C  -7.06500 16.45800 38.11500
C  -5.48500 16.49500 37.86800
H  -5.01700 17.07600 36.56500
N  -12.65500 18.19500 40.10400
C  -11.90100 19.20500 39.60100
C  -12.76400 20.37000 39.27700
C  -14.10500 19.96500 39.67900
C  -13.99600 18.60300 40.20600
C  -12.21100 21.69100 38.83500
C  -15.34100 20.88000 39.56700
O  -15.23600 22.04300 39.21200
C  -16.70500 20.36800 39.93400
N  -13.84200 15.41700 40.53200
C  -14.96400 16.15200 40.55600
C  -16.21700 15.26100 40.50800
C  -15.65700 13.84300 40.82800
C  -14.14200 14.12500 40.80700
C  -17.37200 15.73800 41.39600
C  -16.17900 12.73700 39.81100
C  -17.01000 11.64900 40.45900
N  -11.20500 14.31500 40.76900
C  -11.87600 13.15100 40.86200
C  -10.89000 12.04000 40.87000
C  -9.67100 12.69200 40.72200
C  -9.90000 14.05000 40.62200
C  -11.13900 10.55600 41.04900
C  -8.22400 12.40600 40.58800
O  -7.62000 11.30800 40.62000
C  -7.58500 13.77300 40.26900
C  -6.60100 13.92900 41.36900
O  -6.78900 14.10600 42.57500
O  -5.39500 14.10200 40.79400
C  -4.26600 14.44100 41.63000
H  -10.05700 20.12800 38.93500
H  -16.05100 18.06600 40.48300
H  -13.72600 12.04200 40.95800
H  -6.69400 17.17600 40.09600
H  -8.01000 18.86700 38.28700
H  -6.39200 19.30200 40.27700
H  -8.00900 19.72700 41.05900
H  -7.48900 20.49000 39.58900
H  -7.47400 17.12200 37.35300
H  -7.41700 15.44800 37.90000
H  -5.15700 15.46500 38.01000
H  -5.00400 17.10000 38.63700
H  -11.45000 21.54400 38.06800
H  -11.66100 22.21800 39.61500
H  -12.86900 22.48900 38.49300
H  -17.37600 21.22300 39.85500
H  -16.69000 20.02300 40.96800
H  -17.04600 19.66100 39.17900
H  -16.54300 15.36200 39.47300
H  -15.87100 13.61400 41.87200
H  -17.06200 16.15000 42.35600
H  -17.91000 14.83200 41.67600
H  -18.09800 16.34600 40.85600
H  -15.37700 12.24000 39.26500
H  -16.84400 13.18300 39.07200
H  -16.64300 10.68900 40.09500
H  -18.06100 11.75700 40.19000
H  -16.86400 11.58600 41.53700
H  -11.35600 10.36400 42.09900
H  -10.29700 9.92900 40.75300
H  -12.08800 10.38400 40.54200
H  -7.12200 13.83800 39.28400
H  -4.59300 14.65400 42.64800
H  -3.93100 15.41900 41.28700
H  -3.51700 13.64800 41.63500

