158

Mg 49.28700 47.09700 42.41700
C  46.09400 47.87900 41.65500
C  48.93100 43.99000 41.21400
C  52.81000 46.51000 42.65800
C  50.01500 50.45600 43.15100
N  47.66100 46.15400 41.34800
C  46.43000 46.55600 41.27000
C  45.56000 45.45100 40.61000
C  46.52500 44.18600 40.62500
C  47.75300 44.76700 41.19200
C  46.05300 42.90800 41.26900
C  45.11900 45.95200 39.10800
C  43.59500 45.82100 38.79800
H  43.13500 45.51900 37.36200
N  50.61600 45.41200 42.05100
C  50.19700 44.23400 41.69900
C  51.35100 43.31400 41.69000
C  52.45300 44.00700 42.22000
C  52.00100 45.35200 42.24400
C  51.28700 41.90100 41.16400
C  53.75500 43.39400 42.43400
O  53.90500 42.15500 42.39400
C  55.00100 44.16200 42.76200
N  51.14500 48.29700 42.46700
C  52.39300 47.79300 42.69900
C  53.39100 48.93300 42.95000
C  52.47300 50.21600 43.13000
C  51.12900 49.60800 42.95000
C  54.36900 48.81100 44.13400
C  52.69900 51.41100 42.11200
C  53.66800 52.60800 42.52700
N  48.22800 48.85600 42.61400
C  48.61700 50.12000 43.03100
C  47.38800 50.93500 43.06600
C  46.39900 50.08300 42.51400
C  46.95800 48.88700 42.22900
C  47.21500 52.37400 43.39400
C  45.06000 50.02300 42.11600
O  44.24600 50.92400 42.25200
C  44.80200 48.60600 41.41900
C  43.70000 47.90800 42.10100
O  43.59600 47.81100 43.33400
O  42.79900 47.48400 41.16200
C  41.61600 46.84900 41.70900
H  48.83400 43.02900 40.70500
H  53.86500 46.36700 42.90200
H  50.20600 51.49700 43.41800
H  44.70600 45.23000 41.25000
H  46.77400 43.94800 39.59100
H  46.57000 42.74300 42.21400
H  46.34400 42.07600 40.62700
H  44.97900 42.88300 41.45100
H  45.63600 45.41300 38.31400
H  45.31000 47.01800 38.98400
H  43.10000 46.77400 38.98200
H  43.22700 45.07100 39.49800
H  51.39600 41.21800 42.00700
H  51.97500 41.82100 40.32200
H  50.28800 41.67800 40.79000
H  55.17700 44.86300 41.94600
H  55.88600 43.52600 42.73300
H  54.98000 44.72100 43.69700
H  54.00900 49.18100 42.08800
H  52.51100 50.64200 44.13300
H  54.29300 47.79700 44.52800
H  54.09900 49.54500 44.89300
H  55.43000 49.01600 43.99300
H  51.74400 51.83000 41.79500
H  53.19500 51.07400 41.20200
H  54.00200 52.44600 43.55100
H  53.10200 53.53600 42.60400
H  54.56400 52.71300 41.91600
H  47.97700 52.72500 44.09000
H  46.23100 52.38900 43.86200
H  47.13700 53.07100 42.55900
H  44.72400 48.57700 40.33200
H  41.20900 47.40400 42.55400
H  41.84300 45.80900 41.94200
H  40.92200 46.90700 40.87000
Mg -4.24400 25.45300 26.31800
C  -3.01900 26.29600 29.35800
C  -6.46400 23.14200 27.93800
C  -5.03500 23.92400 23.34400
C  -1.90900 27.46000 24.82400
N  -4.58800 24.77700 28.45300
C  -3.98100 25.32500 29.48800
C  -4.51900 24.68900 30.83400
C  -5.44300 23.53800 30.25900
C  -5.52400 23.81200 28.76900
C  -4.87800 22.14900 30.68100
C  -5.34700 25.82900 31.57200
C  -5.37200 25.90700 33.10800
H  -4.64600 24.76300 33.83300
N  -5.67700 23.87300 25.75100
C  -6.55400 23.16100 26.52400
C  -7.39300 22.30800 25.67700
C  -6.94800 22.42300 24.34400
C  -5.82500 23.38500 24.44400
C  -8.37700 21.39900 26.34900
C  -7.33600 21.69100 23.10600
O  -6.75400 21.90100 21.99500
C  -8.38000 20.60300 23.18800
N  -3.70000 25.71300 24.40100
C  -4.10600 24.96600 23.31000
C  -3.37500 25.33700 22.05500
C  -2.61100 26.71700 22.54100
C  -2.68900 26.59400 24.02400
C  -2.52800 24.19400 21.43200
C  -3.10700 28.12000 21.97800
C  -1.98400 29.28300 21.69000
N  -2.72200 26.66500 26.85600
C  -1.90800 27.44200 26.20100
C  -1.07600 28.23000 27.11000
C  -1.48300 27.82300 28.33900
C  -2.49500 26.92500 28.18500
C  0.02200 29.19900 26.85600
C  -1.21900 27.98300 29.73000
O  -0.39300 28.64000 30.38700
C  -2.21600 26.99200 30.46300
C  -1.35100 26.19600 31.35900
O  -0.87300 25.13500 30.99500
O  -1.12700 26.77800 32.55900
C  -0.33300 25.83600 33.43100
H  -7.05200 22.37800 28.45100
H  -5.15000 23.69700 22.28200
H  -1.21000 28.20300 24.43400
H  -3.69200 24.28600 31.42000
H  -6.42700 23.73800 30.68400
H  -3.96600 22.13300 31.27800
H  -4.83500 21.58900 29.74700
H  -5.65500 21.72300 31.31500
H  -6.37600 25.76200 31.21900
H  -5.11800 26.83300 31.21700
H  -6.44400 25.95200 33.29700
H  -4.90200 26.86800 33.31800
H  -9.21100 21.38600 25.64800
H  -8.73300 21.66600 27.34400
H  -7.78300 20.49800 26.50200
H  -9.31600 20.92100 23.64800
H  -8.01700 19.74300 23.75100
H  -8.52100 20.18100 22.19300
H  -4.16800 25.37400 21.30800
H  -1.55400 26.55500 22.33200
H  -1.56400 24.68800 21.31900
H  -3.00300 24.00500 20.46900
H  -2.47500 23.23400 21.94600
H  -3.78500 28.54600 22.71800
H  -3.58300 27.85400 21.03300
H  -0.99300 28.84200 21.79800
H  -2.24700 30.07800 22.38800
H  -2.06500 29.77000 20.71800
H  -0.18400 29.68200 25.90000
H  0.96100 28.64600 26.84900
H  0.01100 29.86700 27.71700
H  -2.85300 27.58600 31.11900
H  0.63700 25.64000 32.97300
H  -0.96600 24.95500 33.53900
H  -0.09200 26.26800 34.40200

