158

Mg 44.31400 4.52000 47.07600
C  42.25100 7.26600 46.41400
C  41.60500 2.45500 46.48800
C  46.37700 1.88800 46.81200
C  46.96100 6.74600 47.23600
N  42.26200 4.87100 46.41800
C  41.60800 6.06100 46.25500
C  40.13500 5.88700 45.87300
C  39.90600 4.42300 46.37900
C  41.39700 3.86000 46.51400
C  39.26500 4.39300 47.77800
C  40.06300 5.93000 44.31100
C  39.23600 7.02900 43.66800
H  39.48100 7.28100 42.20600
N  44.00900 2.40700 46.83200
C  42.83500 1.78600 46.62000
C  43.10800 0.31500 46.59900
C  44.48900 0.13600 46.38700
C  45.06300 1.50800 46.63800
C  42.06600 -0.75300 46.44900
C  45.22500 -1.09000 46.14000
O  44.54100 -2.08000 45.91100
C  46.76000 -1.24100 46.10200
N  46.37300 4.34300 46.93200
C  46.94800 3.13100 47.06600
C  48.49100 3.23200 47.19300
C  48.73500 4.81800 47.25700
C  47.26900 5.36300 47.13600
C  49.02200 2.37600 48.35800
C  49.74000 5.43900 46.28100
C  51.10700 5.97300 46.82500
N  44.59900 6.58500 47.02400
C  45.70800 7.33200 47.11000
C  45.42200 8.72800 47.10100
C  44.01500 8.79900 46.82200
C  43.61200 7.41300 46.72700
C  46.36300 9.82000 47.36000
C  42.87200 9.71400 46.56500
O  42.69700 10.92200 46.42300
C  41.68500 8.70900 46.25400
C  40.71900 9.05300 47.31500
O  40.95700 9.00100 48.49000
O  39.46800 9.42600 46.81300
C  38.43300 9.66800 47.75800
H  40.72300 1.81300 46.54500
H  47.17000 1.15100 46.66900
H  47.76100 7.47500 47.38200
H  39.48800 6.69000 46.22500
H  39.39700 3.83000 45.61900
H  39.20400 5.41900 48.14000
H  39.80400 3.84900 48.55500
H  38.24600 4.01400 47.70000
H  39.59400 5.07000 43.83200
H  41.08800 5.91900 43.94000
H  39.30000 7.98000 44.19600
H  38.20200 6.68800 43.61400
H  42.19900 -1.31900 45.52800
H  41.03500 -0.44200 46.27800
H  42.21000 -1.46300 47.26300
H  47.32400 -0.94700 46.98700
H  47.20400 -0.88100 45.17400
H  46.93600 -2.31400 46.02600
H  49.07400 2.95000 46.31700
H  49.04600 5.07400 48.27000
H  48.28100 2.21500 49.14100
H  49.91300 2.82500 48.79700
H  49.34700 1.36300 48.12300
H  49.22300 6.36400 46.02300
H  49.89700 4.82700 45.39300
H  51.87800 5.39800 46.31200
H  51.17100 5.80500 47.90000
H  51.13400 7.05600 46.70900
H  46.23200 10.06700 48.41400
H  46.07000 10.66100 46.73300
H  47.38000 9.49100 47.14100
H  41.18800 8.91700 45.30600
H  38.59900 10.64300 48.21700
H  38.45300 8.89700 48.52800
H  37.47700 9.77400 47.24500
Mg 47.24500 33.64300 26.58300
C  45.63900 32.76100 29.45500
C  47.64200 37.01200 27.99000
C  48.50900 34.86100 23.61300
C  46.54900 30.71900 25.10000
N  46.87800 34.76900 28.55300
C  46.17100 34.11500 29.53800
C  46.14700 34.98600 30.74600
C  46.60000 36.34700 30.20800
C  47.10400 36.07800 28.82500
C  45.46000 37.38400 30.41600
C  47.01300 34.33700 31.96200
C  46.32300 34.57900 33.36000
H  45.10600 35.56800 33.45000
N  47.95900 35.63000 25.90300
C  48.07900 36.82900 26.60400
C  48.74200 37.81600 25.79500
C  49.15700 37.22400 24.57900
C  48.54200 35.87500 24.68100
C  49.03800 39.26300 26.31900
C  49.90400 37.73900 23.34200
O  50.32300 37.00200 22.41200
C  50.22100 39.14400 23.19200
N  47.54200 32.92800 24.58500
C  48.08600 33.57400 23.57900
C  48.20700 32.68800 22.32900
C  47.51900 31.40400 22.77600
C  47.19200 31.65100 24.29000
C  47.66400 33.30200 21.04700
C  48.32100 30.08300 22.62000
C  49.69300 29.96300 23.37000
N  46.42600 31.90600 27.19700
C  46.07900 30.83500 26.43200
C  45.19400 30.00300 27.22900
C  44.93700 30.69000 28.40600
C  45.74600 31.81100 28.38000
C  44.53800 28.81200 26.72300
C  44.17700 30.71900 29.63100
O  43.38500 29.94800 30.07000
C  44.67500 32.02200 30.38000
C  45.01800 31.49800 31.80300
O  46.15200 31.11200 32.18000
O  43.97100 31.68100 32.68700
C  44.19600 31.04800 33.99600
H  47.68900 38.01700 28.41400
H  49.04200 35.08600 22.68700
H  46.33200 29.70600 24.75400
H  45.10700 34.95400 31.07100
H  47.48700 36.72600 30.71600
H  45.66700 38.15400 31.15900
H  44.49900 36.97900 30.73400
H  45.22100 37.96800 29.52800
H  47.91900 34.93200 32.08100
H  47.39300 33.32500 31.81800
H  47.11900 35.02300 33.95600
H  46.11500 33.56100 33.69000
H  48.71400 40.08300 25.67800
H  50.12200 39.36400 26.37700
H  48.59500 39.50600 27.28500
H  49.26700 39.66600 23.11200
H  50.89800 39.28300 22.35000
H  50.83000 39.46300 24.03700
H  49.24400 32.39200 22.17300
H  46.58000 31.20600 22.26000
H  46.85600 32.69200 20.64400
H  48.50300 33.42600 20.36200
H  47.25900 34.30600 21.17100
H  48.58500 30.10900 21.56300
H  47.64500 29.24500 22.78900
H  50.01500 28.94100 23.57300
H  49.60700 30.38300 24.37100
H  50.59200 30.38100 22.91600
H  44.13900 29.02900 25.73300
H  43.84000 28.44500 27.47600
H  45.26400 28.01700 26.54900
H  43.84600 32.70800 30.55600
H  44.96400 31.61000 34.52800
H  44.53800 30.01300 33.98900
H  43.32900 31.01500 34.65600

