158

Mg 47.09300 16.20200 28.62200
C  44.87200 15.55000 31.29500
C  48.66900 18.48900 30.59200
C  48.75600 17.19900 25.84000
C  44.79100 14.47000 26.41800
N  46.71300 16.99800 30.79300
C  45.83600 16.45800 31.69000
C  46.16700 17.09800 33.07900
C  47.34900 18.04100 32.77500
C  47.57900 17.87100 31.29800
C  47.20700 19.60300 33.11200
C  46.43100 16.09500 34.20300
C  46.44000 16.56500 35.59600
H  47.66900 16.35000 36.56100
N  48.63600 17.49900 28.28200
C  49.14100 18.33400 29.24500
C  50.19000 19.13100 28.65300
C  50.23900 18.89100 27.23900
C  49.13300 17.82900 27.00000
C  51.11300 20.03300 29.44200
C  51.05000 19.53200 26.12200
O  50.88300 19.23900 24.91200
C  52.08300 20.56900 26.29200
N  46.86900 15.77300 26.52500
C  47.71400 16.31300 25.61000
C  47.24600 15.90600 24.18100
C  46.07900 14.94700 24.39900
C  45.85100 15.12700 25.85900
C  47.01400 17.08800 23.24000
C  46.26200 13.49200 23.93000
C  47.16800 12.46900 24.78600
N  45.21000 15.17700 28.77900
C  44.42600 14.52100 27.80700
C  43.26300 13.87800 28.47000
C  43.39300 14.19700 29.84600
C  44.57200 15.02100 29.95700
C  42.22400 13.11800 27.74500
C  42.86700 13.92800 31.16000
O  41.88700 13.25900 31.56300
C  43.84400 14.77000 32.12800
C  42.96000 15.68000 32.94500
O  42.23100 16.56700 32.51500
O  43.11200 15.32600 34.25700
C  42.23000 15.92600 35.29800
H  49.24900 19.18300 31.20400
H  49.36000 17.49100 24.97900
H  44.18400 13.90600 25.70700
H  45.40700 17.77700 33.46800
H  48.24600 17.81200 33.34900
H  48.15200 19.96200 33.52100
H  46.42600 19.73000 33.86200
H  46.94800 20.20100 32.23800
H  47.44800 15.75500 34.00600
H  45.83300 15.18500 34.14800
H  45.59400 16.19600 36.17600
H  46.38100 17.65100 35.67800
H  51.15100 19.79800 30.50600
H  50.86000 21.09100 29.37600
H  52.11000 19.72800 29.12600
H  51.54700 21.51100 26.40800
H  52.77400 20.61200 25.45000
H  52.66500 20.40700 27.19900
H  48.08900 15.33700 23.78900
H  45.17500 15.18100 23.83500
H  47.64300 17.94000 23.50000
H  46.02200 17.53800 23.20000
H  47.25500 16.85700 22.20300
H  46.77000 13.47100 22.96600
H  45.30200 13.02800 23.70600
H  47.52500 12.83900 25.74700
H  47.99400 12.12600 24.16300
H  46.59900 11.54900 24.92000
H  42.44600 12.05100 27.76500
H  42.19200 13.47600 26.71600
H  41.35100 13.51700 28.26000
H  44.41300 14.03000 32.69100
H  41.69000 15.15200 35.84200
H  41.50100 16.66100 34.95900
H  42.91400 16.34400 36.03700
Mg 47.23500 25.27000 28.52400
C  47.43800 27.62100 31.19200
C  46.00000 23.01700 30.73600
C  47.50600 22.87500 26.13500
C  48.88400 27.49200 26.45000
N  46.89800 25.39300 30.74400
C  46.92500 26.42000 31.65000
C  46.41300 25.99300 33.02300
C  46.28500 24.38600 32.86400
C  46.41800 24.27500 31.32600
C  47.36100 23.51700 33.57800
C  45.05500 26.74400 33.34200
C  45.00600 27.37000 34.76300
H  43.96300 26.86100 35.78000
N  46.63300 23.28200 28.38200
C  46.07500 22.51600 29.42400
C  45.68700 21.22700 28.89800
C  46.11400 21.23500 27.50000
C  46.80200 22.50300 27.29300
C  44.97100 20.12500 29.73400
C  45.93200 20.16700 26.38500
O  46.38900 20.21500 25.26300
C  44.99800 19.04900 26.60900
N  48.25500 25.08900 26.66500
C  48.13500 24.10500 25.80000
C  48.69400 24.40700 24.38500
C  49.01000 25.87300 24.50600
C  48.69500 26.22100 25.99900
C  49.87000 23.46100 23.96900
C  48.18700 26.76300 23.54000
C  46.66900 26.87800 23.79200
N  48.02900 27.16600 28.68200
C  48.57200 27.98600 27.75300
C  48.59300 29.36300 28.31100
C  48.23200 29.26000 29.66100
C  47.88900 27.86700 29.83100
C  49.16700 30.56800 27.62200
C  48.03700 29.97800 30.91100
O  48.24700 31.16600 31.15900
C  47.54100 28.89600 31.92400
C  48.58400 28.79300 32.94700
O  49.65000 28.21500 32.82100
O  48.24400 29.32700 34.21900
C  49.09800 29.00500 35.35000
H  45.63000 22.25100 31.42100
H  47.74600 22.04800 25.46500
H  49.18100 28.30600 25.78600
H  47.17200 26.31200 33.73700
H  45.27700 24.12000 33.18200
H  47.94700 23.05400 32.78300
H  46.80100 22.79000 34.16500
H  48.03200 24.03800 34.26100
H  44.20100 26.06700 33.32300
H  44.83200 27.50300 32.59200
H  44.66300 28.40000 34.66200
H  46.00600 27.43900 35.19300
H  45.71700 19.35400 29.92600
H  44.03800 19.83500 29.25100
H  44.66000 20.44400 30.72900
H  45.12800 18.45200 27.51200
H  45.08700 18.52700 25.65700
H  43.94600 19.31700 26.71000
H  47.93100 24.19200 23.63600
H  50.08200 26.01900 24.37600
H  49.91100 22.62800 24.67100
H  50.88900 23.84300 24.00900
H  49.69100 23.07600 22.96500
H  48.35400 26.24200 22.59700
H  48.56200 27.78500 23.59400
H  46.09400 26.69800 22.88300
H  46.35100 27.90700 23.96200
H  46.39900 26.17100 24.57600
H  50.02600 30.15800 27.09100
H  49.55000 31.25300 28.37900
H  48.42500 30.99500 26.94800
H  46.56800 29.20500 32.30600
H  50.11200 28.76000 35.03400
H  48.67200 28.13900 35.85600
H  49.09700 29.86700 36.01700

