158

Mg 1.66400 -1.22200 44.30500
C  5.12600 -0.61500 44.22200
C  1.23700 1.75300 42.58800
C  -1.51700 -2.10800 43.87900
C  2.37000 -4.51700 45.55400
N  3.05700 0.34300 43.53600
C  4.42100 0.39600 43.53800
C  5.04500 1.51400 42.64900
C  3.76200 2.44600 42.49300
C  2.62600 1.45700 42.81000
C  3.67500 3.76800 43.24500
C  5.56700 1.04500 41.28500
C  7.05700 1.37900 41.01400
H  7.39000 1.92400 39.65400
N  0.08100 -0.23700 43.48500
C  0.11700 0.96300 42.83800
C  -1.23400 1.32000 42.40300
C  -2.11100 0.27200 42.78400
C  -1.20900 -0.78300 43.47400
C  -1.56000 2.64700 41.72400
C  -3.59300 0.25800 42.56400
O  -4.10600 1.22100 41.95300
C  -4.41400 -0.81200 43.17300
N  0.61300 -3.02600 44.70800
C  -0.73500 -3.14200 44.45500
C  -1.29300 -4.53800 44.90600
C  0.00500 -5.32800 45.31500
C  1.06200 -4.26500 45.16800
C  -2.42000 -4.60200 46.01600
C  0.27900 -6.55900 44.45700
C  0.86400 -7.74700 45.23800
N  3.38500 -2.31200 44.86000
C  3.51100 -3.60800 45.33600
C  4.87100 -3.85600 45.67500
C  5.56500 -2.67300 45.35800
C  4.60400 -1.75500 44.83800
C  5.36100 -5.17000 46.26400
C  6.85500 -2.04300 45.31300
O  7.92400 -2.48900 45.68500
C  6.61900 -0.70100 44.56300
C  6.88900 0.39500 45.55000
O  6.34300 0.52200 46.68800
O  7.72800 1.41600 44.94400
C  7.78100 2.73100 45.56600
H  1.09100 2.67200 42.01600
H  -2.52800 -2.47800 43.69400
H  2.64800 -5.44300 46.06200
H  5.73400 2.06700 43.28800
H  3.60400 2.67700 41.44000
H  3.53000 4.53300 42.48200
H  4.63100 3.98300 43.72100
H  2.88500 3.86600 43.99000
H  5.05000 1.41500 40.39900
H  5.43200 -0.03400 41.35500
H  7.60900 0.45000 41.15800
H  7.52200 2.11900 41.66500
H  -2.24400 2.46500 40.89500
H  -0.76200 3.24900 41.29100
H  -2.18300 3.25600 42.37900
H  -4.26000 -1.71900 42.58900
H  -5.44000 -0.45200 43.24400
H  -3.98900 -0.92700 44.17000
H  -1.73700 -4.99600 44.02200
H  -0.02700 -5.60600 46.36900
H  -3.37200 -4.81600 45.53000
H  -2.56800 -3.71700 46.63400
H  -2.15700 -5.36700 46.74700
H  0.84600 -6.36500 43.54600
H  -0.64000 -7.00200 44.07400
H  1.42000 -8.34900 44.51900
H  -0.03100 -8.21000 45.65300
H  1.42800 -7.57100 46.15400
H  6.44300 -5.28400 46.20600
H  4.81100 -5.99700 45.81400
H  5.17600 -5.10300 47.33600
H  7.12500 -0.55200 43.60900
H  8.64800 3.34100 45.31100
H  7.64000 2.71800 46.64700
H  6.88800 3.25900 45.23300
Mg -11.06600 39.09400 41.23300
C  -9.45100 35.94300 40.86600
C  -8.32900 40.55000 39.67500
C  -12.95200 41.87100 40.75200
C  -13.95700 37.34700 42.05800
N  -9.07300 38.35400 40.39100
C  -8.67500 37.04200 40.40400
C  -7.36500 36.85100 39.60500
C  -6.96900 38.37000 39.43200
C  -8.19100 39.20800 39.86800
C  -5.55500 38.81700 40.02900
C  -7.64700 36.02800 38.23200
C  -6.96600 34.71200 37.95400
H  -5.87800 34.85100 36.84700
N  -10.61100 41.00900 40.52500
C  -9.45100 41.38000 39.96400
C  -9.53100 42.81000 39.73000
C  -10.88300 43.24300 39.85700
C  -11.55100 42.05200 40.38700
C  -8.35000 43.59400 39.20400
C  -11.38600 44.59900 39.62300
O  -10.66200 45.55000 39.16300
C  -12.80900 44.86500 39.69300
N  -13.10800 39.53800 41.54200
C  -13.66700 40.78600 41.34100
C  -15.20200 40.86100 41.61900
C  -15.50000 39.39200 42.05600
C  -14.09300 38.72700 41.89000
C  -15.56400 41.96500 42.66900
C  -16.78200 38.78600 41.27000
C  -18.09700 38.94000 41.99800
N  -11.54800 37.13900 41.55000
C  -12.78000 36.61400 41.91500
C  -12.67800 35.15500 42.13900
C  -11.36800 34.81800 41.80700
C  -10.78200 36.10200 41.34700
C  -13.71200 34.25800 42.84600
C  -10.28100 33.81900 41.70500
O  -10.34700 32.64100 42.10900
C  -9.08800 34.52300 40.98800
C  -7.95700 34.28000 41.94600
O  -7.25600 33.34300 41.82300
O  -7.84700 35.31800 42.80900
C  -6.56600 35.35600 43.50000
H  -7.44100 41.05200 39.28600
H  -13.67100 42.64100 40.46200
H  -14.75900 36.70200 42.42300
H  -6.65000 36.29300 40.21000
H  -6.84400 38.47000 38.35400
H  -4.94200 38.02300 40.45500
H  -5.72300 39.25400 41.01300
H  -5.06300 39.52600 39.36400
H  -7.36600 36.70100 37.42300
H  -8.72000 35.86800 38.12300
H  -7.63200 33.95000 37.55000
H  -6.46800 34.33100 38.84600
H  -8.37100 44.64600 39.48900
H  -8.22400 43.56500 38.12100
H  -7.49300 43.16100 39.72000
H  -13.15000 44.17000 38.92600
H  -13.16100 45.86100 39.42200
H  -13.23700 44.68800 40.68000
H  -15.74200 41.07900 40.69800
H  -15.75100 39.32900 43.11500
H  -16.03700 41.56000 43.56400
H  -16.27700 42.68100 42.25900
H  -14.68200 42.56900 42.88000
H  -16.63600 37.71400 41.13700
H  -16.64200 39.15000 40.25300
H  -18.74400 39.41700 41.26200
H  -18.09600 39.53400 42.91200
H  -18.48900 37.96800 42.29800
H  -13.50300 34.20100 43.91500
H  -13.52600 33.27600 42.41100
H  -14.76200 34.45900 42.63200
H  -8.90900 34.04400 40.02500
H  -6.27800 36.39300 43.32700
H  -5.71800 34.90300 42.98600
H  -6.62200 35.16400 44.57100

