158

Mg 42.56800 41.55600 25.94600
C  41.70400 43.94800 28.34100
C  43.43400 39.39400 28.41400
C  43.76000 39.39500 23.54700
C  41.96400 43.91700 23.48400
N  42.78000 41.76200 28.09600
C  42.22600 42.77600 28.88800
C  42.26000 42.38600 30.36100
C  42.77900 40.91500 30.37900
C  43.07000 40.63000 28.85000
C  43.92700 40.70700 31.33100
C  40.93600 42.61500 31.09400
C  40.73800 42.02400 32.51400
H  40.27700 42.84700 33.68400
N  43.54600 39.62400 26.00100
C  43.62500 38.88200 27.11600
C  44.09600 37.52900 26.73900
C  44.20500 37.51700 25.29500
C  43.81000 38.89600 24.90300
C  44.26500 36.32300 27.70300
C  44.55500 36.37000 24.32200
O  44.65700 36.45500 23.13900
C  44.88600 35.04200 24.93200
N  42.91600 41.64000 23.84700
C  43.33600 40.64500 23.08300
C  43.29400 40.94000 21.59300
C  42.71600 42.38600 21.60400
C  42.51600 42.74700 23.10700
C  44.70700 40.79400 20.85300
C  41.36500 42.51400 20.82900
C  40.13800 41.87600 21.37000
N  41.99600 43.59000 25.82200
C  41.69200 44.37400 24.75600
C  41.36500 45.68800 25.25700
C  41.26700 45.59700 26.61600
C  41.63300 44.24000 26.93500
C  40.99400 46.87300 24.36000
C  40.84100 46.20600 27.87400
O  40.41500 47.30400 28.17700
C  41.14900 45.19600 29.00900
C  42.11400 45.76000 29.95400
O  43.27500 45.96500 29.77600
O  41.47100 46.08400 31.08100
C  42.27100 46.80800 32.14400
H  43.56200 38.73000 29.27100
H  44.05100 38.77200 22.69900
H  41.86200 44.60700 22.64400
H  42.83900 43.14200 30.89200
H  41.98600 40.23300 30.68700
H  44.81700 40.82800 30.71300
H  43.91600 39.68000 31.69600
H  43.86900 41.39500 32.17300
H  40.06500 42.38800 30.47800
H  40.84500 43.65300 31.41300
H  41.67600 41.55200 32.80600
H  39.92400 41.30300 32.43700
H  44.15200 36.71100 28.71500
H  45.26100 35.93400 27.49200
H  43.54300 35.50700 27.65800
H  44.07100 34.62300 25.52300
H  45.70000 35.28900 25.61300
H  45.33100 34.28900 24.28100
H  42.64200 40.25300 21.05300
H  43.39100 43.16300 21.24400
H  44.90700 41.70200 20.28300
H  44.49000 39.98000 20.16200
H  45.47500 40.41400 21.52700
H  41.52500 42.17500 19.80500
H  41.20700 43.59100 20.76100
H  39.26300 42.50800 21.21900
H  40.25100 41.59100 22.41600
H  40.14700 40.96400 20.77300
H  40.01400 47.32000 24.52600
H  41.11600 46.54800 23.32600
H  41.78600 47.60300 24.52800
H  40.26000 44.85600 29.54000
H  42.97000 47.49700 31.67200
H  42.70600 46.18300 32.92500
H  41.72600 47.60400 32.65100
Mg 9.61400 47.65400 26.20800
C  7.58200 47.66800 29.12700
C  12.18800 48.44200 28.18600
C  11.24300 48.27100 23.47100
C  6.53600 47.51700 24.32500
N  9.80300 47.83800 28.42800
C  8.89900 47.81300 29.44700
C  9.52300 48.20200 30.85300
C  10.93000 48.71700 30.40300
C  10.99200 48.31900 28.93100
C  11.24900 50.22300 30.66200
C  9.70100 47.00600 31.85300
C  9.52600 47.29100 33.37400
H  9.71500 46.15700 34.33800
N  11.48700 47.88700 25.86800
C  12.40800 48.28200 26.82500
C  13.68800 48.39700 26.22500
C  13.49000 48.18300 24.83000
C  12.03600 48.16700 24.63200
C  14.99000 48.60500 26.93500
C  14.46200 48.07300 23.71200
O  14.22300 47.90800 22.56200
C  15.93900 48.10800 24.13000
N  8.97400 47.91100 24.18000
C  9.85800 48.11200 23.19000
C  9.22800 48.09400 21.75100
C  7.73700 47.72800 22.02800
C  7.71600 47.69700 23.59500
C  9.47600 49.41900 21.04200
C  7.42800 46.32700 21.34300
C  6.04600 46.24000 20.65700
N  7.44900 47.63300 26.59200
C  6.39100 47.53300 25.75100
C  5.14700 47.36100 26.49000
C  5.59900 47.37000 27.79100
C  6.98800 47.60300 27.82300
C  3.76600 47.46900 25.97300
C  5.05100 47.34000 29.11300
O  3.93000 47.15400 29.52800
C  6.36000 47.66800 30.04600
C  6.42300 46.81900 31.25800
O  6.67600 45.62800 31.30400
O  6.06600 47.59000 32.33300
C  5.89500 46.79500 33.59700
H  12.99600 48.91900 28.74500
H  11.75700 48.29400 22.50700
H  5.64800 47.31200 23.72300
H  8.89500 49.01600 31.21400
H  11.76200 48.19000 30.86900
H  10.44500 50.75900 31.16700
H  11.36500 50.75200 29.71600
H  12.15900 50.25400 31.26100
H  10.75200 46.71800 31.87900
H  9.20100 46.08900 31.54200
H  8.55600 47.78700 33.42000
H  10.27200 48.03200 33.66000
H  15.54900 47.67000 26.88900
H  14.93200 48.78900 28.00700
H  15.54700 49.38100 26.41000
H  16.19500 47.41700 24.93300
H  16.09000 49.11800 24.51300
H  16.52200 48.04300 23.21100
H  9.71500 47.28600 21.20500
H  6.98600 48.45200 21.71300
H  10.12400 49.35700 20.16800
H  9.89400 50.19600 21.68200
H  8.48700 49.73900 20.71200
H  7.44700 45.55200 22.10900
H  8.18800 45.96300 20.65200
H  5.35700 45.88000 21.42100
H  6.12600 45.60100 19.77700
H  5.79000 47.28100 20.46300
H  3.78600 47.67100 24.90200
H  3.28700 48.32900 26.44100
H  3.25000 46.60000 26.38000
H  6.33100 48.70700 30.37600
H  6.84500 46.27800 33.73300
H  5.24600 45.97700 33.28600
H  5.49800 47.48100 34.34500

