158

Mg 53.55300 24.24900 45.07600
C  51.30400 26.55400 43.82100
C  52.05500 21.84800 43.08100
C  56.17100 22.22800 45.43400
C  55.44600 26.94600 46.40800
N  52.00100 24.18200 43.51000
C  51.28500 25.34900 43.11500
C  50.26500 24.98200 42.01100
C  50.12300 23.46800 42.25500
C  51.49500 23.11400 42.97200
C  48.82700 23.18100 43.09500
C  50.90200 25.35700 40.67200
C  49.91500 25.74300 39.59200
H  50.54200 26.46000 38.35800
N  53.94600 22.21100 44.63800
C  53.19000 21.42500 43.84700
C  53.69500 20.07300 43.85400
C  54.83300 20.12700 44.77000
C  55.02500 21.51300 44.99500
C  53.23100 18.94600 43.00900
C  55.66500 18.93800 45.12700
O  55.40200 17.82200 44.68100
C  56.96600 18.99800 45.94900
N  55.56300 24.55200 45.87100
C  56.43200 23.52100 45.86600
C  57.79100 23.99900 46.30800
C  57.50200 25.48100 46.71300
C  56.02700 25.70700 46.37600
C  58.51700 23.22100 47.51100
C  58.52000 26.50600 46.09100
C  59.12100 27.53800 47.06500
N  53.31600 26.36700 45.31200
C  54.15600 27.31900 45.86000
C  53.36300 28.54400 45.99600
C  52.18400 28.30400 45.22800
C  52.28700 26.96300 44.80600
C  53.74700 29.81000 46.70900
C  50.91100 28.87500 44.77700
O  50.38500 29.98400 44.99500
C  50.31800 27.69300 43.85000
C  50.07900 28.33600 42.54800
O  50.93400 28.76800 41.80200
O  48.74100 28.37000 42.27200
C  48.29200 28.90600 40.98000
H  51.53800 21.16100 42.40700
H  57.10100 21.66400 45.53200
H  56.12000 27.78500 46.58800
H  49.29800 25.47400 42.11900
H  50.08300 22.87100 41.34400
H  49.17600 22.57500 43.93200
H  48.14100 22.62100 42.46000
H  48.35600 24.02000 43.60800
H  51.55800 24.61900 40.21000
H  51.42400 26.26500 40.97500
H  49.02200 26.28100 39.91200
H  49.50700 24.80900 39.20400
H  54.02000 18.51500 42.39200
H  52.43000 19.20600 42.31700
H  52.72000 18.24000 43.66300
H  57.13000 18.02400 46.40900
H  56.97100 19.89000 46.57600
H  57.77700 19.13700 45.23400
H  58.42700 23.91300 45.42700
H  57.54100 25.65500 47.78800
H  58.56500 23.92100 48.34600
H  59.48800 22.78900 47.27100
H  58.08000 22.34800 47.99600
H  57.94700 27.11900 45.39500
H  59.30700 25.91500 45.62200
H  59.06400 27.37300 48.14100
H  58.59800 28.47600 46.87800
H  60.10600 27.84800 46.71600
H  53.77200 30.56600 45.92400
H  54.74900 29.78700 47.13500
H  53.00500 30.03700 47.47500
H  49.36300 27.34400 44.24200
H  48.34700 29.98600 41.11800
H  47.26800 28.53600 40.93700
H  48.97700 28.51900 40.22600
Mg 46.63900 16.87500 28.83600
C  44.55400 16.33100 31.50900
C  48.69700 18.69500 30.85500
C  48.24500 17.92600 26.09300
C  44.16500 15.36400 26.76500
N  46.63100 17.39400 31.00400
C  45.68700 17.06200 31.90500
C  46.27000 17.34700 33.37200
C  47.46000 18.37400 33.07500
C  47.67000 18.12700 31.56200
C  47.25400 19.88300 33.35600
C  46.69600 16.03900 34.18900
C  46.20800 15.99500 35.61000
H  45.83500 17.29500 36.36000
N  48.26200 18.13600 28.56600
C  49.04600 18.75600 29.56200
C  50.15600 19.40200 28.95200
C  50.03400 19.20900 27.49700
C  48.74500 18.40300 27.32300
C  51.19900 20.22000 29.76500
C  50.94300 19.60900 26.41300
O  50.66000 19.47200 25.24300
C  52.35900 20.19300 26.80300
N  46.34700 16.55100 26.68900
C  47.07200 17.23500 25.75800
C  46.57600 16.91400 24.35500
C  45.45100 15.88400 24.62700
C  45.27700 15.89900 26.11900
C  46.14200 18.18700 23.52600
C  45.86000 14.44000 24.08400
C  44.80900 13.55300 23.37000
N  44.76100 15.97200 29.05400
C  43.89200 15.43200 28.17500
C  42.68500 14.95900 28.85800
C  42.90500 15.24300 30.20600
C  44.22000 15.79300 30.25000
C  41.49300 14.49100 28.25700
C  42.40800 15.14100 31.56900
O  41.38700 14.64100 32.06200
C  43.42200 15.85700 32.44900
C  42.72200 16.92200 33.15700
O  42.70300 18.06600 32.78500
O  42.21900 16.38800 34.31900
C  41.38800 17.29600 35.04800
H  49.43700 19.20400 31.47500
H  48.82900 18.03800 25.17700
H  43.40900 14.97700 26.07900
H  45.49800 17.84200 33.96200
H  48.25900 17.99500 33.71300
H  48.09600 20.24600 33.94500
H  46.34000 20.01200 33.93600
H  47.16000 20.46600 32.44000
H  47.76500 15.82600 34.17000
H  46.22700 15.22800 33.63100
H  46.94100 15.70600 36.36300
H  45.42800 15.23600 35.67700
H  52.11000 19.70900 30.07700
H  50.72800 20.56700 30.68500
H  51.29500 21.17700 29.25200
H  52.73500 19.53000 27.58200
H  52.14000 21.11400 27.34200
H  53.02300 20.30900 25.94600
H  47.40100 16.49700 23.77700
H  44.49400 16.15800 24.18200
H  45.10900 18.09200 23.19200
H  46.65600 18.36900 22.58200
H  46.21900 19.02300 24.22000
H  46.26300 13.95800 24.97500
H  46.73700 14.56100 23.44800
H  45.17900 13.37400 22.36000
H  43.77000 13.86100 23.48700
H  44.82800 12.62300 23.93700
H  41.52200 13.40900 28.13300
H  41.43400 14.99500 27.29200
H  40.63200 14.79900 28.85100
H  43.88400 15.17200 33.15900
H  40.61000 17.81600 34.48900
H  42.05800 18.07200 35.41700
H  40.95400 16.88100 35.95800

