158

Mg 46.19200 24.37600 28.45600
C  46.59800 26.63500 31.17700
C  45.27900 21.84400 30.78100
C  46.33000 22.24900 26.01600
C  47.61600 26.90700 26.32000
N  46.02100 24.27100 30.73400
C  46.09700 25.40100 31.59100
C  45.60100 25.03000 33.06200
C  45.41300 23.46300 32.90100
C  45.55500 23.10800 31.35200
C  46.29000 22.59500 33.89900
C  44.41700 25.81500 33.55900
C  44.74000 26.67800 34.81400
H  43.76700 26.70000 35.96400
N  45.80000 22.38800 28.37100
C  45.33800 21.56300 29.34200
C  45.02800 20.28600 28.75600
C  45.50200 20.28900 27.42900
C  45.90900 21.67200 27.20500
C  44.30400 19.17600 29.52500
C  45.39700 19.17700 26.34600
O  45.86300 19.24300 25.20100
C  44.80500 17.88600 26.76500
N  46.74900 24.59900 26.44200
C  46.72300 23.49500 25.65100
C  47.33400 23.75600 24.29400
C  47.52100 25.31200 24.32700
C  47.27800 25.66600 25.76500
C  48.58400 22.89500 23.97400
C  46.67600 26.18300 23.39100
C  45.16200 26.18500 23.48300
N  46.90500 26.42000 28.62400
C  47.36400 27.28600 27.65700
C  47.72300 28.50800 28.33900
C  47.37700 28.35600 29.69200
C  46.90300 27.03600 29.80400
C  48.33100 29.72200 27.71400
C  47.29600 29.02900 30.94200
O  47.62100 30.12200 31.36200
C  46.85000 27.85100 31.96900
C  47.97500 27.68100 32.93100
O  48.94900 26.98000 32.78100
O  47.69200 28.35500 34.08300
C  48.44800 28.15100 35.36600
H  44.85700 21.15800 31.51800
H  46.17400 21.54200 25.19800
H  48.15000 27.55700 25.62400
H  46.45500 25.13100 33.73100
H  44.38900 23.10900 33.01800
H  46.04500 23.20200 34.77100
H  47.37000 22.64500 33.75900
H  45.88800 21.58200 33.87300
H  43.66800 25.05500 33.78200
H  43.92600 26.42400 32.80100
H  44.72300 27.68200 34.39000
H  45.71500 26.55800 35.28500
H  44.90700 18.27200 29.61000
H  43.37400 18.83100 29.07400
H  44.11100 19.35000 30.58400
H  45.35700 17.52600 27.63400
H  44.87100 17.14500 25.96900
H  43.75400 18.15000 26.88900
H  46.59000 23.47700 23.54800
H  48.55400 25.55100 24.07600
H  48.34300 21.83200 23.94000
H  49.35600 23.03800 24.73000
H  48.77900 23.26200 22.96600
H  46.82100 25.81600 22.37500
H  47.06500 27.19700 23.49200
H  44.77700 25.51400 24.25000
H  44.79800 25.74100 22.55600
H  44.83300 27.21300 23.63300
H  48.86000 29.61800 26.76600
H  48.89100 30.16300 28.53800
H  47.53400 30.46200 27.63600
H  45.94300 28.15000 32.49400
H  49.32200 27.51200 35.23700
H  47.79300 27.74100 36.13500
H  48.74000 29.13400 35.73800
Mg 25.67300 50.99600 26.06500
C  23.55300 51.96400 28.71600
C  28.00500 50.13100 28.49300
C  27.93700 50.49000 23.55000
C  23.28000 52.20000 23.73600
N  25.81800 51.11200 28.39100
C  24.73300 51.37300 29.24000
C  25.16100 51.08200 30.75700
C  26.69500 50.70300 30.57200
C  26.88100 50.64800 29.08300
C  27.75700 51.57300 31.27100
C  24.15400 50.10500 31.42100
C  23.52100 50.54500 32.72500
H  24.47700 51.28500 33.70900
N  27.69700 50.38000 26.01700
C  28.45500 49.97200 27.13900
C  29.68000 49.41600 26.71500
C  29.74400 49.52800 25.25900
C  28.44200 50.18200 24.85500
C  30.69300 48.72500 27.70600
C  30.78700 49.22400 24.38400
O  30.74200 49.34400 23.13400
C  32.00800 48.59500 24.83900
N  25.69600 51.40100 23.97500
C  26.75300 51.03800 23.11500
C  26.36300 51.25700 21.62300
C  24.86800 51.88200 21.64200
C  24.54700 51.75300 23.21600
C  27.41400 52.09000 20.82100
C  23.79700 51.25100 20.58900
C  23.77300 52.00200 19.20200
N  23.86500 52.02400 26.17500
C  22.98800 52.40300 25.15100
C  21.86800 53.15100 25.79600
C  22.02200 53.02300 27.20600
C  23.24000 52.27200 27.35600
C  20.82900 53.90400 25.08100
C  21.46900 53.36500 28.52100
O  20.50200 54.05900 28.84600
C  22.44900 52.67400 29.54100
C  22.98100 53.76500 30.41500
O  23.78100 54.64800 29.99900
O  22.39700 53.71900 31.71200
C  22.72300 54.82100 32.56700
H  28.60000 49.60900 29.24500
H  28.61300 50.28300 22.71700
H  22.40900 52.46000 23.13100
H  25.09900 52.07400 31.20400
H  26.78900 49.65100 30.84200
H  28.38200 52.06100 30.52200
H  28.27800 51.06700 32.08400
H  27.18400 52.33600 31.79800
H  24.60300 49.15600 31.71300
H  23.29200 49.93700 30.77400
H  23.26000 49.58200 33.16400
H  22.57900 51.05600 32.52400
H  30.33200 48.69400 28.73400
H  31.60000 49.32800 27.66700
H  30.98600 47.75600 27.30300
H  31.83100 47.57500 25.17800
H  32.41500 49.27100 25.59100
H  32.74200 48.60400 24.03300
H  26.35500 50.23300 21.24800
H  24.77600 52.95500 21.47600
H  28.24400 52.40700 21.45400
H  26.94200 52.95600 20.35700
H  27.83800 51.47000 20.03100
H  22.79800 51.35900 21.00900
H  23.98900 50.18900 20.43100
H  24.52100 51.54300 18.55500
H  24.10500 53.04000 19.18900
H  22.71500 51.98800 18.94100
H  19.92400 53.30100 25.00800
H  21.20400 54.16800 24.09200
H  20.69300 54.77700 25.72000
H  21.92700 51.91200 30.12000
H  22.87500 55.76700 32.04600
H  23.61000 54.51800 33.12300
H  21.89600 54.91300 33.27100

