158

Mg 25.59400 2.19500 29.93000
C  27.65400 1.22300 32.61800
C  22.86100 2.11800 32.08500
C  23.44300 2.68900 27.35300
C  28.15200 1.62600 27.74600
N  25.29000 1.84100 32.09900
C  26.29300 1.55300 33.05000
C  25.80100 1.79900 34.49200
C  24.24900 1.77500 34.28400
C  24.14800 1.95300 32.71900
C  23.58800 0.46200 34.81200
C  26.35900 3.01400 35.20200
C  27.34200 2.63600 36.34700
H  27.47200 3.65300 37.49400
N  23.42800 2.45700 29.77100
C  22.53100 2.37600 30.78100
C  21.19700 2.57200 30.27000
C  21.32000 2.64500 28.83900
C  22.78500 2.58200 28.60500
C  20.00700 2.63200 31.19000
C  20.29600 2.81500 27.78800
O  20.57400 2.95500 26.56700
C  18.97500 2.90800 28.20200
N  25.77900 2.20400 27.87200
C  24.83600 2.57900 27.01200
C  25.38000 2.74600 25.54700
C  26.92800 2.42100 25.71000
C  26.95300 2.03400 27.18700
C  24.58600 1.99300 24.43900
C  27.76600 3.68000 25.40600
C  28.98800 3.27100 24.57700
N  27.50800 1.57000 30.10600
C  28.41900 1.26800 29.04600
C  29.55900 0.68500 29.61100
C  29.33300 0.76900 31.04000
C  28.08000 1.23000 31.27500
C  30.82000 0.37300 28.82200
C  30.00600 0.62300 32.34400
O  31.13500 0.28100 32.66100
C  28.93100 0.91800 33.41700
C  28.80100 -0.16900 34.44400
O  28.21900 -1.25900 34.26500
O  29.46800 0.20000 35.62500
C  29.27300 -0.65200 36.79700
H  22.09000 2.03100 32.85400
H  22.85600 2.99500 26.48500
H  28.96000 1.67600 27.01300
H  26.03200 0.90100 35.06600
H  23.66600 2.56100 34.76500
H  22.55500 0.60000 35.13000
H  24.16000 0.27000 35.71900
H  23.68100 -0.37500 34.11900
H  25.51900 3.54100 35.65400
H  26.84800 3.66200 34.47500
H  28.34800 2.63900 35.92700
H  27.20400 1.59800 36.65000
H  20.11100 2.14600 32.16000
H  19.21100 2.02400 30.76000
H  19.70500 3.65700 31.40400
H  18.64600 2.05100 28.78800
H  18.36500 3.22900 27.35700
H  19.01600 3.73800 28.90700
H  25.16600 3.79300 25.33300
H  27.30200 1.52400 25.21700
H  25.31100 1.37400 23.91100
H  24.06400 2.70600 23.80100
H  23.81500 1.40700 24.93900
H  28.09700 4.11700 26.34800
H  27.16800 4.38200 24.82400
H  29.05800 4.05700 23.82500
H  28.89200 2.30000 24.09100
H  29.88800 3.26800 25.19200
H  30.85100 -0.64600 28.43600
H  31.67600 0.37100 29.49700
H  30.88200 1.07400 27.98900
H  29.31800 1.82600 33.88000
H  28.30900 -0.38500 37.23100
H  30.09800 -0.41900 37.47000
H  29.39600 -1.73300 36.72400
Mg 36.56400 49.44900 24.87800
C  36.83100 47.41600 27.69600
C  35.63100 52.02200 27.05900
C  36.40000 51.35800 22.22100
C  37.97100 46.80000 23.00900
N  36.12000 49.61400 27.18200
C  36.46400 48.70100 28.10600
C  36.45200 49.34800 29.47000
C  35.86200 50.75700 29.26500
C  35.86400 50.85400 27.72300
C  34.44700 51.08500 29.91500
C  37.92200 49.33200 30.04300
C  38.06600 49.26600 31.54000
H  36.90600 49.00600 32.50600
N  35.82800 51.37100 24.72500
C  35.57100 52.31300 25.66500
C  35.08300 53.57400 24.97800
C  35.33100 53.40000 23.56700
C  35.91900 52.03200 23.41600
C  34.38000 54.54600 25.77300
C  34.99100 54.33900 22.36800
O  35.23600 54.00300 21.21000
C  34.27100 55.69200 22.45400
N  36.80500 48.97500 22.72700
C  36.80000 50.05300 21.90500
C  37.30100 49.62300 20.54100
C  38.12800 48.36300 20.87200
C  37.64900 47.98400 22.28400
C  36.13100 49.49700 19.49800
C  39.63500 48.54900 20.71300
C  40.33600 47.21900 20.40600
N  37.06500 47.43500 25.18300
C  37.58200 46.46400 24.31300
C  37.85900 45.27000 25.07400
C  37.49000 45.57900 26.35400
C  37.11100 46.94500 26.42100
C  38.60900 44.11200 24.67900
C  37.50100 45.00700 27.63500
O  37.68000 43.87800 27.99200
C  37.19300 46.26000 28.58900
C  36.06900 45.94800 29.54100
O  34.90000 46.15700 29.32300
O  36.59000 45.51400 30.70700
C  35.64800 44.97300 31.65600
H  35.47100 52.82900 27.77700
H  36.48100 51.98400 21.32900
H  38.71300 46.11200 22.59700
H  35.81100 48.76000 30.12700
H  36.51400 51.58500 29.54400
H  33.78600 51.33700 29.08600
H  34.45500 51.92800 30.60500
H  33.87000 50.25400 30.32100
H  38.24500 50.33200 29.75400
H  38.54100 48.59100 29.53600
H  38.59700 50.17400 31.82300
H  38.83500 48.50300 31.66200
H  33.71100 54.11300 26.51700
H  33.78600 55.25700 25.19800
H  35.16300 55.11000 26.27900
H  34.88800 56.36900 23.04500
H  33.33000 55.42700 22.93700
H  34.16300 56.09100 21.44500
H  38.03200 50.37800 20.25300
H  37.82400 47.67200 20.08500
H  35.23300 49.40300 20.10900
H  36.01100 48.63000 18.84900
H  36.10600 50.38800 18.87100
H  40.09900 48.73000 21.68300
H  39.99300 49.24400 19.95400
H  39.75700 46.69000 19.64900
H  40.35400 46.65100 21.33600
H  41.34900 47.42200 20.05700
H  38.91500 44.17700 23.63500
H  37.95600 43.24300 24.75600
H  39.57700 43.86800 25.11600
H  38.00700 46.64100 29.20500
H  35.24600 44.01100 31.33800
H  34.82300 45.66400 31.83200
H  36.17900 45.00800 32.60700

