158

Mg 49.09600 34.87900 26.76800
C  47.25300 33.52900 29.53300
C  49.27800 37.84900 28.56200
C  50.35800 36.46800 23.96400
C  48.07800 32.25800 24.86300
N  48.63400 35.46100 28.96600
C  47.82400 34.75100 29.81500
C  47.78900 35.52300 31.12600
C  48.14800 37.00600 30.70900
C  48.76400 36.72900 29.33600
C  46.92900 38.00700 30.68000
C  48.66700 34.90500 32.29500
C  47.82800 34.84400 33.65300
H  47.26200 36.10500 34.26700
N  49.92000 36.79000 26.44000
C  49.88600 37.83000 27.31400
C  50.62300 38.94100 26.73500
C  51.00000 38.53000 25.42000
C  50.36300 37.18000 25.20800
C  51.13200 40.12100 27.59500
C  51.87400 39.20800 24.40000
O  52.17900 38.62700 23.35700
C  52.39500 40.61300 24.65700
N  49.17700 34.42600 24.71500
C  49.83300 35.18300 23.73800
C  49.85400 34.42600 22.36400
C  49.26100 32.98900 22.74700
C  48.81300 33.21800 24.16400
C  48.99500 35.24700 21.33700
C  50.26000 31.82900 22.76800
C  49.93900 30.58000 21.89900
N  47.93100 33.17700 27.07300
C  47.62300 32.18900 26.22700
C  46.79400 31.17500 26.79200
C  46.63400 31.65400 28.11900
C  47.30600 32.90000 28.22000
C  46.17600 29.91900 26.12100
C  46.01100 31.42800 29.45300
O  45.28700 30.50400 29.85900
C  46.36800 32.64300 30.35600
C  47.09100 32.05700 31.53800
O  48.27700 31.72900 31.60400
O  46.04200 31.66900 32.48400
C  46.44600 30.69100 33.47700
H  49.24500 38.86700 28.95500
H  50.77700 37.08300 23.16500
H  47.90500 31.32700 24.32000
H  46.77500 35.34200 31.48500
H  48.87200 37.40100 31.42200
H  46.05200 37.58900 31.17300
H  46.75000 38.28700 29.64200
H  47.12200 38.86600 31.32200
H  49.47000 35.62800 32.44200
H  49.13700 33.98400 31.95200
H  48.51800 34.42600 34.38500
H  47.00200 34.15100 33.49100
H  51.39600 39.79200 28.60000
H  50.47800 40.98000 27.44600
H  52.14400 40.34500 27.25700
H  52.61700 40.88700 23.62600
H  53.38200 40.49600 25.10500
H  51.71400 41.33300 25.11000
H  50.86500 34.37400 21.96000
H  48.34200 32.69400 22.24000
H  48.03100 34.81900 21.06300
H  49.65100 35.30000 20.46800
H  48.86500 36.25700 21.72700
H  50.46300 31.40500 23.75100
H  51.26900 32.10700 22.46200
H  49.43400 29.79600 22.46300
H  50.85700 30.13100 21.51900
H  49.40600 30.84000 20.98400
H  45.29700 29.65400 26.70900
H  46.89100 29.09800 26.07900
H  45.80600 30.06600 25.10600
H  45.49400 33.21300 30.67300
H  46.34300 29.72100 32.99000
H  45.68600 30.74600 34.25600
H  47.48300 30.87500 33.75500
Mg 42.03300 40.57600 27.02900
C  41.15200 42.95800 29.55200
C  42.99600 38.43000 29.59400
C  43.23700 38.75500 24.82600
C  41.39100 43.23000 24.68500
N  42.06100 40.73400 29.28700
C  41.54100 41.70600 30.07100
C  41.50600 41.35300 31.53100
C  42.27700 39.96200 31.58800
C  42.52800 39.66400 30.03000
C  43.54600 39.85100 32.51800
C  40.11500 41.44300 32.16600
C  39.86000 40.58800 33.44100
H  39.09600 41.20600 34.60800
N  42.93700 38.82100 27.11600
C  43.18000 38.02300 28.25300
C  43.71100 36.73200 27.83500
C  43.78600 36.75000 26.45300
C  43.29000 38.16700 26.06100
C  44.10300 35.64800 28.81300
C  44.18100 35.65500 25.47900
O  44.18800 35.86200 24.26800
C  44.60700 34.32200 26.00900
N  42.21000 40.96000 25.00900
C  42.88500 40.02800 24.30700
C  43.08800 40.41500 22.78100
C  42.42700 41.85700 22.80000
C  41.97500 42.04500 24.22100
C  44.51300 40.33400 22.29000
C  41.23800 41.95100 21.80600
C  40.05500 41.01000 22.09800
N  41.40200 42.68800 27.05400
C  41.16100 43.57600 26.01400
C  40.54500 44.83500 26.48900
C  40.55200 44.59900 27.95500
C  41.06800 43.29100 28.19900
C  40.02400 45.94700 25.70500
C  40.18900 45.20600 29.18900
O  39.73600 46.27700 29.46500
C  40.49200 44.13000 30.28600
C  41.36000 44.82200 31.30800
O  42.55900 45.14800 31.28900
O  40.57800 45.14900 32.41000
C  41.06400 46.00400 33.49800
H  43.28100 37.70800 30.36200
H  43.74100 38.16900 24.05500
H  41.18100 43.99700 23.93600
H  42.08500 42.13000 32.02900
H  41.63000 39.11900 31.83000
H  43.36100 39.04600 33.22900
H  43.82600 40.80300 32.96800
H  44.38300 39.50700 31.91000
H  39.47100 41.07000 31.37000
H  39.94800 42.50000 32.37400
H  40.82400 40.29200 33.85500
H  39.40700 39.61900 33.23300
H  44.02700 35.71200 29.89800
H  45.12900 35.31900 28.64500
H  43.42100 34.82900 28.58600
H  44.05500 33.86200 26.82900
H  45.64000 34.55500 26.26800
H  44.82900 33.64600 25.18300
H  42.43700 39.76800 22.19300
H  43.13700 42.64700 22.55300
H  44.65300 40.12600 21.23000
H  44.92400 39.49100 22.84500
H  45.06400 41.20300 22.64900
H  41.62300 41.52400 20.88000
H  40.94800 43.00100 21.84200
H  40.03600 40.74400 23.15500
H  40.08400 40.22800 21.33900
H  39.22100 41.70600 22.01100
H  39.01500 46.09300 26.09100
H  39.87500 45.73300 24.64600
H  40.70300 46.79600 25.78200
H  39.53700 43.84300 30.72600
H  41.75500 46.76600 33.13600
H  41.51400 45.40000 34.28500
H  40.19100 46.48100 33.94400

