158

Mg 6.36400 55.05100 39.92300
C  6.00900 51.60600 40.07400
C  9.79000 54.54700 39.24900
C  6.68800 58.35600 39.21700
C  2.89700 55.30000 39.95500
N  7.72900 53.21900 39.56900
C  7.39500 51.94700 39.75300
C  8.64600 51.02400 39.73400
C  9.83500 52.08100 39.75500
C  9.08100 53.37700 39.43000
C  10.70000 52.18100 41.05500
C  8.90100 50.05500 38.52400
C  9.32400 50.54800 37.12300
H  8.64500 49.90700 35.87500
N  8.01800 56.37400 39.36500
C  9.33400 55.91800 39.11800
C  10.06700 57.10000 38.88700
C  9.23200 58.25900 39.00200
C  7.93800 57.72400 39.22200
C  11.58400 57.05400 38.70100
C  9.76100 59.67200 38.86600
O  11.01100 59.91600 38.75900
C  8.90900 60.89100 38.87700
N  5.03100 56.55800 39.41800
C  5.42900 57.86500 39.32400
C  4.22600 58.87600 39.31600
C  2.97700 57.83800 39.36600
C  3.68600 56.46800 39.62200
C  4.28700 59.86700 40.48800
C  2.05700 57.80900 38.12900
C  0.58200 57.37200 38.41500
N  4.76300 53.78000 39.98400
C  3.38000 54.01100 40.16000
C  2.74100 52.76000 40.46500
C  3.77300 51.82500 40.52600
C  4.92200 52.49600 40.12100
C  1.28100 52.60000 40.90200
C  4.02900 50.43700 40.79100
O  3.28300 49.47800 41.12500
C  5.48200 50.18100 40.31300
C  5.43800 49.34200 39.10300
O  4.94500 49.73900 38.07200
O  5.90600 47.98200 39.32600
C  5.43000 46.95700 38.35800
H  10.86900 54.38400 39.19900
H  6.80500 59.44200 39.21600
H  1.81800 55.39100 40.09600
H  8.56400 50.41700 40.63500
H  10.44000 52.05400 38.84900
H  10.70000 53.17300 41.50700
H  11.75400 51.97000 40.87100
H  10.28000 51.45500 41.75100
H  7.99700 49.46100 38.38600
H  9.61400 49.33900 38.93100
H  10.39500 50.36500 37.03500
H  9.29100 51.63400 37.04100
H  11.95100 57.66200 37.87400
H  11.91800 56.02200 38.58700
H  11.93800 57.39500 39.67300
H  9.55500 61.73600 38.63700
H  8.34000 60.85200 39.80600
H  8.30800 60.70600 37.98700
H  4.24100 59.41600 38.36900
H  2.43700 58.09700 40.27700
H  5.19800 59.95300 41.08100
H  3.51500 59.74700 41.24800
H  4.17100 60.85000 40.03100
H  2.50200 57.11500 37.41600
H  2.00400 58.74800 37.57900
H  0.48200 57.29500 39.49700
H  0.44000 56.41200 37.91900
H  -0.18400 58.09600 38.13800
H  0.60600 53.45600 40.87700
H  1.16200 52.20900 41.91200
H  0.81200 51.79600 40.33500
H  6.04500 49.59000 41.03500
H  5.91900 47.00500 37.38500
H  4.34900 47.04200 38.24700
H  5.63200 45.94600 38.71200
Mg -5.03900 26.31500 26.55200
C  -3.75200 27.59700 29.51400
C  -7.13000 24.28800 28.57800
C  -6.13900 24.69400 23.79800
C  -2.78000 28.22300 24.69700
N  -5.18700 25.82100 28.78800
C  -4.57500 26.54100 29.77500
C  -5.07500 26.01000 31.20500
C  -5.88600 24.72800 30.89700
C  -6.12700 24.92700 29.30600
C  -5.33000 23.34100 31.32800
C  -5.90700 27.12200 31.99400
C  -5.98000 27.10300 33.54500
H  -5.68300 25.76200 34.19400
N  -6.27600 24.61100 26.24200
C  -7.18400 24.10400 27.16700
C  -8.21300 23.30000 26.47000
C  -7.84700 23.21900 25.09100
C  -6.74000 24.17800 24.96900
C  -9.29200 22.62600 27.27800
C  -8.41300 22.43500 23.93200
O  -7.92700 22.44900 22.80100
C  -9.48100 21.57100 24.14000
N  -4.49600 26.40500 24.59500
C  -5.16300 25.71200 23.61300
C  -4.68300 26.16300 22.21200
C  -3.61200 27.25300 22.49900
C  -3.62100 27.33600 24.01800
C  -4.16000 25.04200 21.30100
C  -3.85800 28.59600 21.67100
C  -2.84100 28.88700 20.53600
N  -3.48000 27.66400 26.96900
C  -2.71200 28.39500 26.11200
C  -1.92800 29.34200 26.84500
C  -2.31500 29.09700 28.17900
C  -3.24700 28.01800 28.19700
C  -0.93500 30.34000 26.27000
C  -2.03900 29.42200 29.57100
O  -1.29800 30.29200 30.05700
C  -3.03800 28.51500 30.44600
C  -2.14600 27.69800 31.27200
O  -1.37100 26.89400 30.75200
O  -2.09500 28.09400 32.53200
C  -0.90300 27.63400 33.23900
H  -7.93700 23.88000 29.19000
H  -6.55000 24.28300 22.87400
H  -2.09900 28.89800 24.17300
H  -4.24000 25.76600 31.86200
H  -6.84200 24.81200 31.41400
H  -5.19800 22.69400 30.46100
H  -6.03300 22.85200 32.00200
H  -4.37600 23.29000 31.85300
H  -6.94700 27.01300 31.68500
H  -5.51800 28.11000 31.75000
H  -7.02800 27.38000 33.65400
H  -5.39000 27.85100 34.07600
H  -8.91100 21.83700 27.92600
H  -10.03600 22.11700 26.66500
H  -9.85200 23.34300 27.87900
H  -10.25500 22.32600 24.27200
H  -9.27800 21.02500 25.06100
H  -9.76000 20.96900 23.27500
H  -5.54800 26.68600 21.80400
H  -2.65400 26.88700 22.13100
H  -4.44800 24.10400 21.77600
H  -3.07400 25.11300 21.23900
H  -4.56300 24.97700 20.29100
H  -3.92300 29.44100 22.35600
H  -4.87200 28.67000 21.27900
H  -3.38400 28.73200 19.60400
H  -1.99100 28.20600 20.58700
H  -2.57400 29.94100 20.46900
H  -1.31000 31.36100 26.34300
H  -0.60600 30.11400 25.25600
H  -0.00800 30.34800 26.84400
H  -3.75900 29.02100 31.08800
H  -1.14600 26.58200 33.38700
H  -0.76100 28.26100 34.11900
H  0.02000 27.67200 32.66100

