158

Mg 8.10600 3.16800 28.74800
C  9.74600 2.02100 31.59200
C  6.03000 5.08800 30.88100
C  6.71000 4.51100 26.13600
C  9.72600 0.80900 26.80900
N  7.97500 3.53200 30.91500
C  8.78000 2.99700 31.89700
C  8.44900 3.70900 33.28800
C  6.95000 4.26100 33.13200
C  6.98900 4.33300 31.55400
C  5.71600 3.49100 33.62700
C  9.48300 4.86300 33.56600
C  10.43400 4.63900 34.71300
H  10.17800 3.73100 35.89900
N  6.49200 4.62800 28.51300
C  5.80900 5.28900 29.47900
C  4.89600 6.23300 28.84700
C  5.21100 6.18500 27.41000
C  6.17700 5.12300 27.26200
C  3.88100 7.07300 29.66100
C  4.61500 7.04500 26.29600
O  4.84000 6.78800 25.13800
C  3.76000 8.21800 26.66000
N  7.94200 2.45700 26.77600
C  7.41700 3.34200 25.87800
C  7.69400 2.91300 24.45100
C  8.95100 1.89000 24.67600
C  8.86500 1.64500 26.13500
C  6.49300 2.34400 23.71100
C  10.32900 2.35500 24.09600
C  11.12100 3.40900 24.83800
N  9.48900 1.73900 29.12700
C  9.94300 0.77000 28.21100
C  10.85200 -0.07700 28.99000
C  10.83300 0.39800 30.29700
C  9.94500 1.48600 30.31100
C  11.72400 -1.14100 28.38300
C  11.46200 0.34300 31.60200
O  12.38800 -0.32900 32.08100
C  10.62600 1.24200 32.53700
C  9.84800 0.38900 33.53700
O  8.77400 -0.12200 33.43500
O  10.54200 0.27700 34.73100
C  9.85400 -0.23200 35.83100
H  5.31300 5.66700 31.46700
H  6.46800 5.13900 25.27600
H  10.33700 0.17300 26.16500
H  8.43800 2.99500 34.11100
H  6.82700 5.27500 33.51300
H  5.48300 2.68300 32.93500
H  4.86600 4.16700 33.72100
H  5.98300 3.09900 34.60800
H  8.97100 5.77300 33.88000
H  10.06600 5.01400 32.65700
H  10.58200 5.62000 35.16300
H  11.41000 4.28000 34.38600
H  3.71400 6.52000 30.58500
H  2.90600 7.09200 29.17500
H  4.27100 8.04700 29.95600
H  2.93800 7.94900 27.32500
H  3.47800 8.61200 25.68400
H  4.38200 8.98800 27.11700
H  8.04900 3.71600 23.80500
H  8.65100 0.97400 24.16800
H  5.67000 2.18100 24.40700
H  6.65700 1.36800 23.25500
H  6.21800 3.11400 22.99100
H  10.28000 2.75000 23.08200
H  10.98100 1.48500 24.16700
H  10.65500 3.78800 25.74800
H  11.25800 4.34900 24.30300
H  12.14500 3.06100 24.97000
H  12.63800 -1.39200 28.92200
H  11.99400 -0.99600 27.33700
H  11.23100 -2.11100 28.32500
H  11.36600 1.74800 33.15700
H  9.83500 -1.32000 35.77400
H  8.81000 0.06500 35.93300
H  10.41700 0.07300 36.71200
Mg -1.80100 34.66300 27.19400
C  -3.51000 32.69500 29.59500
C  -0.52000 36.50100 29.84300
C  -0.42900 36.50800 24.85600
C  -3.52600 32.79700 24.71600
N  -2.08700 34.61100 29.49500
C  -2.82600 33.76900 30.26100
C  -2.61300 33.91200 31.75600
C  -1.88600 35.31100 31.75600
C  -1.50600 35.53700 30.26700
C  -2.81700 36.58000 32.19700
C  -1.80400 32.76800 32.42800
C  -2.42200 32.13500 33.67500
H  -1.74100 32.47200 35.00900
N  -0.59400 36.20800 27.34400
C  -0.08800 36.80800 28.50000
C  0.98700 37.77300 28.03900
C  0.95100 37.81400 26.64100
C  -0.06400 36.78400 26.23400
C  1.82200 38.65200 28.97900
C  1.68100 38.77200 25.66500
O  1.52200 38.75100 24.47100
C  2.83500 39.69800 26.20900
N  -1.95400 34.64400 25.07200
C  -1.20400 35.49700 24.31000
C  -1.49100 35.32700 22.78400
C  -2.27900 34.01600 22.78500
C  -2.68900 33.83200 24.30500
C  -2.31900 36.54000 22.01800
C  -1.57400 32.72900 22.16500
C  -0.14200 32.46800 22.63800
N  -3.20300 33.09200 27.09900
C  -3.79500 32.37800 26.03300
C  -4.60000 31.31800 26.52100
C  -4.62400 31.48300 27.90500
C  -3.63100 32.47000 28.24400
C  -5.44300 30.43500 25.66700
C  -5.15300 30.93600 29.07800
O  -5.96100 30.07600 29.32100
C  -4.38000 31.66600 30.25300
C  -5.46000 32.23900 31.13000
O  -6.23000 33.12300 30.81200
O  -5.45100 31.57900 32.30300
C  -6.54100 31.76600 33.18800
H  0.05800 36.90000 30.67900
H  -0.14400 37.06900 23.96400
H  -4.07400 32.25600 23.94200
H  -3.58900 33.96100 32.23900
H  -0.99800 35.18000 32.37400
H  -2.60200 37.48300 31.62500
H  -2.52700 36.70700 33.24000
H  -3.88800 36.38600 32.15700
H  -0.96600 33.21900 32.96100
H  -1.59500 31.87900 31.83200
H  -2.44700 31.05400 33.53300
H  -3.42200 32.51700 33.88000
H  1.44700 39.66000 28.80100
H  2.89200 38.64500 28.77000
H  1.69100 38.37300 30.02500
H  3.39400 40.08100 25.35500
H  3.62000 39.12200 26.69800
H  2.41800 40.53400 26.77000
H  -0.54900 35.15500 22.26300
H  -3.23600 34.09900 22.26900
H  -2.68500 37.31100 22.69600
H  -3.23500 36.19400 21.53900
H  -1.67000 36.97000 21.25500
H  -1.59900 32.87900 21.08600
H  -2.21300 31.89100 22.44500
H  -0.02000 31.42500 22.93200
H  0.06100 32.96300 23.58800
H  0.62500 32.78800 21.93200
H  -4.77500 29.72200 25.18300
H  -5.81100 31.07100 24.86200
H  -6.28200 29.95000 26.16600
H  -3.86800 30.85200 30.76700
H  -6.78400 30.85300 33.73100
H  -7.41800 32.09500 32.63000
H  -6.26800 32.52000 33.92700

