158

Mg -1.73700 17.37200 26.21000
C  -1.80200 15.40000 29.28100
C  -1.91200 20.19300 28.37300
C  -1.87400 19.29700 23.59600
C  -1.95400 14.50400 24.41900
N  -1.83600 17.71000 28.58700
C  -1.83100 16.72200 29.61600
C  -2.04200 17.36500 31.02400
C  -2.43900 18.85700 30.55000
C  -1.93400 18.93500 29.09100
C  -3.97300 19.18500 30.58600
C  -0.87000 17.36600 32.12500
C  -1.36200 17.16800 33.54600
H  -0.51400 16.39400 34.56900
N  -1.70000 19.46600 25.97400
C  -1.75400 20.44600 26.98600
C  -1.78700 21.75700 26.35200
C  -1.87200 21.51300 24.93500
C  -1.82300 20.08500 24.81700
C  -1.55700 23.10300 27.11900
C  -1.82300 22.54900 23.78800
O  -1.82900 22.21200 22.63800
C  -1.68300 23.99100 24.10800
N  -2.15800 16.96300 24.27100
C  -2.04200 17.95900 23.36600
C  -2.27400 17.30200 21.97400
C  -2.04300 15.74800 22.19000
C  -2.07800 15.71500 23.68700
C  -3.74300 17.73700 21.48500
C  -0.72300 15.26800 21.53400
C  -0.78500 14.72000 20.07300
N  -1.88600 15.34900 26.70800
C  -1.87000 14.23000 25.83300
C  -1.94700 12.98600 26.47200
C  -1.81300 13.41900 27.86500
C  -1.88800 14.80000 27.97800
C  -1.82800 11.56600 25.88400
C  -1.66400 12.95500 29.17900
O  -1.63200 11.79300 29.65000
C  -1.68200 14.19200 30.16100
C  -0.38800 14.09300 30.83800
O  0.69600 14.48200 30.39800
O  -0.53000 13.65900 32.14900
C  0.68600 13.66300 32.97700
H  -1.98200 21.07000 29.02000
H  -1.99400 19.92900 22.71400
H  -2.04300 13.55500 23.88600
H  -2.92700 16.88300 31.43800
H  -1.92000 19.57000 31.19000
H  -4.44300 18.24800 30.88500
H  -4.25600 19.43000 29.56200
H  -4.33300 19.97800 31.24100
H  -0.36700 18.33200 32.09200
H  -0.01000 16.81700 31.74400
H  -2.22400 16.50000 33.55300
H  -1.59000 18.13900 33.98500
H  -0.69900 23.60100 26.66700
H  -1.36000 22.92100 28.17500
H  -2.44100 23.73000 27.00600
H  -2.62000 24.33200 24.54700
H  -1.66900 24.40200 23.09800
H  -0.81200 24.26600 24.70300
H  -1.60100 17.66800 21.19900
H  -2.91300 15.16100 21.89600
H  -4.10200 17.14300 20.64500
H  -3.73800 18.80000 21.24600
H  -4.56500 17.56800 22.18100
H  -0.06800 14.74400 22.23000
H  -0.10600 16.16700 21.51700
H  -1.79900 14.83600 19.68900
H  -0.44300 13.69300 19.94500
H  -0.20800 15.36800 19.41300
H  -2.60000 11.40200 25.13300
H  -1.86600 10.90000 26.74700
H  -0.88900 11.48900 25.33600
H  -2.56200 14.18100 30.80400
H  1.18800 14.62800 32.91400
H  1.34600 12.90400 32.55700
H  0.39100 13.52300 34.01700
Mg 24.74500 -7.80600 46.18700
C  27.55300 -5.63100 45.62200
C  23.02100 -5.86500 44.04800
C  22.66400 -10.33600 45.85800
C  27.01900 -9.87800 47.97300
N  25.23700 -5.94500 45.06800
C  26.39800 -5.26600 44.94300
C  26.21700 -4.05800 44.03400
C  24.68500 -3.82900 44.17800
C  24.24700 -5.29800 44.39300
C  24.14500 -2.80300 45.22600
C  26.75500 -4.24100 42.61000
C  26.98400 -3.01200 41.66800
H  26.09100 -2.97800 40.45500
N  22.94600 -8.06200 45.19800
C  22.42500 -7.13700 44.35700
C  21.13200 -7.60800 43.99600
C  20.94400 -8.96000 44.53000
C  22.24500 -9.20800 45.19300
C  20.12900 -6.72800 43.23200
C  19.74300 -9.84400 44.45300
O  18.70500 -9.49200 43.87300
C  19.75500 -11.23400 45.05900
N  24.94000 -9.78700 46.80000
C  23.83300 -10.59800 46.59100
C  23.98500 -11.99700 47.30200
C  25.33300 -11.83300 48.13400
C  25.77500 -10.40300 47.64600
C  22.67300 -12.49000 48.11600
C  26.47200 -12.94000 47.90700
C  27.41100 -13.28100 49.06700
N  26.85800 -7.72300 46.91300
C  27.54600 -8.62700 47.59600
C  28.91200 -8.10100 47.80600
C  28.95300 -6.86400 47.05500
C  27.72600 -6.73800 46.50200
C  30.04100 -8.76100 48.48100
C  29.82300 -5.78200 46.56700
O  30.98400 -5.58100 46.90100
C  28.92100 -5.00100 45.46300
C  29.00500 -3.55700 45.70200
O  28.37400 -2.91000 46.51800
O  29.77000 -3.07300 44.68500
C  29.35900 -1.75500 44.21900
H  22.41300 -5.18500 43.44700
H  22.06300 -11.24600 45.80100
H  27.64700 -10.49800 48.61700
H  26.65900 -3.18100 44.50700
H  24.34500 -3.36500 43.25200
H  24.94200 -2.40900 45.85600
H  23.53600 -3.40100 45.90400
H  23.49900 -2.04900 44.77700
H  26.02400 -4.89800 42.13900
H  27.73200 -4.72400 42.61400
H  27.99500 -3.18000 41.29800
H  26.99700 -1.98400 42.03200
H  20.23400 -5.70200 43.58400
H  19.11100 -7.11200 43.30200
H  20.36500 -6.58800 42.17700
H  19.91700 -11.22900 46.13700
H  20.58400 -11.65000 44.48800
H  18.82300 -11.76600 44.86700
H  24.12800 -12.71900 46.49800
H  25.03500 -11.75600 49.18000
H  21.79000 -11.88400 47.90900
H  22.77200 -12.50100 49.20100
H  22.40000 -13.46100 47.70300
H  26.98900 -12.79100 46.96000
H  25.86400 -13.84000 47.81400
H  26.97800 -14.00900 49.75200
H  27.68500 -12.47500 49.74700
H  28.30100 -13.77500 48.67500
H  30.53900 -7.94300 49.00000
H  30.75200 -9.12400 47.74000
H  29.63800 -9.61800 49.02100
H  29.22900 -5.24400 44.44600
H  28.37400 -1.46800 44.58700
H  29.22500 -1.79900 43.13800
H  30.12900 -1.07100 44.57800

