158

Mg 26.53900 49.95500 26.67300
C  24.51400 51.28100 29.27000
C  28.89800 49.05100 29.02600
C  28.42500 48.82600 24.16500
C  24.19000 51.03000 24.45800
N  26.65700 50.09200 28.91200
C  25.77100 50.69500 29.75600
C  26.12300 50.42900 31.23600
C  27.64500 49.86500 31.08100
C  27.76500 49.62900 29.57200
C  28.80100 50.74600 31.71600
C  25.21000 49.31100 31.76000
C  24.69900 49.36500 33.23000
H  25.44600 49.97100 34.47900
N  28.53900 49.21300 26.59500
C  29.26900 48.81900 27.64500
C  30.41100 48.11100 27.21500
C  30.36100 48.13700 25.78400
C  29.05800 48.70000 25.41700
C  31.49500 47.63400 28.06100
C  31.44200 47.70600 24.78700
O  31.16600 47.85000 23.58700
C  32.82500 47.15000 25.34700
N  26.29500 49.85300 24.60400
C  27.21900 49.29300 23.79200
C  26.74100 49.32100 22.30700
C  25.40500 50.09100 22.49200
C  25.24500 50.30000 23.97800
C  27.76800 50.00400 21.24500
C  24.18700 49.43000 21.80000
C  23.67000 48.14200 22.47700
N  24.69400 50.89800 26.86500
C  23.89200 51.34300 25.82800
C  22.77700 51.97800 26.30400
C  22.91300 51.99300 27.72200
C  24.12200 51.32400 27.92800
C  21.61000 52.51800 25.46000
C  22.29000 52.35600 28.96500
O  21.21800 52.81600 29.20900
C  23.36000 51.93300 30.03500
C  23.77900 53.09100 30.99000
O  24.89100 53.62900 30.93100
O  22.83500 53.30600 31.96400
C  23.28700 54.15600 33.08400
H  29.70600 48.76100 29.70200
H  28.93100 48.41800 23.28700
H  23.46200 51.34300 23.70700
H  26.11100 51.32200 31.86100
H  27.78000 48.94500 31.65000
H  29.47800 51.12200 30.94900
H  29.34900 49.97800 32.26100
H  28.40600 51.58800 32.28400
H  25.51200 48.27600 31.60400
H  24.29800 49.38500 31.16900
H  24.59700 48.33300 33.56800
H  23.71100 49.81700 33.15400
H  31.25800 47.89300 29.09300
H  32.42400 48.13600 27.79300
H  31.51300 46.54700 28.13600
H  33.27200 48.06300 25.73900
H  33.52900 46.73700 24.62500
H  32.77700 46.33500 26.06900
H  26.49400 48.31100 21.98200
H  25.44900 51.07700 22.03000
H  28.76600 50.05700 21.68000
H  27.33900 50.92200 20.84300
H  27.83700 49.23500 20.47500
H  24.49600 49.17000 20.78800
H  23.34100 50.10900 21.69100
H  24.11900 47.95100 23.45200
H  23.80500 47.27400 21.83200
H  22.59600 48.21100 22.65200
H  21.48500 52.21300 24.42100
H  21.78400 53.59400 25.44800
H  20.66600 52.28300 25.95000
H  22.90600 51.16000 30.65500
H  23.93600 53.58900 33.75100
H  22.52900 54.47700 33.79800
H  23.76300 55.06200 32.70900
Mg 16.73900 51.82700 26.49100
C  18.55900 50.30100 29.07400
C  14.34600 52.56500 28.83400
C  14.99200 53.09200 24.02600
C  18.97600 50.29000 24.15200
N  16.59500 51.63900 28.67300
C  17.43700 51.00700 29.51800
C  16.99900 51.16800 31.01500
C  15.57200 51.62100 30.87000
C  15.46600 51.95200 29.41100
C  14.42900 50.67300 31.26500
C  17.88900 52.24500 31.65600
C  17.50400 52.76500 33.02000
H  16.48000 51.95300 33.84300
N  14.94800 52.80100 26.38500
C  14.11000 53.08500 27.49000
C  13.02400 53.98900 27.08000
C  13.24800 54.20100 25.69500
C  14.41000 53.39200 25.29600
C  12.05400 54.64000 28.09700
C  12.42800 55.05300 24.74400
O  12.72700 55.20100 23.59800
C  11.15400 55.68100 25.28400
N  17.10600 51.77400 24.35200
C  16.15900 52.39800 23.56700
C  16.56700 52.37300 22.05900
C  17.93300 51.49800 22.07400
C  17.96300 51.11800 23.59000
C  15.51800 51.77400 20.98100
C  19.28400 52.16500 21.64000
C  20.20800 51.33400 20.71100
N  18.54200 50.60300 26.57100
C  19.30700 50.14600 25.52800
C  20.45400 49.51000 26.13900
C  20.23500 49.51600 27.52800
C  19.02600 50.17700 27.76500
C  21.60700 48.91700 25.26200
C  20.73000 49.13700 28.83600
O  21.80400 48.65600 29.24200
C  19.63500 49.65400 29.89500
C  19.33800 48.55500 30.77700
O  18.73700 47.50000 30.50600
O  19.78300 48.85000 32.01900
C  19.55100 47.76300 33.04000
H  13.50400 52.86300 29.46200
H  14.48500 53.50800 23.15200
H  19.68600 49.96100 23.39100
H  16.94800 50.28500 31.65200
H  15.34500 52.62100 31.24000
H  13.87200 50.96600 32.15500
H  14.82200 49.66400 31.39500
H  13.75300 50.49600 30.42800
H  17.76900 53.11300 31.00800
H  18.91800 51.88500 31.68500
H  17.16100 53.78600 32.85300
H  18.48200 52.69500 33.49800
H  12.02100 55.72800 28.03800
H  12.40200 54.54000 29.12500
H  11.03800 54.26100 27.98400
H  10.74900 56.09500 24.36000
H  11.52900 56.53200 25.85100
H  10.56400 55.07800 25.97400
H  16.67700 53.41500 21.76000
H  17.75000 50.56100 21.54900
H  14.77200 51.18200 21.51200
H  16.03100 51.00700 20.40100
H  14.98000 52.45400 20.32100
H  19.91700 52.51100 22.45600
H  19.00100 53.07200 21.10600
H  20.58000 51.91700 19.86900
H  19.58500 50.54200 20.29600
H  20.99500 50.80700 21.25000
H  21.57600 49.55400 24.37800
H  21.39200 47.89100 24.96500
H  22.53200 48.90300 25.83900
H  20.16300 50.43100 30.44800
H  20.39400 47.11500 32.79700
H  18.59100 47.25600 32.94700
H  19.72700 47.96400 34.09700

