158

Mg 1.01600 8.03200 27.92400
C  1.37200 10.21100 30.51900
C  1.39300 5.35900 30.00600
C  1.64900 6.07900 25.21600
C  1.15900 10.80000 25.71200
N  1.49000 7.83800 30.02700
C  1.33100 8.85600 30.92000
C  1.34100 8.31400 32.40500
C  1.48000 6.79100 32.18800
C  1.41800 6.66800 30.63500
C  2.83100 6.19500 32.72000
C  0.15700 8.79100 33.27400
C  0.49700 9.16300 34.76400
H  0.04900 8.12500 35.73600
N  1.28600 5.97300 27.63700
C  1.34100 5.05100 28.58000
C  1.45300 3.78000 28.02200
C  1.62500 3.98200 26.61600
C  1.52200 5.39800 26.44700
C  1.36600 2.50600 28.86300
C  1.72900 2.90000 25.39600
O  1.95400 3.12500 24.25900
C  1.64600 1.46000 25.83400
N  1.23200 8.33800 25.85900
C  1.45800 7.37200 24.87600
C  1.75600 7.88400 23.47600
C  1.34500 9.36300 23.59200
C  1.20400 9.51900 25.15300
C  3.24400 7.58000 23.03800
C  0.15500 9.81900 22.71200
C  -1.28200 9.39700 23.09200
N  1.22700 10.14200 28.01400
C  1.20900 11.07000 27.11100
C  1.42600 12.30300 27.71600
C  1.58000 12.11400 29.06300
C  1.34300 10.69100 29.18600
C  1.41000 13.64000 27.10200
C  1.87200 12.67900 30.42600
O  2.20700 13.82800 30.79200
C  1.63600 11.43700 31.43200
C  2.80300 11.35000 32.28200
O  3.92900 10.95300 31.94200
O  2.57600 11.95800 33.51700
C  3.71300 12.25400 34.37800
H  1.32200 4.60100 30.79000
H  1.97700 5.54100 24.32400
H  1.28400 11.66700 25.06000
H  2.23900 8.78900 32.80000
H  0.64900 6.17400 32.52900
H  3.29800 5.71800 31.85800
H  2.59500 5.46500 33.49400
H  3.56300 6.90400 33.10800
H  -0.51500 7.93400 33.24000
H  -0.32200 9.64000 32.78700
H  0.10900 10.16500 34.94600
H  1.58300 9.21800 34.84000
H  2.18700 1.86500 28.54200
H  0.44700 2.11400 28.42800
H  1.32000 2.56100 29.95100
H  2.50900 1.24400 26.46400
H  1.68000 0.81900 24.95300
H  0.70400 1.21700 26.32600
H  1.10300 7.33900 22.79500
H  2.24300 9.93000 23.34400
H  3.90300 7.39300 23.88700
H  3.60600 8.48000 22.54000
H  3.38200 6.83000 22.26000
H  0.36800 9.38600 21.73400
H  0.23000 10.88800 22.51100
H  -1.76600 8.67400 22.43600
H  -1.84600 10.32800 23.16100
H  -1.35200 9.06300 24.12700
H  0.75900 14.39200 27.54900
H  1.14600 13.58400 26.04600
H  2.39400 14.09500 27.21600
H  0.78100 11.75500 32.02900
H  4.23600 13.13800 34.01400
H  4.46900 11.47800 34.50500
H  3.24800 12.67600 35.26900
Mg 47.60700 24.77400 27.93100
C  48.51000 26.87000 30.62400
C  46.74700 22.37300 30.29700
C  47.19500 22.58500 25.39400
C  48.96400 27.06900 25.70400
N  47.62700 24.68000 30.18000
C  48.01400 25.62900 31.07700
C  47.71000 25.26800 32.53600
C  47.29600 23.74900 32.34300
C  47.09600 23.64300 30.88000
C  48.35800 22.79600 33.00400
C  46.65900 26.11300 33.27700
C  47.29800 26.89100 34.50700
H  46.45700 27.59800 35.56300
N  46.99700 22.74300 27.83500
C  46.63700 21.95900 28.93900
C  46.11400 20.74500 28.42800
C  46.29700 20.78200 26.97100
C  46.81000 22.08500 26.68800
C  45.62000 19.65000 29.36300
C  45.83200 19.72200 25.94900
O  46.18500 19.70000 24.76500
C  45.08900 18.55800 26.39400
N  48.07100 24.82500 25.89200
C  47.77900 23.84600 25.02700
C  48.18600 24.17000 23.58800
C  48.41700 25.70100 23.66700
C  48.49100 25.91400 25.17500
C  49.26300 23.24400 22.83400
C  47.28000 26.60500 23.07700
C  47.85400 27.88700 22.39000
N  48.57900 26.58300 28.07000
C  49.04300 27.34900 27.11000
C  49.61400 28.60100 27.69100
C  49.49900 28.42600 29.03200
C  48.82500 27.16100 29.24300
C  50.26700 29.72000 26.87500
C  49.72900 29.00100 30.37800
O  50.25900 30.06900 30.69900
C  49.04100 28.03400 31.43500
C  50.17500 27.64600 32.35200
O  50.71100 26.56400 32.28900
O  50.58800 28.71100 33.15600
C  51.66600 28.36900 34.01000
H  46.49700 21.59400 31.02100
H  46.97700 21.88300 24.58600
H  49.35700 27.87700 25.08400
H  48.71600 25.23200 32.95600
H  46.27800 23.61400 32.70700
H  47.94700 22.13400 33.76600
H  49.22800 23.25200 33.47700
H  48.73800 22.24000 32.14700
H  45.72900 25.57900 33.47300
H  46.45800 26.87300 32.52200
H  47.82900 27.75900 34.11500
H  47.95100 26.16500 34.99100
H  44.53500 19.54600 29.35700
H  45.86300 19.78700 30.41700
H  46.08400 18.73300 29.00000
H  44.24700 19.02300 26.90600
H  45.64800 17.87400 27.03300
H  44.78000 18.00300 25.50800
H  47.22300 23.96600 23.12000
H  49.37300 25.98200 23.22400
H  48.75600 22.48100 22.24200
H  49.89700 22.83700 23.62200
H  49.91400 23.89400 22.25000
H  46.50900 26.73700 23.83600
H  46.65000 26.12200 22.33000
H  47.71100 28.74200 23.05200
H  47.32300 28.12900 21.47000
H  48.88100 27.87900 22.02500
H  49.82500 29.87600 25.89100
H  51.35400 29.65300 26.81600
H  50.07600 30.54900 27.55600
H  48.23500 28.52200 31.98400
H  52.56900 28.10200 33.46100
H  51.44500 27.51100 34.64600
H  51.93700 29.19100 34.67300

