158

Mg 8.97800 3.70300 27.35800
C  10.30600 2.42200 30.25100
C  7.04100 5.84700 29.27100
C  7.42700 4.60800 24.56000
C  10.43200 1.08900 25.53900
N  8.63800 3.99800 29.56500
C  9.51200 3.50300 30.52800
C  9.16300 4.10800 31.93700
C  8.03300 5.20600 31.65100
C  7.81200 4.98200 30.05700
C  6.72900 4.95900 32.47100
C  10.36800 4.71500 32.70900
C  10.73600 3.99200 34.03900
H  10.36300 4.83300 35.29600
N  7.49900 5.04200 26.96300
C  6.81600 5.87600 27.85800
C  5.91300 6.76300 27.14400
C  6.05200 6.44700 25.75600
C  7.05700 5.34900 25.69700
C  5.03100 7.80600 27.70000
C  5.37800 7.00400 24.46000
O  5.57800 6.61000 23.31600
C  4.19700 7.97800 24.71400
N  9.06300 3.00300 25.22100
C  8.31400 3.60000 24.29600
C  8.45000 2.87300 22.93000
C  9.43100 1.68300 23.20200
C  9.73300 1.96700 24.71500
C  7.09900 2.54700 22.19000
C  10.78300 1.71800 22.44600
C  11.37600 0.31800 22.05100
N  10.13100 2.01500 27.68000
C  10.66000 1.10800 26.88400
C  11.48400 0.25200 27.67300
C  11.36400 0.65800 29.03400
C  10.61600 1.83600 28.94000
C  12.33400 -0.84800 27.22800
C  11.72200 0.40600 30.37800
O  12.50500 -0.44700 30.75900
C  11.05500 1.50700 31.22300
C  10.01900 0.86400 32.11200
O  8.85800 0.68700 31.76900
O  10.54900 0.60300 33.37300
C  9.56000 0.14000 34.32900
H  6.63500 6.66400 29.87100
H  6.91700 4.87500 23.63200
H  10.92300 0.21100 25.11200
H  8.84600 3.23800 32.51300
H  8.28200 6.24900 31.84800
H  5.87900 5.00800 31.79000
H  6.70700 5.77700 33.19100
H  6.74900 4.02400 33.03100
H  10.12400 5.75700 32.91500
H  11.26200 4.66900 32.08800
H  11.81500 3.84400 34.07900
H  10.20600 3.05300 34.20300
H  4.01500 7.54900 27.40200
H  5.22700 8.83200 27.38600
H  5.01000 7.78000 28.79000
H  4.65000 8.89300 25.09500
H  3.43800 7.61700 25.40800
H  3.77300 8.20200 23.73500
H  8.93100 3.59600 22.27200
H  8.92000 0.72700 23.09900
H  6.19700 3.02500 22.57300
H  7.03700 1.46100 22.13000
H  7.10600 2.91400 21.16400
H  11.61100 2.18900 22.97500
H  10.57700 2.19200 21.48600
H  12.18300 0.06900 22.74000
H  11.83200 0.59200 21.10000
H  10.62600 -0.46900 21.98800
H  13.10300 -1.08700 27.96300
H  12.83700 -0.41000 26.36600
H  11.76200 -1.69500 26.84900
H  11.76000 2.13600 31.76700
H  8.83900 0.95000 34.44700
H  10.09600 -0.04600 35.25900
H  8.93100 -0.73700 34.17400
Mg 17.02800 -1.29100 27.57500
C  16.00500 0.83800 30.12900
C  19.11100 -2.90300 29.68900
C  18.50800 -2.73900 24.84100
C  15.30300 0.87700 25.28700
N  17.64100 -0.90800 29.56500
C  17.00200 -0.08800 30.51800
C  17.29000 -0.51300 31.94000
C  18.46900 -1.52900 31.74100
C  18.54500 -1.73900 30.17900
C  19.85500 -1.05000 32.31800
C  16.06400 -1.21800 32.68200
C  15.81500 -0.69800 34.12600
H  16.90100 0.15100 34.82900
N  18.49900 -2.75600 27.34200
C  19.14400 -3.34000 28.35100
C  19.96300 -4.36800 27.81100
C  19.84900 -4.33300 26.34700
C  18.93900 -3.21700 26.10600
C  20.84100 -5.34400 28.60000
C  20.54200 -5.18500 25.31100
O  20.28200 -5.04800 24.11100
C  21.53300 -6.30300 25.69100
N  16.97000 -0.89200 25.37400
C  17.65000 -1.69700 24.52600
C  17.61000 -1.08800 23.11100
C  16.31700 -0.24400 23.18100
C  16.17100 -0.07600 24.66400
C  18.88400 -0.31400 22.70400
C  15.11900 -0.94400 22.62500
C  14.96600 -0.63000 21.07100
N  15.78600 0.48900 27.63600
C  15.14000 1.24600 26.71200
C  14.32800 2.19400 27.41700
C  14.59600 2.05600 28.76900
C  15.56000 1.10300 28.82400
C  13.42100 3.24300 26.82700
C  14.31100 2.56100 30.07800
O  13.53400 3.45200 30.41400
C  15.30000 1.89400 31.05200
C  16.17600 3.07300 31.50400
O  16.77800 3.85900 30.76600
O  16.16900 3.20800 32.88800
C  16.74700 4.47600 33.34700
H  19.70200 -3.35200 30.48900
H  18.92500 -3.18200 23.93400
H  14.70500 1.48700 24.60600
H  17.77600 0.33400 32.42300
H  18.19200 -2.47900 32.19800
H  20.37200 -0.42100 31.59300
H  20.39900 -1.97400 32.51000
H  19.62600 -0.50600 33.23500
H  16.10400 -2.27500 32.94500
H  15.19000 -1.03500 32.05700
H  15.68600 -1.53700 34.80900
H  14.87500 -0.14700 34.13000
H  21.87700 -5.12200 28.34400
H  20.66200 -6.36800 28.27200
H  20.64800 -5.32700 29.67200
H  21.12100 -7.05200 26.36700
H  22.42800 -5.91000 26.17200
H  21.67300 -6.78500 24.72300
H  17.36600 -1.91400 22.44200
H  16.36800 0.76000 22.76000
H  19.75800 -0.29900 23.35500
H  18.57400 0.69300 22.42500
H  19.29700 -0.72000 21.78100
H  14.20900 -0.81200 23.21000
H  15.29200 -2.01500 22.73500
H  14.02200 -0.10700 20.91600
H  15.04000 -1.57000 20.52500
H  15.89500 -0.16000 20.75000
H  12.86400 2.82300 25.99000
H  13.97800 4.06500 26.37800
H  12.70500 3.49300 27.61000
H  14.71700 1.36400 31.80500
H  17.65400 4.76700 32.81800
H  16.77600 4.55100 34.43400
H  16.06100 5.28400 33.08800

