158

Mg 35.95000 50.25500 24.18400
C  35.78700 48.67400 27.44500
C  35.02600 53.22900 25.76500
C  36.09300 51.49500 21.26700
C  36.85400 47.05400 23.06000
N  35.48100 50.85600 26.35400
C  35.49500 50.04500 27.47800
C  35.17900 50.88800 28.81200
C  34.89200 52.33600 28.21400
C  35.15600 52.14100 26.66900
C  33.51500 52.94800 28.55100
C  36.42200 50.87200 29.83300
C  36.14600 50.56800 31.30200
H  34.73100 50.72100 31.83000
N  35.59200 52.12500 23.59600
C  35.28600 53.20600 24.38100
C  35.04900 54.33400 23.45600
C  35.37400 53.85900 22.13300
C  35.79900 52.48800 22.31800
C  34.77900 55.78500 24.00300
C  35.18300 54.56700 20.86100
O  35.48600 54.03500 19.74200
C  34.55100 55.99200 20.84700
N  36.19700 49.36900 22.48000
C  36.38500 50.09400 21.32500
C  36.79700 49.24800 20.11000
C  37.06500 47.83300 20.69700
C  36.64500 48.09800 22.18300
C  35.76800 49.15800 19.02500
C  38.53400 47.24700 20.51000
C  38.61700 45.85500 20.00400
N  36.05300 48.17000 24.97400
C  36.42100 47.03300 24.36100
C  36.54600 45.98000 25.31200
C  36.35300 46.58500 26.52700
C  36.01700 47.92900 26.29200
C  36.93800 44.51500 25.01900
C  36.30300 46.34400 27.94800
O  36.52000 45.30500 28.55700
C  35.84300 47.62400 28.64900
C  34.53400 47.42100 29.31900
O  33.43100 47.33500 28.81800
O  34.80900 47.24700 30.72100
C  33.78100 46.71700 31.63500
H  34.72400 54.19500 26.17500
H  36.18800 51.88900 20.25300
H  37.25000 46.15600 22.57900
H  34.34700 50.32600 29.23700
H  35.65200 52.99200 28.63900
H  32.95100 52.75300 27.64000
H  33.61900 53.98500 28.87000
H  33.08500 52.39700 29.38700
H  36.96800 51.81400 29.88900
H  37.09700 50.10600 29.45100
H  36.82100 51.21800 31.85800
H  36.38500 49.53200 31.53900
H  35.09000 55.92000 25.03900
H  33.72600 56.03100 24.14700
H  35.36700 56.47600 23.39900
H  34.26600 56.25400 19.82800
H  35.28600 56.65900 21.29800
H  33.58600 56.02000 21.35200
H  37.70400 49.74300 19.76200
H  36.27600 47.12800 20.43300
H  34.76700 48.91200 19.37800
H  36.12500 48.40600 18.32100
H  35.72500 50.12800 18.52700
H  39.24100 47.28200 21.34000
H  39.08900 47.87300 19.81100
H  38.74900 45.80700 18.92300
H  37.66600 45.38300 20.24900
H  39.23000 45.19100 20.61300
H  36.21200 43.99300 24.39700
H  37.10500 43.97500 25.95100
H  37.75500 44.71000 24.32400
H  36.45800 48.04500 29.44500
H  32.86000 47.30100 31.64000
H  34.14900 46.63000 32.65700
H  33.46400 45.73000 31.29900
Mg 15.91800 52.06100 25.02800
C  17.86400 51.20300 27.78300
C  13.36400 52.95200 27.13500
C  14.10000 52.76100 22.26200
C  18.52400 50.90300 22.89700
N  15.57500 51.86800 27.25100
C  16.59900 51.67500 28.18000
C  16.01700 51.98800 29.57400
C  14.51900 52.26000 29.37100
C  14.47400 52.36900 27.82500
C  13.51500 51.14600 29.92000
C  16.71200 53.17300 30.26300
C  16.56900 53.30100 31.83600
H  15.76300 52.18700 32.49300
N  14.00800 52.89200 24.75100
C  13.14100 53.18400 25.73100
C  11.95100 53.72900 25.09200
C  12.03800 53.56000 23.70000
C  13.41300 53.00300 23.52700
C  10.92200 54.43100 25.85600
C  11.08600 53.79900 22.58100
O  11.38500 53.71100 21.37500
C  9.72000 54.19000 22.87700
N  16.27400 51.89300 22.90100
C  15.33700 52.17300 21.98800
C  15.86700 52.02900 20.60400
C  17.30400 51.58600 20.78500
C  17.43600 51.49600 22.28800
C  15.01200 51.01800 19.84800
C  18.43900 52.52700 20.21100
C  19.72800 51.86900 19.62100
N  17.77700 51.14800 25.23300
C  18.76200 50.78800 24.28500
C  19.86300 50.25500 25.03500
C  19.53500 50.35400 26.41700
C  18.25500 50.92600 26.43200
C  21.02900 49.57900 24.46700
C  20.05000 50.11600 27.72200
O  21.14800 49.63800 28.08700
C  18.96900 50.61500 28.72900
C  18.38700 49.46500 29.44400
O  17.85800 48.46800 28.96900
O  18.76700 49.57200 30.76700
C  18.43600 48.36500 31.61600
H  12.53900 53.25000 27.78600
H  13.53500 52.85600 21.33200
H  19.25100 50.50500 22.18700
H  16.25200 51.05000 30.07900
H  14.28200 53.25700 29.74200
H  14.00800 50.21800 30.21100
H  12.88400 50.82500 29.09100
H  12.87000 51.53900 30.70500
H  16.12400 54.05500 30.01200
H  17.71800 53.41100 29.91700
H  16.21200 54.31300 32.02900
H  17.60800 53.15800 32.13300
H  10.89700 55.45700 25.48800
H  11.11900 54.47700 26.92700
H  9.90700 54.03400 25.84900
H  9.01900 54.07200 22.05100
H  9.75600 55.26700 23.04400
H  9.34400 53.53000 23.65900
H  15.88200 52.99700 20.10400
H  17.43000 50.61000 20.31700
H  15.45600 50.04500 19.63700
H  14.65400 51.36900 18.87900
H  14.04800 50.76100 20.28600
H  18.78400 53.15200 21.03600
H  18.14800 53.23100 19.43100
H  19.47600 50.92900 19.13100
H  20.30500 51.70500 20.53100
H  20.40900 52.55600 19.11800
H  21.58900 49.19700 25.32000
H  21.61400 50.33400 23.94200
H  20.68500 48.80500 23.78100
H  19.38300 51.32400 29.44700
H  18.80500 47.40700 31.25000
H  17.35300 48.32300 31.73800
H  18.84100 48.43800 32.62600

