158

Mg -2.46800 17.34600 26.87300
C  -3.20900 15.10700 29.50300
C  -2.39300 19.81000 29.01900
C  -2.27700 19.34600 24.23400
C  -3.23300 14.66700 24.64900
N  -2.80300 17.32300 29.04200
C  -2.95700 16.37300 29.96700
C  -3.00100 16.89800 31.36900
C  -2.90100 18.44500 31.09800
C  -2.63200 18.55300 29.59400
C  -4.07500 19.27700 31.65200
C  -1.81300 16.25300 32.21500
C  -1.44800 16.97000 33.51800
H  -1.13700 16.15100 34.71700
N  -2.18500 19.28100 26.66500
C  -2.13600 20.17200 27.69300
C  -1.91000 21.50600 27.16000
C  -1.88800 21.42100 25.72200
C  -2.10100 19.97200 25.44500
C  -1.98000 22.68700 28.08800
C  -1.69200 22.47900 24.60900
O  -1.79300 22.20300 23.41600
C  -1.50300 23.83600 24.98700
N  -2.54600 17.06000 24.77700
C  -2.46300 18.02500 23.91300
C  -2.78100 17.54700 22.49400
C  -3.00300 16.00900 22.61300
C  -2.85100 15.90500 24.10700
C  -4.01800 18.11200 21.89300
C  -1.96600 15.17100 21.74800
C  -2.42500 14.33100 20.54600
N  -2.96100 15.25700 26.97200
C  -3.29500 14.31800 26.04800
C  -3.64600 13.04700 26.65700
C  -3.55500 13.30300 27.99700
C  -3.13500 14.67200 28.13200
C  -4.05900 11.79100 25.92800
C  -3.72100 12.69400 29.32000
O  -4.03900 11.57900 29.65100
C  -3.57600 13.84100 30.25600
C  -2.44700 13.30900 31.04500
O  -1.31100 13.57300 30.98700
O  -2.93200 12.51200 32.05700
C  -2.12700 12.14100 33.18900
H  -2.35900 20.62400 29.74700
H  -2.19600 20.01900 23.37800
H  -3.35000 13.84300 23.94300
H  -3.84500 16.65500 32.01500
H  -1.97600 18.77400 31.57300
H  -4.71100 19.45700 30.78500
H  -3.66500 20.13900 32.17800
H  -4.62900 18.68900 32.38400
H  -0.87800 16.08100 31.68100
H  -2.24200 15.30900 32.54900
H  -2.10500 17.82300 33.69200
H  -0.45100 17.40600 33.45500
H  -1.39200 22.39900 28.96000
H  -3.00600 22.79900 28.43700
H  -1.63700 23.61100 27.62300
H  -2.22200 24.08800 25.76600
H  -1.68600 24.43200 24.09300
H  -0.46000 24.08800 25.18200
H  -2.03700 17.73300 21.72000
H  -4.04400 15.76200 22.40800
H  -4.88600 17.52200 22.19100
H  -3.92400 17.91500 20.82500
H  -4.13200 19.15200 22.19800
H  -1.40600 14.48600 22.38500
H  -1.25100 15.83100 21.25700
H  -2.09400 14.76100 19.60100
H  -3.50400 14.20600 20.63400
H  -2.05100 13.30900 20.60400
H  -3.33400 10.97700 25.94000
H  -4.36200 12.00200 24.90300
H  -4.87400 11.33300 26.48900
H  -4.23600 14.02000 31.10500
H  -1.86400 11.08400 33.24400
H  -2.66000 12.46200 34.08300
H  -1.17800 12.67500 33.24100
Mg 48.21200 36.38600 28.52600
C  46.03200 34.80700 30.54400
C  48.36900 38.97500 30.72200
C  49.78900 38.30900 26.05200
C  47.92200 33.77800 26.09600
N  47.39300 36.73400 30.46500
C  46.58800 35.90300 31.15400
C  46.54600 36.31000 32.61500
C  46.92100 37.85700 32.52900
C  47.64000 37.86100 31.16600
C  45.68100 38.75700 32.47900
C  47.43600 35.41200 33.55500
C  48.88500 35.93600 33.72500
H  49.29800 36.20400 35.16300
N  49.17700 38.26800 28.54200
C  49.09200 39.19600 29.52500
C  49.72600 40.41800 29.16900
C  50.29100 40.17600 27.86600
C  49.77200 38.82400 27.43400
C  49.79300 41.60500 29.98100
C  51.13100 41.17900 26.96900
O  51.56600 40.83800 25.89300
C  51.40200 42.59500 27.48200
N  48.80100 36.07500 26.36200
C  49.34300 37.05500 25.59700
C  49.60500 36.59100 24.16200
C  49.08800 35.06500 24.21700
C  48.56700 34.89800 25.69600
C  48.75400 37.36500 23.12700
C  49.98800 33.96300 23.77000
C  50.87800 34.12200 22.54800
N  47.21800 34.63700 28.28000
C  47.20300 33.59200 27.30600
C  46.24200 32.57800 27.75400
C  45.77700 33.01900 28.98900
C  46.31900 34.26200 29.25900
C  45.73800 31.42400 27.00200
C  44.79300 32.75600 30.06000
O  44.02700 31.84800 30.07100
C  44.95000 33.88300 31.13800
C  45.18900 33.22200 32.41800
O  46.03900 32.33700 32.58000
O  44.36900 33.75800 33.37200
C  44.64400 33.10800 34.66000
H  48.20100 39.81200 31.40300
H  50.32500 38.76500 25.21700
H  47.97300 32.89200 25.46100
H  45.57900 36.18900 33.10300
H  47.55800 38.13000 33.37000
H  45.41900 39.00200 33.50900
H  44.90700 38.27000 31.88600
H  45.88300 39.66200 31.90700
H  47.44900 34.40700 33.13400
H  46.87600 35.24500 34.47500
H  49.14200 36.83000 33.15700
H  49.47100 35.10400 33.33400
H  49.16400 42.34500 29.48600
H  50.82400 41.93400 30.10900
H  49.41600 41.43300 30.98900
H  50.47400 43.10100 27.74900
H  51.90500 43.23400 26.75600
H  52.00300 42.40700 28.37200
H  50.60200 36.66200 23.72700
H  48.11300 35.03500 23.73000
H  48.01000 37.95400 23.66500
H  48.17200 36.89000 22.33800
H  49.40600 38.15800 22.76000
H  49.45300 33.01300 23.77400
H  50.64500 33.79700 24.62400
H  50.72200 33.26200 21.89700
H  51.95900 34.09900 22.68200
H  50.59400 35.04100 22.03500
H  45.48000 31.66100 25.97000
H  44.87300 31.03200 27.53800
H  46.53000 30.67600 26.97300
H  44.00700 34.40200 31.31000
H  45.67500 33.17500 35.00800
H  44.54200 32.05200 34.41000
H  43.82700 33.25500 35.36700

