158

Mg 25.14800 1.44600 30.40800
C  27.27900 1.57500 33.42400
C  22.46800 1.55900 32.50600
C  23.27500 1.53500 27.70400
C  28.07000 1.18300 28.57700
N  24.97900 1.68800 32.73000
C  25.93500 1.75400 33.70100
C  25.27100 1.99900 35.03600
C  23.69100 1.92400 34.75100
C  23.69500 1.73100 33.24600
C  22.81900 1.00500 35.52900
C  25.82500 3.35300 35.72900
C  26.37100 3.12800 37.20000
H  25.90500 4.05900 38.30100
N  23.08900 1.57000 30.07100
C  22.12500 1.55900 31.09600
C  20.86900 1.72100 30.47900
C  21.05200 1.74700 29.06400
C  22.52800 1.65200 28.88100
C  19.54200 1.89500 31.16100
C  20.09000 1.81200 27.87800
O  20.48000 1.83300 26.70000
C  18.61100 1.72700 28.22200
N  25.63200 1.25100 28.48900
C  24.63600 1.49700 27.51700
C  25.25200 1.72100 26.10900
C  26.79400 1.43800 26.34700
C  26.88400 1.28400 27.87600
C  24.51600 0.84200 24.94100
C  27.73500 2.53400 25.71500
C  28.90200 1.95900 24.88700
N  27.29200 1.26900 30.84600
C  28.36700 1.15200 29.97300
C  29.53400 1.13000 30.73200
C  29.14900 1.28600 32.09300
C  27.77600 1.36200 32.09600
C  30.91600 1.08700 30.20200
C  29.72600 1.47800 33.46400
O  30.85700 1.61400 33.84700
C  28.47700 1.65300 34.40400
C  28.43000 0.53200 35.37000
O  27.98400 -0.56600 35.12200
O  28.93900 0.93100 36.54800
C  28.90700 0.17100 37.78700
H  21.66900 1.77500 33.21800
H  22.79400 1.47800 26.72500
H  28.93200 1.15000 27.90700
H  25.50700 1.10400 35.61200
H  23.26900 2.86300 35.10900
H  22.19300 0.35700 34.91600
H  22.14100 1.61400 36.12700
H  23.43700 0.38600 36.18100
H  25.04900 4.11800 35.69700
H  26.70500 3.82900 35.29800
H  27.39600 3.48100 37.08700
H  26.27900 2.05500 37.36800
H  19.04000 2.82900 30.90500
H  19.67100 2.08600 32.22600
H  18.83100 1.07200 31.08200
H  18.45700 0.81700 28.80200
H  17.96000 1.79200 27.35000
H  18.35200 2.58600 28.84000
H  25.09200 2.76300 25.83400
H  27.01500 0.46900 25.89900
H  23.88900 0.06300 25.37600
H  25.28600 0.32200 24.37100
H  23.94400 1.44600 24.23700
H  28.21400 3.15500 26.47200
H  27.11200 3.21500 25.13500
H  28.98500 0.87300 24.90200
H  29.85800 2.38200 25.19600
H  28.79800 2.20100 23.83000
H  31.48800 1.55700 31.00200
H  31.09500 1.59000 29.25100
H  31.13200 0.02200 30.12000
H  28.53800 2.62700 34.88900
H  28.05200 0.47300 38.39100
H  29.78500 0.21400 38.43100
H  28.90000 -0.88200 37.50500
Mg 34.88100 3.68500 30.38300
C  32.76200 4.80500 32.91700
C  37.47000 3.87200 32.72200
C  37.02800 2.98200 28.03200
C  32.35500 4.02300 28.06700
N  34.98700 4.17800 32.56500
C  34.03100 4.57800 33.40200
C  34.47500 4.60400 34.81400
C  36.04900 4.58600 34.72300
C  36.18200 4.24500 33.24800
C  36.74700 5.90400 35.09400
C  33.88100 3.40000 35.56200
C  33.74500 3.51200 37.09400
H  34.32400 4.61900 37.94100
N  36.88700 3.24500 30.39600
C  37.74300 3.35600 31.44700
C  39.03400 2.82900 31.04700
C  38.96500 2.46800 29.68100
C  37.58900 2.94600 29.27600
C  40.30300 2.72800 31.91900
C  39.92300 1.71100 28.78500
O  39.62800 1.44700 27.60800
C  41.35300 1.46500 29.16200
N  34.71800 3.79100 28.34500
C  35.81900 3.42500 27.60600
C  35.46000 3.55700 26.05800
C  33.91600 3.66000 26.13400
C  33.61300 3.78800 27.59600
C  36.05600 4.83000 25.32200
C  33.23100 2.45100 25.39600
C  32.90600 1.18300 26.22600
N  32.92300 4.36500 30.45300
C  31.94400 4.38300 29.45300
C  30.59100 4.73200 30.05700
C  30.88500 4.93200 31.44200
C  32.31800 4.75300 31.62200
C  29.37100 4.96300 29.33200
C  30.35100 5.35000 32.67500
O  29.26700 5.72300 33.02600
C  31.48400 5.18500 33.69800
C  31.69900 6.38500 34.58400
O  32.39500 7.34500 34.32600
O  30.99600 6.22600 35.77600
C  30.75000 7.38600 36.60300
H  38.23300 4.10800 33.46800
H  37.71800 2.88100 27.19200
H  31.64100 4.18500 27.25600
H  34.09100 5.48200 35.33500
H  36.37700 3.79800 35.40100
H  37.24000 5.82400 36.06300
H  35.96400 6.65500 35.19100
H  37.42600 6.22400 34.30300
H  34.54500 2.53800 35.49500
H  32.94100 3.06300 35.12500
H  34.11200 2.59800 37.56100
H  32.67400 3.56000 37.29000
H  40.68600 1.72200 32.09300
H  40.21200 2.98000 32.97600
H  41.01000 3.34300 31.36100
H  41.82800 0.89900 28.36100
H  41.42800 0.79900 30.02100
H  41.85700 2.41700 29.32600
H  35.73400 2.73000 25.40300
H  33.58600 4.59800 25.68800
H  36.40500 5.61400 25.99300
H  35.32900 5.29000 24.65200
H  36.91400 4.42900 24.78300
H  33.84000 2.17100 24.53600
H  32.33000 2.83600 24.92000
H  31.83700 0.97000 26.23900
H  33.31100 1.16300 27.23800
H  33.40100 0.43300 25.60900
H  28.90100 5.70700 29.97600
H  28.74500 4.09500 29.12300
H  29.56300 5.36700 28.33800
H  31.18600 4.36000 34.34500
H  29.81000 7.13000 37.09200
H  30.62900 8.26800 35.97400
H  31.57300 7.52500 37.30300

