158

Mg 1.77500 -1.05300 43.97900
C  5.13100 -0.40200 43.59100
C  0.95900 1.95500 42.26000
C  -1.41400 -1.81000 43.94100
C  2.61400 -4.29400 44.87000
N  2.94500 0.61000 43.05000
C  4.30200 0.60900 43.05100
C  4.74000 1.85800 42.30600
C  3.42100 2.81200 42.23100
C  2.32200 1.80300 42.60800
C  3.39500 3.93100 43.32000
C  5.33300 1.46600 40.89700
C  6.23800 2.58500 40.33000
H  5.67900 3.29100 39.09700
N  -0.03400 -0.05300 43.35200
C  -0.11900 1.11400 42.63100
C  -1.47300 1.43400 42.29000
C  -2.29500 0.40500 42.77800
C  -1.30900 -0.52600 43.42200
C  -1.79700 2.72000 41.55000
C  -3.78500 0.26300 42.65200
O  -4.46100 1.07600 42.06300
C  -4.49800 -0.68800 43.57500
N  0.73500 -2.78000 44.23200
C  -0.59900 -2.83600 44.25400
C  -1.21300 -4.20100 44.78500
C  0.08600 -5.03700 45.11000
C  1.26100 -4.01300 44.68800
C  -2.24500 -4.09700 45.96100
C  0.31100 -6.39200 44.53900
C  1.00800 -7.46500 45.45400
N  3.47200 -2.10300 44.31400
C  3.67100 -3.38900 44.67800
C  5.10900 -3.69900 44.92600
C  5.72400 -2.52900 44.47400
C  4.68200 -1.62000 44.13300
C  5.69800 -4.96000 45.34000
C  6.98800 -1.83300 44.28300
O  8.11400 -2.21300 44.58900
C  6.64000 -0.44000 43.65400
C  7.16800 0.74000 44.47200
O  7.08000 0.91500 45.67700
O  7.71100 1.72600 43.66600
C  8.53300 2.80600 44.35600
H  0.70100 2.87100 41.72400
H  -2.45400 -2.14200 43.90100
H  2.90900 -5.27900 45.23800
H  5.58800 2.27600 42.84800
H  3.26800 3.18600 41.21900
H  4.29700 3.98100 43.92900
H  2.53300 3.79200 43.97300
H  3.34300 4.88400 42.79300
H  4.48900 1.20800 40.25800
H  5.89900 0.53800 40.97100
H  7.26300 2.25900 40.15300
H  6.31000 3.35700 41.09600
H  -1.16400 2.81900 40.66800
H  -1.54600 3.59000 42.15700
H  -2.87000 2.84700 41.40600
H  -5.54400 -0.39900 43.67100
H  -4.05100 -0.71400 44.56900
H  -4.36000 -1.61600 43.02000
H  -1.80500 -4.64100 43.98300
H  0.17400 -5.12400 46.19300
H  -1.99100 -4.81800 46.73800
H  -3.25000 -4.16900 45.54500
H  -2.25300 -3.11300 46.43100
H  0.90300 -6.31700 43.62600
H  -0.68200 -6.71600 44.22900
H  0.37100 -8.35000 45.43700
H  1.17000 -7.26400 46.51300
H  2.00300 -7.72800 45.09600
H  6.67000 -4.86000 45.82300
H  5.89000 -5.52500 44.42700
H  5.07200 -5.63500 45.92200
H  7.18100 -0.32600 42.71400
H  8.31900 3.78600 43.93000
H  9.60700 2.67500 44.22000
H  8.30800 2.97900 45.40800
Mg 16.53900 51.39000 24.89700
C  18.05200 50.42000 27.88600
C  13.76600 52.37300 26.70800
C  14.99700 51.96100 21.98900
C  19.45500 50.40300 23.22500
N  16.03400 51.44100 27.02000
C  16.84900 51.04100 28.04600
C  16.19500 51.37800 29.42100
C  14.79000 51.92100 29.02800
C  14.86300 51.93200 27.50900
C  13.52300 51.13900 29.50900
C  17.16900 52.34800 30.27200
C  17.52500 51.87400 31.65400
H  16.39300 51.21700 32.51000
N  14.68100 52.19000 24.42500
C  13.61400 52.45700 25.31200
C  12.48900 52.88200 24.56300
C  12.83000 52.72200 23.15800
C  14.25400 52.31600 23.15500
C  11.20900 53.39500 25.19100
C  12.06100 53.02800 21.97000
O  12.45800 52.91500 20.78900
C  10.82200 53.79100 22.18200
N  17.10000 51.02700 22.90400
C  16.22800 51.41700 21.86500
C  16.90100 51.15800 20.51500
C  18.34700 50.80900 20.91300
C  18.36600 50.88000 22.45900
C  16.15300 49.98200 19.74100
C  19.47500 51.62500 20.22400
C  20.03200 50.98900 18.88600
N  18.33300 50.43800 25.35000
C  19.42700 50.11400 24.57300
C  20.49700 49.51000 25.42300
C  19.98500 49.66000 26.71700
C  18.71200 50.23200 26.64400
C  21.66900 48.77400 24.92700
C  20.35200 49.49700 28.11100
O  21.33500 49.05500 28.65600
C  19.09400 49.92000 28.93800
C  18.63000 48.71800 29.64800
O  17.92400 47.80500 29.13400
O  19.10200 48.83500 30.93600
C  18.87700 47.68200 31.76300
H  12.99800 52.83300 27.33400
H  14.51300 52.07400 21.01600
H  20.31400 50.06300 22.64200
H  16.19800 50.38000 29.85900
H  14.68600 52.94900 29.37300
H  12.95800 50.70100 28.68600
H  12.78700 51.74800 30.03300
H  13.82900 50.37300 30.22100
H  16.66300 53.30200 30.42300
H  18.13800 52.52400 29.80600
H  17.87700 52.76700 32.17100
H  18.35400 51.17400 31.55300
H  11.17300 53.10200 26.24000
H  10.27100 52.96800 24.83800
H  11.18500 54.47700 25.31200
H  9.94700 53.32600 22.63600
H  10.44500 54.03000 21.18700
H  11.12600 54.69900 22.70100
H  16.88300 52.03200 19.86500
H  18.55200 49.79500 20.57000
H  15.23300 49.59900 20.18200
H  16.80500 49.12900 19.55600
H  16.03600 50.41100 18.74600
H  20.14700 52.07900 20.95200
H  19.06100 52.56700 19.86400
H  19.63800 51.50200 18.00900
H  19.81200 49.92400 18.81200
H  21.11500 51.11000 18.86400
H  21.46900 47.78400 25.33900
H  22.53900 49.36600 25.21000
H  21.62000 48.65200 23.84500
H  19.42100 50.67200 29.65600
H  19.62800 47.69400 32.55300
H  18.89400 46.74500 31.20600
H  17.87600 47.79900 32.17900

