158

Mg 35.57500 49.44600 25.75600
C  36.07100 47.54000 28.56000
C  34.08600 51.81900 27.86300
C  34.43400 51.04800 23.08000
C  36.27900 46.64300 23.85400
N  34.96000 49.53400 27.91800
C  35.48200 48.77700 28.86200
C  35.31500 49.31100 30.25700
C  34.43600 50.54500 30.03500
C  34.51400 50.69200 28.55000
C  33.03500 50.51200 30.67900
C  36.68300 49.54800 31.02400
C  36.79200 49.04000 32.46200
H  36.77100 50.11400 33.58500
N  34.59200 51.25800 25.49700
C  34.09800 52.09100 26.49600
C  33.52900 53.31100 25.85200
C  33.62200 53.09900 24.42800
C  34.25100 51.75700 24.26300
C  33.11800 54.52500 26.72600
C  33.36800 54.04700 23.23700
O  33.51000 53.82400 22.05200
C  32.88900 55.49100 23.65300
N  35.44000 48.99300 23.77200
C  35.00600 49.77800 22.81700
C  35.13900 49.21500 21.41800
C  35.85600 47.85100 21.69800
C  35.87700 47.79200 23.19600
C  33.92200 49.01400 20.58100
C  37.32400 47.58400 21.16400
C  37.56600 46.32400 20.42400
N  36.22900 47.52800 26.06000
C  36.46200 46.49500 25.20600
C  36.86600 45.33900 25.96400
C  36.86600 45.72200 27.31800
C  36.37400 47.07100 27.31100
C  37.28000 43.98200 25.42900
C  37.14400 45.28100 28.66100
O  37.59300 44.24200 29.02700
C  36.62400 46.46200 29.59000
C  35.65200 45.97200 30.53100
O  34.49000 45.80000 30.22900
O  36.18400 45.74800 31.76500
C  35.22700 45.50800 32.84200
H  33.56900 52.45400 28.58600
H  34.06000 51.54300 22.18100
H  36.66100 45.81100 23.25900
H  34.70500 48.61900 30.83600
H  35.03400 51.33900 30.48000
H  32.83800 49.57600 31.20100
H  32.18500 50.42000 30.00300
H  32.84800 51.41300 31.26300
H  36.88300 50.61800 31.07800
H  37.49600 49.17900 30.39800
H  37.80200 48.63100 32.48600
H  36.05500 48.28300 32.73500
H  32.05800 54.54500 26.98100
H  33.44800 55.47400 26.30400
H  33.70500 54.51000 27.64400
H  32.49100 56.12800 22.86300
H  33.79200 55.99900 23.99400
H  32.20200 55.41100 24.49500
H  35.74800 49.93800 20.87600
H  35.16600 47.07000 21.38100
H  33.89600 49.90200 19.94900
H  32.97100 49.16900 21.09100
H  34.06600 48.14900 19.93300
H  37.99500 47.65700 22.02100
H  37.65300 48.42400 20.55300
H  38.48600 46.44600 19.85300
H  36.69500 46.20700 19.77800
H  37.69700 45.46300 21.07900
H  37.69900 44.21300 24.45000
H  36.43000 43.30300 25.36200
H  38.05300 43.58400 26.08600
H  37.53200 46.75900 30.11400
H  35.58500 45.96500 33.76500
H  35.10600 44.43200 32.96900
H  34.23700 45.91300 32.63300
Mg 6.29500 54.90900 41.19400
C  6.13000 51.39900 40.97200
C  9.52500 54.82200 40.01400
C  6.34000 58.21900 41.10200
C  3.13100 54.85400 42.68600
N  7.57200 53.27800 40.35300
C  7.34600 51.94500 40.46800
C  8.55800 51.14900 40.10800
C  9.72400 52.24500 40.06100
C  8.93300 53.53100 40.19300
C  10.93900 52.13700 41.07500
C  8.37100 50.23100 38.81300
C  7.55700 50.80400 37.58800
H  8.13900 50.98400 36.19200
N  7.63500 56.27900 40.45600
C  8.91800 56.08100 40.06600
C  9.53000 57.33800 39.70000
C  8.64000 58.39300 39.96700
C  7.47000 57.64800 40.54300
C  10.92200 57.40900 39.14700
C  8.84600 59.82000 39.68300
O  9.86700 60.17700 39.16700
C  7.71700 60.82000 39.70500
N  4.81300 56.31800 41.65600
C  5.20200 57.63400 41.70600
C  4.11600 58.53100 42.25500
C  3.08500 57.43000 42.73600
C  3.72000 56.13000 42.39600
C  4.54700 59.46400 43.39200
C  1.77300 57.44800 41.98800
C  0.96400 58.75200 42.23100
N  4.79300 53.41300 41.58400
C  3.61400 53.51900 42.32000
C  3.14000 52.19500 42.66400
C  4.11100 51.35400 42.10100
C  5.10400 52.14500 41.41600
C  1.78900 51.95700 43.47100
C  4.50800 49.93900 42.05100
O  4.05800 48.82900 42.45500
C  5.80100 49.93500 41.29500
C  5.57700 49.00000 40.04400
O  5.02000 49.39200 39.03100
O  5.95400 47.67700 40.27700
C  5.60400 46.81000 39.17700
H  10.58100 54.57200 39.88700
H  6.40400 59.30700 41.03800
H  2.14800 54.71500 43.14200
H  8.80700 50.58900 41.00900
H  10.13400 52.34400 39.05600
H  11.08100 53.00900 41.71500
H  11.90000 51.97000 40.58900
H  10.65100 51.28900 41.69600
H  7.90800 49.26000 38.98900
H  9.36400 50.06200 38.39600
H  7.20900 51.82300 37.75600
H  6.59000 50.31700 37.46000
H  11.29400 56.43300 38.83500
H  11.49500 57.81600 39.98000
H  11.01700 57.93200 38.19500
H  7.86600 61.60000 38.95900
H  7.62600 61.21500 40.71700
H  6.79900 60.32500 39.38700
H  3.76600 59.02400 41.34800
H  2.88500 57.26700 43.79500
H  4.65100 59.07900 44.40600
H  3.81700 60.27200 43.33400
H  5.43800 60.03200 43.12500
H  1.19900 56.60100 42.36300
H  1.95500 57.18100 40.94700
H  0.10400 58.35600 42.77000
H  0.67300 59.32800 41.35300
H  1.38400 59.47200 42.93300
H  0.92100 52.39000 42.97600
H  2.01000 52.47900 44.40200
H  1.66400 50.89200 43.67000
H  6.56900 49.43000 41.88000
H  6.01000 47.21700 38.25000
H  4.52300 46.68900 39.10300
H  6.05200 45.81600 39.18400

