158

Mg 48.43200 34.76800 26.42600
C  46.53400 33.32100 28.92500
C  48.86100 37.59200 28.23400
C  49.28200 36.45500 23.57000
C  47.49000 31.96100 24.21800
N  47.67800 35.39100 28.24600
C  47.08600 34.60400 29.18300
C  47.27300 35.27100 30.52300
C  47.44000 36.76600 30.18700
C  48.07600 36.61500 28.75500
C  46.15900 37.62500 30.18600
C  48.55500 34.68600 31.28300
C  48.44900 34.44500 32.78600
H  47.49000 35.26300 33.66700
N  49.16000 36.65700 25.97700
C  49.34100 37.65700 26.90300
C  50.11500 38.72200 26.30000
C  50.15600 38.45000 24.89800
C  49.55000 37.13100 24.75400
C  50.70600 39.84200 27.20400
C  50.92100 39.16700 23.78800
O  50.85600 38.82900 22.60300
C  51.66700 40.38500 24.11800
N  48.48900 34.24600 24.23700
C  48.76700 35.21300 23.28900
C  48.68100 34.60600 21.85700
C  48.34700 33.10300 22.20800
C  48.13500 33.07400 23.70300
C  47.68600 35.38200 20.90000
C  49.49100 32.23100 21.69900
C  49.29100 31.83300 20.28200
N  47.29400 32.89400 26.54400
C  46.97800 31.93400 25.62000
C  46.17600 30.90300 26.34800
C  46.01700 31.41100 27.63600
C  46.62000 32.62300 27.69400
C  45.65000 29.67400 25.78300
C  45.43800 31.22300 28.94200
O  44.76400 30.26700 29.33700
C  45.60400 32.46000 29.82600
C  46.15300 32.04300 31.12300
O  47.24700 31.63200 31.38500
O  45.20800 32.11700 32.14400
C  45.58600 31.53200 33.49100
H  48.94100 38.51200 28.81600
H  49.72900 36.96900 22.71600
H  47.28300 31.20900 23.45500
H  46.47900 35.17200 31.26400
H  48.09000 37.26300 30.90700
H  45.91300 37.97100 29.18200
H  46.37200 38.53400 30.74800
H  45.36300 37.07100 30.68500
H  49.42700 35.31000 31.08500
H  48.71400 33.70300 30.83900
H  49.45300 34.55900 33.19400
H  48.10900 33.42000 32.93400
H  51.78400 39.93600 27.07500
H  50.51900 39.60000 28.25000
H  50.29500 40.78800 26.85300
H  50.97000 41.22100 24.18200
H  52.26300 40.64400 23.24300
H  52.41900 40.23400 24.89200
H  49.59700 34.57000 21.26800
H  47.37400 32.86100 21.77900
H  46.78500 34.81400 20.66900
H  48.26000 35.56200 19.99100
H  47.28700 36.24100 21.43900
H  49.67600 31.40100 22.38100
H  50.45700 32.73000 21.77300
H  49.89300 32.49300 19.65800
H  48.25000 31.88400 19.96200
H  49.68100 30.82300 20.16200
H  46.43600 29.19600 25.19700
H  44.80100 29.77300 25.10700
H  45.29600 29.10600 26.64400
H  44.66700 32.95600 30.07900
H  46.64900 31.37800 33.67800
H  44.95900 30.67900 33.75000
H  45.35800 32.21600 34.30800
Mg 9.01700 48.93800 25.88200
C  6.97300 49.05500 28.80100
C  11.76300 49.48400 27.81600
C  10.79700 48.18100 23.16400
C  6.10700 48.38300 23.91600
N  9.28200 49.32800 28.02700
C  8.37500 49.20800 29.08800
C  9.07300 49.19700 30.47100
C  10.50400 49.69200 30.06300
C  10.54600 49.47900 28.48800
C  10.67300 51.19400 30.41100
C  9.11000 47.89700 31.41100
C  8.45400 48.14900 32.80500
H  8.62000 47.06100 33.89500
N  11.04800 48.85800 25.58300
C  12.02900 49.19500 26.46300
C  13.30100 49.14000 25.74300
C  13.05700 48.65900 24.45500
C  11.56300 48.61200 24.33100
C  14.62000 49.41000 26.44900
C  13.96800 48.42900 23.32900
O  13.65000 48.06300 22.23400
C  15.40800 48.62600 23.59400
N  8.50200 48.34100 23.87900
C  9.41200 48.05600 22.92800
C  8.83200 47.78800 21.62700
C  7.33200 47.87300 21.88400
C  7.32100 48.27300 23.31000
C  9.17500 48.74300 20.40700
C  6.51700 46.54900 21.60200
C  5.48400 46.84400 20.54700
N  6.84000 48.77600 26.16100
C  5.79300 48.56700 25.28500
C  4.54600 48.57000 26.10300
C  5.00000 48.74500 27.46900
C  6.39300 48.86000 27.50100
C  3.19200 48.38900 25.45800
C  4.54100 48.81800 28.85300
O  3.39000 48.77300 29.27700
C  5.81100 48.92200 29.78400
C  5.85000 47.58900 30.44600
O  6.42300 46.55400 30.12000
O  5.08700 47.69200 31.55400
C  4.96300 46.47000 32.37600
H  12.64800 49.62300 28.43900
H  11.36900 48.02500 22.24700
H  5.34500 48.26000 23.14300
H  8.52000 49.90900 31.08200
H  11.22000 48.97500 30.46400
H  10.95300 51.80400 29.55100
H  11.45400 51.23800 31.17000
H  9.76600 51.59600 30.86100
H  10.11700 47.53200 31.61200
H  8.60000 47.06400 30.92900
H  7.44600 48.51600 32.61800
H  9.00800 49.00400 33.19100
H  14.53600 49.78100 27.47000
H  15.21200 50.24000 26.06400
H  15.17800 48.47500 26.50300
H  15.75900 47.98300 24.40200
H  15.56100 49.66500 23.88400
H  16.07100 48.39700 22.76000
H  9.11100 46.78600 21.30200
H  6.76900 48.72900 21.51200
H  8.36600 49.33400 19.97600
H  9.71900 48.15500 19.66700
H  9.87400 49.50000 20.76300
H  6.19400 46.03300 22.50600
H  7.19500 45.81300 21.17100
H  4.70000 46.18700 20.92200
H  5.75300 46.64700 19.50900
H  5.01400 47.82700 20.57000
H  2.82700 49.22800 24.86500
H  2.49100 48.17900 26.26500
H  3.17500 47.53700 24.77800
H  5.61600 49.69700 30.52600
H  5.88300 45.89000 32.29700
H  4.16400 45.82100 32.01800
H  4.73800 46.64200 33.42800

