158

Mg 40.64100 9.15600 29.17200
C  42.80300 10.68800 31.50500
C  38.66300 7.95000 31.69100
C  38.82500 7.58100 26.77800
C  42.88100 10.31200 26.64800
N  40.92800 9.05400 31.41100
C  41.66100 10.01600 32.08800
C  41.12600 10.21100 33.46200
C  39.97600 9.14500 33.54800
C  39.81300 8.66100 32.09600
C  40.19400 7.98300 34.55100
C  40.65400 11.65300 33.87300
C  39.99500 11.80500 35.29000
H  40.82100 12.64100 36.33700
N  39.02500 7.77000 29.25900
C  38.23600 7.53900 30.37300
C  37.10600 6.75500 29.96300
C  37.20000 6.69000 28.48600
C  38.40000 7.34000 28.11500
C  36.03600 6.11200 30.89900
C  36.19500 6.16600 27.42400
O  36.49800 5.80100 26.29900
C  34.75400 5.86300 27.86200
N  40.96400 8.84500 27.12900
C  39.91800 8.33200 26.35100
C  40.18600 8.65000 24.81400
C  41.52400 9.41100 24.82700
C  41.83000 9.55300 26.25600
C  40.04300 7.36900 23.98400
C  41.47800 10.69400 23.91800
C  40.86400 11.91000 24.61800
N  42.48800 10.27400 29.03600
C  43.23600 10.68500 27.96200
C  44.29900 11.50200 28.40300
C  44.15800 11.48700 29.77200
C  43.09100 10.72500 30.10100
C  45.37900 12.17700 27.50200
C  44.79800 12.02600 30.92100
O  45.79100 12.74400 30.97600
C  43.85200 11.63100 32.18200
C  44.49200 11.12400 33.30600
O  44.95100 9.97700 33.48400
O  44.47300 12.08400 34.34200
C  45.13700 11.54100 35.53300
H  38.03500 7.81200 32.57400
H  38.22300 7.17300 25.96300
H  43.44800 10.79600 25.85000
H  41.95000 9.95000 34.12500
H  39.03500 9.62000 33.82400
H  41.25900 7.84800 34.73800
H  39.74300 6.99900 34.42900
H  39.73400 8.31300 35.48300
H  39.91200 11.99300 33.15000
H  41.52900 12.29600 33.77500
H  39.86600 10.80700 35.71000
H  38.98300 12.20000 35.20700
H  36.38900 5.84300 31.89500
H  35.52900 5.27200 30.42500
H  35.24100 6.85600 30.95300
H  34.52300 6.60400 28.62800
H  34.78600 4.83800 28.23300
H  34.04800 5.96000 27.03800
H  39.46200 9.36600 24.42200
H  42.21400 8.65500 24.45200
H  39.00600 7.24200 23.67300
H  40.51100 6.59200 24.58900
H  40.63500 7.49600 23.07800
H  40.91500 10.55900 22.99400
H  42.53300 10.86400 23.70300
H  41.50300 12.79300 24.60600
H  40.76900 11.71100 25.68500
H  39.95000 12.26700 24.14400
H  44.95700 12.65400 26.61800
H  46.17500 11.48700 27.21900
H  45.87900 12.99200 28.02700
H  43.27500 12.51000 32.47000
H  46.18400 11.26800 35.40100
H  44.59900 10.65600 35.87300
H  45.21000 12.20900 36.39200
Mg 49.70000 46.39000 43.34300
C  46.57700 47.20500 42.39500
C  49.44200 43.29500 41.73700
C  53.05800 45.86900 43.82100
C  50.21400 49.72600 44.42200
N  48.19100 45.47300 42.11700
C  47.00600 45.99300 41.89000
C  46.11800 45.09200 40.93700
C  46.98500 43.75200 40.94000
C  48.24500 44.13400 41.66700
C  46.28100 42.60700 41.76600
C  45.84300 45.69400 39.54500
C  44.41500 45.32000 38.93000
H  44.46500 44.27700 37.77200
N  51.08500 44.68700 42.93600
C  50.73900 43.53900 42.25700
C  51.80300 42.58800 42.32400
C  52.89200 43.23500 43.05800
C  52.36900 44.66900 43.33600
C  51.76500 41.29000 41.69600
C  54.24100 42.61800 43.36400
O  54.51100 41.47800 43.04000
C  55.27600 43.41400 44.02200
N  51.34200 47.61200 44.02500
C  52.63700 47.15800 44.16700
C  53.61500 48.26400 44.60000
C  52.63600 49.38300 45.02000
C  51.28700 48.87900 44.42500
C  54.64600 47.79300 45.76400
C  53.06000 50.80300 44.49700
C  52.71500 52.02000 45.37900
N  48.57100 48.10600 43.61100
C  48.85900 49.37300 44.05700
C  47.68200 50.20200 43.95700
C  46.75500 49.38900 43.36400
C  47.33300 48.11300 43.10800
C  47.43800 51.60500 44.50000
C  45.33700 49.27000 43.06200
O  44.39500 50.00500 43.32900
C  45.21300 47.86300 42.31300
C  44.13600 47.09800 42.90100
O  43.94900 46.92400 44.12000
O  43.31000 46.70700 41.91200
C  42.12100 46.04100 42.25200
H  49.38300 42.30000 41.29100
H  54.04100 45.65700 44.24500
H  50.40200 50.75100 44.74800
H  45.15900 44.83700 41.38900
H  47.21900 43.33300 39.96100
H  46.29900 41.71600 41.14000
H  45.25600 42.92300 41.95700
H  46.65700 42.38700 42.76500
H  46.67100 45.43900 38.88400
H  45.84200 46.77400 39.69200
H  43.91900 46.25300 38.66300
H  43.80400 44.90100 39.73000
H  52.64400 41.14400 41.06800
H  50.92300 41.06900 41.04100
H  51.74400 40.50500 42.45200
H  56.04500 42.71700 44.35400
H  54.74700 43.79500 44.89500
H  55.59700 44.24200 43.39000
H  54.14000 48.54500 43.68700
H  52.61300 49.41400 46.10900
H  54.65100 46.76300 46.12100
H  54.54400 48.46000 46.61900
H  55.65700 47.95100 45.38900
H  52.41100 50.85000 43.62200
H  54.12200 50.85400 44.25700
H  52.32900 51.67000 46.33700
H  51.92400 52.56000 44.85900
H  53.63500 52.58400 45.52600
H  47.77600 52.28200 43.71500
H  47.97000 51.71600 45.44600
H  46.41000 51.84700 44.76700
H  45.00600 48.25200 41.31600
H  42.29000 44.96500 42.29800
H  41.29000 46.09500 41.54800
H  41.60700 46.37500 43.15400

