158

Mg 40.68700 10.01900 30.24900
C  42.58100 11.39200 32.98500
C  38.68300 8.50600 32.50000
C  39.09400 8.74900 27.65800
C  43.33700 11.03400 28.13700
N  40.56600 10.07400 32.49900
C  41.40000 10.64900 33.39300
C  40.96300 10.37900 34.83900
C  39.76200 9.38500 34.65200
C  39.73600 9.25200 33.13100
C  39.84900 8.03900 35.43200
C  40.62400 11.62100 35.74000
C  41.62200 11.88000 36.88500
H  41.15300 12.34800 38.26400
N  39.13800 8.70200 30.03700
C  38.40600 8.25300 31.10100
C  37.25700 7.51700 30.54500
C  37.36900 7.56400 29.12800
C  38.56700 8.42600 28.88700
C  36.28500 6.68100 31.35700
C  36.39300 7.06900 28.02100
O  36.65400 7.17900 26.78800
C  35.04800 6.29600 28.41200
N  41.21800 9.83300 28.14400
C  40.36100 9.25500 27.31500
C  40.81400 9.33700 25.83300
C  42.26600 9.99700 25.98400
C  42.24900 10.38000 27.49500
C  40.76700 7.95800 25.11200
C  42.46400 11.29700 25.17100
C  43.90100 11.40200 24.62800
N  42.44000 11.22400 30.40500
C  43.43500 11.46700 29.47700
C  44.55800 12.15900 30.15200
C  44.19300 12.23500 31.52200
C  42.94700 11.52900 31.61000
C  45.82800 12.72600 29.57400
C  44.69100 12.66400 32.79900
O  45.73800 13.27700 32.99700
C  43.57800 12.16800 33.81300
C  44.36700 11.25000 34.73300
O  44.68400 10.09400 34.47300
O  44.66700 11.94100 35.94700
C  45.37600 11.15900 36.95300
H  38.04100 7.97900 33.20900
H  38.53000 8.48800 26.76000
H  44.17500 11.27900 27.48100
H  41.79100 9.83700 35.29500
H  38.88500 9.92700 35.00800
H  40.76100 7.94900 36.02200
H  39.62500 7.10700 34.91200
H  39.05300 8.24900 36.14600
H  39.66400 11.45300 36.22900
H  40.71400 12.44800 35.03500
H  42.35800 12.58900 36.50700
H  42.17100 10.94800 37.02300
H  36.46500 6.67300 32.43200
H  36.26400 5.70300 30.87600
H  35.28000 7.07800 31.21800
H  34.57200 6.76600 29.27300
H  35.36600 5.28700 28.67400
H  34.42600 6.11700 27.53400
H  40.05000 9.94200 25.34400
H  43.09300 9.28800 25.97100
H  39.90900 7.86700 24.44600
H  40.49200 7.20100 25.84700
H  41.73600 7.66900 24.70400
H  42.50100 12.19400 25.78900
H  41.81200 11.43700 24.30900
H  44.57000 10.54500 24.54300
H  44.44500 12.07700 25.28800
H  44.00300 11.91700 23.67300
H  46.02700 12.49400 28.52800
H  46.67600 12.45900 30.20400
H  45.78100 13.81500 29.57100
H  43.09800 13.03200 34.27200
H  46.03000 10.41600 36.49600
H  44.72900 10.68700 37.69200
H  46.01200 11.90000 37.43700
Mg 47.07600 25.62500 28.56100
C  48.29900 27.65500 31.20800
C  45.80600 23.55800 30.88400
C  46.18000 23.58500 26.07400
C  48.72900 27.78900 26.36600
N  47.07600 25.72000 30.82500
C  47.50600 26.58800 31.65300
C  46.98200 26.33900 33.14300
C  46.37900 24.96900 32.94800
C  46.46000 24.69700 31.42800
C  47.22200 23.83800 33.59600
C  46.02300 27.47100 33.66800
C  46.51100 28.23600 34.89600
H  45.48900 28.34600 36.03800
N  46.05000 23.87800 28.44500
C  45.65300 23.16100 29.54200
C  44.95600 22.01400 29.05400
C  44.98400 21.97200 27.61300
C  45.79600 23.16600 27.32000
C  44.31000 20.95700 29.93600
C  44.31800 21.03400 26.56100
O  44.30100 21.34200 25.38200
C  43.55700 19.83500 27.09000
N  47.21300 25.80800 26.52100
C  46.80400 24.76400 25.62900
C  47.40500 24.91900 24.20100
C  48.04700 26.36500 24.38700
C  47.96700 26.74700 25.80800
C  48.44800 23.86000 23.94700
C  47.46600 27.53900 23.44400
C  48.41900 28.21100 22.41600
N  48.30900 27.46700 28.69000
C  48.84700 28.25200 27.69200
C  49.45900 29.41200 28.31600
C  49.26500 29.20400 29.69000
C  48.64100 27.94700 29.82500
C  50.08500 30.63100 27.62400
C  49.54400 29.74300 30.99800
O  50.15900 30.74200 31.30800
C  48.88000 28.78800 32.01300
C  49.93200 28.35000 33.10300
O  50.58300 27.31200 32.97300
O  49.96800 29.22400 34.19600
C  50.94400 28.86100 35.22800
H  45.33000 22.95500 31.66100
H  46.12100 22.92300 25.20700
H  49.16500 28.49000 25.65100
H  47.78700 26.18300 33.86100
H  45.33700 24.85100 33.24300
H  47.54300 24.08800 34.60700
H  48.09800 23.71400 32.95800
H  46.65400 22.91100 33.67200
H  45.06500 26.99400 33.87700
H  45.89800 28.20500 32.87200
H  46.61100 29.27800 34.59000
H  47.47400 27.91200 35.29000
H  43.25600 20.80100 29.70300
H  44.56400 21.05800 30.99100
H  44.79400 20.00900 29.70100
H  44.20500 19.17300 27.66400
H  43.28800 19.26000 26.20300
H  42.64300 20.23200 27.53100
H  46.58200 24.80200 23.49700
H  49.12300 26.35700 24.21700
H  48.10700 22.94900 23.45500
H  48.85300 23.54700 24.91000
H  49.28000 24.19900 23.33000
H  46.97600 28.28100 24.07300
H  46.65100 27.10100 22.86800
H  48.18700 29.27500 22.46600
H  48.15800 27.77600 21.45100
H  49.48500 28.16900 22.64100
H  49.57000 30.80400 26.67900
H  51.13800 30.36500 27.53200
H  49.92100 31.54100 28.20200
H  48.12100 29.42700 32.46500
H  51.06000 29.65600 35.96500
H  51.93700 28.64800 34.83300
H  50.56500 28.01000 35.79500

