158

Mg 28.16000 56.41500 40.28300
C  25.97300 53.84300 39.60200
C  30.91300 54.43300 39.46600
C  30.16400 59.09100 40.42100
C  25.29500 58.49400 40.50800
N  28.33200 54.45000 39.55300
C  27.30400 53.57200 39.32700
C  27.80700 52.26300 38.67200
C  29.37400 52.34700 38.93300
C  29.58300 53.88100 39.39700
C  29.93000 51.32000 39.90600
C  27.46700 52.12500 37.14800
C  26.89800 53.36600 36.39000
H  26.76600 53.21700 34.82900
N  30.26200 56.73000 40.09200
C  31.21200 55.81200 39.77200
C  32.51700 56.45400 39.83200
C  32.38600 57.79000 40.21800
C  30.89500 57.96800 40.31700
C  33.74500 55.64300 39.60500
C  33.54100 58.74200 40.41000
O  34.74000 58.50000 40.28900
C  33.21100 60.04500 40.94800
N  27.75800 58.51600 40.34200
C  28.76600 59.40300 40.52000
C  28.21400 60.83000 40.87600
C  26.70300 60.66300 40.64200
C  26.54600 59.14700 40.56000
C  28.69200 61.30500 42.29500
C  26.10900 61.53100 39.55600
C  26.14400 63.05300 39.83900
N  26.06500 56.23200 40.16400
C  25.04000 57.17000 40.29500
C  23.72300 56.52200 40.13800
C  23.99900 55.19100 39.86100
C  25.45800 55.07800 39.89800
C  22.36900 57.17500 40.06800
C  23.47300 53.85100 39.66300
O  22.31400 53.41700 39.57900
C  24.78100 52.92400 39.50200
C  24.74900 51.83800 40.57300
O  24.13300 50.81300 40.45300
O  25.45400 52.18800 41.68200
C  25.37300 51.32300 42.87500
H  31.78700 53.81000 39.26800
H  30.71500 60.02600 40.53500
H  24.45000 59.16600 40.67100
H  27.38900 51.39200 39.17500
H  29.80700 52.19900 37.94400
H  29.09100 50.83600 40.40700
H  30.46600 51.78400 40.73400
H  30.45500 50.52400 39.37700
H  26.66200 51.39000 37.16800
H  28.36200 51.67100 36.72300
H  27.45000 54.25300 36.70000
H  25.88600 53.51500 36.76600
H  33.57100 55.06900 38.69500
H  33.68600 54.96300 40.45500
H  34.67000 56.21100 39.50600
H  32.62000 60.03900 41.86400
H  32.64000 60.52800 40.15500
H  34.06400 60.71100 41.07400
H  28.62200 61.47000 40.09400
H  26.11700 60.95400 41.51300
H  29.76900 61.42800 42.41300
H  28.41200 60.59200 43.07100
H  28.18200 62.23600 42.54000
H  25.16800 61.11800 39.19400
H  26.72400 61.28700 38.69000
H  26.60400 63.32500 40.78800
H  25.11900 63.42600 39.84000
H  26.74000 63.61500 39.12000
H  21.61400 56.66900 39.46500
H  22.54100 58.13800 39.58700
H  21.93900 57.23200 41.06800
H  24.95800 52.44000 38.54100
H  25.99000 50.47000 42.59200
H  24.41100 50.86100 43.09700
H  25.64200 51.82300 43.80500
Mg 9.71800 48.69500 25.32700
C  7.49700 49.45300 27.92700
C  12.20000 50.07000 27.37700
C  11.71300 47.77900 23.04600
C  6.97800 47.80300 23.45100
N  9.82700 49.59700 27.46300
C  8.82600 49.78300 28.31300
C  9.28400 50.36700 29.59500
C  10.51300 51.19800 29.08300
C  10.91300 50.24800 27.89000
C  10.26800 52.62900 28.58700
C  9.67900 49.18600 30.64100
C  9.47900 49.52800 32.08100
H  9.00000 48.37600 33.01400
N  11.66200 48.90200 25.24300
C  12.58300 49.33000 26.18100
C  13.91800 49.06700 25.73700
C  13.83600 48.45800 24.44700
C  12.34900 48.31900 24.22600
C  15.15000 49.65800 26.38500
C  14.90800 47.91100 23.51800
O  14.63400 47.35700 22.46400
C  16.34300 47.94900 23.91200
N  9.33600 48.09700 23.35200
C  10.40600 47.66300 22.58700
C  10.01100 46.95300 21.28100
C  8.43600 47.14800 21.31800
C  8.20100 47.67600 22.80200
C  10.66200 47.48700 19.98400
C  7.60600 45.89500 21.02100
C  6.34000 46.06700 20.21000
N  7.57900 48.72100 25.49400
C  6.60300 48.21000 24.72300
C  5.34400 48.17000 25.40800
C  5.65800 48.64100 26.68500
C  7.01400 48.93300 26.68300
C  3.96600 47.75800 24.83800
C  5.05300 49.03300 27.92000
O  3.92100 48.93000 28.27900
C  6.27100 49.48000 28.81000
C  6.28600 48.78900 30.06800
O  6.67500 47.66000 30.24500
O  5.73900 49.60700 31.04800
C  5.47500 48.92400 32.34300
H  12.94600 50.56700 28.00100
H  12.38400 47.27800 22.34500
H  6.19500 47.29000 22.88900
H  8.48600 51.03700 29.91500
H  11.33000 51.12000 29.80100
H  9.19600 52.82200 28.56300
H  10.70800 52.67800 27.59100
H  10.73700 53.40200 29.19500
H  10.69700 48.81100 30.54300
H  9.12000 48.31400 30.30100
H  8.89800 50.43900 32.22300
H  10.45300 49.86000 32.44100
H  15.68000 48.76400 26.71200
H  14.98700 50.38600 27.18000
H  15.78400 50.18200 25.67000
H  16.85800 48.90700 23.98400
H  16.85800 47.45900 23.08500
H  16.43200 47.34400 24.81500
H  10.21400 45.90500 21.49900
H  8.15000 47.99100 20.69100
H  10.36800 46.77900 19.20800
H  11.71800 47.43700 20.24800
H  10.28900 48.49500 19.80400
H  7.32200 45.40400 21.95200
H  8.18400 45.13100 20.50200
H  6.49700 45.58300 19.24600
H  6.15600 47.14000 20.14900
H  5.40900 45.68100 20.62400
H  4.02800 46.67900 24.69500
H  3.76300 48.39400 23.97600
H  3.23100 47.90700 25.62900
H  6.16300 50.53600 29.05900
H  5.59100 47.84300 32.42800
H  4.47700 49.20200 32.68200
H  6.02200 49.39500 33.15900

