158

Mg 15.66500 51.93800 24.67100
C  17.40300 50.70600 27.48300
C  12.95000 52.37500 26.78400
C  14.04300 52.51800 21.98800
C  18.53600 51.00200 22.72300
N  15.21200 51.65900 26.88200
C  16.11600 51.17000 27.78900
C  15.66700 51.44400 29.22300
C  14.16000 51.88200 29.03100
C  14.05400 51.97900 27.51100
C  13.10800 50.92000 29.74900
C  16.48900 52.40200 30.08000
C  16.97700 51.97800 31.50600
H  16.09700 51.08700 32.31500
N  13.69400 52.51900 24.42000
C  12.70400 52.56200 25.35800
C  11.53800 52.98800 24.71500
C  11.83400 53.01900 23.27900
C  13.21500 52.67400 23.17600
C  10.26300 53.34000 25.44600
C  10.98300 53.47400 22.13800
O  11.39800 53.63600 21.01400
C  9.63200 53.78900 22.40800
N  16.27800 51.75400 22.58000
C  15.39400 52.22400 21.69400
C  16.05200 52.32200 20.26100
C  17.57500 52.03800 20.53200
C  17.54500 51.70000 22.05000
C  15.45100 51.39300 19.19600
C  18.58500 53.21400 20.19700
C  19.80700 52.75700 19.32200
N  17.54900 51.08100 24.96100
C  18.50800 50.74100 24.06800
C  19.58000 50.17200 24.81100
C  19.19300 50.12800 26.17900
C  17.92700 50.70600 26.19700
C  20.85000 49.71200 24.23600
C  19.59800 49.82200 27.52300
O  20.65200 49.26600 27.85600
C  18.42500 50.23900 28.52000
C  18.02600 48.97400 29.25100
O  17.53800 47.96200 28.82200
O  18.39600 49.15400 30.52500
C  18.54700 47.91400 31.32600
H  12.07600 52.57300 27.40900
H  13.50100 52.61500 21.04500
H  19.46600 50.75500 22.20700
H  15.80200 50.48100 29.71400
H  13.92300 52.87100 29.42300
H  13.67100 50.20900 30.35500
H  12.47800 50.38500 29.03800
H  12.42500 51.41600 30.43900
H  15.79700 53.23600 30.19700
H  17.36000 52.76000 29.53000
H  17.24700 52.84200 32.11400
H  17.91800 51.42800 31.48700
H  9.75300 54.22300 25.05800
H  10.59500 53.53300 26.46600
H  9.54100 52.52300 25.43900
H  9.08000 53.85500 21.47100
H  9.76100 54.83500 22.68500
H  8.99000 53.30100 23.14300
H  15.88700 53.36000 19.96900
H  17.93000 51.10800 20.08600
H  14.79100 50.56800 19.46400
H  16.21500 50.92300 18.57600
H  14.82300 52.05100 18.59700
H  18.90300 53.56000 21.18000
H  18.03400 53.96900 19.63500
H  19.88300 53.49900 18.52700
H  19.53900 51.79200 18.89100
H  20.74400 52.73800 19.87900
H  20.53700 48.73500 23.86700
H  21.70500 49.79700 24.90800
H  21.05100 50.34000 23.36800
H  18.81000 51.04000 29.15200
H  19.16800 47.23400 30.74300
H  17.60200 47.40900 31.52700
H  19.12600 48.13900 32.22200
Mg -6.26500 25.03800 26.34800
C  -4.48100 26.68400 28.89200
C  -7.43500 22.86800 28.71400
C  -7.61000 23.38400 23.91000
C  -4.59000 27.12100 24.12300
N  -6.06100 24.83600 28.58600
C  -5.31700 25.69900 29.41000
C  -5.48700 25.31800 30.88300
C  -6.25200 23.94900 30.75700
C  -6.64500 23.84900 29.28300
C  -5.50800 22.67700 31.38900
C  -6.12300 26.49400 31.72300
C  -7.17600 26.23900 32.73400
H  -6.71400 25.38600 33.88600
N  -7.36700 23.32000 26.39300
C  -7.87600 22.58600 27.41800
C  -8.71400 21.54400 26.86600
C  -8.70900 21.61600 25.43800
C  -7.85800 22.78400 25.18500
C  -9.44600 20.58000 27.81000
C  -9.49300 20.75600 24.42200
O  -9.48000 21.03800 23.17700
C  -10.39700 19.61100 24.82200
N  -6.21100 25.30300 24.30500
C  -6.87200 24.52900 23.48000
C  -6.57200 24.85300 22.05700
C  -5.76400 26.17000 22.05200
C  -5.51700 26.23400 23.56400
C  -5.86100 23.69900 21.27700
C  -6.51800 27.36600 21.38500
C  -6.04600 27.69700 19.93100
N  -4.88300 26.64500 26.42300
C  -4.19400 27.30700 25.46900
C  -3.37300 28.30800 26.01000
C  -3.39400 28.08600 27.41600
C  -4.33500 27.05200 27.58300
C  -2.63600 29.33800 25.19600
C  -2.86900 28.45100 28.66400
O  -1.95900 29.21700 28.93100
C  -3.61500 27.63000 29.69400
C  -2.69700 27.02600 30.71300
O  -2.11300 25.98800 30.58000
O  -2.72400 27.69300 31.91800
C  -2.22400 27.06200 33.12300
H  -7.77600 22.14100 29.45300
H  -8.16700 22.84900 23.13900
H  -4.12400 27.71400 23.33300
H  -4.46600 25.12600 31.21300
H  -7.22900 23.96800 31.24000
H  -4.43500 22.77000 31.22000
H  -5.85700 21.74800 30.93700
H  -5.74600 22.68900 32.45200
H  -6.44300 27.38000 31.17400
H  -5.21600 26.71000 32.28700
H  -8.10700 25.85300 32.32000
H  -7.36300 27.21000 33.19300
H  -10.50900 20.50300 27.58400
H  -9.34500 20.82500 28.86700
H  -9.15900 19.55200 27.58900
H  -10.35600 18.90700 23.99000
H  -11.41000 19.95000 25.03800
H  -10.00700 19.05000 25.67100
H  -7.48000 25.14800 21.53000
H  -4.82200 26.11800 21.50500
H  -4.80800 23.89300 21.07600
H  -6.44900 23.50300 20.38000
H  -5.66000 22.81700 21.88500
H  -6.26700 28.22000 22.01500
H  -7.59900 27.24600 21.31800
H  -6.99800 27.74400 19.40100
H  -5.34600 26.98000 19.50100
H  -5.53700 28.65300 19.81400
H  -1.94900 28.74600 24.59200
H  -2.08600 29.96300 25.90000
H  -3.20900 29.92500 24.47900
H  -4.28800 28.31300 30.21200
H  -1.26500 26.54500 33.08500
H  -2.97500 26.33200 33.42700
H  -2.11400 27.77000 33.94500

