158

Mg 16.73800 -2.43100 27.75400
C  15.46800 -0.20900 30.20300
C  18.77400 -3.73100 30.16400
C  18.48800 -3.92300 25.18000
C  15.20300 -0.32500 25.39000
N  17.14200 -1.94300 29.91100
C  16.45300 -1.05400 30.68900
C  16.86100 -1.20700 32.15600
C  18.07600 -2.20100 32.05200
C  18.01500 -2.67800 30.66000
C  19.44200 -1.58300 32.34800
C  15.70100 -1.58100 33.15200
C  15.52900 -0.83400 34.55100
H  16.76800 -0.18700 35.19400
N  18.29800 -3.77900 27.62000
C  18.92400 -4.15200 28.76100
C  19.71700 -5.34900 28.42000
C  19.66000 -5.46600 27.02200
C  18.80700 -4.35500 26.51200
C  20.48800 -6.22700 29.43700
C  20.44200 -6.49300 26.08600
O  20.32200 -6.38900 24.88500
C  21.24800 -7.59800 26.64200
N  16.88000 -2.08100 25.54800
C  17.63900 -2.87600 24.77500
C  17.38000 -2.57000 23.31900
C  16.45300 -1.33300 23.36800
C  16.12600 -1.22800 24.82100
C  18.68500 -2.31900 22.53400
C  15.25700 -1.24500 22.38600
C  15.32100 -0.17700 21.38100
N  15.56600 -0.66300 27.73800
C  14.89800 -0.07900 26.73300
C  13.88700 0.87500 27.20600
C  14.09700 0.84400 28.59000
C  15.12500 -0.13200 28.85000
C  12.97500 1.64900 26.37200
C  13.73900 1.40600 29.86000
O  12.97000 2.30700 30.09100
C  14.57400 0.78000 30.97900
C  15.53000 1.81800 31.62700
O  16.58900 2.19600 31.10500
O  15.03100 2.36100 32.79100
C  15.60200 3.52800 33.31200
H  19.38100 -4.18600 30.94900
H  18.92300 -4.52100 24.37700
H  14.68200 0.27800 24.64300
H  17.38900 -0.28600 32.40100
H  18.02500 -3.10500 32.65900
H  19.78400 -1.88000 33.34000
H  19.39100 -0.49500 32.34600
H  20.32300 -1.80300 31.74600
H  15.74300 -2.61800 33.48500
H  14.77700 -1.39500 32.60400
H  15.13200 -1.57700 35.24300
H  14.72100 -0.16800 34.24800
H  19.92600 -7.15800 29.51600
H  20.55400 -5.74500 30.41200
H  21.52900 -6.39300 29.16200
H  20.73700 -8.30000 27.30100
H  22.13600 -7.24600 27.16600
H  21.42900 -8.21100 25.75900
H  16.86000 -3.46100 22.96500
H  16.95300 -0.38000 23.19400
H  19.51800 -1.98900 23.15500
H  18.48200 -1.56600 21.77300
H  18.94500 -3.26800 22.06500
H  14.22200 -1.35500 22.71100
H  15.44500 -2.11000 21.75000
H  16.27300 -0.07400 20.85900
H  15.24700 0.78500 21.88800
H  14.60800 -0.42500 20.59400
H  12.52000 1.02800 25.60100
H  13.52400 2.47600 25.92200
H  12.25000 2.08400 27.06000
H  13.84900 0.41800 31.70900
H  14.77100 4.21700 33.46200
H  16.26900 4.03500 32.61400
H  16.08600 3.25600 34.25000
Mg 25.00000 0.72600 29.05600
C  27.30800 0.90500 31.88400
C  22.47200 1.12800 31.17400
C  23.09100 1.15200 26.29700
C  27.84500 0.25300 27.04200
N  25.02300 0.87300 31.32300
C  26.00000 1.01400 32.26400
C  25.42900 1.18300 33.68100
C  23.84700 1.10400 33.40100
C  23.74800 0.96000 31.83900
C  23.26000 -0.18800 34.01500
C  25.84700 2.53600 34.31800
C  25.07100 3.00000 35.62100
H  25.91800 3.40600 36.88300
N  23.07600 0.99600 28.78700
C  22.19900 1.01300 29.80000
C  20.79700 1.14500 29.21600
C  20.98000 1.08000 27.79300
C  22.39800 1.06700 27.54100
C  19.54600 1.25000 29.93600
C  19.87400 1.23400 26.74800
O  20.12800 1.26000 25.55700
C  18.44900 1.44400 27.10100
N  25.39800 0.68400 27.09500
C  24.41000 0.96400 26.05900
C  24.87400 0.72500 24.65400
C  26.47100 0.64400 24.91900
C  26.60400 0.41400 26.45900
C  24.17700 -0.44200 23.83600
C  27.15800 1.88400 24.38500
C  27.01900 3.19700 25.15600
N  27.12500 0.54000 29.32900
C  28.12800 0.39700 28.42300
C  29.35300 0.51400 29.07100
C  29.10800 0.66500 30.45300
C  27.72200 0.64400 30.57400
C  30.63700 0.62800 28.31100
C  29.76500 0.80800 31.74500
O  30.95500 0.89900 32.10300
C  28.55100 1.00100 32.77300
C  28.68600 0.04300 33.87300
O  28.25400 -1.10400 33.86900
O  29.39100 0.64200 34.91500
C  29.19800 0.12500 36.25500
H  21.60000 1.24700 31.82100
H  22.43600 1.25600 25.43000
H  28.66300 0.02800 26.35600
H  25.80800 0.31600 34.22200
H  23.32600 2.00600 33.72100
H  23.43800 -1.00500 33.31600
H  22.19000 -0.08100 34.19400
H  23.77400 -0.51200 34.92000
H  26.03300 3.39900 33.67800
H  26.82100 2.35300 34.77100
H  24.40400 2.17900 35.88300
H  24.47000 3.84900 35.29600
H  19.12700 2.23000 29.70900
H  19.68200 1.18400 31.01500
H  18.91900 0.43700 29.57200
H  18.36100 2.32400 27.73800
H  18.10900 0.52400 27.57700
H  17.88000 1.67000 26.20000
H  24.69000 1.61800 24.05700
H  26.78800 -0.18300 24.28500
H  24.89800 -1.14600 23.42000
H  23.63500 -0.03700 22.98100
H  23.47900 -1.03700 24.42500
H  26.81800 2.05500 23.36300
H  28.22000 1.64400 24.32800
H  27.92700 3.51900 25.66600
H  26.20100 3.15700 25.87500
H  26.69300 3.95700 24.44600
H  30.85600 -0.31900 27.81800
H  31.49800 0.76900 28.96500
H  30.67100 1.37400 27.51800
H  28.70100 2.00800 33.16200
H  30.17900 -0.03300 36.70300
H  28.56900 -0.76000 36.35300
H  28.76600 0.94500 36.82900

