158

Mg 35.92700 3.13900 30.17400
C  33.53100 4.06600 32.58600
C  38.37200 3.59600 32.66200
C  38.23500 2.98300 27.79900
C  33.39400 3.21400 27.78500
N  35.93200 3.87100 32.34700
C  34.83200 4.00500 33.14900
C  35.17100 3.97600 34.60600
C  36.69800 4.17300 34.60500
C  37.04600 3.93200 33.11000
C  37.17200 5.49500 35.14000
C  34.67100 2.66100 35.28600
C  33.93500 2.79300 36.64000
H  34.22900 3.97300 37.55500
N  38.02600 3.23300 30.25700
C  38.80800 3.24100 31.35600
C  40.15000 2.93300 31.05200
C  40.16400 2.92600 29.59200
C  38.75400 3.03800 29.13900
C  41.13100 2.48100 32.09800
C  41.35900 2.68600 28.71800
O  41.29000 2.59400 27.49200
C  42.73700 2.61200 29.31400
N  35.86600 3.30400 28.07700
C  36.92300 3.05300 27.32700
C  36.49900 3.04500 25.79000
C  34.96400 3.04300 25.80000
C  34.70500 3.15200 27.30200
C  37.17800 4.24700 24.98700
C  34.30900 1.77300 25.16800
C  33.74000 2.07600 23.81600
N  33.88500 3.44300 30.16900
C  33.00200 3.46500 29.13400
C  31.71000 3.89900 29.63000
C  31.81800 4.02400 31.01300
C  33.18000 3.79300 31.28000
C  30.47000 4.13400 28.70200
C  31.13600 4.25500 32.24100
O  29.91400 4.44000 32.39800
C  32.20400 4.14100 33.36000
C  32.14900 5.38800 34.18800
O  32.60500 6.51300 33.91600
O  31.20600 5.19900 35.14900
C  30.96100 6.36100 35.91300
H  39.09800 3.67800 33.47400
H  39.03200 2.94600 27.05300
H  32.63200 3.38100 27.02100
H  34.63700 4.82600 35.03100
H  37.24200 3.42700 35.18300
H  37.71100 5.36500 36.07900
H  36.35100 6.18900 35.31700
H  37.65700 6.14300 34.41000
H  35.63300 2.15700 35.38500
H  34.09100 1.98000 34.66400
H  34.16900 1.88900 37.20200
H  32.88500 2.65200 36.38500
H  41.74100 3.32100 32.43200
H  41.82300 1.72800 31.72200
H  40.65300 1.94500 32.91800
H  42.92400 1.64600 29.78500
H  42.95800 3.34700 30.08800
H  43.52200 2.79500 28.58000
H  36.73000 2.17600 25.17400
H  34.65800 4.02600 25.44100
H  37.81400 4.71500 25.73800
H  36.47400 4.93700 24.52300
H  37.93700 3.80400 24.34200
H  33.53100 1.41600 25.84200
H  35.07600 1.01000 25.04000
H  32.67700 2.11000 24.05600
H  34.16500 1.36900 23.10400
H  34.05900 3.01900 23.37100
H  29.77700 3.29300 28.68500
H  30.85100 4.42600 27.72400
H  29.96900 5.01600 29.10200
H  31.93400 3.20400 33.84800
H  30.50500 7.17300 35.34600
H  31.83800 6.77400 36.41100
H  30.26800 6.33200 36.75400
Mg 55.71000 23.35700 45.37400
C  53.27500 25.90500 44.68200
C  53.52900 21.01300 44.02400
C  58.07500 21.16500 45.71500
C  57.83000 25.93800 46.51200
N  53.74900 23.53900 44.27900
C  52.93600 24.63000 44.17100
C  51.63700 24.18900 43.49900
C  51.55100 22.70000 43.73200
C  53.04900 22.33100 44.02000
C  50.52300 22.18000 44.82300
C  51.46400 24.68600 42.04300
C  50.02400 25.05900 41.54700
H  49.69800 24.67600 40.08400
N  55.83300 21.33800 44.82500
C  54.80900 20.54300 44.35500
C  55.28100 19.19800 44.29500
C  56.62900 19.18600 44.76600
C  56.93300 20.58400 45.09200
C  54.47200 18.05700 43.76700
C  57.46900 17.94300 44.79300
O  57.00600 16.81300 44.54200
C  58.96500 18.04800 45.10100
N  57.68000 23.51700 46.02000
C  58.38700 22.42800 46.13400
C  59.71600 22.69700 46.86900
C  59.72300 24.25100 46.92100
C  58.33100 24.61300 46.44500
C  59.85700 22.06000 48.24000
C  60.75800 24.99100 46.07000
C  61.32400 26.28600 46.65200
N  55.61900 25.49400 45.56900
C  56.50000 26.40600 46.10300
C  55.96600 27.75900 46.17600
C  54.68700 27.54300 45.68300
C  54.51700 26.21400 45.27900
C  56.56000 29.05000 46.58100
C  53.42500 28.20200 45.36900
O  53.05300 29.35500 45.49900
C  52.53700 27.12600 44.71200
C  52.26200 27.70600 43.39200
O  53.01800 27.89000 42.48000
O  50.91700 28.01300 43.24800
C  50.60000 28.88600 42.14800
H  52.76400 20.31000 43.68700
H  58.84900 20.45500 46.01200
H  58.50200 26.64600 47.00300
H  50.77700 24.55200 44.06100
H  51.24300 22.24500 42.79100
H  50.98400 21.44500 45.48200
H  49.69200 21.67200 44.33400
H  50.21300 22.93900 45.54100
H  51.81900 23.83400 41.46300
H  52.09600 25.57400 42.04400
H  49.94500 26.14600 41.53800
H  49.21000 24.56900 42.08100
H  55.10300 17.43300 43.13400
H  53.57200 18.37200 43.24000
H  54.20900 17.39600 44.59300
H  59.53600 18.69300 44.43200
H  59.40500 17.08600 44.84000
H  59.13300 18.44300 46.10300
H  60.47200 22.34800 46.16600
H  59.84200 24.64100 47.93200
H  58.99800 21.49800 48.60500
H  60.17000 22.76800 49.00800
H  60.62300 21.29700 48.10100
H  60.31300 25.26700 45.11400
H  61.62600 24.34700 45.93300
H  61.73700 26.84300 45.81100
H  62.18600 25.90100 47.19700
H  60.71100 26.84900 47.35500
H  56.04000 29.48500 47.43400
H  56.45000 29.64700 45.67600
H  57.64400 28.98400 46.66900
H  51.56800 26.99100 45.19300
H  51.29400 29.71600 42.01300
H  49.56900 29.21300 42.28100
H  50.53500 28.19000 41.31200

