158

Mg 40.95600 9.66400 30.17800
C  42.92200 10.84800 32.76300
C  38.53200 8.71900 32.52200
C  39.11900 8.47800 27.68000
C  43.54800 10.34200 27.86900
N  40.82700 9.51800 32.43700
C  41.73900 10.27900 33.28400
C  41.10300 10.41700 34.73500
C  39.86300 9.47900 34.59600
C  39.67000 9.29000 33.08300
C  39.91300 8.15700 35.42900
C  40.77600 11.89400 35.12200
C  40.03500 12.07400 36.49700
H  40.58600 13.01700 37.61600
N  39.16400 8.74000 30.14600
C  38.29200 8.49500 31.17300
C  37.04000 7.88100 30.63700
C  37.21500 7.84500 29.18300
C  38.47900 8.39100 28.93300
C  35.88800 7.33600 31.51000
C  36.26300 7.25100 28.10000
O  36.43900 7.24400 26.88700
C  35.02600 6.53200 28.65400
N  41.30400 9.51100 28.12100
C  40.42900 8.93000 27.31200
C  40.92100 8.90200 25.81900
C  42.26200 9.65900 25.86700
C  42.40000 9.92900 27.41200
C  40.93800 7.50500 25.27600
C  42.35600 10.97200 25.02400
C  41.14400 11.97700 25.13800
N  42.86500 10.35900 30.27500
C  43.78200 10.67100 29.23400
C  44.91600 11.32200 29.88200
C  44.57600 11.44200 31.24000
C  43.34900 10.82800 31.36600
C  46.14500 11.77200 29.14100
C  45.06100 11.95900 32.55200
O  46.12600 12.52500 32.90500
C  43.99200 11.57100 33.54100
C  44.57600 10.74800 34.72000
O  45.20400 9.68000 34.66600
O  44.33300 11.42200 35.92300
C  44.97300 10.84300 37.07500
H  37.68100 8.60600 33.19700
H  38.63200 8.16500 26.75500
H  44.17500 10.54000 26.99700
H  41.92300 10.13300 35.39500
H  38.98600 9.99500 34.98600
H  40.14700 7.30800 34.78700
H  38.90700 8.09000 35.84300
H  40.62800 8.17300 36.25100
H  40.11500 12.33400 34.37400
H  41.72400 12.42600 35.20200
H  39.80000 11.07600 36.86800
H  39.05600 12.51600 36.31400
H  35.90900 7.56900 32.57500
H  35.79400 6.26600 31.32400
H  35.01900 7.89100 31.15600
H  35.45200 5.77000 29.30600
H  34.49300 6.13300 27.79000
H  34.44900 7.23100 29.25900
H  40.19100 9.44300 25.21700
H  43.08500 8.98000 25.64500
H  40.61200 6.75400 25.99600
H  41.94600 7.22300 24.97300
H  40.20500 7.18600 24.53500
H  42.38400 10.53000 24.02800
H  43.28500 11.50300 25.22700
H  41.46100 12.96700 25.46400
H  40.44200 11.63900 25.90100
H  40.61300 12.05900 24.19000
H  46.01600 11.83900 28.06100
H  46.95500 11.08000 29.36900
H  46.36900 12.77000 29.51900
H  43.68500 12.53900 33.93800
H  44.45800 11.30600 37.91600
H  46.04500 11.02700 37.14300
H  44.88700 9.76200 37.19000
Mg -1.71500 34.08300 27.05100
C  -3.57900 32.28200 29.35600
C  -0.24600 35.86100 29.67300
C  -0.24500 36.21400 24.78200
C  -3.35900 32.61000 24.44200
N  -1.99700 34.24400 29.17300
C  -2.73000 33.25400 29.90100
C  -2.50400 33.41200 31.38600
C  -1.57400 34.65200 31.43000
C  -1.24600 34.92000 30.01300
C  -2.26600 35.81200 32.13000
C  -1.89300 32.06800 31.84400
C  -2.59900 31.41200 32.99000
H  -2.04200 31.41600 34.45600
N  -0.23300 35.70500 27.20000
C  0.27600 36.19400 28.39400
C  1.32300 37.13300 28.04500
C  1.25300 37.31200 26.58700
C  0.18900 36.44400 26.14800
C  2.21200 37.83000 29.14500
C  2.06600 38.29300 25.75100
O  1.86900 38.43600 24.57800
C  3.02100 39.11200 26.36200
N  -1.86300 34.46300 24.93200
C  -1.22700 35.40200 24.28700
C  -1.72100 35.56300 22.81100
C  -2.50400 34.25600 22.60000
C  -2.62300 33.74400 24.05500
C  -2.56400 36.83600 22.53500
C  -1.64500 33.22600 21.78000
C  -2.44000 32.65100 20.60000
N  -3.05500 32.65400 26.86000
C  -3.60800 32.10000 25.75200
C  -4.49400 31.02000 26.15200
C  -4.54800 31.13000 27.53900
C  -3.65500 32.09100 27.92800
C  -5.24400 30.14600 25.23500
C  -5.08200 30.47300 28.69000
O  -5.86800 29.51600 28.78000
C  -4.52000 31.25000 29.95800
C  -5.75700 31.81900 30.63400
O  -6.65800 32.36400 30.05600
O  -5.88200 31.39700 32.00800
C  -6.80900 32.14000 32.91500
H  0.17700 36.31700 30.57000
H  0.28900 36.88500 24.10600
H  -3.80100 32.20900 23.52800
H  -3.50900 33.56800 31.77900
H  -0.63100 34.61100 31.97500
H  -1.83100 36.74900 31.78200
H  -2.01300 35.67800 33.18100
H  -3.33500 35.74600 31.93000
H  -0.88700 32.21700 32.23600
H  -1.83300 31.28700 31.08600
H  -2.76900 30.37600 32.69600
H  -3.58000 31.87200 33.10700
H  2.00800 37.61700 30.19400
H  2.14200 38.91800 29.17200
H  3.26200 37.61000 28.95100
H  3.78900 38.53000 26.87100
H  2.39900 39.67300 27.05900
H  3.46500 39.86300 25.70700
H  -0.85400 35.66100 22.15800
H  -3.52800 34.35600 22.23900
H  -3.59700 36.63700 22.24800
H  -1.99100 37.30700 21.73600
H  -2.53400 37.49800 23.40000
H  -1.35800 32.37700 22.40100
H  -0.68500 33.67500 21.52800
H  -2.33900 33.30500 19.73400
H  -3.51600 32.60600 20.76800
H  -1.92100 31.70400 20.45500
H  -4.73100 29.71000 24.37800
H  -6.10700 30.67700 24.83400
H  -5.60000 29.21300 25.67200
H  -3.88200 30.58000 30.53400
H  -6.25000 32.79400 33.58500
H  -7.55900 31.55500 33.44700
H  -7.38700 32.91100 32.40500

