158

Mg 25.98300 0.98900 29.39800
C  27.94400 0.45900 32.30100
C  23.24700 1.51600 31.48100
C  23.98600 1.27900 26.63500
C  28.62200 0.05800 27.50800
N  25.61200 0.93200 31.60900
C  26.60000 0.74100 32.57600
C  25.96800 0.88600 33.94500
C  24.43300 1.01600 33.69700
C  24.38700 1.14500 32.20200
C  23.59400 -0.16500 34.20900
C  26.63400 2.03400 34.73000
C  27.30000 1.59300 36.03300
H  26.93600 2.28500 37.39200
N  23.94300 1.44100 29.06700
C  22.99000 1.64100 30.11700
C  21.73600 1.85100 29.48600
C  21.92400 1.67600 28.09400
C  23.30700 1.45100 27.87400
C  20.37300 1.86100 30.24800
C  20.88500 1.59600 26.99900
O  21.09600 1.28100 25.83900
C  19.49200 2.02900 27.25500
N  26.31300 0.68200 27.34200
C  25.35600 0.97900 26.38500
C  25.91100 0.58200 24.97600
C  27.44700 0.35400 25.22500
C  27.48400 0.31300 26.77500
C  25.11400 -0.54700 24.22500
C  28.33900 1.46900 24.58700
C  28.91700 2.56900 25.50900
N  27.98800 0.48100 29.76300
C  28.91700 0.10300 28.88600
C  30.06400 -0.37200 29.64300
C  29.80500 -0.14500 30.96600
C  28.49900 0.27000 30.99500
C  31.35300 -0.99500 29.13900
C  30.28100 -0.27800 32.31100
O  31.34500 -0.67000 32.71700
C  29.06700 0.12700 33.24700
C  28.72100 -0.96300 34.08400
O  27.99000 -1.87700 33.77400
O  29.48100 -0.96400 35.22400
C  29.18900 -2.05300 36.21600
H  22.36600 1.71900 32.09400
H  23.47500 1.69900 25.76600
H  29.46400 -0.15600 26.84600
H  26.15200 -0.05000 34.47100
H  24.02600 1.93600 34.11700
H  24.14900 -0.97300 34.68600
H  23.00500 -0.59600 33.39900
H  22.84800 0.23500 34.89500
H  25.97300 2.78000 35.17100
H  27.30900 2.58600 34.07500
H  28.33900 1.89900 35.90800
H  27.21100 0.50700 36.03100
H  19.79800 1.02400 29.85200
H  19.96700 2.84200 30.00100
H  20.39100 1.74500 31.33200
H  19.09500 1.19900 27.84000
H  19.02400 2.12900 26.27500
H  19.55300 3.02200 27.70000
H  25.79900 1.49400 24.39000
H  27.85300 -0.52600 24.72700
H  25.92200 -1.18300 23.86500
H  24.54200 -0.19300 23.36700
H  24.58900 -1.10300 25.00200
H  27.69700 1.99100 23.87800
H  29.10700 1.04500 23.93900
H  28.40900 2.70700 26.46400
H  28.71100 3.52100 25.02000
H  29.96500 2.27300 25.55500
H  31.99200 -1.23900 29.98800
H  31.98900 -0.30700 28.58300
H  31.25400 -1.98500 28.69400
H  29.33500 1.02400 33.80500
H  29.00600 -3.00800 35.72300
H  28.35600 -1.71400 36.83100
H  30.16300 -2.14700 36.69500
Mg 6.68300 53.67900 41.69800
C  5.69400 50.21000 41.01600
C  9.74300 52.83700 40.68600
C  7.29800 56.88600 41.60400
C  3.29400 54.28900 42.46700
N  7.48600 51.79000 40.81300
C  6.94900 50.55000 40.63000
C  7.91500 49.57100 40.03500
C  9.33200 50.25700 40.42000
C  8.85500 51.73900 40.64700
C  10.10900 49.62900 41.64100
C  7.74700 49.14400 38.60000
C  7.46900 50.29300 37.52500
H  6.67500 50.04400 36.31400
N  8.19700 54.74000 41.07700
C  9.47800 54.21300 40.79100
C  10.37500 55.33400 40.56500
C  9.63900 56.50600 40.88100
C  8.32600 56.04100 41.22100
C  11.77000 55.17500 40.17500
C  10.28300 57.87100 40.71400
O  11.41600 58.11200 40.40700
C  9.53900 59.08300 41.00600
N  5.44100 55.37600 41.88400
C  5.99700 56.60900 41.97300
C  4.88000 57.64000 42.13700
C  3.61200 56.80200 42.55000
C  4.11300 55.36600 42.23000
C  5.26500 58.79500 43.11900
C  2.24300 57.08700 41.76900
C  1.59700 58.51300 42.10100
N  4.82000 52.50500 41.79700
C  3.55000 52.91300 42.21900
C  2.68800 51.72000 42.34200
C  3.49600 50.66800 41.82800
C  4.77100 51.20300 41.58800
C  1.22000 51.72600 42.89900
C  3.50100 49.28700 41.49200
O  2.59800 48.47000 41.51600
C  4.94400 48.93300 40.96700
C  4.81100 48.24700 39.61100
O  4.39600 48.74800 38.58700
O  4.91100 46.88200 39.81800
C  4.35900 46.01800 38.76900
H  10.78000 52.58500 40.45800
H  7.47600 57.96200 41.64300
H  2.30000 54.49700 42.86900
H  7.78100 48.70900 40.68900
H  10.04000 50.34500 39.59600
H  10.20200 50.39600 42.40900
H  11.06700 49.23100 41.30600
H  9.46200 48.81900 41.97800
H  7.06400 48.29900 38.51400
H  8.77200 48.79400 38.47600
H  8.42500 50.61400 37.11100
H  7.05400 51.20200 37.96200
H  12.37600 55.69900 40.91400
H  12.21700 55.54400 39.25200
H  12.10100 54.14900 40.33700
H  8.72700 59.16000 40.28400
H  10.01800 60.05900 40.92600
H  9.23100 58.97500 42.04600
H  4.71800 58.03200 41.13300
H  3.41700 56.80300 43.62200
H  4.48600 58.87000 43.87800
H  5.38000 59.72100 42.55500
H  6.18300 58.50400 43.62900
H  1.43200 56.42400 42.07000
H  2.50100 57.00600 40.71300
H  2.32700 59.12700 42.63000
H  0.69200 58.29000 42.66600
H  1.40700 58.93600 41.11500
H  0.49900 51.59900 42.09200
H  1.12500 52.71800 43.34300
H  1.30300 50.94700 43.65700
H  5.34700 48.31900 41.77200
H  4.88200 46.28300 37.85100
H  3.28600 46.20600 38.74400
H  4.45900 44.95100 38.96600

