158

Mg 40.09400 8.27600 29.85600
C  41.91300 9.85200 32.53100
C  38.02800 7.05300 32.20700
C  38.41400 6.72200 27.44800
C  42.57100 9.29100 27.67800
N  40.07400 8.35100 32.05100
C  40.77000 9.17300 32.94600
C  40.22300 9.07900 34.37000
C  39.12400 8.06600 34.20200
C  39.08400 7.79200 32.76000
C  39.32800 6.81700 35.16000
C  39.61300 10.44200 34.82700
C  38.99400 10.63200 36.21400
H  39.73500 11.44600 37.24500
N  38.34100 7.08600 29.82200
C  37.66400 6.69400 30.91400
C  36.57200 5.88900 30.51500
C  36.63300 5.75800 29.07900
C  37.82900 6.51400 28.74300
C  35.54500 5.40900 31.46800
C  35.69200 5.00800 28.11700
O  35.85100 4.80500 26.91700
C  34.49800 4.40400 28.71400
N  40.37300 8.06400 27.83900
C  39.54900 7.42900 27.01800
C  40.00700 7.40400 25.57100
C  41.13600 8.52000 25.60400
C  41.37000 8.64000 27.13300
C  40.47200 6.00300 25.01300
C  40.63100 9.83600 24.86100
C  39.60800 10.79700 25.49100
N  41.94500 9.23500 30.01400
C  42.83800 9.62400 29.02200
C  43.90600 10.35200 29.61400
C  43.55800 10.45400 30.99500
C  42.39500 9.72000 31.21000
C  45.11200 10.80800 28.96000
C  43.95900 11.07700 32.23200
O  44.91200 11.87000 32.48500
C  42.89200 10.76600 33.25900
C  43.35600 10.10100 34.46800
O  44.04400 9.09000 34.39700
O  43.06800 10.90100 35.56800
C  43.66200 10.39900 36.81700
H  37.32800 6.80300 33.00800
H  37.74500 6.31500 26.68700
H  43.26200 9.67700 26.92600
H  40.94600 8.71400 35.10000
H  38.12800 8.46800 34.38600
H  40.39500 6.66600 35.32500
H  39.06100 5.83200 34.77700
H  38.71400 6.85800 36.06000
H  39.07400 10.95300 34.02900
H  40.53300 11.01800 34.92600
H  38.65000 9.70000 36.66300
H  38.08300 11.12800 35.87900
H  34.67000 6.05500 31.41500
H  36.00500 5.41800 32.45700
H  35.34300 4.35400 31.28000
H  34.64300 3.52000 29.33500
H  33.74700 4.05700 28.00500
H  33.99200 5.06600 29.41700
H  39.16800 7.71200 24.94700
H  42.04000 8.17200 25.10500
H  40.77400 5.31500 25.80200
H  41.28700 6.11100 24.29700
H  39.58400 5.60300 24.52300
H  40.30000 9.59100 23.85100
H  41.46100 10.53700 24.94400
H  39.23800 10.15600 26.29200
H  38.70400 11.16000 25.00000
H  39.90100 11.65100 26.10200
H  45.48000 11.73400 29.40200
H  44.92600 11.00100 27.90400
H  45.95400 10.12000 29.02800
H  42.46500 11.75300 33.43500
H  43.68300 11.13800 37.61700
H  44.70000 10.08300 36.70700
H  43.09200 9.53500 37.15700
Mg 41.36300 41.13400 27.20400
C  40.59200 43.54700 29.45200
C  42.32400 38.97700 29.67200
C  42.02200 38.83900 24.72300
C  40.72900 43.60500 24.69800
N  41.40800 41.28900 29.21000
C  41.00500 42.33200 30.00700
C  41.00700 41.98000 31.47900
C  41.61400 40.58100 31.51100
C  41.89000 40.25000 29.99800
C  42.83700 40.45700 32.47100
C  39.73100 42.21900 32.35500
C  39.78500 43.32200 33.35700
H  39.13600 43.01400 34.73700
N  42.09000 39.14500 27.21000
C  42.43600 38.45200 28.34000
C  42.79600 37.07800 27.90300
C  42.64200 37.02200 26.45700
C  42.26000 38.41300 26.06700
C  43.24200 36.00900 28.93600
C  42.81100 35.84500 25.53500
O  42.44300 35.92800 24.34200
C  43.24500 34.47500 26.09600
N  41.57700 41.26500 25.00100
C  41.66900 40.10700 24.22900
C  41.31300 40.43600 22.70400
C  40.64200 41.79800 22.84200
C  40.95800 42.26200 24.25600
C  42.60100 40.40000 21.80400
C  39.08800 41.92300 22.70200
C  38.31500 40.87700 23.32100
N  40.92300 43.17100 27.00900
C  40.80500 44.05300 25.92800
C  40.67200 45.37900 26.41000
C  40.44200 45.23500 27.82200
C  40.71400 43.90000 28.11700
C  40.46600 46.65400 25.71500
C  40.08000 45.89700 29.09900
O  39.70300 47.04300 29.35700
C  40.26500 44.85700 30.17500
C  41.36000 45.43500 30.97000
O  42.58500 45.27800 30.92400
O  40.83500 46.11200 32.08100
C  41.77000 46.83100 32.97400
H  42.51300 38.40000 30.57900
H  42.29300 38.17900 23.89700
H  40.32000 44.28700 23.94900
H  41.78300 42.58700 31.94500
H  40.96700 39.89000 32.05200
H  43.16300 39.41700 32.48300
H  42.60600 40.83000 33.46900
H  43.62500 41.13700 32.14800
H  39.52300 41.27500 32.85800
H  38.87500 42.47600 31.73000
H  39.09600 44.09100 33.00900
H  40.72600 43.85700 33.48400
H  42.82100 36.20100 29.92200
H  44.32300 36.13800 28.87400
H  42.99200 35.00300 28.59900
H  44.10600 34.63700 26.74400
H  43.53500 33.75300 25.33300
H  42.38700 33.97500 26.54600
H  40.62400 39.73100 22.23700
H  41.14500 42.55400 22.23800
H  42.45400 39.73400 20.95400
H  43.51000 40.15200 22.35200
H  42.81500 41.39400 21.41100
H  39.09200 41.66500 21.64300
H  38.82800 42.97300 22.83800
H  39.00500 40.16100 23.76700
H  37.68300 40.39600 22.57500
H  37.72100 41.41400 24.06100
H  39.52000 46.73100 25.17900
H  41.24900 46.77000 24.96500
H  40.61700 47.50600 26.37800
H  39.34900 44.70600 30.74700
H  42.58800 47.33000 32.45500
H  42.25000 46.11000 33.63500
H  41.17200 47.48600 33.60800

