158

Mg 8.31700 3.35000 27.82800
C  9.75900 1.87900 30.44700
C  6.39900 5.32900 29.78500
C  6.87500 4.75900 24.97600
C  9.94300 1.10900 25.61000
N  7.96500 3.45600 29.89300
C  8.80100 2.93400 30.85100
C  8.57400 3.46900 32.28300
C  7.44600 4.50700 32.04700
C  7.19100 4.43000 30.47800
C  6.11800 4.34700 32.85900
C  9.88900 3.94400 32.94600
C  9.67900 4.90100 34.01900
H  10.65000 4.76100 35.23000
N  6.74700 4.71300 27.47100
C  6.07300 5.41100 28.40500
C  5.18000 6.29500 27.77600
C  5.33200 6.22900 26.34800
C  6.33100 5.19800 26.19900
C  4.33600 7.33800 28.54000
C  4.63300 6.92700 25.23700
O  4.91400 6.71800 24.04800
C  3.38700 7.70000 25.53100
N  8.46000 2.97500 25.58700
C  7.67500 3.65600 24.70000
C  7.89400 3.09900 23.25600
C  9.01600 2.00000 23.43900
C  9.16600 2.02000 24.91400
C  6.60100 2.53300 22.55300
C  10.43200 2.54800 22.93600
C  10.57800 2.08100 21.51200
N  9.49300 1.79500 27.94300
C  10.16200 0.97200 27.01700
C  10.95800 -0.04100 27.66300
C  10.85300 0.33500 29.03200
C  9.94800 1.43400 29.11400
C  11.58200 -1.25600 27.08500
C  11.31000 -0.00000 30.39000
O  12.07700 -0.85200 30.78600
C  10.68400 1.02300 31.29900
C  9.99300 0.37300 32.45400
O  8.95500 -0.22300 32.40900
O  10.69900 0.53700 33.60300
C  9.95300 0.08700 34.83200
H  6.00600 6.13400 30.41000
H  6.42000 5.09300 24.04100
H  10.53900 0.60200 24.84800
H  8.19300 2.66600 32.91400
H  7.82400 5.51000 32.24800
H  5.27500 4.09400 32.21500
H  5.85000 5.28000 33.35500
H  6.23600 3.63900 33.68000
H  10.53700 4.46000 32.23700
H  10.45700 3.12800 33.39400
H  8.64200 4.85000 34.34900
H  9.74700 5.95700 33.75600
H  4.43600 8.35000 28.14700
H  4.51600 7.42900 29.61100
H  3.35400 6.90900 28.34200
H  2.96200 7.95300 24.56000
H  3.72700 8.61100 26.02200
H  2.72700 7.08200 26.13900
H  8.23500 3.81400 22.50700
H  8.70900 0.99800 23.13800
H  6.72200 1.54400 22.11100
H  6.18200 3.14900 21.75800
H  5.81000 2.55600 23.30200
H  11.15800 1.97000 23.50900
H  10.71000 3.59900 23.01700
H  9.69200 1.48800 21.28600
H  11.41300 1.38100 21.51400
H  10.76200 2.95500 20.88700
H  11.36200 -2.07400 27.77100
H  12.62900 -0.99400 26.93000
H  11.14200 -1.36500 26.09400
H  11.42900 1.71400 31.69300
H  9.31800 -0.79700 34.76200
H  9.18900 0.84400 35.00800
H  10.65900 0.00700 35.65800
Mg 46.80300 16.39700 27.51600
C  45.19000 16.16700 30.64600
C  48.78400 18.85500 28.96100
C  48.11700 16.85100 24.47700
C  44.21100 14.57200 26.08500
N  47.01400 17.26500 29.63400
C  46.28800 17.00800 30.74100
C  46.94500 17.58600 32.07100
C  47.96400 18.62400 31.48400
C  47.90100 18.26500 29.94800
C  47.66400 20.14300 31.83000
C  47.52700 16.45800 32.94600
C  47.16100 16.42000 34.44500
H  48.41200 16.17400 35.33900
N  48.26100 17.59500 26.80700
C  48.97400 18.56000 27.56000
C  49.92000 19.15600 26.69700
C  49.84000 18.52000 25.38700
C  48.74100 17.58000 25.50100
C  50.83000 20.25800 27.24500
C  50.64300 18.71400 24.10100
O  50.49200 18.04000 23.06000
C  51.84100 19.59100 24.02500
N  46.14100 15.86400 25.52000
C  46.96400 16.04100 24.46500
C  46.43800 15.26500 23.23900
C  45.36700 14.34000 23.82500
C  45.30900 14.85600 25.26100
C  45.83500 16.27300 22.22200
C  45.30200 12.80500 23.57000
C  46.68400 12.17400 23.77800
N  45.12600 15.58100 28.16700
C  44.10500 14.98600 27.47400
C  43.03200 14.57500 28.32000
C  43.38000 15.00800 29.60800
C  44.71600 15.60100 29.44700
C  41.86400 13.65100 27.93100
C  43.01800 14.98300 31.07400
O  42.06300 14.45800 31.65900
C  44.20800 15.77800 31.78200
C  43.51000 17.01200 32.37200
O  43.36200 18.09200 31.76200
O  43.05200 16.68900 33.62200
C  41.98300 17.58500 34.16100
H  49.43100 19.63200 29.37300
H  48.50100 17.00400 23.46600
H  43.33500 14.03700 25.71400
H  46.21700 18.21700 32.58200
H  48.94000 18.52900 31.95900
H  47.72500 20.80200 30.96400
H  48.41700 20.65700 32.42800
H  46.65600 20.28500 32.22100
H  48.61100 16.50700 32.84200
H  47.08900 15.52400 32.59500
H  46.53400 15.55700 34.66800
H  46.71500 17.39600 34.63800
H  51.66500 20.60800 26.63700
H  51.22800 19.88300 28.18800
H  50.23000 21.11600 27.54600
H  51.53400 20.60300 24.29300
H  52.44700 19.50400 23.12300
H  52.55100 19.15900 24.73000
H  47.27300 14.78600 22.72800
H  44.41100 14.66400 23.41300
H  46.35500 17.23200 22.20100
H  44.79500 16.50100 22.45600
H  45.94500 15.83500 21.23000
H  44.86500 12.62100 22.58800
H  44.65600 12.34400 24.31600
H  47.32500 12.79500 24.40500
H  47.24200 12.04900 22.85100
H  46.47300 11.26000 24.33300
H  41.28500 14.05700 27.10200
H  41.22400 13.46000 28.79300
H  42.28400 12.69800 27.61000
H  44.55600 15.03200 32.49600
H  41.24900 16.94800 34.65400
H  41.48600 18.11500 33.34900
H  42.29300 18.30500 34.91900

