158

Mg 47.84400 34.77400 26.97000
C  45.85700 33.45400 29.68600
C  48.55100 37.47600 28.93500
C  48.77400 36.30600 24.19800
C  46.94200 31.87700 25.14200
N  47.28100 35.38400 29.06700
C  46.60500 34.54300 30.00700
C  46.84400 35.09000 31.41600
C  47.47100 36.49500 31.14100
C  47.80700 36.48100 29.68200
C  46.48600 37.68300 31.30500
C  47.92100 34.22800 32.18300
C  48.09800 34.32300 33.65500
H  47.25900 35.29000 34.49100
N  48.63500 36.56500 26.61000
C  48.92700 37.56000 27.54800
C  49.66800 38.65500 26.90900
C  49.69600 38.31800 25.57300
C  48.94900 37.02000 25.42400
C  50.28900 39.89000 27.59900
C  50.35800 39.04200 24.39200
O  50.30500 38.56200 23.25400
C  51.06700 40.35100 24.59400
N  47.81900 34.19800 24.96400
C  48.25900 35.01900 23.98800
C  48.38900 34.33200 22.66900
C  48.13700 32.83700 23.08700
C  47.62300 32.90800 24.50400
C  47.43600 34.79100 21.49400
C  49.47800 31.98900 22.99500
C  50.25900 31.62300 24.27900
N  46.71000 33.04500 27.28300
C  46.45500 31.97300 26.45000
C  45.47300 31.03900 27.03200
C  45.20500 31.60500 28.27900
C  45.98600 32.78300 28.44100
C  44.92700 29.79300 26.55800
C  44.47400 31.37600 29.49700
O  43.66300 30.52800 29.92100
C  44.86800 32.60600 30.44900
C  45.30000 32.06300 31.79600
O  45.75700 30.96700 32.04500
O  44.89800 32.98100 32.72200
C  44.97400 32.35500 34.07500
H  48.74700 38.29700 29.62800
H  49.11500 36.57600 23.19600
H  46.73100 30.90200 24.69800
H  45.89700 35.09900 31.95500
H  48.39400 36.75700 31.65900
H  46.04000 37.50900 32.28400
H  45.63300 37.69300 30.62700
H  46.92000 38.68300 31.30800
H  48.85400 34.52500 31.70500
H  47.80300 33.18600 31.88600
H  49.15300 34.42600 33.90900
H  47.79800 33.32200 33.96400
H  49.74100 40.79700 27.34400
H  51.35000 39.77300 27.37700
H  50.11900 39.70300 28.65900
H  51.41400 40.66100 23.60800
H  51.92600 40.09500 25.21500
H  50.34600 41.05400 25.01000
H  49.42800 34.45000 22.36300
H  47.31700 32.46000 22.47500
H  46.50600 34.22800 21.41700
H  47.92200 34.74300 20.52000
H  47.19000 35.83500 21.69000
H  50.22200 32.25200 22.24300
H  49.05400 31.02500 22.71300
H  51.34200 31.70700 24.19800
H  50.10500 30.55200 24.40500
H  49.91400 32.09200 25.20100
H  45.40100 29.40300 25.65700
H  43.88200 29.94800 26.29000
H  44.93300 29.02000 27.32600
H  44.08500 33.32600 30.68700
H  44.55800 31.34800 34.10600
H  44.28800 32.94500 34.68200
H  45.98300 32.42700 34.47900
Mg 36.83500 49.54100 23.98800
C  36.92900 47.98500 27.24700
C  35.30100 52.23000 25.45100
C  35.75100 50.51500 20.95100
C  37.89100 46.52500 22.71300
N  36.17400 49.99600 26.12300
C  36.53500 49.33400 27.24500
C  36.21100 50.11900 28.49700
C  35.44300 51.42100 27.91000
C  35.65200 51.24100 26.40500
C  33.89700 51.65500 28.30800
C  37.39500 50.38800 29.32500
C  37.21400 49.97800 30.83300
H  35.79400 49.72800 31.43200
N  35.89500 51.25500 23.28100
C  35.31600 52.19200 24.03200
C  34.85100 53.27600 23.15100
C  34.93900 52.79900 21.85400
C  35.52200 51.44600 22.00900
C  34.15100 54.60600 23.64700
C  34.54400 53.34800 20.49100
O  34.75900 52.76100 19.46000
C  33.82700 54.64500 20.36700
N  36.65700 48.54900 22.21300
C  36.40800 49.27800 21.01600
C  36.68800 48.44800 19.79000
C  37.63500 47.38500 20.32900
C  37.38100 47.46500 21.82500
C  35.35900 47.78600 19.11700
C  39.15500 47.61400 20.06900
C  40.00600 46.31400 20.14100
N  37.29000 47.55600 24.81200
C  37.79900 46.51400 24.11600
C  38.06900 45.43000 25.03100
C  37.81200 45.97300 26.33000
C  37.27900 47.27200 26.09500
C  38.69800 44.03200 24.74600
C  37.74400 45.71900 27.73500
O  38.14300 44.72000 28.35100
C  37.07000 47.00400 28.42100
C  35.73100 46.53200 28.90900
O  34.61500 46.57600 28.40500
O  35.96100 45.84200 30.07500
C  34.83000 45.03600 30.54400
H  34.83000 53.10600 25.90100
H  35.53600 50.59200 19.88400
H  38.46600 45.61800 22.51500
H  35.51200 49.44700 28.99400
H  35.93400 52.33200 28.25200
H  33.58600 51.03500 29.14900
H  33.19000 51.55400 27.48500
H  33.84000 52.63700 28.77700
H  37.65000 51.44100 29.20400
H  38.20100 49.78000 28.91500
H  37.70700 50.71000 31.47200
H  37.84700 49.12200 31.06500
H  33.07200 54.53100 23.51500
H  34.37600 55.54800 23.14700
H  34.27000 54.70900 24.72500
H  33.24000 54.67800 19.44900
H  34.46100 55.52900 20.42900
H  33.14700 54.69900 21.21700
H  37.23000 49.11500 19.12000
H  37.32500 46.42400 19.91800
H  34.63400 47.42600 19.84700
H  35.66200 46.90200 18.55600
H  34.82200 48.47500 18.46500
H  39.34500 48.34400 20.85600
H  39.26400 48.09100 19.09500
H  39.38000 45.44100 20.32400
H  40.66300 46.45500 20.99900
H  40.63700 46.13800 19.27000
H  37.86000 43.43600 24.38200
H  39.21400 43.58800 25.59700
H  39.44600 44.19400 23.97000
H  37.58700 47.37000 29.30900
H  34.37400 44.50500 29.70800
H  34.16600 45.72400 31.06600
H  35.36300 44.27600 31.11600

