158

Mg 24.50100 2.72600 29.78400
C  26.80300 2.15700 32.42700
C  21.89700 2.61800 32.30500
C  22.30500 2.90500 27.32000
C  26.99400 1.93700 27.56500
N  24.40000 2.53300 32.11900
C  25.52200 2.41800 32.94500
C  25.12000 2.60600 34.37800
C  23.53800 2.57100 34.23400
C  23.24300 2.53700 32.76900
C  22.87300 1.35900 34.94600
C  25.76900 3.84800 35.03900
C  26.62900 3.73500 36.33900
H  26.16200 4.70900 37.47700
N  22.37900 2.65800 29.75000
C  21.55100 2.69300 30.86000
C  20.23000 2.88300 30.33600
C  20.25400 2.83600 28.91800
C  21.68400 2.79300 28.55100
C  18.99000 3.05100 31.12500
C  19.18700 2.95900 27.89700
O  19.36000 3.31600 26.70500
C  17.77100 2.62000 28.28200
N  24.66300 2.73300 27.76800
C  23.63900 2.87900 26.95700
C  24.10700 2.87500 25.42500
C  25.61700 2.58200 25.53900
C  25.77700 2.41400 27.06600
C  23.34200 2.09100 24.27600
C  26.51400 3.59900 24.68600
C  26.85200 4.93600 25.40200
N  26.51300 2.23800 29.91800
C  27.36800 1.85800 28.97800
C  28.68900 1.40800 29.54300
C  28.48500 1.53400 30.87500
C  27.17700 2.02700 31.08200
C  29.98600 0.98800 28.85000
C  29.15800 1.30300 32.13600
O  30.34300 1.03400 32.37900
C  28.10000 1.85800 33.27300
C  27.96600 0.89200 34.40400
O  27.31400 -0.12200 34.31100
O  28.71300 1.38000 35.50200
C  28.62400 0.66000 36.81600
H  21.11800 2.80000 33.04800
H  21.59500 2.98600 26.49400
H  27.71000 1.53700 26.84400
H  25.30200 1.64300 34.85600
H  23.19100 3.54700 34.57300
H  22.60600 0.59800 34.21300
H  21.92700 1.80700 35.25100
H  23.38400 0.88500 35.78500
H  25.01500 4.55800 35.37800
H  26.47000 4.35800 34.37800
H  27.61600 4.10600 36.06200
H  26.65600 2.69500 36.66300
H  18.38400 2.15700 30.97500
H  18.44500 3.95000 30.83700
H  19.32000 3.10700 32.16300
H  17.36600 3.46700 28.83600
H  17.86600 1.76300 28.94800
H  17.15900 2.32000 27.43100
H  23.98700 3.90800 25.09900
H  25.81600 1.56800 25.19200
H  22.48000 1.66100 24.78600
H  23.93400 1.23700 23.94900
H  23.08600 2.71300 23.41900
H  25.92800 3.89600 23.81600
H  27.43700 3.16500 24.30200
H  26.66800 4.87100 26.47400
H  26.15600 5.72800 25.12700
H  27.86000 5.19300 25.07800
H  30.43800 1.78600 28.26100
H  29.77400 0.23700 28.08900
H  30.69300 0.41800 29.45400
H  28.53500 2.80500 33.59200
H  29.63100 0.30500 37.03400
H  27.96800 -0.21000 36.82100
H  28.26800 1.34000 37.59000
Mg 17.46200 50.58000 26.28300
C  19.11900 49.33400 29.17900
C  14.99000 51.56100 28.39600
C  15.95600 51.48600 23.63300
C  19.96700 48.97600 24.39300
N  17.07100 50.46300 28.60900
C  17.98300 50.00600 29.55500
C  17.52400 50.27600 30.95200
C  16.06900 50.70100 30.71600
C  15.99300 50.93500 29.20300
C  15.01400 49.74000 31.24800
C  18.48100 51.27100 31.61300
C  18.86900 51.13900 33.06000
H  17.79200 50.47900 33.99100
N  15.77600 51.49400 25.99800
C  14.87300 51.81000 27.01100
C  13.74600 52.48400 26.39200
C  14.05400 52.56600 24.95400
C  15.25400 51.82900 24.80100
C  12.56400 52.96300 27.15600
C  13.21700 53.17900 23.80500
O  13.61100 53.12800 22.61900
C  11.92100 53.83000 24.06400
N  17.90300 50.24500 24.24100
C  17.04800 50.67500 23.26500
C  17.57200 50.34400 21.85300
C  18.95800 49.60400 22.19400
C  18.94700 49.57300 23.68900
C  16.69700 49.33500 21.11900
C  20.16100 50.31300 21.52400
C  20.68300 51.58800 22.18200
N  19.24700 49.42200 26.65100
C  20.10000 48.88500 25.76100
C  21.27000 48.31900 26.54500
C  20.91400 48.50700 27.89300
C  19.67200 49.14000 27.85100
C  22.45900 47.72200 25.91500
C  21.30600 48.21200 29.27000
O  22.32900 47.73500 29.68800
C  20.27100 48.73400 30.12300
C  19.81200 47.58300 30.95400
O  18.97900 46.78700 30.61300
O  20.38500 47.65700 32.21500
C  19.88900 46.77400 33.32800
H  14.24000 51.95300 29.08600
H  15.43600 51.76700 22.71500
H  20.66200 48.44700 23.73700
H  17.61500 49.40100 31.59600
H  15.86800 51.67400 31.16400
H  15.37900 48.87000 31.79400
H  14.43300 49.42100 30.38300
H  14.49100 50.39900 31.94000
H  18.04300 52.26400 31.51600
H  19.43800 51.27000 31.09200
H  19.16100 52.05900 33.56500
H  19.71800 50.45700 33.09200
H  12.44700 52.39800 28.08100
H  11.72500 52.67400 26.52400
H  12.57400 54.03900 27.33000
H  12.00200 54.67600 24.74600
H  11.20700 53.08100 24.40700
H  11.38300 54.17800 23.18300
H  17.70800 51.29700 21.34200
H  18.98500 48.59100 21.79400
H  16.39800 48.67000 21.92900
H  17.13600 48.66100 20.38400
H  15.84800 49.88400 20.71100
H  19.92300 50.44200 20.46800
H  20.97700 49.60800 21.36900
H  19.88300 52.03400 22.77200
H  21.00100 52.32100 21.44000
H  21.55000 51.35500 22.80000
H  22.68900 48.21100 24.96700
H  22.34900 46.66500 25.67400
H  23.30500 47.79700 26.59700
H  20.69900 49.47600 30.79700
H  19.68900 47.50000 34.11700
H  20.68900 46.09700 33.62800
H  18.97000 46.26300 33.04200

