158

Mg 16.57300 -1.57300 28.01000
C  15.59200 0.31100 30.67300
C  18.34700 -3.55400 30.10900
C  17.87200 -2.96400 25.24900
C  14.75000 0.54900 25.83600
N  16.89600 -1.65800 30.14800
C  16.38100 -0.83700 31.05300
C  16.93200 -1.11600 32.47900
C  17.79200 -2.38100 32.28800
C  17.66400 -2.59600 30.75500
C  19.27100 -2.13100 32.65600
C  15.97500 -1.34200 33.68300
C  16.36900 -0.85600 35.10300
H  17.83300 -0.99900 35.52000
N  18.00900 -2.96200 27.75400
C  18.56200 -3.76600 28.72100
C  19.28800 -4.79500 28.13300
C  19.18500 -4.60700 26.70000
C  18.31700 -3.44400 26.48200
C  19.87100 -5.97100 28.97800
C  19.75700 -5.48800 25.61100
O  19.62700 -5.28800 24.38800
C  20.73100 -6.53600 26.06300
N  16.39500 -1.21900 25.85200
C  16.94100 -2.02000 24.94100
C  16.53900 -1.74400 23.47600
C  15.70800 -0.39100 23.70900
C  15.55300 -0.38300 25.24300
C  17.67900 -1.40400 22.48600
C  14.42000 -0.39200 22.95200
C  13.31700 -1.40000 23.42900
N  15.29800 0.02000 28.16100
C  14.68500 0.83200 27.24800
C  14.09800 2.00000 27.87400
C  14.41800 1.87200 29.22000
C  15.14200 0.68500 29.32100
C  13.36700 3.09900 27.17700
C  14.35800 2.46500 30.44200
O  13.78200 3.44800 30.82600
C  15.04200 1.52400 31.49100
C  16.21900 2.18800 32.19800
O  17.23600 2.50100 31.57500
O  15.82300 2.41300 33.45600
C  16.70500 3.32400 34.15300
H  18.85100 -4.32800 30.69100
H  18.30800 -3.42900 24.36200
H  14.20400 1.18100 25.13200
H  17.43000 -0.18400 32.74700
H  17.49800 -3.29600 32.80100
H  19.52500 -1.16700 33.09800
H  20.03700 -2.23500 31.88700
H  19.47500 -2.86000 33.44000
H  15.84800 -2.42100 33.77800
H  15.03800 -0.83000 33.46900
H  15.83700 -1.50700 35.79700
H  15.95500 0.11600 35.37100
H  20.92400 -6.10900 28.73100
H  19.39300 -6.94300 28.85200
H  19.90000 -5.68700 30.03000
H  21.61000 -6.12800 26.56300
H  21.01700 -6.97700 25.10800
H  20.30300 -7.40400 26.56500
H  15.85800 -2.47600 23.04400
H  16.30800 0.47400 23.42700
H  17.29300 -1.49900 21.47100
H  18.33200 -2.26400 22.63400
H  18.09100 -0.40300 22.61700
H  14.71800 -0.53400 21.91300
H  14.02500 0.61400 23.09200
H  12.55200 -1.00500 24.09700
H  13.82600 -2.22900 23.92200
H  12.77800 -1.86500 22.60400
H  12.29000 2.97800 27.29700
H  13.51300 3.20400 26.10200
H  13.70700 4.00200 27.68400
H  14.26400 1.25800 32.20700
H  16.06200 4.06000 34.63700
H  17.37400 3.85200 33.47300
H  17.21800 2.76500 34.93500
Mg -2.47400 35.14300 26.40100
C  -4.13300 33.36200 28.81200
C  -1.24400 37.26200 28.81900
C  -1.55700 37.34700 23.94300
C  -4.17100 33.27100 24.00600
N  -2.62800 35.21300 28.54600
C  -3.18300 34.29200 29.37400
C  -2.89800 34.63900 30.91500
C  -2.12700 36.00300 30.87100
C  -1.97000 36.21400 29.29000
C  -2.61800 37.19700 31.69800
C  -2.00700 33.53300 31.61200
C  -2.75700 32.62200 32.66200
H  -2.22200 32.50200 34.12400
N  -1.36700 37.01000 26.33200
C  -0.92800 37.67900 27.47000
C  0.08900 38.70300 26.99800
C  -0.10600 38.74200 25.53900
C  -1.05000 37.69100 25.17000
C  0.95700 39.45000 28.03100
C  0.54000 39.65000 24.51500
O  0.39800 39.66600 23.30400
C  1.46900 40.60800 24.98100
N  -2.94300 35.39600 24.34900
C  -2.43800 36.33500 23.51800
C  -2.99000 36.27000 22.08400
C  -3.71900 34.85300 22.15700
C  -3.47000 34.43400 23.59000
C  -3.96800 37.45500 21.74400
C  -2.99700 33.85200 21.11900
C  -1.70200 32.99800 21.45600
N  -3.75700 33.51000 26.34800
C  -4.31000 32.80400 25.31900
C  -5.05900 31.74900 25.88500
C  -4.97300 31.92300 27.23200
C  -4.23400 33.03500 27.49100
C  -5.86700 30.76300 25.12700
C  -5.44900 31.31800 28.48000
O  -6.14800 30.32600 28.65600
C  -4.78100 32.19500 29.62800
C  -5.85300 32.62400 30.58900
O  -6.60400 33.62300 30.45800
O  -6.02900 31.69200 31.59700
C  -6.91800 32.16800 32.67200
H  -0.81500 37.97300 29.52800
H  -1.33800 38.09500 23.17800
H  -4.74600 32.76100 23.23100
H  -3.86100 34.72600 31.41800
H  -1.11000 35.82100 31.21800
H  -1.83900 37.37900 32.43900
H  -3.51700 36.88700 32.23000
H  -2.85700 38.05700 31.07400
H  -1.12500 33.94400 32.10300
H  -1.66100 32.83700 30.84600
H  -2.82600 31.59600 32.30200
H  -3.78200 32.96800 32.79800
H  0.64400 40.49300 28.06900
H  1.98500 39.56600 27.68800
H  0.83600 39.12000 29.06300
H  2.32200 40.00000 25.28400
H  1.11100 41.08000 25.89600
H  1.77300 41.28100 24.17900
H  -2.18000 36.40900 21.36800
H  -4.78500 34.97800 21.96500
H  -4.26700 38.05600 22.60300
H  -4.89200 37.23900 21.20700
H  -3.42500 38.18800 21.14700
H  -2.87600 34.44200 20.21000
H  -3.82500 33.18700 20.87400
H  -1.00300 32.83800 20.63500
H  -2.05300 31.97700 21.60400
H  -1.28200 33.39700 22.38000
H  -5.20600 30.31500 24.38500
H  -6.62200 31.27800 24.53300
H  -6.38300 30.02000 25.73400
H  -3.95200 31.77300 30.19500
H  -6.17300 32.71300 33.25100
H  -7.30600 31.33700 33.26100
H  -7.71300 32.87200 32.42300

