158

Mg 30.45200 57.92100 39.69200
C  27.95500 55.82800 38.62100
C  32.70500 55.31900 38.76600
C  32.88200 60.09800 40.09600
C  27.99600 60.39600 40.10700
N  30.38900 55.91500 38.42700
C  29.17600 55.30900 38.26600
C  29.33900 53.80700 37.89100
C  30.90300 53.59500 38.02400
C  31.36500 54.95700 38.44700
C  31.53900 52.44100 38.89100
C  28.78500 53.36700 36.47300
C  29.11800 54.24900 35.25000
H  27.83900 54.76900 34.53100
N  32.48900 57.73100 39.51200
C  33.21100 56.61100 39.11700
C  34.63200 56.94500 39.31200
C  34.69700 58.30900 39.65200
C  33.31900 58.73900 39.81800
C  35.73700 55.96100 39.10600
C  35.97300 59.02700 39.99900
O  37.05300 58.54000 39.65200
C  36.12000 60.32200 40.86400
N  30.46000 60.02000 39.87200
C  31.59500 60.69500 40.09200
C  31.34700 62.20100 40.31600
C  29.78400 62.25900 40.46500
C  29.36700 60.78000 40.25600
C  32.12700 62.87100 41.49800
C  29.21700 63.12100 39.38900
C  28.19700 64.27700 39.81500
N  28.39300 58.09500 39.48700
C  27.55400 59.19400 39.70400
C  26.19500 58.74600 39.48700
C  26.31700 57.43000 39.04800
C  27.65200 57.10100 39.12500
C  24.91500 59.47000 39.65100
C  25.54600 56.31500 38.71000
O  24.35800 56.13000 38.70900
C  26.61500 55.23400 38.33700
C  26.29900 54.02600 39.20100
O  26.74500 53.72400 40.32900
O  25.36400 53.29000 38.55400
C  24.62100 52.26100 39.38000
H  33.47500 54.55200 38.65800
H  33.59000 60.82400 40.49900
H  27.20500 61.10300 40.36600
H  29.02500 53.14100 38.69500
H  31.33500 53.54800 37.02500
H  30.77500 51.67500 39.02000
H  31.88300 52.82500 39.85200
H  32.34500 52.00200 38.30200
H  27.70100 53.25600 36.51400
H  29.06000 52.32200 36.33200
H  29.64200 53.63200 34.52100
H  29.70700 55.11500 35.55200
H  36.24200 56.08400 38.14800
H  35.43300 54.92000 39.21800
H  36.48500 56.14000 39.87900
H  35.49000 60.11400 41.72900
H  35.79400 61.09200 40.16500
H  37.13300 60.50300 41.22200
H  31.77300 62.66700 39.42700
H  29.47000 62.54300 41.46900
H  32.67500 62.16700 42.12400
H  31.34700 63.48500 41.94800
H  32.83900 63.61200 41.13600
H  28.63800 62.50800 38.69700
H  29.96600 63.59700 38.75600
H  27.13900 64.21200 39.56000
H  28.49300 65.14600 39.22700
H  28.19400 64.44600 40.89100
H  24.84100 60.55000 39.52300
H  24.51700 59.32200 40.65500
H  24.16200 59.07100 38.97000
H  26.48900 54.92700 37.29900
H  25.34000 51.44300 39.32300
H  23.84100 51.91400 38.70200
H  24.30200 52.61300 40.36100
Mg -10.52600 16.90300 41.18400
C  -7.07200 16.71300 41.09700
C  -10.29700 20.31400 40.64200
C  -13.92900 16.96900 40.78500
C  -10.55400 13.31600 41.21100
N  -8.85100 18.27800 40.87100
C  -7.50900 17.97800 40.94800
C  -6.69700 19.33000 40.70400
C  -7.77600 20.46600 41.02400
C  -9.06700 19.67500 40.77700
C  -7.56900 21.21900 42.38800
C  -6.15500 19.38300 39.22700
C  -4.66200 19.20000 39.05900
H  -4.14600 18.49700 37.78500
N  -11.96300 18.51400 40.74600
C  -11.68900 19.82600 40.61000
C  -12.90300 20.56000 40.40000
C  -13.97000 19.64500 40.41500
C  -13.31900 18.27100 40.59300
C  -12.93700 22.05900 40.16900
C  -15.40400 19.98600 40.29300
O  -15.89000 21.11900 40.11100
C  -16.45100 18.88900 40.33200
N  -12.07400 15.34100 40.79900
C  -13.41900 15.68200 40.89400
C  -14.26200 14.40900 41.13900
C  -13.15500 13.27000 41.24600
C  -11.83500 14.00300 41.17700
C  -15.31200 14.34600 42.27800
C  -13.29100 12.04500 40.36700
C  -12.57200 12.04700 39.02500
N  -9.09400 15.20900 41.07600
C  -9.24700 13.81800 41.22300
C  -7.90100 13.22800 41.51000
C  -7.03700 14.30200 41.35100
C  -7.80100 15.49800 41.13300
C  -7.48100 11.86600 41.87100
C  -5.64600 14.68700 41.49400
O  -4.67100 14.00100 41.81100
C  -5.64300 16.27400 41.23500
C  -4.99600 17.09300 42.39500
O  -3.87500 17.56600 42.22800
O  -5.71800 17.01700 43.63600
C  -5.17200 17.83500 44.67800
H  -10.13000 21.38800 40.53800
H  -15.02000 16.98200 40.81700
H  -10.50000 12.25500 41.46300
H  -5.90400 19.43400 41.44500
H  -7.68200 21.26300 40.28700
H  -7.07400 22.18700 42.30800
H  -7.09300 20.52400 43.07900
H  -8.55200 21.39400 42.82600
H  -6.39500 20.38500 38.87200
H  -6.59100 18.58800 38.62200
H  -4.30100 18.58900 39.88700
H  -4.12800 20.13000 39.25700
H  -13.10400 22.28200 39.11500
H  -11.96500 22.44000 40.48200
H  -13.70000 22.49900 40.81100
H  -16.27000 18.28200 39.44500
H  -17.41700 19.37500 40.19700
H  -16.54400 18.37200 41.28700
H  -14.86500 14.39800 40.23200
H  -13.16100 12.85300 42.25300
H  -16.23100 13.85600 41.95800
H  -15.65600 15.33400 42.58200
H  -14.92500 13.87100 43.18000
H  -14.37000 12.05000 40.20800
H  -13.00700 11.13700 40.89900
H  -13.17500 11.42300 38.36400
H  -11.59000 11.57700 39.06500
H  -12.46500 13.02100 38.54800
H  -6.40100 11.83500 41.72600
H  -7.94800 11.26000 41.09500
H  -7.88100 11.72100 42.87400
H  -5.20200 16.44400 40.25300
H  -5.82400 18.70500 44.74800
H  -4.14100 18.16400 44.54100
H  -5.35800 17.29100 45.60300

