158

Mg 46.58000 45.65400 44.42900
C  43.25900 45.05800 43.30700
C  47.41700 42.61100 42.98300
C  49.73400 46.48600 44.88200
C  45.58900 49.00500 44.88700
N  45.46500 44.06200 43.25700
C  44.14700 44.08900 42.91900
C  43.78400 42.86600 42.10700
C  45.04700 41.97900 42.21700
C  46.05200 42.94600 42.80400
C  44.85100 40.65500 43.00200
C  43.35400 43.13100 40.64900
C  42.14500 42.30500 40.08900
H  42.51400 41.28200 38.98600
N  48.36800 44.56300 44.17700
C  48.53900 43.36600 43.59800
C  49.88800 42.96800 43.75900
C  50.59300 44.14600 44.28900
C  49.55600 45.14800 44.51600
C  50.47200 41.54900 43.28400
C  52.07700 44.17000 44.43100
O  52.74100 43.16900 44.22900
C  52.89600 45.35900 44.81300
N  47.52100 47.46900 44.62100
C  48.84700 47.53100 44.93700
C  49.23700 49.00200 45.13100
C  47.98200 49.79300 45.17900
C  46.91800 48.72400 44.88200
C  50.16000 49.34300 46.39600
C  47.94600 51.10300 44.31500
C  47.98700 50.86100 42.70400
N  44.75900 46.78000 44.31900
C  44.52400 48.13100 44.56500
C  43.07400 48.37300 44.53500
C  42.57000 47.11100 44.12800
C  43.64800 46.17800 43.98200
C  42.31000 49.56200 44.96900
C  41.35300 46.37400 43.84800
O  40.15800 46.71800 44.01700
C  41.75900 45.01100 43.26700
C  41.12400 43.97000 44.13500
O  40.21900 43.24600 43.81600
O  41.61800 43.95400 45.43500
C  41.04500 42.92700 46.36600
H  47.62200 41.63900 42.53000
H  50.71700 46.75700 45.27100
H  45.19300 50.02100 44.95200
H  42.93500 42.45000 42.64900
H  45.37500 41.62600 41.23900
H  45.64800 40.56200 43.73900
H  44.87600 39.74900 42.39700
H  43.89500 40.49500 43.50000
H  44.26400 42.98200 40.06900
H  43.06700 44.18200 40.60800
H  41.44500 42.94000 39.54600
H  41.47200 41.88800 40.83900
H  51.39200 41.69700 42.72000
H  49.75500 40.96000 42.71100
H  50.65800 40.81900 44.07100
H  52.72900 46.24100 44.19400
H  53.96400 45.14400 44.84300
H  52.66400 45.74300 45.80600
H  49.78800 49.39300 44.27600
H  47.82000 50.13000 46.20300
H  51.20100 49.42800 46.08400
H  50.03700 48.44800 47.00600
H  49.81100 50.28300 46.82300
H  48.89900 51.56800 44.56800
H  47.09800 51.70300 44.64400
H  48.87700 51.38800 42.36200
H  47.07200 51.26600 42.27200
H  48.04700 49.79600 42.47600
H  42.54500 49.86000 45.99100
H  41.24500 49.33100 44.94800
H  42.48900 50.32500 44.21200
H  41.31900 44.89800 42.27700
H  41.63800 43.04300 47.27400
H  41.22900 41.88400 46.10900
H  40.05200 43.30000 46.62000
Mg -1.50800 34.35000 26.62900
C  -2.89300 32.66600 29.31600
C  0.12000 36.35900 28.69900
C  -0.67500 36.26300 23.87300
C  -3.54800 32.37500 24.35600
N  -1.46200 34.55900 28.77500
C  -2.07500 33.72600 29.69100
C  -1.66900 34.00100 31.12200
C  -0.75500 35.26900 30.93500
C  -0.65400 35.44300 29.40100
C  -1.24200 36.64000 31.60600
C  -1.02200 32.83900 31.97200
C  -1.51200 32.69400 33.42500
H  -0.46200 32.56500 34.51100
N  -0.33100 36.03900 26.32700
C  0.22700 36.70700 27.35800
C  1.20300 37.66000 26.75000
C  1.05600 37.63700 25.32200
C  -0.06600 36.64100 25.12300
C  2.04900 38.58900 27.55000
C  1.79900 38.30000 24.21100
O  1.48400 38.14900 23.05800
C  3.01200 39.21500 24.57500
N  -1.98200 34.31200 24.40200
C  -1.58700 35.24500 23.50100
C  -2.23300 35.04000 22.14600
C  -3.03600 33.70900 22.35300
C  -2.82700 33.44800 23.82100
C  -3.08200 36.29000 21.73200
C  -2.68500 32.48600 21.45900
C  -1.44900 31.68500 21.85700
N  -2.91800 32.80600 26.73300
C  -3.51100 32.02200 25.75700
C  -4.29700 30.97400 26.37200
C  -4.05300 31.19100 27.71400
C  -3.22000 32.32000 27.91600
C  -5.14800 29.90100 25.73100
C  -4.38700 30.74900 28.96600
O  -5.15300 29.87300 29.30100
C  -3.58800 31.57200 30.11200
C  -4.54300 32.11000 31.07500
O  -4.99000 33.20900 30.99600
O  -4.77300 31.23100 32.09000
C  -5.51700 31.68000 33.24600
H  0.76000 36.89500 29.40300
H  -0.63500 36.98300 23.05300
H  -4.18200 31.83700 23.64800
H  -2.52100 34.39700 31.67400
H  0.21600 35.01300 31.35900
H  -2.09000 36.45300 32.26400
H  -1.51400 37.33600 30.81200
H  -0.40700 36.93300 32.24300
H  0.05400 32.93600 32.11600
H  -1.25700 32.01600 31.29700
H  -2.23800 31.88800 33.53500
H  -2.00100 33.65600 33.57900
H  3.04500 38.14700 27.58500
H  1.63200 38.75100 28.54300
H  1.99500 39.53900 27.01900
H  3.66100 38.50700 25.09100
H  2.75500 40.11200 25.13900
H  3.42800 39.44900 23.59600
H  -1.45200 34.83700 21.41400
H  -4.10200 33.83600 22.16300
H  -2.91300 37.03200 22.51200
H  -4.16000 36.13300 21.70000
H  -2.63300 36.74800 20.85100
H  -2.44300 33.05200 20.55900
H  -3.64100 31.99100 21.28700
H  -1.70900 30.64100 22.03200
H  -1.06300 32.04200 22.81200
H  -0.74400 31.74200 21.02700
H  -4.56800 29.58500 24.86400
H  -6.19200 30.21000 25.67600
H  -5.13400 29.13900 26.51000
H  -2.94200 30.89200 30.66600
H  -4.95700 32.41200 33.82800
H  -5.77300 30.86500 33.92300
H  -6.40800 32.28100 33.06400

