158

Mg -1.44600 35.19400 26.83800
C  -3.52500 33.62900 29.10500
C  -0.45800 37.38100 29.40800
C  0.08300 37.19100 24.60700
C  -2.74900 33.33800 24.32600
N  -2.06000 35.55400 28.98700
C  -2.77100 34.67400 29.71600
C  -2.82800 35.20400 31.17100
C  -1.95700 36.50800 31.21500
C  -1.44700 36.50700 29.79200
C  -2.71200 37.78100 31.56200
C  -2.42800 34.16700 32.21300
C  -3.43900 33.56500 33.19000
H  -2.85200 33.06500 34.55100
N  -0.30300 36.94300 27.01200
C  0.03700 37.62300 28.13500
C  1.07700 38.62700 27.85900
C  1.25900 38.61000 26.41900
C  0.28700 37.55100 25.96800
C  1.79000 39.50300 28.83400
C  2.16700 39.47200 25.49800
O  2.32600 39.18700 24.31400
C  3.04200 40.50700 26.08900
N  -1.16600 35.14800 24.79300
C  -0.53800 36.10700 24.04800
C  -0.53200 35.76400 22.54800
C  -1.38400 34.42600 22.54300
C  -1.73700 34.26000 23.97800
C  -1.10900 36.94100 21.61200
C  -0.73700 33.10400 22.06200
C  -1.55500 32.16800 21.13500
N  -2.87500 33.73600 26.70700
C  -3.31300 33.05800 25.59300
C  -4.30800 32.10700 26.00800
C  -4.34800 32.22100 27.41800
C  -3.53400 33.27400 27.76700
C  -5.04800 31.14100 25.12500
C  -4.99100 31.66800 28.60400
O  -5.72600 30.73500 28.72300
C  -4.55700 32.66800 29.72700
C  -5.80800 33.36900 30.08600
O  -6.15700 34.47800 29.70900
O  -6.50700 32.68800 31.05300
C  -7.51400 33.49400 31.74800
H  -0.04900 37.73500 30.35600
H  0.62800 37.70900 23.81400
H  -3.20500 32.66400 23.59800
H  -3.88000 35.35800 31.41300
H  -1.09200 36.43300 31.87400
H  -3.31900 37.56200 32.44000
H  -3.33200 38.19400 30.76700
H  -1.95600 38.44600 31.97900
H  -1.55600 34.58400 32.71800
H  -2.21700 33.26900 31.63200
H  -3.93500 32.66500 32.82500
H  -4.24900 34.23700 33.47500
H  2.86700 39.58600 28.68900
H  1.77800 39.15000 29.86600
H  1.33400 40.49200 28.80100
H  3.73800 40.14000 26.84400
H  2.41700 41.17100 26.68800
H  3.55100 41.14000 25.36200
H  0.42100 35.46800 22.11000
H  -2.28500 34.53400 21.93800
H  -2.18700 36.91500 21.45300
H  -0.58400 37.09700 20.67000
H  -0.94000 37.90900 22.08300
H  -0.38500 32.57800 22.95000
H  0.24100 33.29500 21.62000
H  -2.60600 32.43600 21.02700
H  -1.55200 31.18800 21.61200
H  -1.11200 32.14100 20.14000
H  -4.44100 30.50800 24.47900
H  -5.61700 31.74700 24.41900
H  -5.78600 30.58700 25.70500
H  -4.18500 32.17700 30.62500
H  -8.21000 33.95100 31.04500
H  -6.99500 34.25700 32.32900
H  -7.99700 32.75000 32.38100
Mg -10.70400 17.20600 40.95400
C  -7.16900 17.16300 41.04600
C  -10.57800 20.56500 40.48500
C  -14.04500 17.14500 40.29600
C  -10.56000 13.71300 41.11800
N  -9.03800 18.65000 40.59000
C  -7.68900 18.42900 40.71000
C  -6.85600 19.65600 40.48900
C  -7.99300 20.75600 40.70900
C  -9.30900 19.96600 40.61700
C  -7.93000 21.63400 42.03600
C  -6.34300 19.67100 39.01700
C  -4.84100 19.46900 38.88000
H  -4.35000 18.48500 37.80900
N  -12.11400 18.66000 40.53800
C  -11.83800 19.93700 40.32300
C  -12.97000 20.66200 39.99800
C  -14.11200 19.80500 39.93300
C  -13.49700 18.46300 40.30700
C  -12.92000 22.21800 39.58200
C  -15.58500 20.16800 39.67600
O  -15.90600 21.32300 39.53500
C  -16.63600 19.20400 39.62800
N  -12.08500 15.66300 40.62700
C  -13.36500 15.87200 40.44800
C  -14.17300 14.55500 40.47600
C  -13.07200 13.49200 40.64800
C  -11.79200 14.34300 40.74100
C  -15.35700 14.53000 41.48400
C  -13.06000 12.33500 39.55700
C  -12.78900 12.74200 38.09000
N  -9.17400 15.67500 41.02300
C  -9.30400 14.32900 41.23700
C  -8.06900 13.75500 41.60400
C  -7.20200 14.86900 41.50800
C  -7.96400 15.98900 41.12700
C  -7.73100 12.30700 41.88400
C  -5.79800 15.27500 41.68400
O  -4.78000 14.67000 41.93800
C  -5.75400 16.78400 41.38100
C  -5.06100 17.50900 42.53400
O  -3.88000 17.83600 42.53600
O  -5.97100 17.74100 43.49900
C  -5.33300 18.05900 44.79400
H  -10.51600 21.65200 40.56800
H  -15.07400 17.05000 39.94200
H  -10.63200 12.64600 41.33800
H  -6.14600 19.79900 41.30400
H  -8.06300 21.47900 39.89600
H  -7.98800 22.68200 41.74100
H  -6.97400 21.49700 42.54200
H  -8.75400 21.44400 42.72400
H  -6.61500 20.64100 38.60000
H  -6.77800 18.97100 38.30400
H  -4.44000 19.21300 39.86000
H  -4.46400 20.42900 38.52800
H  -12.65600 22.23200 38.52400
H  -12.19200 22.71700 40.22100
H  -13.88700 22.70900 39.69400
H  -16.48000 18.43200 38.87500
H  -17.57800 19.71300 39.42100
H  -16.69600 18.72200 40.60400
H  -14.64200 14.33400 39.51700
H  -13.16900 13.19200 41.69200
H  -15.26700 15.25200 42.29600
H  -15.58800 13.47300 41.61700
H  -16.13000 14.81500 40.76900
H  -14.07600 11.95800 39.43600
H  -12.34900 11.65000 40.01800
H  -11.76100 12.45200 37.87000
H  -12.86700 13.82700 38.02700
H  -13.43600 12.27700 37.34700
H  -8.38100 11.89600 42.65600
H  -6.65800 12.31200 42.07500
H  -7.99400 11.74300 40.98900
H  -5.10200 16.89300 40.51300
H  -6.03100 18.48900 45.51300
H  -4.53900 18.80500 44.73600
H  -4.93900 17.15400 45.25600

