158

Mg 47.07400 25.63400 28.90400
C  47.84400 27.80400 31.44300
C  46.37500 23.22500 31.34700
C  46.59600 23.41600 26.43900
C  48.44700 27.82000 26.64600
N  47.20500 25.53100 31.16700
C  47.33800 26.64400 31.99300
C  47.06300 26.24900 33.51500
C  46.77700 24.69200 33.36100
C  46.77900 24.48000 31.85300
C  47.82800 23.74300 34.04900
C  45.94300 27.13200 34.14900
C  46.24000 27.56300 35.59900
H  45.14000 27.64100 36.67900
N  46.44300 23.67300 28.87900
C  46.22400 22.84600 29.92200
C  45.71500 21.56800 29.41100
C  45.94000 21.62300 28.02400
C  46.34100 22.95600 27.72400
C  45.17700 20.42700 30.26700
C  45.66300 20.51200 26.96700
O  45.93200 20.61400 25.79500
C  45.19300 19.17500 27.49100
N  47.39900 25.63800 26.75000
C  47.07400 24.60200 25.89300
C  47.27300 24.85400 24.42400
C  47.81000 26.35300 24.48000
C  47.83300 26.69100 26.01500
C  48.28100 23.84300 23.73200
C  46.97800 27.51600 23.76600
C  47.85700 28.20600 22.62100
N  47.98100 27.40900 28.99300
C  48.60300 28.12500 27.98900
C  49.24100 29.29600 28.48400
C  48.96100 29.22100 29.84600
C  48.21800 28.02600 30.12100
C  49.92000 30.42200 27.71800
C  48.94600 30.00700 31.07900
O  49.20600 31.20200 31.33300
C  48.34300 29.01000 32.18000
C  49.34600 28.70300 33.24000
O  50.25100 27.88400 33.07700
O  49.14800 29.49800 34.35300
C  49.90300 29.25600 35.59700
H  45.99100 22.48600 32.05300
H  46.37100 22.71400 25.63400
H  48.96000 28.49400 25.95700
H  48.01200 26.31000 34.04700
H  45.79800 24.42600 33.75900
H  48.46700 23.23600 33.32600
H  47.25200 22.91200 34.45500
H  48.36500 24.19800 34.88200
H  45.02500 26.55100 34.05800
H  45.79500 28.03900 33.56200
H  46.62600 28.58300 35.58500
H  47.05800 26.88600 35.84400
H  44.08900 20.40700 30.32700
H  45.47800 20.59800 31.30000
H  45.73700 19.50000 30.14000
H  46.01000 18.81100 28.11400
H  44.95900 18.51200 26.65800
H  44.35100 19.39500 28.14700
H  46.30100 24.83400 23.93100
H  48.83500 26.46500 24.12500
H  48.44700 22.94500 24.32800
H  49.26700 24.26400 23.53300
H  47.89800 23.50600 22.76900
H  46.38200 28.24400 24.31800
H  46.23200 26.96700 23.19200
H  47.51700 29.22800 22.44800
H  47.88800 27.53600 21.76300
H  48.93500 28.15700 22.77300
H  49.19700 31.22500 27.57700
H  50.38500 30.05700 26.80200
H  50.65900 30.74400 28.45200
H  47.51600 29.47000 32.72200
H  49.23600 29.04100 36.43100
H  50.55600 30.09500 35.83400
H  50.38000 28.28600 35.45300
Mg -10.62200 37.80500 42.44700
C  -9.01300 34.97800 40.92400
C  -8.49100 39.74200 40.92400
C  -12.92400 40.38500 42.65100
C  -13.06300 35.58100 43.70700
N  -9.05100 37.36100 40.90100
C  -8.51000 36.21700 40.51900
C  -7.21200 36.38200 39.70200
C  -6.92800 37.90100 40.01700
C  -8.21800 38.33500 40.69400
C  -5.64900 38.31400 40.78200
C  -7.44300 35.94000 38.26200
C  -6.47500 35.01300 37.56700
H  -5.47700 35.76600 36.61300
N  -10.60900 39.85500 41.96400
C  -9.49400 40.50700 41.51700
C  -9.66400 41.88900 41.58000
C  -11.02700 42.09400 41.96300
C  -11.62800 40.72600 42.27800
C  -8.51100 42.80600 41.32000
C  -11.59000 43.48800 42.28200
O  -10.95700 44.45100 41.93000
C  -12.92700 43.72700 43.07200
N  -12.66800 37.95200 43.07500
C  -13.42200 39.12400 43.03000
C  -14.88000 38.88900 43.51900
C  -14.84200 37.37600 43.79500
C  -13.44400 36.90800 43.45300
C  -15.19700 39.80500 44.78200
C  -15.84900 36.54800 43.07600
C  -16.87700 35.81300 43.96800
N  -10.84500 35.73200 42.56900
C  -11.84200 34.98500 43.16700
C  -11.52100 33.53600 43.10200
C  -10.36900 33.56500 42.27000
C  -10.04700 34.85200 41.86900
C  -12.27900 32.31200 43.66100
C  -9.24800 32.69700 41.66600
O  -8.95600 31.51700 41.88500
C  -8.34200 33.65800 40.81500
C  -7.02300 33.46800 41.46600
O  -6.16700 32.67200 41.12500
O  -6.82600 34.38500 42.44300
C  -5.60700 34.14100 43.19500
H  -7.62300 40.32300 40.60700
H  -13.64300 41.20500 42.70800
H  -13.87900 34.97100 44.09900
H  -6.33100 35.86800 40.08300
H  -6.81700 38.51200 39.12100
H  -5.07500 37.39900 40.92600
H  -5.91200 38.72100 41.75800
H  -5.09800 39.04700 40.19200
H  -7.52100 36.83100 37.63900
H  -8.43800 35.49600 38.22200
H  -6.88300 34.26500 36.88800
H  -5.76800 34.50500 38.22200
H  -8.63000 43.88400 41.42800
H  -8.22100 42.57300 40.29500
H  -7.68200 42.43000 41.91900
H  -13.80000 43.36600 42.52900
H  -12.99300 44.78700 43.31700
H  -12.85200 43.29400 44.06900
H  -15.59300 39.23800 42.77200
H  -15.06600 37.18400 44.84400
H  -14.36300 40.50000 44.88400
H  -15.24300 39.30800 45.75100
H  -16.13600 40.29800 44.53200
H  -15.33700 35.77500 42.50200
H  -16.46100 37.17100 42.42500
H  -17.85300 36.12600 43.59800
H  -16.90000 36.16600 44.99900
H  -16.82300 34.73400 43.82500
H  -13.11200 32.03400 43.01500
H  -12.68800 32.62600 44.62100
H  -11.62900 31.44000 43.73300
H  -8.28300 33.40200 39.75700
H  -5.42800 34.88900 43.96800
H  -4.71100 34.25600 42.58500
H  -5.59000 33.23100 43.79400

