158

Mg 41.87200 40.68700 27.06300
C  41.13200 43.27800 29.25800
C  42.45800 38.67000 29.72700
C  42.97200 38.46200 24.99100
C  41.71500 43.09400 24.38800
N  41.89300 40.98400 29.18100
C  41.54900 42.07700 29.93200
C  41.37600 41.88900 31.42700
C  41.85900 40.38000 31.56600
C  42.16600 39.99400 30.07100
C  43.09400 40.06000 32.43400
C  39.92700 42.14000 32.03700
C  39.61300 41.65700 33.45500
H  39.05300 42.71000 34.47600
N  42.50200 38.84400 27.32100
C  42.67200 38.09900 28.42900
C  43.08800 36.71900 28.10200
C  42.95800 36.62600 26.71800
C  42.82800 38.02700 26.31200
C  43.39800 35.73300 29.23900
C  42.92200 35.45400 25.81900
O  42.66800 35.68100 24.57100
C  43.10000 34.13300 26.41000
N  42.38100 40.85100 24.92500
C  42.81700 39.70400 24.36400
C  42.95500 39.88700 22.85500
C  42.38400 41.33700 22.63800
C  42.17400 41.80900 24.02400
C  44.30300 39.61600 22.14300
C  41.15100 41.49300 21.70900
C  39.81700 41.20600 22.40200
N  41.48100 42.72600 26.81200
C  41.40500 43.56600 25.69700
C  40.89700 44.88700 26.12300
C  40.81100 44.81900 27.53500
C  41.16000 43.51800 27.85700
C  40.59500 46.07400 25.24000
C  40.50400 45.57900 28.72300
O  40.23400 46.75800 28.85000
C  40.67300 44.60800 29.91700
C  41.74500 45.24600 30.71500
O  42.95400 44.92500 30.66800
O  41.16500 46.13900 31.55800
C  42.13700 46.70700 32.48600
H  42.42900 37.95200 30.54900
H  43.34300 37.77100 24.23200
H  41.44800 43.76700 23.57000
H  42.14400 42.42700 31.98400
H  41.05000 39.71900 31.87900
H  43.74800 40.92700 32.52800
H  43.76000 39.26400 32.10100
H  42.74100 39.77700 33.42600
H  39.07400 41.77700 31.46300
H  39.68200 43.20200 32.03500
H  40.60900 41.47400 33.85900
H  39.00500 40.75200 33.46500
H  43.41100 36.02900 30.28800
H  44.37600 35.30000 29.03200
H  42.74100 34.86600 29.30100
H  42.26900 33.84400 27.05400
H  44.08300 34.00100 26.86000
H  43.15200 33.38200 25.62200
H  42.32600 39.14100 22.37000
H  43.16300 41.96000 22.19900
H  44.57300 40.49900 21.56400
H  44.17700 38.73300 21.51600
H  45.09900 39.33600 22.83400
H  41.34600 40.78800 20.90100
H  41.20300 42.52500 21.36300
H  39.83100 40.54400 23.26800
H  39.15800 40.68900 21.70400
H  39.20400 42.10000 22.51800
H  39.55200 45.99600 24.93300
H  41.13900 46.08900 24.29600
H  40.90800 46.94300 25.82000
H  39.68100 44.64300 30.36700
H  42.99200 47.27100 32.11500
H  42.43100 45.83600 33.07100
H  41.63200 47.37900 33.18000
Mg -1.90200 34.59500 27.09300
C  -3.61600 32.69300 29.53400
C  -0.59200 36.55600 29.61000
C  -0.56900 36.52700 24.72000
C  -3.79100 32.98100 24.65100
N  -2.19000 34.66100 29.31500
C  -2.78600 33.71800 30.06100
C  -2.43600 33.94800 31.54300
C  -1.54400 35.21200 31.51800
C  -1.45600 35.55700 30.02300
C  -2.07800 36.44700 32.28000
C  -1.86000 32.74500 32.35400
C  -2.78800 32.14100 33.45200
H  -2.10100 32.01600 34.91100
N  -0.72500 36.22200 27.10500
C  -0.28200 36.85800 28.23300
C  0.65200 37.87000 27.78800
C  0.75200 37.88700 26.38900
C  -0.19700 36.81000 26.01100
C  1.28900 38.81300 28.73800
C  1.64600 38.74500 25.40000
O  1.54200 38.71600 24.18900
C  2.64000 39.72300 25.89100
N  -2.13800 34.73600 24.97100
C  -1.41700 35.59600 24.17700
C  -1.59500 35.23500 22.74200
C  -2.52300 34.04900 22.77900
C  -2.82300 33.83300 24.26500
C  -2.19200 36.49300 22.02700
C  -1.83100 32.79200 22.14600
C  -0.63400 32.17500 22.84600
N  -3.36300 33.06000 27.02700
C  -4.01000 32.47500 25.99500
C  -4.83100 31.39600 26.50600
C  -4.66300 31.40700 27.85400
C  -3.79300 32.49300 28.18200
C  -5.77400 30.49200 25.73200
C  -5.17300 30.80900 29.16300
O  -6.07500 30.01100 29.42100
C  -4.44900 31.62700 30.29500
C  -5.47200 32.33200 31.15800
O  -5.93100 33.42100 30.95000
O  -5.85500 31.55800 32.30300
C  -6.32100 32.37600 33.39300
H  0.05800 37.04400 30.34000
H  -0.06000 37.16300 23.99300
H  -4.39700 32.47400 23.89700
H  -3.34600 34.25100 32.06000
H  -0.50500 35.02800 31.79200
H  -2.94300 36.25500 32.91600
H  -2.25800 37.30000 31.62600
H  -1.28400 36.79700 32.93900
H  -0.90600 32.94400 32.84200
H  -1.55900 32.01100 31.60600
H  -3.10000 31.12600 33.20700
H  -3.53600 32.93000 33.53300
H  0.76900 38.91600 29.69100
H  1.35700 39.79800 28.27600
H  2.31800 38.57600 29.00800
H  3.06400 39.07600 26.65900
H  2.14800 40.62000 26.27000
H  3.37600 40.01000 25.14100
H  -0.63300 34.83500 22.42100
H  -3.45800 34.23400 22.25200
H  -3.17700 36.75200 22.41500
H  -2.41400 36.34600 20.97000
H  -1.59900 37.40500 22.08900
H  -1.59500 33.02300 21.10700
H  -2.65200 32.07600 22.11300
H  -0.48600 32.57800 23.84800
H  0.20500 32.28200 22.15700
H  -0.84300 31.11800 23.01300
H  -5.19900 29.88500 25.03300
H  -6.54500 31.12500 25.29200
H  -6.29900 29.82100 26.41100
H  -3.82100 31.01400 30.94200
H  -5.55900 32.65800 34.12000
H  -6.96800 31.67900 33.92600
H  -6.95000 33.21500 33.09200

