158

Mg 25.27300 -6.85500 48.44900
C  27.47300 -4.68600 46.94000
C  22.90200 -6.12800 46.14300
C  23.79700 -9.74100 49.31000
C  28.13100 -8.03000 50.36000
N  25.27700 -5.55100 46.65800
C  26.23300 -4.67400 46.27500
C  25.77500 -3.86100 45.07700
C  24.23600 -4.12300 45.04000
C  24.09200 -5.31800 46.06600
C  23.30400 -2.93400 45.34000
C  26.49600 -4.27200 43.79400
C  27.00500 -3.06300 42.96300
H  26.19200 -2.61400 41.76600
N  23.49300 -7.80700 47.83900
C  22.64600 -7.29100 46.91400
C  21.50200 -8.25700 46.86200
C  21.74700 -9.33500 47.77300
C  23.06100 -9.04500 48.34000
C  20.40300 -8.08600 45.89600
C  20.82600 -10.44200 48.00800
O  19.73000 -10.46100 47.47900
C  21.20900 -11.68000 48.83600
N  25.87600 -8.56800 49.75300
C  24.96700 -9.54400 50.04000
C  25.41200 -10.48500 51.22000
C  26.96900 -10.06700 51.28500
C  27.01400 -8.79500 50.42100
C  24.64800 -10.22400 52.57500
C  27.90400 -11.25300 50.89700
C  28.97400 -11.73200 51.88400
N  27.27400 -6.26400 48.88500
C  28.28200 -6.80800 49.71100
C  29.48800 -6.10400 49.53700
C  29.17400 -5.21500 48.48700
C  27.84900 -5.41500 48.07400
C  30.81900 -6.35600 50.21000
C  29.76300 -4.18800 47.66700
O  30.87800 -3.75300 47.63400
C  28.73000 -3.86700 46.58600
C  28.49400 -2.38400 46.66800
O  28.65000 -1.51900 45.81600
O  27.71400 -2.21900 47.84300
C  27.05100 -0.90600 47.95900
H  22.11800 -5.87700 45.42500
H  23.39200 -10.69400 49.65600
H  28.98200 -8.40500 50.93200
H  25.94500 -2.83100 45.39200
H  23.95400 -4.33000 44.00800
H  22.84900 -2.59400 44.41000
H  23.74200 -2.10000 45.88800
H  22.40900 -3.14700 45.92500
H  25.80800 -4.77300 43.11400
H  27.28700 -5.00900 43.93000
H  27.99600 -3.42600 42.69000
H  27.20900 -2.18200 43.57200
H  20.65500 -8.45400 44.90200
H  20.22400 -7.01400 45.80900
H  19.40700 -8.41100 46.19600
H  22.24700 -11.93000 48.61900
H  20.57800 -12.47400 48.43600
H  20.99700 -11.44200 49.87800
H  25.30900 -11.53100 50.93200
H  27.31500 -9.77100 52.27600
H  23.57300 -10.37000 52.47300
H  24.69500 -9.15900 52.79900
H  24.97000 -10.79200 53.44800
H  28.41000 -10.87700 50.00700
H  27.30300 -12.13000 50.65700
H  29.05000 -12.81800 51.93700
H  28.89600 -11.36100 52.90600
H  29.95700 -11.43200 51.52000
H  30.89200 -7.40000 50.51500
H  30.91600 -5.68900 51.06700
H  31.73200 -6.14200 49.65500
H  29.04000 -4.08600 45.56400
H  25.98400 -1.09100 48.07700
H  27.22600 -0.25200 47.10500
H  27.36800 -0.34500 48.83800
Mg -1.71900 35.11400 25.99200
C  -3.17700 33.35200 28.78300
C  -0.72100 37.56000 28.36200
C  -0.69300 36.90400 23.45300
C  -3.32100 32.90800 23.93100
N  -1.94700 35.38700 28.38100
C  -2.57100 34.51600 29.27600
C  -2.40200 35.04100 30.73100
C  -1.69800 36.42200 30.46600
C  -1.46400 36.51400 28.90800
C  -2.35300 37.57700 31.20000
C  -1.65000 34.02400 31.68200
C  -2.30800 33.41600 32.96700
H  -1.53400 33.29500 34.25600
N  -0.77800 36.90200 25.97600
C  -0.36300 37.69200 27.00800
C  0.26100 38.86000 26.39700
C  0.34400 38.64500 24.96600
C  -0.39300 37.43700 24.71200
C  0.93500 39.96700 27.19500
C  1.09400 39.50700 23.92500
O  1.23500 39.27300 22.71200
C  1.93900 40.68700 24.45300
N  -2.13600 34.97400 23.97200
C  -1.46400 35.80600 23.08200
C  -1.69800 35.38600 21.62200
C  -2.21000 33.92900 21.76700
C  -2.61000 33.88800 23.28300
C  -2.65800 36.24400 20.86200
C  -1.15800 32.84000 21.42800
C  0.20800 32.92000 22.10100
N  -2.93900 33.51300 26.28100
C  -3.55500 32.72700 25.27000
C  -4.28900 31.67400 25.86800
C  -4.16700 31.91600 27.23400
C  -3.34000 33.00800 27.44400
C  -5.11000 30.56900 25.21500
C  -4.57600 31.39700 28.51000
O  -5.24900 30.40500 28.86700
C  -3.97100 32.37000 29.61900
C  -5.09700 32.93500 30.37500
O  -5.78900 33.90300 30.00700
O  -5.32700 32.18400 31.51500
C  -6.36900 32.68500 32.43300
H  -0.31600 38.30100 29.05500
H  -0.26100 37.39900 22.58100
H  -3.89400 32.24100 23.28400
H  -3.43100 35.14900 31.07100
H  -0.70500 36.28100 30.89300
H  -2.57900 38.45400 30.59400
H  -1.55700 37.94100 31.85000
H  -3.16700 37.33200 31.88200
H  -0.67300 34.39700 31.99000
H  -1.33300 33.12900 31.14800
H  -2.67100 32.45100 32.61300
H  -3.22700 33.99500 33.06800
H  2.02100 39.90900 27.11800
H  0.74500 39.77200 28.25100
H  0.55800 40.93200 26.85700
H  2.37300 41.15700 23.57000
H  2.77600 40.42600 25.10000
H  1.28200 41.45700 24.85700
H  -0.72500 35.42900 21.13400
H  -3.09200 33.88300 21.12800
H  -2.06700 36.63100 20.03200
H  -2.95100 37.08900 21.48600
H  -3.55300 35.69400 20.57500
H  -1.10100 32.69000 20.34900
H  -1.60200 31.89500 21.73800
H  0.53500 32.17200 22.82300
H  0.38600 33.89600 22.55200
H  0.97400 32.78100 21.33800
H  -4.66800 30.22700 24.28000
H  -6.09700 30.97600 24.99300
H  -5.32500 29.69900 25.83500
H  -3.39800 31.66600 30.22100
H  -7.23800 33.11000 31.93100
H  -6.04900 33.21500 33.32900
H  -6.83900 31.80300 32.86700

