158

Mg 25.52400 1.66000 29.51400
C  27.34700 1.58000 32.44800
C  22.54500 1.88300 31.26200
C  24.01600 1.68500 26.52600
C  28.58900 1.46600 27.75900
N  25.04600 1.63800 31.66600
C  25.98200 1.82800 32.65700
C  25.23100 2.02300 34.00500
C  23.69400 2.07400 33.59700
C  23.73000 1.81200 32.07900
C  22.80300 1.07900 34.43900
C  25.70300 3.30700 34.82300
C  26.29800 3.20500 36.21500
H  25.98700 4.31900 37.25700
N  23.57300 1.64500 28.98600
C  22.51100 1.78500 29.82500
C  21.33500 1.76900 29.01600
C  21.70400 1.56300 27.67100
C  23.15300 1.65600 27.69900
C  19.85500 1.74800 29.65900
C  20.85800 1.29500 26.39100
O  21.34200 1.01900 25.28700
C  19.36700 1.22800 26.49100
N  26.26900 1.62100 27.33800
C  25.41000 1.76800 26.30500
C  26.07600 1.96500 24.93600
C  27.57200 1.93100 25.38100
C  27.52600 1.64000 26.90400
C  25.65200 0.94900 23.82600
C  28.29900 3.15200 25.03600
C  28.07000 4.47000 25.81300
N  27.53200 1.28300 29.87800
C  28.71200 1.32800 29.14100
C  29.89400 1.14900 29.99100
C  29.38300 1.23400 31.26100
C  27.99700 1.35500 31.16100
C  31.40700 0.92700 29.58500
C  29.76700 1.43500 32.61500
O  30.89400 1.38600 33.12100
C  28.45700 1.66500 33.47900
C  28.36200 0.60200 34.41300
O  27.85800 -0.48200 34.13700
O  29.01800 0.91100 35.54200
C  28.90300 -0.05100 36.63400
H  21.62900 2.20500 31.76200
H  23.48900 1.77500 25.57400
H  29.55900 1.67200 27.30200
H  25.41100 1.10900 34.57200
H  23.26100 3.06500 33.73400
H  23.43100 0.44100 35.06100
H  22.14900 0.48200 33.80400
H  22.19100 1.56600 35.19800
H  24.88600 4.02700 34.86700
H  26.44400 3.71100 34.13300
H  27.38600 3.18300 36.16000
H  26.06800 2.24700 36.68100
H  19.10800 2.25900 29.05200
H  19.88500 1.98500 30.72300
H  19.56400 0.73400 29.38600
H  18.98400 0.80600 25.56100
H  18.94800 2.22400 26.63800
H  19.14900 0.55000 27.31500
H  25.76900 2.94000 24.55800
H  28.05900 1.08900 24.88900
H  26.39800 0.16200 23.71900
H  25.39500 1.45200 22.89400
H  24.74900 0.42700 24.14300
H  27.92400 3.31000 24.02500
H  29.35900 2.92600 25.14900
H  27.60500 4.30400 26.78500
H  27.44000 5.19000 25.29100
H  29.03600 4.96800 25.89700
H  31.84600 1.70500 28.96000
H  31.53100 -0.10300 29.24900
H  31.89000 0.95300 30.56200
H  28.43000 2.64400 33.95700
H  27.85600 -0.21400 36.88900
H  29.27300 0.34300 37.58000
H  29.43200 -0.98500 36.44100
Mg -12.74000 16.28700 42.85000
C  -9.52400 14.97200 42.14300
C  -11.69700 19.18000 41.59900
C  -16.06200 17.18000 42.81500
C  -13.72300 13.06900 43.94500
N  -10.86400 16.96800 42.10500
C  -9.62200 16.34900 41.98200
C  -8.56400 17.35300 41.62700
C  -9.26800 18.64900 41.76600
C  -10.69200 18.22800 41.78500
C  -8.96900 19.40400 43.03900
C  -8.11200 17.02500 40.21700
C  -6.65700 17.40100 39.82400
H  -6.04000 16.42300 38.83600
N  -13.75000 17.95500 42.26700
C  -13.11700 19.08900 41.78600
C  -14.07500 20.11200 41.44800
C  -15.36300 19.52500 41.71700
C  -15.11700 18.15600 42.29400
C  -13.67200 21.44500 40.84000
C  -16.70600 20.22900 41.52400
O  -16.77700 21.38600 41.16800
C  -18.03900 19.54300 41.73200
N  -14.68900 15.22200 43.38800
C  -15.88000 15.84100 43.26400
C  -16.91900 14.93500 43.80600
C  -16.05400 13.76100 44.40800
C  -14.73100 13.94200 43.86600
C  -17.98000 15.60400 44.78300
C  -16.67900 12.34500 43.99200
C  -17.20700 11.43600 45.18900
N  -11.82800 14.37700 43.11000
C  -12.33400 13.17800 43.50900
C  -11.28100 12.16200 43.45000
C  -10.18100 12.78700 42.92800
C  -10.53800 14.12900 42.69300
C  -11.51900 10.69900 43.67100
C  -8.79200 12.62500 42.54200
O  -8.06200 11.63400 42.55800
C  -8.33700 14.04800 42.01400
C  -7.27200 14.51600 42.89400
O  -7.42800 14.72900 44.07400
O  -6.06800 14.63100 42.15600
C  -4.94600 15.21100 42.82700
H  -11.43600 20.23200 41.47100
H  -17.08400 17.56200 42.85600
H  -13.90400 12.01500 44.16700
H  -7.63100 17.27000 42.18500
H  -9.08500 19.29500 40.90700
H  -9.79000 19.30000 43.74800
H  -8.93600 20.47100 42.82000
H  -8.02100 19.08200 43.46800
H  -8.79300 17.52200 39.52500
H  -8.27900 15.96400 40.03400
H  -6.05500 17.54200 40.72200
H  -6.45000 18.39700 39.43200
H  -13.30800 21.24900 39.83200
H  -12.86400 21.81000 41.47500
H  -14.49100 22.16000 40.92000
H  -18.18500 19.37500 42.79900
H  -17.90900 18.56500 41.26700
H  -18.85200 20.13100 41.30600
H  -17.54700 14.64900 42.96300
H  -16.02300 13.76300 45.49700
H  -17.53200 16.55400 45.07400
H  -18.20900 14.99100 45.65400
H  -18.89400 15.73700 44.20300
H  -15.98800 11.77400 43.37200
H  -17.50200 12.48100 43.29000
H  -17.01900 10.38300 44.98400
H  -18.28700 11.54300 45.09600
H  -16.87900 11.53900 46.22400
H  -12.50700 10.37100 43.34900
H  -11.36400 10.33000 44.68500
H  -10.74700 10.20300 43.08300
H  -7.86600 13.85300 41.05100
H  -5.21700 16.15900 43.29300
H  -4.18300 15.35000 42.06200
H  -4.56400 14.58400 43.63200

