158

Mg 49.59500 46.71300 42.87600
C  46.16600 47.17100 42.00900
C  49.48000 43.62100 41.30600
C  52.98900 46.50800 43.07700
C  49.80300 50.16200 43.51900
N  47.95100 45.54200 41.81600
C  46.66200 45.87500 41.67400
C  45.91200 44.74500 40.92900
C  47.00200 43.58700 40.75300
C  48.23200 44.24000 41.45200
C  46.58300 42.28900 41.39700
C  45.48700 45.21900 39.41600
C  44.03800 44.76300 38.99900
H  43.35100 45.40200 37.78800
N  51.03700 45.16900 42.41800
C  50.80600 44.04400 41.71700
C  52.03100 43.37900 41.35200
C  53.06100 44.06600 42.10300
C  52.36300 45.35000 42.53500
C  52.11000 42.19400 40.40800
C  54.48300 43.58500 42.18400
O  54.87700 42.51500 41.68400
C  55.54300 44.36200 43.06900
N  51.08000 48.08100 43.46900
C  52.44700 47.72500 43.54600
C  53.36900 48.85500 43.58900
C  52.39500 50.09000 43.76700
C  51.00000 49.48400 43.61300
C  54.57200 48.90300 44.61200
C  52.69800 51.22400 42.66900
C  52.75700 52.66300 43.26500
N  48.26600 48.31400 42.90800
C  48.52600 49.64500 43.21500
C  47.29400 50.42400 43.20900
C  46.32100 49.46000 42.72700
C  46.97100 48.22900 42.58000
C  47.01300 51.81000 43.53000
C  44.95000 49.26800 42.36900
O  43.99400 50.05600 42.52900
C  44.77400 47.74500 41.88200
C  43.78300 47.11500 42.77600
O  43.92500 46.85700 43.95800
O  42.71700 46.67700 42.00800
C  41.80700 45.85900 42.77700
H  49.53600 42.65500 40.79900
H  54.07000 46.45200 43.22200
H  49.82300 51.25200 43.58100
H  45.03100 44.38600 41.46200
H  47.21100 43.36900 39.70600
H  45.78500 42.47200 42.11600
H  47.36800 41.73700 41.91500
H  46.18900 41.55200 40.69600
H  46.15200 44.88500 38.62000
H  45.49300 46.30800 39.39200
H  43.37600 44.84000 39.86200
H  44.04100 43.68200 38.85700
H  51.31400 41.54800 40.77900
H  52.88700 41.43300 40.47500
H  51.97400 42.64300 39.42400
H  55.22000 44.53000 44.09700
H  55.64200 45.38400 42.70200
H  56.48000 43.80900 43.01000
H  53.91900 48.91400 42.65000
H  52.56000 50.38800 44.80300
H  54.49500 48.03100 45.26100
H  54.39800 49.71700 45.31600
H  55.54400 48.97500 44.12400
H  51.87400 51.21000 41.95500
H  53.59300 51.01800 42.08200
H  52.83900 52.57800 44.34800
H  51.77800 53.11800 43.11300
H  53.55700 53.19600 42.75000
H  47.73400 52.56300 43.21000
H  46.66000 51.90400 44.55700
H  46.08400 52.03700 43.00700
H  44.41400 47.87400 40.86100
H  41.80000 46.25500 43.79300
H  41.95100 44.77900 42.73700
H  40.81300 46.00500 42.35500
Mg 27.13200 51.46100 25.80500
C  25.10600 52.29100 28.49900
C  29.58500 50.56500 27.90100
C  28.91600 50.62700 23.02800
C  24.70800 52.99000 23.70000
N  27.36900 51.50800 27.95600
C  26.30700 51.69300 28.88900
C  26.80900 51.36100 30.34100
C  28.38800 51.21300 30.09400
C  28.47300 51.12300 28.59200
C  29.31100 52.19700 30.77900
C  26.03800 50.20300 30.97800
C  25.21600 50.38200 32.26600
H  25.99700 50.84700 33.48800
N  28.96600 50.64600 25.51300
C  29.84100 50.35600 26.54100
C  31.06600 49.79200 25.95200
C  30.89900 49.79700 24.50100
C  29.51100 50.34600 24.33700
C  32.28000 49.38900 26.72400
C  31.88700 49.38900 23.51500
O  31.66300 49.42600 22.30600
C  33.22100 48.99100 23.80600
N  26.86700 51.69000 23.73100
C  27.71400 51.36600 22.74500
C  27.21200 51.57300 21.32200
C  25.81900 52.19700 21.52200
C  25.76700 52.33000 23.06100
C  28.14400 52.42600 20.40400
C  24.56800 51.39900 21.00400
C  23.46500 52.35600 20.40200
N  25.33400 52.45500 26.03400
C  24.47200 52.97800 25.10400
C  23.34800 53.61000 25.76100
C  23.55200 53.36400 27.11100
C  24.76900 52.62600 27.19600
C  22.23900 54.40100 25.10100
C  23.13000 53.70200 28.45000
O  22.12500 54.34000 28.78800
C  23.99600 52.81900 29.41200
C  24.51000 53.84300 30.40000
O  25.49100 54.52900 30.27600
O  23.61900 53.83000 31.49000
C  24.02200 54.62000 32.60800
H  30.38300 50.32100 28.60600
H  29.49300 50.37400 22.13600
H  23.92400 53.31800 23.01400
H  26.57700 52.31200 30.82100
H  28.68900 50.22000 30.42700
H  29.83600 52.80500 30.04300
H  30.07400 51.64100 31.32400
H  28.81800 52.91300 31.43700
H  26.69000 49.36600 31.23200
H  25.34500 49.86500 30.20800
H  24.52200 49.58800 32.54200
H  24.57100 51.23500 32.05500
H  32.29500 48.30800 26.86100
H  32.23400 49.69000 27.77100
H  33.14000 49.86900 26.25700
H  33.41200 48.05500 24.33100
H  33.59400 49.88600 24.30200
H  33.76100 48.87100 22.86700
H  27.05900 50.58300 20.89100
H  25.76700 53.23700 21.20300
H  28.79700 52.97000 21.08600
H  27.55100 53.09700 19.78300
H  28.62300 51.58000 19.91100
H  23.99600 50.93000 21.80400
H  24.86800 50.66100 20.26000
H  22.52700 52.26400 20.94900
H  23.24500 51.92700 19.42500
H  23.79200 53.39500 20.34900
H  21.23400 54.13400 25.42800
H  22.34600 54.40700 24.01600
H  22.26700 55.42100 25.48500
H  23.55000 51.96100 29.91500
H  24.79400 54.13600 33.20700
H  23.13000 54.70500 33.22800
H  24.35900 55.62000 32.33400

