158

Mg 44.57600 5.53200 48.44400
C  42.80100 8.51800 47.85900
C  41.69000 3.77000 47.45400
C  46.32900 2.62500 48.44600
C  47.43900 7.34600 48.46700
N  42.49500 6.10600 47.79800
C  42.00200 7.39500 47.55700
C  40.58800 7.38300 47.01100
C  40.17800 5.83400 47.14800
C  41.51200 5.17800 47.52200
C  39.06400 5.47100 48.17100
C  40.50800 8.07800 45.61500
C  39.03200 8.40200 45.21700
H  38.48400 7.86300 43.94900
N  44.04800 3.43500 48.09300
C  42.87700 2.94500 47.67000
C  42.96400 1.44500 47.71200
C  44.30900 1.15000 48.11700
C  44.98500 2.42600 48.34300
C  41.84600 0.53400 47.23600
C  44.80500 -0.24100 48.28900
O  44.17600 -1.25000 47.91100
C  46.19800 -0.51700 48.76800
N  46.53000 5.05300 48.69600
C  46.99500 3.79900 48.59500
C  48.54800 3.78900 48.39800
C  48.93000 5.30300 48.65000
C  47.57400 5.95200 48.58100
C  49.31900 2.76300 49.31600
C  49.88200 5.82300 47.50100
C  51.34300 6.07500 47.90400
N  45.09900 7.59700 48.43200
C  46.31400 8.19900 48.43000
C  46.16000 9.62800 48.34500
C  44.73700 9.83100 48.16100
C  44.19100 8.55300 48.12300
C  47.15800 10.66900 48.43400
C  43.64400 10.78100 48.03900
O  43.67300 12.01800 48.18000
C  42.38700 9.95100 47.91600
C  41.30400 10.24700 48.88500
O  41.17300 9.73400 50.02500
O  40.40000 11.11200 48.27900
C  39.20500 11.39300 48.97100
H  40.80700 3.15600 47.26900
H  46.93200 1.73000 48.28000
H  48.33000 7.97600 48.51500
H  39.94600 7.95100 47.68300
H  39.88100 5.35000 46.21800
H  38.25600 4.92000 47.69000
H  38.61400 6.40600 48.50800
H  39.30100 5.01300 49.13100
H  41.20100 7.58700 44.93100
H  40.95200 9.06900 45.52300
H  38.88100 9.48200 45.21600
H  38.42700 7.92900 45.99100
H  40.89800 1.07000 47.27300
H  41.69100 -0.35000 47.85500
H  42.07100 0.19200 46.22600
H  46.44700 -1.53500 49.06800
H  46.40000 0.10200 49.64200
H  46.81000 -0.35000 47.88200
H  48.56800 3.38300 47.38700
H  49.38200 5.45500 49.63100
H  48.66300 1.95600 49.64200
H  49.71400 3.26400 50.20000
H  50.15300 2.29300 48.79600
H  49.48700 6.68800 46.96700
H  49.86000 5.08800 46.69700
H  51.93100 5.18800 47.67000
H  51.54100 6.17000 48.97200
H  51.72300 6.95000 47.37700
H  47.86500 10.61700 47.60700
H  47.60000 10.72800 49.42900
H  46.69700 11.64200 48.26700
H  42.10800 10.29300 46.91900
H  38.48700 11.91900 48.34100
H  39.47300 12.12900 49.73000
H  38.79300 10.49200 49.42700
Mg 4.85200 53.16900 42.09800
C  5.01400 49.78000 41.25600
C  7.83200 53.69900 40.47300
C  4.39700 56.49300 42.58800
C  1.55500 52.56600 43.30300
N  6.17400 51.92700 40.87900
C  6.06100 50.59300 40.73900
C  7.29800 50.09800 39.93700
C  8.30800 51.18400 40.18800
C  7.38500 52.39100 40.53600
C  9.28400 51.03900 41.42800
C  6.99200 49.92200 38.41300
C  7.62100 48.79400 37.62000
H  6.92000 48.05100 36.38800
N  5.93700 54.85300 41.57800
C  7.18200 54.83500 40.96200
C  7.70500 56.20700 40.93400
C  6.66700 57.04800 41.44200
C  5.61300 56.18000 41.93800
C  9.11100 56.55100 40.49800
C  6.68500 58.53200 41.50200
O  7.71800 59.17700 41.21100
C  5.63700 59.34000 42.10300
N  3.21200 54.33500 42.80100
C  3.31400 55.69700 42.94000
C  2.09100 56.38700 43.39600
C  1.10800 55.14700 43.56800
C  1.97500 53.89900 43.22200
C  2.25100 57.15500 44.73100
C  -0.12600 55.21900 42.57900
C  -1.43700 54.54300 43.21300
N  3.47400 51.55100 42.22300
C  2.28900 51.46700 42.86000
C  1.87200 50.07700 42.95000
C  2.91200 49.36700 42.31000
C  3.83900 50.29700 41.86100
C  0.63200 49.51300 43.44600
C  3.34700 48.06300 41.90600
O  2.80200 47.02300 41.97900
C  4.80500 48.25400 41.30800
C  4.86700 47.54900 40.06700
O  4.21600 47.81100 39.07800
O  5.77600 46.49800 40.15700
C  5.83100 45.53300 39.04200
H  8.82200 53.81100 40.02500
H  4.24100 57.54900 42.81900
H  0.55900 52.42600 43.72900
H  7.58400 49.12900 40.34600
H  9.02200 51.44300 39.40600
H  10.20500 51.49000 41.06100
H  9.37500 49.99100 41.71300
H  8.97800 51.64100 42.28400
H  7.28800 50.86300 37.95200
H  5.92500 49.92400 38.19000
H  7.83100 48.07000 38.40700
H  8.61500 49.02700 37.23900
H  9.66700 55.66200 40.20100
H  9.60300 56.97300 41.37500
H  9.05300 57.29800 39.70600
H  5.80600 60.41000 42.22100
H  5.41300 58.96200 43.10100
H  4.81700 59.12800 41.41700
H  1.81500 57.05800 42.58300
H  0.86300 54.87500 44.59500
H  2.40900 58.18400 44.40800
H  3.11700 56.80700 45.29400
H  1.33300 57.03700 45.30600
H  0.24100 54.59800 41.76200
H  -0.39000 56.23500 42.28300
H  -1.69400 53.63200 42.67200
H  -2.27000 55.22400 43.38600
H  -1.21200 54.14400 44.20200
H  0.66800 49.35300 44.52300
H  0.38900 48.61000 42.88500
H  -0.14800 50.22600 43.17900
H  5.59200 47.79100 41.90300
H  6.85800 45.55600 38.67600
H  5.16800 45.72000 38.19800
H  5.36300 44.58200 39.29800

