158

Mg 6.57800 54.28300 42.18700
C  6.00300 50.81000 41.58700
C  9.57000 53.86200 40.57500
C  6.52800 57.55300 41.71500
C  3.25200 54.42000 43.24500
N  7.51000 52.54600 41.07300
C  7.18000 51.22200 40.99600
C  8.29100 50.37100 40.45200
C  9.56500 51.32000 40.64800
C  8.85000 52.69800 40.86500
C  10.60400 50.97400 41.62800
C  8.04700 49.86100 39.04700
C  7.30400 50.70900 38.06600
H  6.82200 50.19800 36.79500
N  7.95900 55.58100 41.38600
C  9.17900 55.21300 40.87900
C  9.95500 56.42600 40.76000
C  9.08100 57.52400 40.95100
C  7.74700 56.95100 41.30600
C  11.45600 56.46800 40.57800
C  9.38900 58.96200 40.73500
O  10.54700 59.30400 40.36100
C  8.43700 60.02600 40.81300
N  5.09000 55.73900 42.47500
C  5.30500 57.00500 42.19000
C  4.05900 57.91900 42.55500
C  2.98300 56.91300 42.77700
C  3.79600 55.58100 42.89100
C  4.38500 58.94600 43.69400
C  1.81200 56.76700 41.73800
C  0.49400 57.06000 42.34000
N  5.02600 52.92500 42.52500
C  3.80500 53.11300 43.16400
C  3.17400 51.90100 43.58700
C  3.99500 50.95400 42.87700
C  5.02400 51.61300 42.21400
C  2.02400 51.69000 44.53400
C  4.20500 49.57500 42.70500
O  3.56700 48.65800 43.13500
C  5.47400 49.37800 41.76700
C  5.11500 48.63200 40.48600
O  4.30800 48.99500 39.67700
O  5.79700 47.48800 40.32200
C  5.27300 46.53100 39.35700
H  10.61400 53.69500 40.30300
H  6.46200 58.64300 41.74600
H  2.24600 54.36700 43.66700
H  8.35300 49.51000 41.11700
H  10.06200 51.49700 39.69500
H  10.40400 49.99900 42.07300
H  10.56800 51.73800 42.40500
H  11.60600 50.92600 41.20100
H  7.78500 48.80300 39.07700
H  9.05600 49.77800 38.64300
H  7.95000 51.57800 37.93600
H  6.41200 51.10600 38.55000
H  11.65000 57.05500 39.68100
H  11.95200 55.51600 40.38700
H  11.97100 57.00000 41.37700
H  7.55600 59.83500 40.20200
H  8.87600 60.98200 40.52900
H  8.08800 60.04300 41.84600
H  3.71100 58.53200 41.72400
H  2.63200 57.14600 43.78200
H  5.44100 59.02600 43.95200
H  3.83100 58.59300 44.56400
H  3.99400 59.94200 43.48500
H  1.82100 55.80300 41.22900
H  2.10100 57.48800 40.97200
H  0.27500 56.41600 43.19200
H  -0.22600 56.79000 41.56700
H  0.49300 58.08900 42.70000
H  1.87600 52.53900 45.20100
H  2.17200 50.77100 45.10200
H  1.13300 51.67700 43.90600
H  6.19500 48.78000 42.32500
H  5.76000 45.57200 39.53200
H  5.38900 46.90000 38.33800
H  4.23500 46.31500 39.61000
Mg -5.45900 25.46800 25.44600
C  -3.70000 26.95200 27.95700
C  -6.68400 23.13100 27.53500
C  -7.17800 24.24300 22.81100
C  -3.92800 27.72400 23.20400
N  -5.18000 25.14700 27.50800
C  -4.48800 25.89100 28.40500
C  -4.76900 25.44200 29.81500
C  -5.55600 24.11000 29.62300
C  -5.86000 24.15700 28.12200
C  -4.74500 22.82000 30.08900
C  -5.53600 26.58600 30.57400
C  -4.85400 26.91200 31.89100
H  -4.50000 25.83400 32.91400
N  -6.86600 23.87000 25.25500
C  -7.28700 23.09500 26.25100
C  -8.31100 22.19200 25.74600
C  -8.38100 22.39700 24.34500
C  -7.46400 23.54500 24.06300
C  -9.12900 21.31900 26.74700
C  -9.20400 21.69900 23.38300
O  -9.34100 22.09400 22.23500
C  -10.07300 20.60000 23.81500
N  -5.32300 25.74200 23.24000
C  -6.25500 25.21800 22.44400
C  -6.19000 25.80000 21.01500
C  -5.16100 26.98300 21.18900
C  -4.76600 26.83800 22.63200
C  -5.81000 24.79000 19.87800
C  -5.73200 28.40000 20.95600
C  -4.96100 29.44600 20.22100
N  -4.00000 26.92500 25.50000
C  -3.50200 27.77400 24.48100
C  -2.48300 28.66500 25.06700
C  -2.55900 28.40800 26.44400
C  -3.46100 27.34400 26.65900
C  -1.70200 29.81100 24.45300
C  -2.00700 28.67800 27.77000
O  -1.12700 29.46400 28.11200
C  -2.81000 27.80200 28.80400
C  -1.86400 27.01700 29.64300
O  -1.15100 26.09400 29.25600
O  -1.89600 27.58200 30.92200
C  -1.03000 26.93200 31.91000
H  -7.06200 22.33100 28.17500
H  -7.80900 23.86800 22.00300
H  -3.51700 28.33400 22.39800
H  -3.78300 25.28100 30.25100
H  -6.44100 24.08900 30.25900
H  -4.57200 22.09500 29.29400
H  -5.27100 22.28700 30.88200
H  -3.75600 23.11900 30.43600
H  -6.54800 26.28000 30.83900
H  -5.78100 27.43700 29.93800
H  -5.67400 27.50300 32.29800
H  -3.96500 27.50500 31.67700
H  -10.17500 21.60700 26.85000
H  -8.69700 21.31400 27.74800
H  -9.11700 20.28200 26.41300
H  -9.53500 19.81900 24.35200
H  -10.44300 20.21000 22.86700
H  -10.99800 20.90000 24.30800
H  -7.17700 26.20500 20.78900
H  -4.25600 26.78300 20.61600
H  -6.46200 23.93500 20.06000
H  -4.77800 24.44100 19.90700
H  -5.97500 25.32100 18.94100
H  -6.09000 28.93200 21.83800
H  -6.65900 28.25700 20.40100
H  -4.04900 29.06600 19.76000
H  -4.73100 30.34000 20.80100
H  -5.58900 29.82000 19.41200
H  -1.98900 30.19000 23.47200
H  -0.72500 29.42500 24.16200
H  -1.61200 30.67600 25.10900
H  -3.37700 28.47200 29.45000
H  -1.06900 27.47200 32.85600
H  -0.06200 27.19100 31.48000
H  -1.22000 25.86100 31.83700

