158

Mg 53.78700 23.90600 44.75700
C  51.50500 26.39400 43.78600
C  51.79000 21.59100 43.28500
C  56.34100 21.74400 45.34300
C  55.91200 26.52000 45.61300
N  51.93000 24.00400 43.65300
C  51.21800 25.12400 43.28100
C  49.92200 24.81500 42.46400
C  49.89700 23.25300 42.69300
C  51.27000 22.87700 43.16700
C  48.66600 22.70700 43.50400
C  50.00800 25.18300 40.91500
C  51.45200 25.67500 40.43200
H  51.55500 26.18300 38.96800
N  54.07800 21.95400 44.34700
C  53.08700 21.13100 43.87700
C  53.53200 19.71200 44.02400
C  54.83500 19.69400 44.56500
C  55.13900 21.14700 44.78200
C  52.64200 18.51200 43.62100
C  55.62600 18.42100 44.93600
O  55.29300 17.26000 44.68400
C  56.89100 18.52200 45.78100
N  55.87500 24.15900 45.19500
C  56.67700 23.07800 45.51300
C  58.16500 23.46800 45.77100
C  57.97100 25.05200 45.80800
C  56.51800 25.26200 45.49100
C  58.96200 22.74100 46.91300
C  58.96500 25.88200 44.91500
C  60.43800 26.16800 45.35700
N  53.63700 26.00900 44.95800
C  54.56600 26.95300 45.31200
C  53.95500 28.27700 45.45400
C  52.69400 28.06200 44.90000
C  52.55700 26.72100 44.55000
C  54.48300 29.55600 45.98400
C  51.46500 28.73600 44.47300
O  51.10900 29.89200 44.68300
C  50.56700 27.63600 43.85000
C  50.04100 28.12500 42.52500
O  50.74100 28.58400 41.64900
O  48.70400 27.92500 42.44100
C  48.00800 28.53700 41.28400
H  51.27000 20.76800 42.78900
H  57.17300 21.09900 45.63300
H  56.54800 27.29500 46.04500
H  48.95900 25.22300 42.77100
H  49.82400 22.65500 41.78500
H  48.12500 21.90000 43.00900
H  47.98300 23.49800 43.81200
H  48.99800 22.22800 44.42500
H  49.25000 25.92300 40.65900
H  49.73900 24.31000 40.31900
H  52.15500 24.85000 40.54800
H  51.81800 26.47200 41.08000
H  51.57300 18.72200 43.59200
H  52.62900 17.66100 44.30200
H  52.86300 18.12000 42.62800
H  56.62500 19.06600 46.68700
H  57.68500 19.02500 45.22900
H  57.20900 17.54300 46.13900
H  58.79400 23.34700 44.88900
H  58.06100 25.24900 46.87600
H  58.50500 21.77400 47.12800
H  59.04900 23.43700 47.74800
H  59.95400 22.51900 46.51900
H  58.53000 26.86900 44.75800
H  59.08300 25.32500 43.98500
H  60.48100 27.17500 45.77200
H  61.21100 25.99100 44.60900
H  60.58500 25.46900 46.18000
H  53.62800 30.18400 45.73200
H  55.42200 29.80400 45.48900
H  54.55700 29.40000 47.06000
H  49.76200 27.38300 44.54000
H  48.52600 29.43600 40.95100
H  46.99800 28.78700 41.61000
H  47.96300 27.84500 40.44300
Mg 0.77500 43.02600 26.64100
C  3.34000 42.99900 29.09100
C  -1.54300 42.48600 28.97200
C  -1.28700 42.70600 24.02900
C  3.44700 43.40300 24.37900
N  0.96000 42.93900 28.76600
C  2.06900 42.93500 29.63100
C  1.62400 42.97600 31.08100
C  0.12500 42.59400 31.02100
C  -0.20000 42.54000 29.48700
C  -0.33600 41.24300 31.81800
C  1.94600 44.39600 31.67200
C  2.11100 44.54200 33.16900
H  1.63300 43.44400 34.09600
N  -1.11900 42.56600 26.49600
C  -1.93000 42.32900 27.58100
C  -3.27800 42.06100 27.02100
C  -3.28700 42.18600 25.61100
C  -1.86200 42.52300 25.32200
C  -4.48400 41.65900 27.85600
C  -4.44100 42.03500 24.57600
O  -4.24000 41.88700 23.36300
C  -5.75800 41.62400 25.15300
N  0.98000 43.11300 24.52600
C  -0.00500 42.85600 23.64100
C  0.41500 42.87400 22.16100
C  1.94100 43.23200 22.32500
C  2.12300 43.32800 23.83100
C  0.15800 41.60400 21.39400
C  2.31100 44.62700 21.70700
C  2.11300 45.96700 22.59100
N  2.96200 43.30000 26.64600
C  3.88700 43.35700 25.64300
C  5.25800 43.35700 26.17400
C  5.09400 43.09300 27.50800
C  3.70700 43.21700 27.74900
C  6.40500 43.59200 25.40200
C  5.73800 42.77700 28.80400
O  6.94800 42.52900 29.02500
C  4.66900 42.92200 29.86800
C  4.95500 41.83400 30.84000
O  4.74200 40.61200 30.66800
O  5.43000 42.35900 32.02800
C  5.81500 41.40600 33.08900
H  -2.31200 42.14300 29.66800
H  -1.93800 42.57600 23.16300
H  4.24600 43.53700 23.64700
H  2.30700 42.24100 31.50800
H  -0.49600 43.38200 31.44900
H  -1.07200 41.57000 32.55200
H  0.52500 40.84400 32.35400
H  -0.81400 40.54200 31.13200
H  1.01400 44.87800 31.37700
H  2.75600 44.90100 31.14600
H  1.62000 45.41800 33.59300
H  3.19000 44.61600 33.31000
H  -5.17200 42.47100 28.09000
H  -4.15200 41.21600 28.79500
H  -5.10900 40.86000 27.45600
H  -5.71300 40.57500 25.44500
H  -6.41800 41.60700 24.28600
H  -6.11500 42.25000 25.97000
H  -0.03300 43.71200 21.62600
H  2.63400 42.47200 21.96600
H  -0.45200 41.04400 22.10400
H  1.06200 41.04600 21.15100
H  -0.45000 41.83800 20.52000
H  1.85500 44.93100 20.76500
H  3.38300 44.64400 21.51100
H  1.47800 46.62400 21.99700
H  3.09200 46.39100 22.81600
H  1.60500 45.88900 23.55200
H  7.33700 43.49400 25.95700
H  6.34500 44.45300 24.73500
H  6.45100 42.69300 24.78800
H  4.91100 43.88900 30.30900
H  6.75500 40.89100 32.88900
H  5.00400 40.72400 33.34300
H  5.94400 41.96600 34.01500

