158

Mg 24.54300 -6.77200 46.66500
C  27.00800 -4.39800 46.21800
C  22.71000 -5.25900 44.12300
C  22.47400 -9.38300 46.64300
C  26.91800 -8.54800 48.71800
N  24.96400 -5.13800 45.16500
C  26.03500 -4.28500 45.29400
C  25.87300 -3.14900 44.30200
C  24.37900 -3.35100 43.85800
C  23.98000 -4.71700 44.39500
C  23.33300 -2.26800 44.24500
C  27.00800 -3.41400 43.16100
C  27.91500 -2.15900 42.94200
H  27.95700 -1.80100 41.43700
N  22.74100 -7.16500 45.70300
C  22.13800 -6.40300 44.64200
C  20.88000 -7.04200 44.32900
C  20.83500 -8.21500 45.13800
C  22.04100 -8.29900 45.85400
C  19.81800 -6.53100 43.34700
C  19.59300 -9.05800 45.21700
O  18.70200 -8.92900 44.39600
C  19.38400 -10.03400 46.41300
N  24.66400 -8.71000 47.43600
C  23.68300 -9.59900 47.34800
C  23.96300 -10.88300 48.13300
C  25.36300 -10.56000 48.73500
C  25.72700 -9.13600 48.27400
C  22.85600 -11.19500 49.25000
C  26.37700 -11.60400 48.35500
C  27.16600 -12.17300 49.61900
N  26.57500 -6.59500 47.40100
C  27.34300 -7.29700 48.27800
C  28.54600 -6.49000 48.63200
C  28.43700 -5.35400 47.76300
C  27.25800 -5.47400 47.09700
C  29.57300 -6.95100 49.65400
C  29.18000 -4.15000 47.46200
O  30.20300 -3.69200 47.86400
C  28.20700 -3.45300 46.34500
C  27.81000 -2.18100 46.86700
O  27.16500 -1.97300 47.87500
O  28.29700 -1.20400 46.07500
C  27.70500 0.13200 46.21800
H  22.11700 -4.69100 43.40400
H  21.83700 -10.25800 46.49900
H  27.52600 -9.12300 49.42100
H  26.01600 -2.22200 44.85600
H  24.31700 -3.34400 42.77000
H  23.88600 -1.36400 44.50100
H  22.68900 -2.54000 45.08200
H  22.70900 -2.03800 43.38200
H  26.52500 -3.73700 42.23900
H  27.67400 -4.21300 43.48700
H  28.95500 -2.26300 43.25100
H  27.58500 -1.27300 43.48500
H  18.91600 -6.46700 43.95500
H  19.63000 -7.13800 42.46100
H  20.12900 -5.54500 43.00200
H  18.31200 -10.14400 46.57900
H  19.86100 -9.58000 47.28200
H  19.95900 -10.93700 46.21100
H  24.08300 -11.66000 47.37700
H  25.19700 -10.27200 49.77300
H  22.33200 -12.12900 49.04500
H  22.16000 -10.36400 49.36600
H  23.37300 -11.13900 50.20800
H  27.14000 -11.25400 47.65900
H  25.80900 -12.48700 48.06300
H  26.49100 -12.41300 50.44100
H  27.83900 -11.36000 49.89100
H  27.66500 -13.07200 49.25700
H  29.83000 -7.98000 49.40400
H  29.19600 -6.86200 50.67300
H  30.49100 -6.36500 49.60900
H  28.66200 -3.33800 45.36100
H  27.46300 0.51800 45.22800
H  28.40400 0.86200 46.62600
H  26.75900 0.13800 46.75900
Mg 48.56100 35.02900 28.09900
C  46.49900 33.72500 30.71200
C  48.39700 38.05300 29.87600
C  49.85000 36.43500 25.40300
C  47.70400 32.16100 26.29100
N  47.49600 35.73900 30.01500
C  46.94300 34.96400 30.97800
C  46.92400 35.64100 32.35000
C  46.95100 37.11100 31.88100
C  47.71300 36.98000 30.55200
C  45.57200 37.84900 32.02600
C  48.21600 35.19700 33.18300
C  47.96500 34.87400 34.65600
H  47.50500 36.00000 35.60300
N  49.13800 37.00400 27.68500
C  49.00800 38.07600 28.59100
C  49.77600 39.10200 28.08500
C  50.15200 38.76900 26.73600
C  49.69600 37.38100 26.49200
C  50.23200 40.38700 28.90800
C  50.97600 39.45400 25.60900
O  51.16100 38.87800 24.54400
C  51.29300 40.95400 25.75000
N  48.75500 34.41600 26.12800
C  49.51600 35.06600 25.24300
C  49.74400 34.22600 23.95600
C  49.04500 32.88000 24.25400
C  48.41300 33.14800 25.62300
C  49.44300 34.94500 22.66700
C  49.91600 31.67300 24.25500
C  51.05400 31.76900 25.33900
N  47.27100 33.26500 28.40700
C  47.08100 32.18800 27.57100
C  46.31200 31.25600 28.26000
C  45.99900 31.79200 29.54100
C  46.62500 33.06300 29.51400
C  45.89500 29.95600 27.67800
C  45.33200 31.57000 30.74400
O  44.72100 30.58800 31.09900
C  45.63800 32.85900 31.57400
C  46.11700 32.31600 32.85600
O  47.21200 31.86900 33.10000
O  45.06100 32.30400 33.77400
C  45.21300 31.30700 34.86100
H  48.33800 39.01700 30.38400
H  50.26100 36.88600 24.49700
H  47.50900 31.26600 25.69600
H  45.99500 35.44000 32.88400
H  47.54700 37.65000 32.61700
H  45.43200 38.52100 31.18000
H  45.45200 38.32200 33.00100
H  44.68300 37.23400 31.88600
H  49.04700 35.89200 33.06700
H  48.51700 34.24300 32.75100
H  48.82600 34.29800 34.99500
H  47.13800 34.17000 34.75500
H  49.98100 40.43300 29.96700
H  49.98300 41.31900 28.40000
H  51.31900 40.40900 28.82800
H  51.84400 41.17100 26.66500
H  50.30000 41.39500 25.84000
H  51.95200 41.28400 24.94700
H  50.82200 34.16400 23.80900
H  48.31300 32.70800 23.46500
H  49.16500 35.96200 22.94700
H  48.55400 34.54800 22.17900
H  50.29300 34.94000 21.98500
H  50.39900 31.57700 23.28300
H  49.41400 30.75400 24.55500
H  50.85100 32.46000 26.15800
H  52.01500 31.94400 24.85500
H  51.14400 30.83500 25.89300
H  46.68800 29.49600 27.08800
H  44.97700 30.19700 27.14000
H  45.79300 29.31300 28.55100
H  44.70800 33.40300 31.73900
H  45.43400 30.35500 34.38000
H  44.24600 31.27800 35.36300
H  45.96900 31.40600 35.64000

