158

Mg 26.13800 1.56500 29.92800
C  28.11600 1.48600 32.76000
C  23.39700 2.08800 32.11700
C  24.11200 1.69000 27.18300
C  28.63400 0.41900 28.06600
N  25.75200 1.82400 32.24300
C  26.78800 1.75900 33.16300
C  26.24800 2.10500 34.55800
C  24.68800 1.96100 34.39900
C  24.53800 2.01500 32.84700
C  24.09000 0.63000 35.02100
C  26.77800 3.47700 35.05600
C  27.43700 3.65500 36.49000
H  26.45600 4.33100 37.44700
N  24.04800 1.92100 29.72600
C  23.10900 1.98300 30.72900
C  21.80100 2.11600 30.15600
C  22.00400 2.18700 28.72300
C  23.44000 1.91800 28.44900
C  20.53500 2.29100 30.96100
C  20.95900 2.35600 27.62900
O  21.21900 2.21000 26.42600
C  19.47100 2.52500 27.89900
N  26.35400 1.03300 27.91700
C  25.38800 1.16500 26.95100
C  25.96800 1.03000 25.49200
C  27.51500 0.86700 25.79700
C  27.51300 0.68900 27.34700
C  25.43600 -0.03900 24.66500
C  28.42100 2.06500 25.35700
C  29.82700 1.67800 24.90900
N  28.00400 0.91400 30.32400
C  28.95900 0.49700 29.39900
C  30.24000 0.36700 30.05100
C  29.98200 0.72700 31.38200
C  28.63500 1.10300 31.44900
C  31.43600 -0.15700 29.35000
C  30.54300 0.85000 32.73900
O  31.63900 0.63100 33.23900
C  29.38500 1.39000 33.69700
C  29.27600 0.46200 34.87300
O  28.62700 -0.59200 34.81200
O  29.80100 0.91900 36.03300
C  29.84600 0.03600 37.17100
H  22.54800 2.29000 32.77300
H  23.54200 1.85200 26.26500
H  29.47500 0.11600 27.43900
H  26.61800 1.42000 35.32100
H  24.13600 2.75400 34.90200
H  23.76000 -0.05100 34.23600
H  23.17800 0.84500 35.57800
H  24.73000 0.14600 35.75900
H  25.96800 4.20300 35.00300
H  27.56600 3.85500 34.40400
H  28.33700 4.26900 36.51600
H  27.78500 2.69200 36.86600
H  19.93800 1.38400 30.86200
H  20.00200 3.19300 30.66000
H  20.81100 2.29700 32.01500
H  19.04900 1.72100 28.50200
H  18.89200 2.48900 26.97600
H  19.29000 3.45300 28.44100
H  25.77400 1.98800 25.00900
H  27.85400 -0.04900 25.31200
H  24.64400 0.29600 23.99500
H  25.02600 -0.78300 25.34700
H  26.18400 -0.52300 24.03700
H  28.56100 2.73800 26.20200
H  27.95200 2.55500 24.50400
H  30.53000 2.30800 25.45400
H  29.85700 1.86300 23.83500
H  29.93100 0.61400 25.11900
H  32.12900 0.68400 29.32200
H  31.27300 -0.46000 28.31600
H  31.89100 -0.91100 29.99200
H  29.72800 2.38800 33.97200
H  30.04700 -0.98000 36.83200
H  28.89100 0.13500 37.68700
H  30.58400 0.27300 37.93700
Mg -6.24200 25.54300 25.09700
C  -4.98200 26.73800 28.22100
C  -8.00000 23.24600 26.83500
C  -7.27900 24.55600 22.19200
C  -3.76800 27.53600 23.53300
N  -6.41700 25.06500 27.25200
C  -5.92500 25.76700 28.32600
C  -6.47000 25.22700 29.68800
C  -7.13300 23.85500 29.15200
C  -7.26500 24.12600 27.65400
C  -6.31800 22.56300 29.45300
C  -7.52800 26.14600 30.21500
C  -7.82700 26.03900 31.73200
H  -6.99000 25.03200 32.41700
N  -7.54800 24.16600 24.57900
C  -8.14300 23.25000 25.43200
C  -8.97800 22.38900 24.69500
C  -8.80900 22.81300 23.28800
C  -7.89500 23.95200 23.26700
C  -9.79200 21.29500 25.39600
C  -9.38800 22.22100 22.07000
O  -9.28600 22.68600 20.98300
C  -10.12700 20.90400 22.27300
N  -5.54500 25.84900 23.21700
C  -6.17800 25.36000 22.09500
C  -5.52900 25.74200 20.75600
C  -4.53600 26.79200 21.24500
C  -4.67600 26.78600 22.76900
C  -4.95100 24.61500 19.89200
C  -4.66400 28.21800 20.59800
C  -3.35500 28.93400 20.30300
N  -4.76300 26.96800 25.71400
C  -3.76300 27.60800 24.90500
C  -2.87900 28.34500 25.84300
C  -3.37500 28.09900 27.13700
C  -4.45000 27.21600 26.99700
C  -1.79100 29.21300 25.46300
C  -3.21000 28.37500 28.52200
O  -2.37900 29.03200 29.11800
C  -4.32900 27.52400 29.34500
C  -3.44100 26.64000 30.24400
O  -2.70700 25.73000 29.91600
O  -3.66900 27.05800 31.54900
C  -2.88000 26.30600 32.55700
H  -8.62500 22.49000 27.31600
H  -7.55700 24.14000 21.22100
H  -2.94800 28.01500 22.99300
H  -5.68400 25.05800 30.42400
H  -8.14000 23.61500 29.49400
H  -5.31900 22.83500 29.79600
H  -6.25600 22.01700 28.51200
H  -6.86100 21.93400 30.15900
H  -8.50900 26.02800 29.75600
H  -7.18900 27.13100 29.89300
H  -8.90400 25.87700 31.76800
H  -7.80300 27.00800 32.23000
H  -9.40900 20.37000 24.96500
H  -10.80900 21.43400 25.02800
H  -9.97600 21.32100 26.47000
H  -9.47300 20.16100 22.73100
H  -10.53900 20.61300 21.30700
H  -11.04000 21.06900 22.84600
H  -6.25800 26.20100 20.08900
H  -3.50900 26.53000 20.98900
H  -3.86100 24.63900 19.91900
H  -5.34700 24.68400 18.87900
H  -5.23100 23.60600 20.19500
H  -5.23300 28.87600 21.25600
H  -5.26000 28.14200 19.68900
H  -3.64800 29.66900 19.55400
H  -2.57200 28.26200 19.95000
H  -3.02700 29.56000 21.13200
H  -1.19200 28.80900 24.64700
H  -1.25200 29.49500 26.36800
H  -2.35200 30.06300 25.07500
H  -4.97500 28.15000 29.96000
H  -3.26900 25.28900 32.60200
H  -3.05200 26.76100 33.53200
H  -1.82600 26.33600 32.28100

