158

Mg 8.70200 4.00600 27.91900
C  9.89600 2.30800 30.90900
C  6.69000 5.81400 30.09700
C  7.39800 5.32300 25.32800
C  10.58800 1.63200 26.08100
N  8.19400 3.75400 30.26100
C  8.93300 3.21200 31.25500
C  8.53500 3.73500 32.70000
C  7.35200 4.70400 32.27400
C  7.46200 4.81800 30.73600
C  5.98900 4.24100 32.76100
C  9.73600 4.46700 33.40000
C  10.19400 3.80100 34.73800
H  10.67600 4.71100 35.83000
N  7.36300 5.49800 27.70900
C  6.61700 6.12200 28.72500
C  5.77600 7.18700 28.11800
C  6.19300 7.24700 26.72200
C  7.02800 5.99000 26.52000
C  4.89100 8.00200 28.93900
C  5.74200 8.21000 25.54600
O  5.95800 8.03700 24.32900
C  4.93200 9.37800 25.88900
N  8.85100 3.41600 25.98500
C  8.18900 4.19400 25.02300
C  8.46600 3.62500 23.65600
C  9.63700 2.57000 23.91200
C  9.76600 2.57100 25.42600
C  7.16600 3.19900 22.90900
C  11.00300 2.87400 23.16000
C  11.70800 1.59500 22.66600
N  10.05600 2.31500 28.34400
C  10.68800 1.45800 27.44500
C  11.51700 0.53800 28.20100
C  11.20100 0.87700 29.55200
C  10.31800 1.94200 29.59300
C  12.56200 -0.50400 27.80200
C  11.74500 0.63800 30.90800
O  12.75700 0.00800 31.26500
C  10.77500 1.48700 31.84900
C  9.90400 0.66400 32.61300
O  9.14300 -0.22600 32.16400
O  10.22700 0.86100 33.97100
C  9.07500 0.29900 34.84800
H  5.96900 6.34000 30.72600
H  6.96000 5.83400 24.46800
H  11.20400 0.94400 25.49900
H  8.23800 2.93800 33.38200
H  7.51300 5.75100 32.52800
H  5.95000 3.16100 32.90400
H  5.25900 4.44200 31.97700
H  5.78900 4.82200 33.66100
H  9.60900 5.53000 33.60500
H  10.65800 4.34600 32.83200
H  11.11400 3.24200 34.56800
H  9.44500 3.12700 35.15300
H  4.02200 7.37400 29.13700
H  4.63600 8.95600 28.47900
H  5.29900 8.32600 29.89700
H  5.58500 10.11700 26.35400
H  4.11200 8.96400 26.47400
H  4.44100 9.82100 25.02200
H  8.85500 4.39200 22.98600
H  9.29400 1.57000 23.64400
H  6.24200 3.56100 23.36100
H  7.10900 2.16100 22.58400
H  7.23000 3.67300 21.92900
H  11.71000 3.39500 23.80600
H  10.85200 3.54600 22.31500
H  12.14800 1.75200 21.68100
H  10.98900 0.77700 22.63000
H  12.38200 1.17100 23.41000
H  12.01300 -1.41900 27.58100
H  13.36100 -0.61000 28.53600
H  13.01500 -0.16500 26.86900
H  11.36600 2.11400 32.51700
H  9.39800 -0.70600 35.11900
H  8.08700 0.28700 34.38800
H  8.99600 0.75800 35.83300
Mg 16.85100 52.74000 26.97100
C  18.98200 51.25000 29.32400
C  14.61300 53.38000 29.65500
C  14.83600 54.24200 24.89200
C  18.98300 51.85200 24.50400
N  16.79300 52.32900 29.22800
C  17.82200 51.76700 29.94500
C  17.57600 51.91800 31.46700
C  16.01700 52.12100 31.43000
C  15.73200 52.63900 30.03800
C  15.11200 50.87900 31.74100
C  18.30100 53.07800 32.08800
C  18.78700 52.81600 33.51200
H  17.74300 52.24900 34.48300
N  15.01900 53.74400 27.23700
C  14.30900 53.93100 28.44300
C  13.19900 54.81400 28.16200
C  13.30200 55.23100 26.79300
C  14.39500 54.37000 26.24000
C  12.22300 55.20600 29.24000
C  12.60400 56.40900 26.00500
O  12.69900 56.66800 24.79400
C  11.59500 57.20000 26.67900
N  16.81600 52.81700 24.90700
C  15.88500 53.52800 24.27500
C  16.03600 53.27500 22.68200
C  17.46900 52.70400 22.58800
C  17.76300 52.34600 24.06900
C  14.86000 52.39900 22.05700
C  18.45500 53.80300 22.04000
C  18.78800 54.99600 22.91500
N  18.68100 51.61800 26.87400
C  19.42600 51.34000 25.78800
C  20.61700 50.66100 26.16600
C  20.52400 50.61500 27.60500
C  19.31700 51.21200 27.95500
C  21.73900 50.07400 25.25700
C  21.12000 50.15100 28.83500
O  22.16700 49.56000 29.09600
C  20.18200 50.64700 29.98300
C  19.84100 49.50400 30.85300
O  19.09900 48.60000 30.62200
O  20.56200 49.63500 32.02700
C  20.48700 48.48800 33.01800
H  13.95600 53.48600 30.52000
H  14.08900 54.69100 24.23400
H  19.56700 51.59200 23.61900
H  17.72700 50.96300 31.97000
H  15.68600 52.91800 32.09600
H  14.55200 50.87200 32.67700
H  15.61000 49.91100 31.79600
H  14.40100 50.69400 30.93600
H  17.59700 53.91000 32.10200
H  19.09700 53.30900 31.38000
H  19.17900 53.67800 34.05100
H  19.57800 52.08400 33.34400
H  11.31100 54.98100 28.68700
H  12.23600 56.25300 29.54300
H  12.30800 54.47900 30.04700
H  10.92400 57.77000 26.03600
H  12.17900 57.84700 27.33400
H  10.99700 56.54800 27.31500
H  16.12200 54.26200 22.22600
H  17.47200 51.78800 21.99800
H  14.42500 52.83500 21.15800
H  14.15700 52.21800 22.87000
H  15.22500 51.43100 21.71400
H  17.97800 54.25200 21.16800
H  19.35900 53.38700 21.59500
H  19.34400 55.69400 22.28900
H  19.47000 54.64700 23.69000
H  17.95600 55.49600 23.41200
H  22.63700 49.82400 25.82300
H  22.03000 50.92200 24.63700
H  21.45200 49.29700 24.54900
H  20.78100 51.29100 30.62600
H  21.34500 48.59300 33.68100
H  20.46000 47.53400 32.49200
H  19.57800 48.49200 33.62000

