158

Mg 9.03400 3.68300 27.15000
C  10.52000 2.19700 30.13100
C  7.00600 5.44000 29.16800
C  7.63500 4.83300 24.36800
C  10.75300 1.21600 25.25900
N  8.68200 3.65900 29.40900
C  9.47400 3.11600 30.42000
C  9.06800 3.61800 31.78600
C  7.86800 4.55400 31.42600
C  7.80300 4.53200 29.88000
C  6.47200 4.25500 32.09900
C  10.19500 4.42000 32.44800
C  9.92000 4.69000 33.90500
H  10.98000 4.30100 35.00500
N  7.56400 4.97500 26.78300
C  6.78100 5.61300 27.82000
C  5.95800 6.57900 27.10600
C  6.13400 6.48000 25.73700
C  7.11600 5.35900 25.56800
C  4.93700 7.45200 27.88900
C  5.51800 7.28800 24.66300
O  5.77600 7.14100 23.46300
C  4.48300 8.33500 25.07000
N  9.26900 3.17700 25.05000
C  8.57500 3.82600 24.13300
C  8.96300 3.31600 22.75200
C  10.08400 2.20500 23.02400
C  10.12000 2.20600 24.49000
C  7.66800 2.70800 22.03000
C  11.47500 2.41100 22.37000
C  12.63400 3.02300 23.10500
N  10.29800 2.09800 27.58100
C  10.89900 1.16500 26.67800
C  11.67100 0.19500 27.44600
C  11.58800 0.61600 28.75900
C  10.72900 1.72000 28.79500
C  12.27200 -1.06500 26.83100
C  12.04300 0.36100 30.06100
O  12.84300 -0.51400 30.43600
C  11.34900 1.37500 30.99100
C  10.68700 0.68000 32.11000
O  9.67100 -0.03400 31.97400
O  11.18500 1.14300 33.27300
C  10.68300 0.49600 34.51000
H  6.45400 6.05500 29.88200
H  7.27000 5.07500 23.36800
H  11.29800 0.46200 24.68800
H  8.87100 2.79700 32.47500
H  8.12300 5.56300 31.74800
H  6.70700 3.92700 33.11200
H  5.91700 3.43100 31.65200
H  5.69500 5.02000 32.10600
H  10.31600 5.36700 31.92300
H  11.11300 3.83300 32.46800
H  8.98000 4.18800 34.13400
H  9.68000 5.75300 33.91000
H  5.26200 8.48800 27.79000
H  4.99800 7.18700 28.94500
H  3.90500 7.26400 27.59100
H  3.52800 7.86600 25.30800
H  4.38700 8.99800 24.21000
H  4.96800 8.98500 25.79900
H  9.36300 4.18500 22.22900
H  9.68600 1.28600 22.59400
H  6.86400 2.77600 22.76300
H  7.68800 1.63400 21.84400
H  7.43800 3.19200 21.08100
H  11.37600 3.18000 21.60400
H  11.80600 1.45600 21.96200
H  13.59100 2.78500 22.64000
H  12.62200 2.57200 24.09700
H  12.47600 4.10100 23.13000
H  13.33600 -0.92800 26.63600
H  11.72200 -1.50200 25.99700
H  12.18500 -1.86400 27.56800
H  12.16300 1.93800 31.44800
H  9.84300 -0.19100 34.40200
H  10.65900 1.30700 35.23700
H  11.49800 -0.15300 34.83000
Mg 17.33900 -1.40900 27.53400
C  16.42100 0.50400 30.39300
C  19.66600 -3.11400 29.48000
C  18.67200 -2.86300 24.71700
C  15.70100 0.93100 25.61500
N  17.90500 -1.34200 29.69200
C  17.25200 -0.58500 30.69300
C  17.92500 -0.82400 32.08500
C  19.08200 -1.94600 31.69700
C  18.88500 -2.16000 30.18300
C  20.49800 -1.57600 32.24600
C  16.83500 -1.40900 33.07900
C  16.73500 -0.86500 34.53200
H  18.07300 -0.22800 34.98900
N  18.81200 -2.89200 27.13500
C  19.66800 -3.50100 28.06100
C  20.41000 -4.47700 27.44800
C  20.03000 -4.52200 26.05700
C  19.06400 -3.40300 25.89600
C  21.39800 -5.40900 28.23200
C  20.62100 -5.38900 24.99400
O  20.23600 -5.36400 23.81700
C  21.70400 -6.37400 25.34000
N  16.93500 -1.30300 25.52500
C  17.71800 -1.88300 24.52600
C  17.44100 -1.33400 23.07900
C  16.38800 -0.24800 23.37700
C  16.41200 -0.14500 24.91600
C  18.68200 -0.92300 22.24300
C  15.01800 -0.44800 22.81200
C  14.90400 -0.10500 21.34300
N  16.18400 0.30800 27.82600
C  15.59700 1.18300 26.94800
C  14.95800 2.25600 27.64700
C  15.15400 1.94600 28.99800
C  15.95100 0.80200 29.05100
C  14.21000 3.47600 27.14900
C  14.80700 2.39200 30.36700
O  14.06300 3.31500 30.73800
C  15.64300 1.43500 31.32900
C  16.51700 2.34600 32.09600
O  17.71500 2.58700 31.85900
O  15.68900 2.84200 33.07000
C  16.40600 3.75800 33.96100
H  20.31200 -3.71400 30.12500
H  19.19800 -3.28300 23.85700
H  15.18300 1.70900 25.05000
H  18.33300 0.12700 32.42800
H  18.83000 -2.92700 32.09900
H  20.92600 -2.29500 32.94500
H  20.50800 -0.59100 32.71200
H  21.12800 -1.51900 31.35800
H  17.06900 -2.46300 33.22800
H  15.85500 -1.12500 32.69400
H  16.37600 -1.68300 35.15600
H  16.01500 -0.04900 34.59200
H  21.50100 -5.33100 29.31400
H  22.37900 -5.45800 27.75900
H  20.88300 -6.36600 28.14100
H  21.26400 -7.13400 25.98600
H  22.35700 -5.64800 25.82500
H  22.17300 -6.89900 24.50800
H  17.00300 -2.10200 22.44100
H  16.81100 0.70900 23.07300
H  18.62000 -1.06100 21.16400
H  19.60000 -1.28200 22.70800
H  18.79100 0.15900 22.33100
H  14.25300 0.04200 23.41500
H  14.68400 -1.47800 22.93900
H  15.18600 -0.96400 20.73500
H  15.37300 0.84300 21.07600
H  13.83900 0.12300 21.29800
H  13.86200 3.34600 26.12400
H  14.87500 4.34000 27.11900
H  13.34900 3.58200 27.80900
H  14.96800 0.84100 31.94600
H  16.68300 4.67800 33.44600
H  17.37500 3.34000 34.23100
H  15.78900 3.83600 34.85700

