158

Mg 40.62200 10.15000 29.30000
C  42.73200 11.72700 31.62400
C  38.54400 9.17000 31.78500
C  38.81400 8.67700 26.94100
C  43.20500 10.84600 26.87300
N  40.70600 10.20800 31.51500
C  41.61100 11.08500 32.23800
C  41.18900 11.06500 33.71800
C  39.98600 10.10600 33.74900
C  39.69800 9.86500 32.22500
C  40.13100 8.84700 34.64200
C  40.82700 12.46000 34.31400
C  41.35200 12.84800 35.72500
H  41.35200 11.73700 36.79800
N  38.90400 9.13100 29.33600
C  38.08100 8.92300 30.45700
C  36.92000 8.18000 30.08500
C  37.03100 7.98700 28.63900
C  38.32200 8.62100 28.24000
C  35.85700 7.69400 30.99300
C  36.15100 7.22000 27.74000
O  36.47900 6.92800 26.60600
C  34.77500 6.74000 28.15700
N  41.06300 9.82700 27.27100
C  40.07100 9.25700 26.50800
C  40.47700 9.19400 25.04800
C  41.72800 10.13700 24.96800
C  42.04700 10.30200 26.42100
C  40.44100 7.78800 24.37900
C  41.61200 11.46700 24.25500
C  40.69600 12.38800 24.98900
N  42.55700 11.16600 29.20600
C  43.47200 11.29200 28.19400
C  44.71000 11.97100 28.64300
C  44.39400 12.24100 30.01600
C  43.14000 11.66700 30.30600
C  45.97700 12.26100 27.86800
C  44.93800 12.77600 31.20800
O  45.98200 13.38100 31.40700
C  43.84600 12.44900 32.38800
C  44.50700 11.70500 33.48700
O  44.53100 10.48000 33.60000
O  45.05500 12.59200 34.34700
C  45.35600 11.86500 35.57700
H  37.91200 8.91400 32.63800
H  38.34300 8.08200 26.15600
H  43.81700 11.32400 26.10600
H  42.05800 10.61200 34.19500
H  39.15900 10.72200 34.10300
H  41.14500 8.47300 34.50200
H  39.41200 8.14400 34.22100
H  39.98600 9.07900 35.69700
H  39.78200 12.76800 34.28300
H  41.30700 13.20700 33.68200
H  40.68100 13.60800 36.12700
H  42.37300 13.21200 35.61700
H  36.16900 7.84700 32.02600
H  35.66100 6.62200 30.98000
H  35.01500 8.38100 30.91400
H  35.08700 5.86300 28.72300
H  34.32600 6.39000 27.22700
H  34.29000 7.56900 28.67100
H  39.68000 9.70000 24.50200
H  42.65300 9.67300 24.62400
H  40.33700 7.07800 25.19900
H  41.36600 7.53800 23.85800
H  39.58000 7.67400 23.72100
H  41.29500 11.23500 23.23900
H  42.62800 11.86400 24.25300
H  40.55600 12.10400 26.03300
H  39.74600 12.42600 24.45500
H  41.14300 13.37900 25.06300
H  46.20200 11.44000 27.18700
H  46.80700 12.28200 28.57500
H  45.95000 13.22200 27.35500
H  43.55700 13.45700 32.68500
H  45.83600 10.88600 35.59500
H  44.40800 11.69400 36.08700
H  46.08300 12.42000 36.16900
Mg 5.60000 55.35500 40.57900
C  3.91000 52.29400 40.14900
C  8.27200 53.99600 38.68000
C  7.03200 58.21300 40.82200
C  2.57200 56.71800 41.67600
N  5.95300 53.41500 39.44300
C  5.16400 52.32300 39.49000
C  5.78800 51.24000 38.61300
C  7.22500 51.72800 38.33400
C  7.15000 53.16800 38.77100
C  8.36700 50.92200 39.09200
C  5.00300 50.97400 37.35900
C  4.70800 49.46600 37.04500
H  5.19500 48.95100 35.70000
N  7.40900 55.96200 39.97000
C  8.38000 55.27500 39.30200
C  9.50900 56.17500 39.08600
C  9.20900 57.44200 39.63100
C  7.83700 57.23900 40.22000
C  10.68500 55.84500 38.16000
C  10.04400 58.69400 39.45600
O  11.16900 58.62800 38.96400
C  9.61600 60.10800 39.99100
N  4.93100 57.27600 41.23600
C  5.76200 58.22700 41.33900
C  5.06500 59.53100 41.82700
C  3.58200 59.05500 42.03800
C  3.63500 57.59500 41.58500
C  5.66900 60.20200 43.05200
C  2.49300 59.76900 41.23500
C  1.21900 60.07100 41.92000
N  3.63400 54.70300 40.92500
C  2.46200 55.37900 41.32200
C  1.29300 54.45600 41.43100
C  1.92000 53.21400 41.19100
C  3.25700 53.42200 40.70900
C  -0.13000 54.82100 41.83900
C  1.69500 51.76800 41.21600
O  0.71800 51.16600 41.66400
C  3.01700 51.11000 40.62700
C  2.73000 49.95800 39.72500
O  2.03800 49.93100 38.73300
O  3.09000 48.86000 40.51800
C  2.91600 47.55100 39.92700
H  9.08700 53.56000 38.09800
H  7.48700 59.16200 41.11300
H  1.61500 57.11600 42.01800
H  5.83000 50.33500 39.21800
H  7.42600 51.76200 37.26300
H  8.62100 51.52500 39.96300
H  9.26800 50.95900 38.48000
H  8.06500 49.89200 39.28500
H  5.58500 51.27700 36.48800
H  4.12900 51.61400 37.48100
H  3.62300 49.41000 36.95800
H  5.01500 48.84700 37.88800
H  11.62900 56.05700 38.66200
H  10.52000 56.39300 37.23300
H  10.85000 54.79700 37.90900
H  8.56000 60.36200 39.90000
H  10.13600 60.85800 39.39500
H  9.94200 60.29300 41.01400
H  5.01500 60.22600 40.98900
H  3.44400 59.02400 43.11800
H  5.00600 60.38600 43.89700
H  6.07200 61.18400 42.80500
H  6.42900 59.59500 43.54300
H  2.34500 59.25500 40.28500
H  2.84400 60.77600 41.00500
H  1.25900 61.04800 42.40200
H  1.11100 59.37700 42.75400
H  0.42200 59.80100 41.22800
H  -0.20000 55.59100 42.60700
H  -0.65800 53.92500 42.16600
H  -0.61400 55.13800 40.91600
H  3.56000 50.79800 41.51900
H  2.46400 47.66800 38.94200
H  2.42000 46.85400 40.60300
H  3.90000 47.20300 39.61100

