158

Mg 0.61200 7.53200 27.26400
C  0.81300 9.73000 29.96500
C  0.49400 4.94000 29.66400
C  0.32700 5.28800 24.81800
C  0.73000 10.19500 25.09500
N  0.74600 7.35100 29.59400
C  0.68500 8.41400 30.40800
C  0.44000 7.96000 31.89000
C  0.53900 6.39300 31.78100
C  0.63700 6.18300 30.28400
C  1.83600 5.79500 32.39400
C  -1.00400 8.38500 32.45200
C  -1.06800 8.45300 34.01100
H  0.15400 8.04100 34.83800
N  0.47100 5.38200 27.20700
C  0.29700 4.54200 28.31100
C  -0.01000 3.18500 27.82500
C  0.09100 3.26100 26.32600
C  0.27200 4.65000 26.06400
C  -0.37000 2.01300 28.76000
C  -0.05900 2.11100 25.38900
O  -0.16800 2.25700 24.17600
C  -0.17400 0.67400 25.93800
N  0.50200 7.74500 25.30500
C  0.47400 6.64300 24.41200
C  0.48900 7.17100 22.95500
C  0.28600 8.68700 23.09100
C  0.46300 8.90900 24.55600
C  1.77000 6.65500 22.22700
C  -1.08300 9.20700 22.54800
C  -0.99500 10.25100 21.44800
N  0.95700 9.51500 27.42800
C  0.91100 10.52200 26.45200
C  1.09800 11.80000 27.07400
C  1.06700 11.49500 28.47700
C  0.95900 10.11200 28.64400
C  1.19000 13.15500 26.41200
C  1.16100 12.15500 29.72400
O  1.43300 13.30200 29.93400
C  0.77800 10.97900 30.73400
C  1.78200 11.00400 31.85400
O  2.98900 10.72500 31.71800
O  1.18000 11.44400 32.99400
C  2.02500 11.50500 34.11800
H  0.29800 4.23400 30.47400
H  -0.00100 4.69400 23.96200
H  0.69400 11.02000 24.38100
H  1.29500 8.32900 32.45700
H  -0.28700 5.85400 32.24500
H  1.56500 4.87700 32.91500
H  2.30400 6.55600 33.01900
H  2.55600 5.44200 31.65500
H  -1.67000 7.62000 32.05500
H  -1.32600 9.35300 32.06800
H  -1.86900 7.80800 34.37300
H  -1.46900 9.43900 34.24800
H  -1.42300 1.78400 28.59600
H  -0.19000 2.30900 29.79300
H  0.16300 1.10100 28.49000
H  0.71700 0.54300 26.55200
H  -0.11300 0.01700 25.07100
H  -1.09100 0.56000 26.51500
H  -0.40700 6.75900 22.49000
H  1.18700 9.11800 22.65200
H  2.46200 6.15900 22.90700
H  2.29200 7.45800 21.70600
H  1.36500 5.96700 21.48500
H  -1.62100 9.56800 23.42400
H  -1.62000 8.33600 22.17200
H  -1.49400 9.92400 20.53500
H  0.03800 10.54800 21.27100
H  -1.57500 11.08800 21.83600
H  0.16800 13.34600 26.08200
H  1.83000 13.10000 25.53200
H  1.48900 13.92000 27.12800
H  -0.19900 11.16700 31.17900
H  2.47300 12.48900 34.26000
H  2.83600 10.77700 34.15600
H  1.39800 11.31500 34.98900
Mg 36.25200 48.93500 25.09200
C  36.18200 46.97100 27.89600
C  34.93900 51.63900 26.97100
C  36.33200 50.81700 22.31700
C  37.55200 46.32900 23.16800
N  35.52300 49.20600 27.11000
C  35.67000 48.29200 28.17700
C  35.46100 48.92200 29.50400
C  34.68900 50.24100 29.19600
C  35.06400 50.39700 27.67100
C  33.22200 50.12800 29.22600
C  36.72200 49.07600 30.42000
C  36.56700 48.53400 31.84900
H  35.24000 48.44700 32.62700
N  35.64100 50.92100 24.67100
C  35.14000 51.85300 25.56500
C  34.88800 53.07300 24.89800
C  35.34600 52.92100 23.54200
C  35.72800 51.46700 23.42200
C  34.41600 54.29200 25.51900
C  35.54200 53.92700 22.43500
O  35.66800 53.56900 21.26700
C  35.36300 55.40600 22.69600
N  36.70200 48.62300 23.01400
C  36.61600 49.54000 22.04300
C  37.00700 48.95600 20.59200
C  37.86200 47.80100 21.06100
C  37.29500 47.50100 22.54100
C  35.73300 48.69700 19.77400
C  39.38100 47.94800 20.98200
C  39.97400 47.67600 19.54600
N  36.82300 47.11900 25.40700
C  37.39500 46.17800 24.57800
C  37.52100 44.95800 25.31700
C  37.02900 45.22900 26.58600
C  36.61700 46.56500 26.62100
C  38.09100 43.67600 24.86700
C  36.84800 44.61200 27.92900
O  36.96600 43.42600 28.33800
C  36.38000 45.80200 28.79700
C  35.20100 45.33200 29.62100
O  34.09000 45.61700 29.36800
O  35.58700 44.74300 30.79500
C  34.57600 44.33300 31.69500
H  34.60400 52.41600 27.66200
H  36.28600 51.42200 21.40900
H  38.08500 45.55000 22.62000
H  34.73400 48.23500 29.93500
H  35.14400 51.06400 29.74600
H  32.81500 50.17900 28.21600
H  32.79300 50.99700 29.72700
H  32.89200 49.24500 29.77300
H  36.95500 50.14000 30.38300
H  37.52500 48.57600 29.87800
H  37.13800 49.15300 32.54200
H  36.97500 47.55600 32.10400
H  33.66400 54.10700 26.28700
H  33.93200 55.03400 24.88400
H  35.24500 54.80900 26.00100
H  35.84600 56.02900 21.94400
H  35.89200 55.53300 23.64000
H  34.31700 55.69300 22.80400
H  37.59900 49.74700 20.13100
H  37.63600 46.96000 20.40500
H  34.87600 49.11900 20.29900
H  35.65700 47.61000 19.74300
H  35.72500 49.22100 18.81900
H  39.82300 47.18800 21.62700
H  39.66800 48.97200 21.21800
H  39.24300 47.33600 18.81200
H  40.74000 46.90500 19.63000
H  40.56800 48.53100 19.22300
H  39.12800 43.56500 25.18300
H  37.88700 43.35900 23.84400
H  37.60900 42.87200 25.42400
H  37.22600 45.96700 29.46500
H  34.99600 44.38600 32.70000
H  34.33800 43.33300 31.33300
H  33.70600 44.98500 31.62400

