158

Mg 41.87900 41.16100 26.63000
C  41.17400 43.58700 29.06300
C  42.77500 39.03700 29.07300
C  42.93100 39.07800 24.21600
C  41.10000 43.61200 24.33600
N  42.05800 41.32400 28.84400
C  41.51800 42.26100 29.56200
C  41.40500 41.90800 31.06300
C  41.93700 40.39300 31.05600
C  42.30900 40.24500 29.54600
C  42.95000 39.89000 32.07500
C  39.86800 41.94600 31.57800
C  39.55600 41.43700 33.03400
H  38.70700 42.35800 33.92900
N  42.83100 39.29700 26.62800
C  43.13600 38.51200 27.73900
C  43.72200 37.27400 27.38500
C  43.72600 37.25900 25.95600
C  43.21600 38.59800 25.51700
C  43.94700 36.11000 28.38900
C  44.30000 36.19900 24.96500
O  44.33700 36.40500 23.71600
C  44.59700 34.85000 25.47200
N  41.88800 41.29900 24.63100
C  42.46100 40.29200 23.82200
C  42.41100 40.65800 22.31300
C  41.47300 41.98700 22.41300
C  41.54300 42.34800 23.87000
C  43.71500 40.92500 21.47300
C  39.92900 41.88100 22.03400
C  39.11200 40.69000 22.57900
N  41.24700 43.20800 26.60400
C  41.12100 44.08800 25.63100
C  40.88900 45.40200 26.08800
C  40.83900 45.24900 27.49600
C  41.06100 43.90200 27.71200
C  40.81300 46.65700 25.26000
C  40.71200 45.93800 28.70600
O  40.54700 47.12700 28.94600
C  40.85800 44.86900 29.79900
C  41.75100 45.29300 30.89100
O  42.90500 45.06800 31.05400
O  41.06800 46.14500 31.72500
C  41.79900 46.81100 32.79100
H  43.09000 38.34400 29.85700
H  43.19400 38.42300 23.38300
H  40.76000 44.25100 23.51800
H  41.95300 42.48100 31.80900
H  41.04600 39.77600 31.17400
H  43.12900 40.63500 32.85000
H  43.95000 39.88600 31.64000
H  42.64100 38.92100 32.46800
H  39.18200 41.36400 30.96300
H  39.36900 42.91500 31.53400
H  40.47200 41.20100 33.57500
H  38.99800 40.51800 32.85100
H  43.86100 36.35600 29.44800
H  44.92100 35.67700 28.16400
H  43.20800 35.34900 28.13800
H  43.69700 34.41100 25.90400
H  45.40300 34.87500 26.20500
H  44.92700 34.24600 24.62700
H  42.11800 39.81400 21.69000
H  41.96300 42.84200 21.94700
H  43.85200 40.07000 20.81100
H  44.59800 41.00000 22.10800
H  43.61600 41.87600 20.95000
H  40.01300 41.71100 20.96000
H  39.51800 42.85400 22.30400
H  38.32100 41.09900 23.20700
H  39.80200 40.18200 23.25300
H  38.71800 40.26900 21.65400
H  40.13400 46.49000 24.42400
H  41.79000 46.98800 24.90900
H  40.35200 47.48200 25.80300
H  39.86800 44.74700 30.24000
H  41.45700 47.84500 32.84200
H  42.87500 46.87400 32.62500
H  41.53600 46.42800 33.77700
Mg 30.18700 58.00300 40.10000
C  27.28800 56.52300 39.24800
C  31.85900 55.11500 39.38400
C  33.07800 59.77800 40.35100
C  28.42200 61.06500 40.31800
N  29.63900 56.01100 39.21600
C  28.35000 55.65600 38.97600
C  28.28800 54.21000 38.57800
C  29.73200 53.65800 39.10000
C  30.48000 54.95600 39.24400
C  29.82600 52.76500 40.38400
C  27.96200 53.77100 37.12000
C  28.49700 54.62200 35.94900
H  27.79300 54.65800 34.59300
N  32.17200 57.50500 39.84800
C  32.65500 56.24200 39.62800
C  34.07200 56.28200 39.59400
C  34.49400 57.56000 40.00600
C  33.23600 58.39600 40.12200
C  34.86400 55.03600 39.31500
C  35.87900 57.89300 40.34600
O  36.78200 57.11900 40.07400
C  36.20900 59.22100 41.05000
N  30.67300 60.10800 40.37300
C  31.93700 60.56700 40.46600
C  32.02800 62.09700 40.49400
C  30.49700 62.45000 40.56400
C  29.79000 61.15700 40.28800
C  32.95600 62.77800 41.51600
C  30.10500 63.41900 39.44000
C  29.08700 64.51200 39.76500
N  28.15100 58.68600 39.94400
C  27.52400 59.90700 40.17800
C  26.14400 59.76300 39.86600
C  26.01100 58.42500 39.52400
C  27.24100 57.83100 39.66300
C  25.19100 60.93200 39.75600
C  24.99100 57.47000 39.06800
O  23.82100 57.56700 38.77700
C  25.80700 56.13400 38.93100
C  25.34600 55.14900 39.93400
O  25.82500 54.99700 41.06300
O  24.43900 54.28500 39.32700
C  24.00500 53.15100 40.21200
H  32.28800 54.11200 39.32500
H  34.06200 60.25000 40.38000
H  27.98200 62.06200 40.40100
H  27.52000 53.90200 39.28800
H  30.29200 53.16900 38.30200
H  28.77300 52.54900 40.56300
H  30.24800 53.34900 41.20200
H  30.34800 51.86200 40.07000
H  26.87300 53.71700 37.11700
H  28.28700 52.75000 36.92000
H  29.57600 54.48000 35.88700
H  28.38700 55.64300 36.31400
H  34.31100 54.23800 38.81900
H  35.18600 54.60300 40.26200
H  35.67400 55.17200 38.59900
H  36.19400 60.09600 40.40000
H  37.26600 59.16700 41.31000
H  35.62100 59.38900 41.95200
H  32.33800 62.36400 39.48400
H  30.03000 62.72900 41.50900
H  32.32300 63.41700 42.13100
H  33.69900 63.36000 40.97000
H  33.47000 62.11700 42.21300
H  29.72400 62.87500 38.57500
H  30.96500 64.02200 39.14900
H  29.56400 65.45400 39.49300
H  28.90500 64.57500 40.83800
H  28.19500 64.40000 39.14800
H  24.73200 61.13400 40.72300
H  24.38700 60.65400 39.07500
H  25.63100 61.79500 39.25600
H  25.74900 55.72700 37.92100
H  23.09000 53.44700 40.72600
H  24.75400 52.80400 40.92400
H  23.72100 52.31500 39.57200

