158

Mg 25.38600 1.08000 29.56100
C  27.39100 1.11900 32.33600
C  22.59100 1.42500 31.68000
C  23.40600 1.18000 26.83300
C  28.10600 0.60000 27.56300
N  25.05700 1.29600 31.79100
C  26.06200 1.31400 32.75100
C  25.39700 1.65500 34.16000
C  23.86000 1.66000 33.85200
C  23.83600 1.50600 32.36800
C  22.90100 0.63300 34.65100
C  25.96400 3.04700 34.75300
C  26.70100 2.89000 36.12400
H  26.15200 3.75000 37.30200
N  23.32500 1.01500 29.30200
C  22.36900 1.15900 30.25400
C  21.03400 1.06600 29.66500
C  21.28300 0.86700 28.26100
C  22.70400 1.03100 28.06100
C  19.78400 1.12600 30.51000
C  20.26300 0.57400 27.22200
O  20.52000 0.33100 26.05900
C  18.82500 0.42300 27.64900
N  25.74500 0.93500 27.46700
C  24.78800 1.09900 26.50300
C  25.27700 1.04700 25.05600
C  26.82000 1.01500 25.34300
C  26.95300 0.94800 26.84600
C  24.74700 -0.06500 24.12200
C  27.71300 2.16800 24.67400
C  27.32400 2.49500 23.20600
N  27.31700 0.76500 29.87700
C  28.33400 0.64900 28.94100
C  29.53400 0.55200 29.69600
C  29.22400 0.71400 31.04200
C  27.84600 0.89800 31.08000
C  30.81400 0.18200 29.10600
C  29.75500 0.77600 32.40300
O  30.87500 0.64000 32.75700
C  28.53600 1.05200 33.24000
C  28.24900 -0.01200 34.29800
O  27.68000 -1.11900 34.12900
O  28.80800 0.37200 35.48200
C  28.63300 -0.54100 36.61500
H  21.71300 1.61000 32.30200
H  22.69000 1.21300 26.00800
H  29.00000 0.57300 26.93800
H  25.55500 0.78900 34.80300
H  23.48800 2.66700 34.03900
H  22.39200 0.00800 33.91700
H  22.15600 1.24000 35.16400
H  23.41000 -0.02800 35.35300
H  25.16000 3.76600 34.90800
H  26.65700 3.50100 34.04500
H  27.68400 3.25600 35.82800
H  26.69900 1.85100 36.45400
H  19.19900 0.20600 30.50500
H  19.23600 1.97200 30.09500
H  20.06000 1.23600 31.55900
H  18.65900 -0.57800 28.04700
H  18.24900 0.32800 26.72800
H  18.51100 1.20300 28.34300
H  24.98800 2.03700 24.70300
H  27.17700 0.06300 24.95100
H  24.01000 -0.75300 24.53500
H  25.54700 -0.66800 23.69400
H  24.29500 0.49800 23.30400
H  28.74000 1.80300 24.69100
H  27.51900 2.98100 25.37400
H  26.72800 3.40200 23.10100
H  26.79500 1.64400 22.77800
H  28.25700 2.64800 22.66400
H  31.58900 0.52500 29.79200
H  30.98600 0.73900 28.18400
H  30.80500 -0.90500 29.02700
H  28.74200 1.99400 33.74900
H  27.57000 -0.54600 36.85500
H  29.21500 -0.13600 37.44300
H  29.07800 -1.52900 36.50000
Mg 9.94500 48.98400 26.55200
C  7.95300 48.63100 29.46900
C  12.57300 50.03900 28.43300
C  11.68300 49.04800 23.71100
C  7.04700 48.18600 24.72800
N  10.08500 49.61800 28.69900
C  9.22800 49.25500 29.70400
C  9.86300 49.54900 31.09600
C  11.35400 50.09800 30.67700
C  11.36100 49.92300 29.19800
C  11.59500 51.52400 31.09700
C  9.83800 48.26200 31.99000
C  8.91600 48.40600 33.26500
H  9.48500 49.28800 34.42400
N  11.84200 49.64000 26.11300
C  12.85200 49.91000 27.03900
C  14.10100 50.04500 26.37300
C  13.94600 49.74500 24.96500
C  12.41600 49.45500 24.89800
C  15.35700 50.39600 27.12500
C  14.92200 49.58200 23.82800
O  14.46500 49.41400 22.67400
C  16.41300 49.36200 24.19700
N  9.39800 48.86600 24.51700
C  10.30100 48.80900 23.51400
C  9.77300 48.41200 22.09400
C  8.38000 47.84900 22.54300
C  8.23100 48.33300 24.02900
C  9.91000 49.71200 21.19500
C  8.18300 46.30500 22.37600
C  9.19800 45.29500 22.73300
N  7.83800 48.56400 26.92900
C  6.76900 48.31900 26.07900
C  5.55500 47.94300 26.91000
C  5.96300 48.07000 28.21300
C  7.38300 48.44400 28.18900
C  4.20300 47.58500 26.36700
C  5.61300 47.98200 29.61200
O  4.56000 47.72300 30.22700
C  6.94900 48.28200 30.44900
C  7.17400 46.90800 31.03800
O  7.80100 45.98600 30.53800
O  6.34700 46.72500 32.15000
C  6.36200 45.38800 32.80200
H  13.46400 50.21800 29.03800
H  12.21500 48.83800 22.78100
H  6.15500 47.93800 24.14900
H  9.32100 50.40500 31.49600
H  12.01200 49.41100 31.20900
H  12.45800 51.48900 31.76200
H  10.77100 51.82500 31.74400
H  11.67000 52.11700 30.18600
H  10.84000 48.15100 32.40500
H  9.56300 47.38500 31.40400
H  8.93400 47.40700 33.70100
H  7.93100 48.85700 33.14200
H  15.03600 51.00600 27.97000
H  15.95400 51.08800 26.53100
H  15.88500 49.50700 27.47000
H  16.53900 48.79500 25.11900
H  17.01600 50.26100 24.31800
H  16.82100 48.86900 23.31400
H  10.50300 47.65500 21.81000
H  7.49900 48.23800 22.03200
H  8.98800 50.04100 20.71600
H  10.76900 49.56400 20.53900
H  10.27000 50.52200 21.83000
H  7.93100 46.15100 21.32700
H  7.26100 46.04800 22.89800
H  8.74600 44.52100 23.35300
H  9.99100 45.73200 23.34000
H  9.50500 44.76500 21.83200
H  4.46600 46.90500 25.55700
H  3.72400 48.51100 26.05000
H  3.55200 47.14100 27.12100
H  6.81100 49.03500 31.22500
H  6.68000 45.50500 33.83800
H  7.01900 44.68800 32.28600
H  5.39900 44.88400 32.87800

