158

Mg -2.30800 16.71200 27.13200
C  -2.60600 14.64900 29.93700
C  -2.58900 19.46500 28.95100
C  -2.32100 18.55600 24.28600
C  -2.81900 13.81400 25.16800
N  -2.62900 16.99700 29.23900
C  -2.56400 16.04100 30.21700
C  -2.38000 16.78700 31.56200
C  -2.38300 18.26500 31.21900
C  -2.67100 18.26100 29.69800
C  -3.35400 19.16500 32.09700
C  -1.11100 16.24700 32.36000
C  -0.54100 17.18000 33.42100
H  -0.19500 16.60500 34.82400
N  -2.43300 18.71500 26.74500
C  -2.57900 19.73900 27.61000
C  -2.64600 21.00300 26.92300
C  -2.31300 20.71200 25.57300
C  -2.43900 19.26700 25.49800
C  -2.90000 22.22900 27.62700
C  -2.03200 21.66900 24.43000
O  -1.82100 21.37500 23.25500
C  -1.74500 23.12800 24.83300
N  -2.32900 16.17800 25.03200
C  -2.32600 17.15600 24.06600
C  -2.45200 16.57300 22.65100
C  -2.55500 14.97900 22.92800
C  -2.55700 14.97200 24.44900
C  -3.54300 17.04800 21.69400
C  -1.34800 14.13700 22.31100
C  -1.50300 13.55000 20.93400
N  -2.58900 14.60800 27.40800
C  -2.76600 13.57700 26.54600
C  -2.88100 12.34300 27.23600
C  -2.75800 12.67300 28.60100
C  -2.62500 14.06200 28.65300
C  -3.04000 11.05100 26.50000
C  -2.72100 12.14900 29.91400
O  -2.70800 10.97800 30.34200
C  -2.52500 13.40300 30.89000
C  -1.27700 13.08000 31.59300
O  -0.12800 13.18100 31.13600
O  -1.50700 12.68200 32.87000
C  -0.39300 12.60400 33.78600
H  -2.61400 20.37800 29.54900
H  -2.29400 19.08300 23.32900
H  -3.09000 12.96300 24.54000
H  -3.31100 16.64500 32.10900
H  -1.35100 18.61000 31.27800
H  -2.75200 19.72200 32.81400
H  -4.12700 18.58600 32.60300
H  -3.77000 19.83200 31.34200
H  -0.38700 16.02000 31.57700
H  -1.34800 15.32900 32.89600
H  -1.10500 18.11100 33.48100
H  0.42300 17.45100 32.98900
H  -3.64600 22.85300 27.13500
H  -1.91800 22.69800 27.69300
H  -3.30900 22.05100 28.62200
H  -1.33600 23.57200 23.92600
H  -0.94900 23.13400 25.57900
H  -2.69000 23.63700 25.02400
H  -1.57800 16.85600 22.06400
H  -3.46900 14.49600 22.58300
H  -3.41700 18.11400 21.50600
H  -4.46500 16.95100 22.26800
H  -3.71100 16.53400 20.74800
H  -1.22400 13.25900 22.94500
H  -0.42800 14.72000 22.26000
H  -2.52700 13.73500 20.60900
H  -1.30900 12.47900 20.98200
H  -0.71900 13.96100 20.29900
H  -2.76500 10.22700 27.15900
H  -2.50200 10.96200 25.55700
H  -4.11600 11.08700 26.33200
H  -3.34400 13.45100 31.60900
H  -0.04000 11.58400 33.63000
H  -0.77200 12.89600 34.76500
H  0.41700 13.24700 33.44100
Mg -2.55700 34.51100 27.38100
C  -4.13100 32.43800 29.78000
C  -1.05400 36.20500 29.75800
C  -1.30900 36.58500 25.02000
C  -4.25900 32.84000 24.78400
N  -2.77200 34.45900 29.52500
C  -3.39000 33.45600 30.33600
C  -3.19300 33.72500 31.79800
C  -2.41000 35.10800 31.74200
C  -2.01000 35.28400 30.24600
C  -3.18600 36.33900 32.27900
C  -2.49700 32.55600 32.57800
C  -3.16500 32.25100 34.05500
H  -2.25100 32.57900 35.27100
N  -1.24400 36.10500 27.35600
C  -0.62700 36.57300 28.45500
C  0.40900 37.43100 28.09100
C  0.14100 37.79900 26.71900
C  -0.91200 36.80900 26.28700
C  1.42300 37.87300 29.08600
C  0.78900 38.96000 25.86800
O  0.50200 39.11000 24.68300
C  1.94500 39.76200 26.28100
N  -2.51100 34.48200 25.13800
C  -2.15200 35.62200 24.51000
C  -2.53900 35.54900 23.04300
C  -3.60900 34.41600 23.00900
C  -3.42600 33.86300 24.39000
C  -3.17000 36.86800 22.38400
C  -3.62600 33.36900 21.85400
C  -2.68300 32.13000 22.08200
N  -3.83300 33.01000 27.26600
C  -4.42900 32.42300 26.15400
C  -5.27200 31.34600 26.62100
C  -5.12000 31.23300 28.00400
C  -4.23400 32.29900 28.38900
C  -6.09800 30.47500 25.77300
C  -5.62200 30.63100 29.23500
O  -6.46800 29.78900 29.41800
C  -4.85000 31.26500 30.42600
C  -5.83700 31.58600 31.49400
O  -6.77300 32.38800 31.43400
O  -5.64800 30.72700 32.58600
C  -6.49300 30.84800 33.75300
H  -0.56200 36.73200 30.57800
H  -0.98800 37.22900 24.19800
H  -5.05600 32.45000 24.14800
H  -4.20100 33.88900 32.18000
H  -1.45000 35.03100 32.25200
H  -4.07700 36.01300 32.81400
H  -3.49800 36.93900 31.42400
H  -2.63600 36.83200 33.08100
H  -1.46400 32.88800 32.68100
H  -2.47600 31.68300 31.92500
H  -3.36300 31.18400 33.94900
H  -4.16200 32.66100 34.21900
H  1.23000 37.40700 30.05200
H  1.45100 38.95000 29.24700
H  2.46900 37.74400 28.81000
H  1.77900 40.34600 27.18700
H  2.15600 40.55400 25.56300
H  2.81300 39.11600 26.41000
H  -1.71000 35.19800 22.42900
H  -4.55200 34.95200 23.11500
H  -3.13400 37.73400 23.04500
H  -4.22000 36.65600 22.18200
H  -2.63700 37.15600 21.47800
H  -3.24800 33.82300 20.93700
H  -4.67100 33.08200 21.73900
H  -3.18900 31.26800 22.51600
H  -1.78300 32.30800 22.67200
H  -2.34400 31.83900 21.08800
H  -5.73700 30.31400 24.75700
H  -7.15300 30.74900 25.74900
H  -6.06400 29.47500 26.20700
H  -4.18000 30.49800 30.81500
H  -6.91700 29.84500 33.68700
H  -7.29700 31.55500 33.55200
H  -5.91900 31.16300 34.62400

