158

Mg 34.74900 2.78400 29.11300
C  33.04200 3.87700 32.04100
C  37.61300 2.34200 31.02500
C  36.50200 2.03200 26.25900
C  31.95500 3.40200 27.24500
N  35.32000 3.22300 31.30400
C  34.40300 3.49500 32.36000
C  35.00700 3.42500 33.70000
C  36.49200 3.04500 33.36100
C  36.49100 2.84000 31.79100
C  37.57900 4.05100 33.77500
C  34.23600 2.48000 34.64600
C  34.30400 2.86600 36.13700
H  35.43800 3.67400 36.79700
N  36.71900 2.13400 28.72800
C  37.76100 2.06200 29.62600
C  39.02300 1.67000 28.95500
C  38.69600 1.47400 27.51400
C  37.23400 1.91000 27.47700
C  40.25700 1.43100 29.66000
C  39.56500 1.01300 26.30200
O  39.13000 0.84500 25.14200
C  41.04800 0.66300 26.51000
N  34.34300 2.86200 27.03400
C  35.17700 2.40100 26.00000
C  34.41100 2.26200 24.68700
C  32.92100 2.49400 25.14200
C  33.11400 2.93900 26.56600
C  34.92300 3.29500 23.58000
C  31.92100 1.37400 24.85800
C  30.94900 1.48700 23.65200
N  32.94500 3.60200 29.46700
C  31.87200 3.69800 28.64400
C  30.68200 4.08400 29.34500
C  31.11100 4.25800 30.70800
C  32.51200 3.93100 30.73300
C  29.36900 4.24600 28.71500
C  30.67800 4.59200 32.06800
O  29.63200 4.85600 32.53500
C  31.92100 4.36300 32.93400
C  32.24500 5.63700 33.66400
O  32.87100 6.56400 33.22400
O  31.59200 5.50000 34.91800
C  31.79500 6.59600 35.84200
H  38.54200 2.24300 31.59100
H  37.06900 1.65400 25.40600
H  31.01700 3.45700 26.68900
H  34.77900 4.44600 34.00800
H  36.75000 2.08500 33.80800
H  38.32900 3.48700 34.32900
H  37.21900 4.87900 34.38600
H  38.04000 4.60400 32.95700
H  34.82500 1.56600 34.57900
H  33.21100 2.34000 34.30300
H  34.14100 1.88400 36.58100
H  33.40400 3.43500 36.36800
H  41.13800 1.44900 29.01800
H  40.30100 0.51400 30.24800
H  40.36800 2.24000 30.38200
H  41.51100 1.58900 26.85100
H  41.53100 0.23400 25.63200
H  41.03300 -0.07100 27.31600
H  34.60500 1.27600 24.26400
H  32.55000 3.41100 24.68400
H  35.54900 2.72200 22.89600
H  35.71000 3.91900 24.00200
H  34.04100 3.78000 23.16100
H  31.31000 1.15900 25.73500
H  32.51800 0.50900 24.56900
H  31.01100 0.52600 23.14200
H  31.37500 2.24600 22.99600
H  29.89600 1.76200 23.70700
H  29.53000 4.47600 27.66200
H  28.88500 5.15500 29.07200
H  28.70100 3.38900 28.80300
H  31.68400 3.49900 33.55500
H  32.50300 6.34800 36.63300
H  30.83300 6.82900 36.29700
H  31.97700 7.55000 35.34700
Mg 47.46600 26.07000 28.17800
C  48.59000 27.93800 30.89900
C  46.51800 23.63400 30.42100
C  46.74500 24.10100 25.57100
C  48.81700 28.55200 26.08000
N  47.43300 25.92600 30.40000
C  47.88300 26.84300 31.28200
C  47.67400 26.34800 32.74800
C  47.27800 24.90600 32.57500
C  47.11600 24.76800 31.02500
C  48.33500 23.88400 33.11500
C  46.58800 27.15000 33.50800
C  47.03800 27.70400 34.88900
H  46.05500 27.76200 36.08700
N  46.70700 24.15600 28.00800
C  46.35100 23.32700 29.01100
C  45.90900 22.08800 28.46500
C  45.84300 22.30300 27.06800
C  46.43800 23.57200 26.79600
C  45.62000 20.84600 29.31000
C  45.37500 21.38100 25.98000
O  45.57200 21.52300 24.78400
C  44.49100 20.26100 26.34300
N  47.92500 26.18300 26.17200
C  47.39700 25.28400 25.26500
C  47.52500 25.83200 23.83200
C  47.98400 27.33500 24.06100
C  48.21700 27.39200 25.58400
C  48.41200 24.89500 22.96400
C  47.04300 28.55100 23.55600
C  47.57000 29.68800 22.66100
N  48.50200 27.86600 28.39600
C  49.03800 28.70100 27.45600
C  49.77000 29.75600 28.05900
C  49.57300 29.49600 29.43000
C  48.84200 28.31700 29.59700
C  50.54600 30.87100 27.37500
C  49.85600 30.06800 30.73700
O  50.33900 31.17900 31.05200
C  49.18800 29.18400 31.79200
C  50.31500 28.77800 32.73900
O  51.17600 27.98600 32.49400
O  50.15000 29.41700 33.92800
C  51.29400 29.29500 34.87200
H  46.20400 22.93100 31.19500
H  46.32600 23.75700 24.62300
H  49.24400 29.32700 25.44000
H  48.59800 26.34200 33.32700
H  46.39400 24.63600 33.15300
H  47.84500 23.27200 33.87200
H  49.26600 24.37200 33.40500
H  48.57800 23.20600 32.29700
H  45.61900 26.66300 33.61500
H  46.28800 27.95500 32.83700
H  47.45100 28.70900 34.80600
H  47.82400 27.02200 35.21200
H  46.31000 20.09600 28.92600
H  44.59700 20.56200 29.06300
H  45.65600 20.88900 30.39900
H  44.22500 19.64000 25.48700
H  43.61600 20.63900 26.87200
H  45.10000 19.68400 27.04000
H  46.51300 25.94000 23.44000
H  49.00200 27.41600 23.68200
H  48.70700 24.11400 23.66500
H  49.32600 25.41400 22.67600
H  47.90700 24.56700 22.05600
H  46.60700 28.91400 24.48600
H  46.14900 28.18200 23.05300
H  48.57300 29.56300 22.25400
H  47.52500 30.52800 23.35400
H  46.95200 29.78600 21.76800
H  50.55500 31.77200 27.98800
H  50.01900 31.17500 26.47000
H  51.52300 30.46200 27.12000
H  48.30600 29.53000 32.33200
H  51.19900 28.36100 35.42700
H  51.30300 30.07800 35.63000
H  52.25600 29.17500 34.37500

