158

Mg -1.37800 34.69900 27.24100
C  -3.10300 32.58500 29.54300
C  0.06100 36.25900 29.91600
C  -0.13400 36.77800 25.09700
C  -3.08700 33.00600 24.66600
N  -1.45100 34.42900 29.45100
C  -2.29600 33.54500 30.14100
C  -2.02600 33.73100 31.67600
C  -1.38400 35.12800 31.73600
C  -0.88700 35.29800 30.31200
C  -2.33300 36.23800 32.25700
C  -1.21900 32.58900 32.43700
C  -2.02400 31.74200 33.48200
H  -1.33100 31.61600 34.87400
N  -0.15800 36.26000 27.48300
C  0.40500 36.80500 28.63300
C  1.35000 37.77100 28.31300
C  1.30300 37.93000 26.88800
C  0.23600 36.99600 26.42100
C  2.12300 38.53500 29.39600
C  2.14900 38.88400 25.95000
O  2.07900 39.02300 24.72000
C  3.24800 39.65300 26.64500
N  -1.62200 34.93000 25.20500
C  -0.94600 35.89500 24.50700
C  -1.14300 35.80500 23.00000
C  -2.20400 34.60500 22.87600
C  -2.28300 34.10200 24.35600
C  -1.41700 37.14800 22.32400
C  -1.70800 33.41300 21.95000
C  -2.65600 33.13800 20.77200
N  -2.83400 33.18000 27.08800
C  -3.38400 32.55800 25.96200
C  -4.12500 31.35100 26.39100
C  -4.05200 31.33500 27.80700
C  -3.28700 32.52900 28.17000
C  -4.72900 30.36800 25.49200
C  -4.45600 30.64200 28.95400
O  -5.17000 29.66200 29.05300
C  -3.83700 31.44700 30.17100
C  -4.93900 31.87500 31.06300
O  -5.52800 32.97300 31.01500
O  -5.27500 30.96600 32.00800
C  -6.30000 31.31800 33.02200
H  0.60900 36.62500 30.78700
H  0.38800 37.37000 24.34200
H  -3.63400 32.46300 23.89300
H  -3.02300 33.67500 32.11400
H  -0.47000 35.28900 32.30800
H  -3.22100 36.24000 31.62400
H  -1.82200 37.20100 32.25000
H  -2.67000 36.00100 33.26600
H  -0.28800 32.92900 32.89100
H  -0.91800 31.81200 31.73400
H  -2.28700 30.72100 33.20300
H  -2.96900 32.23800 33.70600
H  1.62000 39.48700 29.56700
H  3.18700 38.69200 29.22200
H  1.97000 37.97600 30.31900
H  4.01700 39.19300 27.26600
H  2.76600 40.42200 27.24800
H  3.71500 40.30800 25.90900
H  -0.22400 35.42900 22.55000
H  -3.19200 34.93100 22.55100
H  -1.75000 37.82000 23.11500
H  -2.25500 37.12100 21.62800
H  -0.46000 37.49800 21.93800
H  -1.53100 32.46200 22.45100
H  -0.72100 33.72800 21.61100
H  -2.07900 33.51100 19.92500
H  -3.58300 33.70200 20.87000
H  -2.73000 32.07300 20.55600
H  -5.65200 30.69600 25.01400
H  -4.77600 29.34300 25.86100
H  -3.93100 30.30500 24.75200
H  -3.15900 30.79900 30.72600
H  -5.93300 32.11200 33.67100
H  -6.47800 30.46400 33.67600
H  -7.30600 31.58000 32.69500
Mg -4.71600 25.49900 26.25000
C  -3.43800 26.92200 29.01900
C  -6.58800 23.49100 28.22600
C  -5.61500 23.85600 23.41700
C  -2.67300 27.63300 24.10700
N  -5.04600 25.40800 28.41500
C  -4.48600 26.08800 29.35900
C  -4.73800 25.52100 30.72000
C  -5.46800 24.24600 30.47500
C  -5.72000 24.36900 28.96500
C  -4.84300 22.94900 31.01300
C  -5.58500 26.55300 31.58000
C  -5.01600 26.73800 32.96500
H  -4.49600 25.52500 33.62300
N  -6.03000 23.91800 25.85200
C  -6.73200 23.30300 26.84200
C  -7.53200 22.30500 26.15500
C  -7.28100 22.28200 24.77300
C  -6.24500 23.38200 24.62500
C  -8.53500 21.47700 26.93600
C  -7.80700 21.42500 23.70700
O  -7.45000 21.53500 22.52300
C  -9.02100 20.52900 23.99300
N  -3.99100 25.57400 24.03800
C  -4.63600 24.80700 23.10700
C  -4.16900 25.17300 21.68700
C  -3.29600 26.40100 21.91000
C  -3.30700 26.56700 23.42900
C  -3.48200 23.96100 21.10700
C  -3.73700 27.79500 21.25100
C  -4.45300 27.82800 19.96000
N  -3.29700 26.95700 26.49600
C  -2.49500 27.73100 25.57700
C  -1.70600 28.61600 26.45200
C  -1.96600 28.29300 27.77900
C  -2.95800 27.27300 27.73300
C  -0.80500 29.59500 25.87800
C  -1.67000 28.67800 29.17900
O  -0.98100 29.59300 29.63000
C  -2.45100 27.55600 30.04300
C  -1.49500 26.57800 30.54200
O  -1.29800 25.46100 30.06300
O  -1.15000 27.01000 31.82200
C  -0.38400 25.94300 32.46100
H  -7.01600 22.77300 28.92800
H  -5.89900 23.43200 22.45100
H  -2.06500 28.29500 23.48600
H  -3.74600 25.37800 31.14800
H  -6.48200 24.18900 30.87200
H  -4.55700 22.40600 30.11200
H  -5.57900 22.44400 31.63800
H  -3.92400 23.13500 31.56900
H  -6.63100 26.24700 31.61300
H  -5.60400 27.53200 31.10100
H  -5.75100 27.17000 33.64400
H  -4.21300 27.47000 32.88000
H  -9.51400 21.55800 26.46400
H  -8.66400 21.76300 27.98000
H  -8.23200 20.43300 26.86400
H  -8.76200 19.79700 24.75800
H  -9.32600 19.91000 23.14900
H  -9.92000 21.05900 24.30600
H  -5.07600 25.44400 21.14700
H  -2.27000 26.23200 21.58100
H  -2.46800 24.12800 20.74500
H  -3.96100 23.60100 20.19700
H  -3.33900 23.15000 21.82200
H  -2.81700 28.29100 20.94200
H  -4.12500 28.41500 22.06000
H  -5.49500 27.70200 20.25200
H  -4.26700 27.00300 19.27200
H  -4.23500 28.78100 19.47800
H  -1.37600 30.36300 25.35700
H  -0.30900 29.05400 25.07300
H  -0.19000 30.02100 26.67100
H  -3.02900 28.03700 30.83200
H  0.58700 25.83400 31.97600
H  -0.84700 24.96000 32.54300
H  -0.13100 26.31000 33.45600

