158

Mg 8.04300 2.40000 27.81400
C  9.94200 0.92000 30.52600
C  6.32900 4.20600 30.07500
C  6.43700 3.57800 25.20300
C  9.56200 -0.10000 25.78200
N  8.18800 2.44500 30.06600
C  9.10300 1.92800 30.97400
C  8.99400 2.58500 32.36700
C  7.64700 3.43800 32.14600
C  7.32800 3.38900 30.67200
C  6.48000 3.00400 32.97200
C  10.29200 3.32900 32.73000
C  10.97200 2.82700 34.03600
H  11.03000 3.81100 35.19300
N  6.58500 3.74600 27.65400
C  6.03100 4.43800 28.69700
C  5.03900 5.35300 28.09100
C  5.08700 5.21400 26.71200
C  6.04700 4.19900 26.45200
C  4.23900 6.28500 29.03900
C  4.38000 5.99100 25.60800
O  4.38700 5.67300 24.38400
C  3.68800 7.29300 25.99600
N  8.04700 1.84500 25.82600
C  7.20400 2.43200 24.89700
C  7.47700 1.93900 23.46000
C  8.61100 0.94600 23.72500
C  8.72600 0.85800 25.21200
C  6.17200 1.29100 22.80600
C  9.99600 1.23300 23.08100
C  10.89800 0.10500 22.57600
N  9.44700 0.66400 28.04300
C  9.91100 -0.16000 27.13600
C  10.84400 -0.98500 27.74300
C  10.93400 -0.63900 29.07300
C  9.98900 0.38800 29.24600
C  11.54200 -2.09700 27.01200
C  11.59100 -0.96200 30.42900
O  12.40000 -1.76400 30.77000
C  10.88700 0.10400 31.35400
C  10.23400 -0.55500 32.53600
O  9.13300 -1.02000 32.53400
O  11.01200 -0.39700 33.67400
C  10.35500 -0.76000 34.95600
H  5.76200 4.90900 30.68900
H  5.92800 3.91900 24.29900
H  10.18400 -0.69500 25.11100
H  8.90500 1.80300 33.12200
H  7.77100 4.51800 32.22600
H  5.92000 2.28200 32.37800
H  5.84000 3.84900 33.22500
H  6.73100 2.41700 33.85500
H  9.99500 4.37500 32.81200
H  11.05100 3.16100 31.96600
H  11.99900 2.53200 33.82400
H  10.52000 1.90700 34.40700
H  4.31700 6.03600 30.09800
H  3.24900 6.51300 28.64500
H  4.73900 7.24700 28.92500
H  2.80500 7.14300 26.61700
H  3.30100 7.68200 25.05300
H  4.39700 7.98300 26.45300
H  7.75800 2.78700 22.83500
H  8.32600 0.02100 23.22400
H  5.31900 1.71100 23.33900
H  6.01600 0.21300 22.83100
H  6.21100 1.77300 21.82900
H  10.53000 1.76700 23.86700
H  9.74500 1.91000 22.26400
H  11.76700 -0.07100 23.20900
H  11.35700 0.34600 21.61700
H  10.43400 -0.87300 22.45000
H  12.55100 -2.34700 27.34200
H  11.68400 -1.96900 25.93900
H  10.85200 -2.92700 27.16300
H  11.64400 0.73400 31.82100
H  10.41200 -1.82700 35.17100
H  9.30200 -0.47900 34.91200
H  10.97100 -0.17900 35.64200
Mg 0.66700 42.98200 25.93300
C  2.63100 43.28500 28.62100
C  -1.89000 41.83900 27.82600
C  -1.15700 42.29400 23.05900
C  3.27200 43.84300 23.84000
N  0.43400 42.71100 28.02600
C  1.33100 43.01500 28.96600
C  0.74400 42.79500 30.44600
C  -0.63600 42.18800 30.10600
C  -0.74600 42.30800 28.58000
C  -0.98000 40.82500 30.69500
C  0.69800 44.17800 31.10400
C  0.62400 44.26300 32.63000
H  0.31900 42.86500 33.31900
N  -1.17600 42.05000 25.48900
C  -2.10000 41.71200 26.41000
C  -3.26100 41.27400 25.84700
C  -3.11900 41.46100 24.43400
C  -1.74800 41.92200 24.22500
C  -4.40400 40.85000 26.66800
C  -4.13000 41.22100 23.37900
O  -3.92300 41.31900 22.19900
C  -5.52200 40.71200 23.77400
N  0.90400 43.20000 23.74800
C  0.03500 42.87600 22.72700
C  0.62700 43.11400 21.29500
C  2.00600 43.81300 21.57700
C  2.09300 43.59100 23.17300
C  0.74200 41.76200 20.48900
C  1.97600 45.35800 21.22200
C  3.28300 45.97000 20.74600
N  2.55700 43.59200 26.05200
C  3.51900 43.79300 25.19500
C  4.77700 44.05700 25.89800
C  4.50600 43.84300 27.21400
C  3.09600 43.53100 27.29800
C  6.11200 44.38900 25.23600
C  5.05800 43.88600 28.55200
O  6.21700 44.11900 28.90900
C  3.90500 43.41600 29.51000
C  4.33100 42.14800 30.11800
O  4.89100 41.22400 29.55400
O  3.97800 42.22000 31.38400
C  4.26600 41.04600 32.19000
H  -2.64200 41.52600 28.55300
H  -1.72200 42.13600 22.13800
H  4.05800 44.15700 23.15000
H  1.44200 42.07300 30.86900
H  -1.39600 42.88300 30.46400
H  -1.82800 40.78100 31.37900
H  -0.20600 40.37500 31.31600
H  -1.21700 40.02800 29.99000
H  -0.15700 44.74900 30.74300
H  1.58600 44.74200 30.81700
H  -0.26300 44.86400 32.83200
H  1.47900 44.79400 33.04900
H  -5.27800 41.50000 26.69000
H  -4.19100 40.61800 27.71100
H  -4.62900 39.85800 26.27700
H  -5.53800 39.85100 24.44300
H  -6.14600 40.45800 22.91700
H  -6.10300 41.53300 24.19500
H  -0.03500 43.76400 20.72200
H  2.88300 43.39800 21.08000
H  1.77400 41.41300 20.52400
H  0.28300 41.87400 19.50600
H  0.24600 40.89700 20.93000
H  1.59200 45.91300 22.07900
H  1.20400 45.57200 20.48300
H  3.62000 46.82300 21.33600
H  3.14700 46.35700 19.73600
H  3.99100 45.17000 20.96300
H  6.16900 45.47600 25.16900
H  6.18400 43.98100 24.22800
H  6.92600 43.93000 25.79700
H  3.79000 44.10600 30.34600
H  5.24300 40.95600 32.66500
H  4.13100 40.08100 31.70100
H  3.51300 41.21300 32.96100

