158

Mg 35.89600 1.80000 29.32600
C  33.90200 3.15400 31.81200
C  38.64700 1.99600 31.60400
C  38.07500 1.55900 26.72300
C  33.34000 2.36700 27.06000
N  36.18900 2.39600 31.50400
C  35.18100 2.84200 32.27800
C  35.67700 2.89900 33.74800
C  37.26800 2.80800 33.65800
C  37.37800 2.37300 32.16400
C  38.13400 4.03500 33.99700
C  34.99900 1.88600 34.69300
C  34.27300 2.46200 35.89200
H  35.05200 3.49000 36.67000
N  38.00500 1.49800 29.23100
C  38.92800 1.62000 30.24600
C  40.21000 1.21200 29.72600
C  40.10600 1.21800 28.26900
C  38.67200 1.36800 27.96600
C  41.44400 0.85700 30.56200
C  41.17200 1.13300 27.26300
O  40.92800 1.22100 26.09600
C  42.56000 1.29100 27.62400
N  35.70300 1.81200 27.18900
C  36.77300 1.66100 26.35500
C  36.33900 1.58300 24.89000
C  34.78600 1.56400 25.03000
C  34.54400 1.88100 26.50400
C  36.95400 2.72700 23.98600
C  34.14600 0.24300 24.64500
C  33.24600 0.08400 23.33900
N  34.04600 2.56000 29.38000
C  33.08700 2.70600 28.38900
C  31.90200 3.30700 28.93200
C  32.13800 3.42200 30.29100
C  33.48500 2.96500 30.48800
C  30.62800 3.60900 28.14400
C  31.55700 3.79000 31.54600
O  30.45900 4.27200 31.71700
C  32.69400 3.62800 32.55800
C  32.90500 4.95100 33.26300
O  33.62200 5.84300 32.92600
O  32.04200 5.05000 34.32900
C  32.19800 6.13900 35.26300
H  39.41400 1.87500 32.37200
H  38.58900 1.53600 25.76100
H  32.43500 2.34100 26.45000
H  35.39200 3.92800 33.96500
H  37.60100 2.02200 34.33600
H  37.56500 4.68200 34.66500
H  38.65100 4.47500 33.14300
H  39.00400 3.65900 34.53600
H  35.72200 1.27000 35.22800
H  34.34700 1.21700 34.13300
H  33.93600 1.66500 36.55400
H  33.34500 2.93600 35.57100
H  41.74100 -0.19200 30.56100
H  41.23000 0.99700 31.62100
H  42.28800 1.50700 30.33300
H  42.83700 0.43400 28.23800
H  42.81800 2.21800 28.13600
H  43.14300 1.27500 26.70300
H  36.66000 0.59000 24.57300
H  34.31300 2.37800 24.48000
H  37.95900 2.44400 23.67200
H  37.02100 3.65800 24.54800
H  36.36800 2.96200 23.09700
H  33.44900 -0.08900 25.41400
H  34.94300 -0.49500 24.55600
H  32.20500 0.25200 23.61600
H  33.33300 -0.86900 22.81700
H  33.47200 0.99000 22.77600
H  30.05200 2.71800 27.89400
H  30.79200 4.25700 27.28400
H  30.01900 4.09100 28.90800
H  32.35500 2.84200 33.23300
H  31.26500 6.05300 35.82000
H  32.14700 7.12200 34.79400
H  32.97700 6.02600 36.01700
Mg 16.89500 52.30700 26.10300
C  18.89500 51.03000 28.62700
C  14.55200 53.12300 28.32700
C  14.91600 53.33300 23.50400
C  19.05800 50.94500 23.74900
N  16.80300 52.06000 28.25600
C  17.74500 51.62000 29.13300
C  17.37000 51.92000 30.59700
C  15.88200 52.37200 30.50300
C  15.67900 52.44100 28.93200
C  14.87300 51.25800 30.99100
C  18.31700 52.96500 31.21300
C  18.39800 53.05400 32.77300
H  17.48700 52.11700 33.65400
N  15.06000 53.13300 25.97800
C  14.30100 53.45000 27.03200
C  13.17900 54.27200 26.58100
C  13.22600 54.30600 25.16700
C  14.47800 53.61200 24.84100
C  12.21300 54.94200 27.55300
C  12.33500 54.98400 24.14800
O  12.57500 55.03500 22.94300
C  11.11000 55.67300 24.59600
N  16.90200 52.17300 23.81600
C  16.02200 52.69600 23.03000
C  16.35300 52.57300 21.53800
C  17.68800 51.78300 21.59100
C  17.97900 51.58000 23.13900
C  15.15300 51.88000 20.75600
C  18.88900 52.32300 20.78800
C  19.52800 53.61900 21.23700
N  18.59900 51.31700 26.16200
C  19.35100 50.73900 25.12900
C  20.44400 49.90200 25.64800
C  20.19900 49.98200 27.03500
C  19.17600 50.86900 27.28200
C  21.34800 49.00500 24.87600
C  20.79700 49.50600 28.32500
O  21.79400 48.84200 28.63600
C  19.91400 50.20300 29.46400
C  19.25600 49.20100 30.32900
O  18.36800 48.35100 30.08000
O  19.80000 49.31300 31.51300
C  19.11200 48.54400 32.56700
H  13.96500 53.55200 29.14200
H  14.33700 53.70100 22.65500
H  19.74600 50.45000 23.06000
H  17.51700 51.04600 31.23100
H  15.78100 53.27300 31.10800
H  14.04000 51.80300 31.43400
H  15.32000 50.68700 31.80600
H  14.61200 50.62800 30.14200
H  18.18500 53.94300 30.75000
H  19.28700 52.58500 30.89200
H  18.26200 54.11800 32.96600
H  19.44200 52.87400 33.03000
H  12.24800 56.02600 27.44000
H  12.45500 54.77600 28.60300
H  11.17400 54.70200 27.32600
H  10.42300 55.76600 23.75500
H  11.32800 56.71100 24.84700
H  10.48600 55.09600 25.27800
H  16.54400 53.54200 21.07600
H  17.50700 50.85900 21.04300
H  14.36700 51.87800 21.51100
H  15.37400 50.87300 20.40000
H  14.69900 52.54900 20.02500
H  18.58600 52.36100 19.74200
H  19.60900 51.50500 20.79900
H  19.88300 54.17000 20.36600
H  20.37600 53.39200 21.88300
H  18.72200 54.20200 21.68400
H  22.37200 49.15400 25.21800
H  21.38000 49.20400 23.80500
H  21.04000 47.97200 25.04300
H  20.49100 50.97900 29.96800
H  18.03100 48.47100 32.44700
H  19.44700 49.07100 33.46100
H  19.40100 47.49300 32.54200

