158

Mg 3.13400 -3.50800 44.83500
C  6.08700 -1.75600 44.43100
C  1.59900 -1.20900 42.71000
C  0.51600 -5.50900 44.69800
C  5.00000 -6.10100 46.37200
N  3.78800 -1.71900 43.63000
C  5.06100 -1.19300 43.59800
C  5.14400 0.00700 42.76600
C  3.57700 0.43500 42.67600
C  2.92200 -0.91000 43.02800
C  3.10600 1.62700 43.61400
C  5.73300 -0.49300 41.39400
C  6.63700 0.52700 40.61200
H  5.96300 1.40600 39.53200
N  1.26300 -3.33400 43.91400
C  0.80500 -2.30200 43.09100
C  -0.56500 -2.54800 42.70800
C  -0.96700 -3.80100 43.24800
C  0.25900 -4.28800 44.01200
C  -1.42900 -1.52300 41.90200
C  -2.36300 -4.43900 43.14800
O  -3.22800 -3.88100 42.50800
C  -2.75000 -5.75200 43.79100
N  2.76900 -5.51400 45.48000
C  1.57500 -6.09100 45.37100
C  1.51300 -7.55300 45.96400
C  3.00900 -7.67900 46.49500
C  3.64300 -6.33900 46.18600
C  0.40100 -7.63500 47.08000
C  3.76100 -8.84100 45.84100
C  4.36400 -9.97000 46.79100
N  5.07800 -3.86000 45.43600
C  5.74800 -4.97000 45.99400
C  7.07300 -4.56900 46.27900
C  7.22200 -3.32300 45.74500
C  6.04000 -2.97200 45.09400
C  8.22700 -5.36400 46.93200
C  8.15900 -2.29400 45.48800
O  9.32700 -2.11700 45.76800
C  7.44800 -1.16100 44.63800
C  7.33900 0.04000 45.48500
O  6.35600 0.24600 46.24200
O  8.30200 0.96500 45.17500
C  8.06900 2.25000 45.65600
H  1.15700 -0.43200 42.08300
H  -0.39300 -6.11400 44.69800
H  5.48700 -6.94500 46.86600
H  5.57100 0.91800 43.18600
H  3.23100 0.60100 41.65500
H  2.98600 1.32700 44.65500
H  2.21600 2.09900 43.19800
H  3.89000 2.38300 43.66500
H  4.88100 -0.65500 40.73300
H  6.35400 -1.36400 41.60300
H  7.45800 -0.07100 40.21500
H  7.08500 1.08100 41.43700
H  -2.37400 -1.40100 42.43200
H  -1.75000 -1.90600 40.93300
H  -1.01100 -0.52400 41.77500
H  -2.01900 -6.42700 43.34600
H  -3.73400 -6.06500 43.44000
H  -2.64100 -5.60600 44.86500
H  1.29900 -8.15400 45.08000
H  3.20600 -7.72800 47.56600
H  0.93800 -7.73000 48.02300
H  -0.21800 -8.52600 46.98100
H  -0.24000 -6.75400 47.04200
H  4.68600 -8.45200 45.41500
H  3.21400 -9.30400 45.02000
H  4.12900 -9.86900 47.85100
H  5.45100 -10.03600 46.74600
H  3.93200 -10.95000 46.59000
H  8.43900 -4.89700 47.89400
H  9.11900 -5.40900 46.30700
H  7.91100 -6.40300 47.02400
H  8.01600 -0.94100 43.73400
H  7.32200 2.44100 46.42700
H  7.91300 2.99200 44.87400
H  9.03500 2.49700 46.09500
Mg 30.50800 58.00900 39.21800
C  27.79200 55.90600 38.36500
C  32.53600 55.35800 38.19800
C  32.98500 60.09900 39.18600
C  28.26400 60.55700 39.86300
N  30.16200 55.82900 38.22400
C  28.96500 55.21700 38.12400
C  29.17200 53.73600 37.86100
C  30.70800 53.52200 38.18100
C  31.18500 54.98000 38.12700
C  31.03900 52.79500 39.51700
C  28.78200 53.24700 36.41900
C  29.17800 54.35000 35.26700
H  28.10100 54.89800 34.38500
N  32.54700 57.72900 38.70000
C  33.21000 56.55100 38.38500
C  34.62800 56.90200 38.19000
C  34.77300 58.30700 38.42900
C  33.43200 58.82000 38.74400
C  35.64700 55.91000 37.78000
C  36.04400 59.15300 38.44700
O  37.14800 58.66700 38.19500
C  36.04500 60.58200 38.79500
N  30.67700 60.02700 39.46400
C  31.81300 60.67500 39.52400
C  31.71000 62.12500 39.94600
C  30.14700 62.26800 40.16900
C  29.64900 60.85600 39.81200
C  32.54200 62.61300 41.18900
C  29.45000 63.40800 39.31400
C  28.60900 64.39300 40.08900
N  28.37300 58.23100 39.22800
C  27.63100 59.32900 39.51000
C  26.27000 59.01900 39.36300
C  26.25100 57.66500 38.94800
C  27.61000 57.24300 38.78900
C  25.12400 59.91300 39.63600
C  25.38100 56.52500 38.62600
O  24.17900 56.48400 38.69900
C  26.37000 55.30000 38.28800
C  26.06800 54.22800 39.27000
O  26.52700 54.13800 40.39900
O  25.06000 53.49900 38.80000
C  24.49500 52.63400 39.76700
H  33.21400 54.52400 38.00300
H  33.66100 60.93000 39.40000
H  27.50700 61.34400 39.85700
H  28.43700 53.27000 38.51700
H  31.23300 52.92800 37.43200
H  30.11700 52.29600 39.81500
H  31.15400 53.55700 40.28900
H  31.84700 52.09400 39.31300
H  27.72400 52.99800 36.34000
H  29.42100 52.41000 36.13800
H  29.87700 53.86300 34.58800
H  29.84200 55.13000 35.64000
H  35.21700 54.97900 37.40900
H  36.13400 55.76300 38.74400
H  36.40000 56.26100 37.07600
H  37.04600 61.00500 38.88400
H  35.64800 60.49500 39.80600
H  35.44900 61.08300 38.03200
H  32.03300 62.75900 39.12000
H  29.83000 62.54800 41.17400
H  33.37300 61.96000 41.45800
H  31.96600 62.81300 42.09200
H  33.01400 63.54500 40.87700
H  28.84500 63.09000 38.46500
H  30.11300 64.16600 38.89800
H  28.01900 65.01100 39.41300
H  29.20100 65.11500 40.65000
H  27.92500 63.83900 40.73200
H  25.22600 60.99400 39.74100
H  24.57500 59.63300 40.53500
H  24.47400 59.69500 38.78900
H  26.04100 55.06000 37.27800
H  24.17500 53.13300 40.68200
H  25.16600 51.84600 40.10900
H  23.62000 52.12700 39.35900

