158

Mg 36.07700 48.93400 25.45600
C  36.15500 47.26800 28.43400
C  35.34700 51.88000 27.10800
C  36.14100 50.45300 22.36200
C  36.66000 45.82300 23.78900
N  35.62500 49.46800 27.49800
C  35.90500 48.64300 28.52700
C  35.76200 49.32400 29.87800
C  35.28800 50.70400 29.47900
C  35.46700 50.74300 27.93500
C  33.93700 51.13400 29.94800
C  37.13500 49.27800 30.63900
C  37.14200 48.96500 32.06300
H  36.04100 49.47800 32.95000
N  35.68300 50.90300 24.79600
C  35.46900 51.96400 25.64400
C  35.35900 53.15300 24.81400
C  35.54200 52.78700 23.46400
C  35.76000 51.26900 23.46000
C  35.16000 54.55000 25.41500
C  35.35200 53.65300 22.27200
O  35.28300 53.10600 21.16300
C  35.23200 55.14500 22.26500
N  36.25900 48.22300 23.28600
C  36.35100 49.08400 22.28200
C  36.70700 48.36700 20.97600
C  37.14800 46.99300 21.53900
C  36.63400 46.97500 22.92400
C  35.42200 48.38200 20.07000
C  38.64200 46.73700 21.46600
C  39.12700 45.34100 21.11800
N  36.25400 46.96500 25.94000
C  36.50200 45.80900 25.20400
C  36.60200 44.64300 26.06400
C  36.50400 45.19200 27.33000
C  36.33100 46.57800 27.20600
C  36.83800 43.19000 25.65300
C  36.54400 44.85000 28.73900
O  36.61400 43.77200 29.28100
C  36.16500 46.14900 29.49400
C  34.85100 45.85500 30.19200
O  33.74300 45.94800 29.71500
O  35.11600 45.56100 31.46300
C  33.97500 45.65200 32.32600
H  35.20800 52.79300 27.69000
H  36.34400 50.91000 21.39200
H  37.08900 44.93100 23.32800
H  34.98200 48.79300 30.42400
H  35.96800 51.45800 29.87400
H  33.53500 50.35400 30.59400
H  33.30400 51.49900 29.13900
H  34.08700 52.03500 30.54400
H  37.53900 50.29000 30.62700
H  37.84600 48.61900 30.14100
H  38.11000 49.30200 32.43200
H  37.22400 47.89200 32.23600
H  34.35700 55.03500 24.86000
H  36.06300 55.15800 25.45400
H  34.86900 54.54800 26.46600
H  34.32800 55.58600 22.68500
H  35.35000 55.43600 21.22100
H  36.00200 55.73700 22.76000
H  37.54200 48.94200 20.57600
H  36.58200 46.18700 21.07200
H  35.62900 48.91200 19.14000
H  34.60700 48.97000 20.49200
H  35.13000 47.45500 19.57600
H  39.00300 46.88600 22.48400
H  39.17700 47.46600 20.85700
H  38.43000 44.81400 20.46700
H  39.34200 44.73300 21.99700
H  40.03500 45.35900 20.51400
H  36.70900 43.12000 24.57300
H  36.33400 42.37400 26.17300
H  37.89600 43.00000 25.83200
H  36.91200 46.38500 30.25200
H  33.45700 44.69900 32.21400
H  33.43900 46.58000 32.12500
H  34.23400 45.69200 33.38400
Mg -9.80200 17.96100 42.88200
C  -6.59000 16.60500 42.42000
C  -8.43900 21.05100 42.11000
C  -12.91300 18.95900 42.47400
C  -10.96400 14.59900 42.85000
N  -7.77000 18.74700 42.27900
C  -6.64900 18.00700 42.26900
C  -5.48700 18.89000 42.02800
C  -6.05200 20.34300 41.82700
C  -7.47600 20.06100 42.25000
C  -5.30600 21.48000 42.65600
C  -4.28300 18.47300 41.09200
C  -4.66700 17.81800 39.75600
H  -4.67800 18.59500 38.43100
N  -10.60200 19.76700 42.40800
C  -9.88300 20.87600 42.04600
C  -10.89600 22.00700 41.92900
C  -12.20200 21.56900 42.22000
C  -11.95300 20.03100 42.33900
C  -10.51800 23.38600 41.42700
C  -13.45000 22.33000 42.43600
O  -13.45500 23.58500 42.32000
C  -14.71700 21.66900 42.89600
N  -11.66000 16.92900 42.69300
C  -12.77400 17.59900 42.68200
C  -13.95500 16.68400 42.82300
C  -13.37500 15.22700 42.53000
C  -11.88100 15.56400 42.65000
C  -14.60400 16.75700 44.22600
C  -13.80500 14.52600 41.17400
C  -14.10000 13.01600 41.18100
N  -8.96100 15.96600 42.89200
C  -9.59000 14.79600 42.92300
C  -8.55300 13.70000 42.98100
C  -7.33000 14.42200 42.86600
C  -7.65400 15.75600 42.73400
C  -8.61400 12.21800 42.91600
C  -5.97900 14.17700 42.75500
O  -5.24700 13.15600 42.84500
C  -5.36400 15.64000 42.55200
C  -4.29300 15.99900 43.55200
O  -3.14000 15.57700 43.46300
O  -4.85200 16.59000 44.62600
C  -4.12400 16.79800 45.81500
H  -8.11700 22.06200 41.85300
H  -13.96100 19.21900 42.31300
H  -11.44100 13.62000 42.93600
H  -5.07600 19.00800 43.03000
H  -5.98800 20.42400 40.74200
H  -5.98500 21.93700 43.37600
H  -4.98400 22.21500 41.91800
H  -4.41700 21.15200 43.19500
H  -3.61600 17.76800 41.58800
H  -3.77300 19.42500 40.94100
H  -5.68200 17.43400 39.85600
H  -3.99700 16.96200 39.67200
H  -11.33300 23.89800 40.91600
H  -9.69100 23.30700 40.72100
H  -10.15900 23.99500 42.25700
H  -14.56500 20.92200 43.67500
H  -15.20900 21.30200 41.99600
H  -15.33400 22.37700 43.45000
H  -14.67900 17.02700 42.08400
H  -13.55300 14.46900 43.29200
H  -15.29200 15.93400 44.41600
H  -15.17500 17.64900 44.48700
H  -13.85100 16.47500 44.96200
H  -13.02500 14.67700 40.42700
H  -14.55100 15.12700 40.65400
H  -13.29100 12.38400 40.81600
H  -15.08700 12.89300 40.73500
H  -14.24300 12.76600 42.23300
H  -9.21600 12.12300 42.01200
H  -9.17000 11.85100 43.77900
H  -7.58900 11.88400 42.75600
H  -4.86200 15.60900 41.58500
H  -4.73500 16.97200 46.70000
H  -3.40200 17.60400 45.68300
H  -3.40900 15.98200 45.92000

