158

Mg 9.38800 3.85900 27.38100
C  10.57000 2.17200 30.08900
C  7.67700 5.98800 29.53800
C  7.73400 5.14600 24.69400
C  10.33700 1.12900 25.26500
N  9.06200 3.95800 29.53800
C  9.78300 3.28700 30.43700
C  9.56400 3.88400 31.85300
C  8.48200 4.97700 31.68400
C  8.35900 4.96600 30.15400
C  7.14700 4.70000 32.42000
C  10.84200 4.39300 32.61100
C  10.67400 5.13300 33.97100
H  11.22400 4.53600 35.28500
N  8.01100 5.47400 27.16000
C  7.48700 6.23200 28.15100
C  6.63900 7.20700 27.53800
C  6.75000 7.08200 26.11000
C  7.55800 5.88100 25.91400
C  5.90600 8.27200 28.31800
C  6.13000 7.87100 24.94800
O  6.37000 7.61400 23.79000
C  5.14400 9.00400 25.30900
N  9.27500 3.31100 25.17800
C  8.46900 4.00100 24.39800
C  8.47900 3.40400 22.98600
C  9.43800 2.23500 23.10900
C  9.63200 2.13300 24.58500
C  7.14000 3.05100 22.29700
C  10.84900 2.51200 22.47300
C  11.76600 1.34800 22.08500
N  10.33700 2.03000 27.56400
C  10.75300 1.14000 26.58800
C  11.60300 0.11700 27.34300
C  11.52100 0.46300 28.68000
C  10.73600 1.59900 28.78500
C  12.48200 -0.93800 26.75800
C  11.92100 0.16800 30.02600
O  12.51500 -0.79600 30.43900
C  11.34700 1.23200 31.01300
C  10.61300 0.59000 32.13500
O  9.78700 -0.30400 32.04300
O  11.09300 1.14200 33.28900
C  10.75900 0.31900 34.48300
H  7.34400 6.68400 30.31100
H  7.10900 5.38900 23.83300
H  10.77200 0.39000 24.59000
H  9.16900 3.13600 32.54000
H  8.92000 5.93800 31.95400
H  6.34400 4.72900 31.68300
H  6.94000 5.39500 33.23300
H  7.07600 3.84300 33.09000
H  11.29300 5.22900 32.07500
H  11.70000 3.72300 32.56000
H  9.59200 5.24800 34.03900
H  10.89300 6.19600 33.87200
H  4.85100 8.36200 28.06100
H  6.42400 9.20000 28.07600
H  5.86200 8.12900 29.39800
H  5.52100 9.66300 26.09000
H  4.26200 8.44700 25.62700
H  4.92300 9.57700 24.40800
H  9.07600 4.13900 22.44500
H  9.08300 1.23700 22.85100
H  6.84400 3.51900 21.35800
H  6.24000 3.22100 22.88700
H  7.11100 1.96900 22.17000
H  11.55300 3.14100 23.01800
H  10.58100 2.97100 21.52200
H  12.15100 1.46800 21.07300
H  11.29600 0.38000 21.90800
H  12.62100 1.24700 22.75400
H  12.86200 -0.62600 25.78600
H  11.96400 -1.88700 26.62100
H  13.36800 -0.95700 27.39300
H  12.14700 1.77600 31.51600
H  11.23800 0.69900 35.38600
H  11.22500 -0.66600 34.46200
H  9.68400 0.29100 34.66000
Mg 35.68500 0.98500 29.75800
C  33.31300 2.17800 32.11100
C  37.93800 1.14000 32.30400
C  38.04600 0.04800 27.51700
C  33.40500 1.35800 27.17700
N  35.68200 1.76000 31.91900
C  34.51800 1.94800 32.67600
C  34.74100 2.04600 34.18000
C  36.30500 1.64800 34.22900
C  36.66600 1.57100 32.72300
C  37.22600 2.65100 35.09200
C  33.93400 1.04000 35.02200
C  33.35900 1.46400 36.39700
H  34.00800 2.62900 37.14700
N  37.67900 0.62900 29.89600
C  38.47500 0.75800 31.03300
C  39.80600 0.16600 30.79000
C  39.86700 -0.09300 29.35500
C  38.47500 0.19500 28.89500
C  40.85200 -0.15300 31.84200
C  41.10500 -0.54200 28.51500
O  40.98400 -0.83900 27.36700
C  42.48300 -0.45700 29.16500
N  35.71400 0.69300 27.64500
C  36.77600 0.32100 27.00800
C  36.54400 0.22100 25.42400
C  34.97500 0.43900 25.34800
C  34.65900 0.83900 26.80600
C  37.29000 1.37900 24.63500
C  34.19300 -0.74100 24.80700
C  33.56200 -0.54800 23.44500
N  33.78600 1.75800 29.60900
C  32.98400 1.75700 28.50300
C  31.70400 2.24900 28.86800
C  31.71000 2.41000 30.28700
C  33.05900 2.12500 30.71000
C  30.62700 2.46600 27.89300
C  30.98200 2.67400 31.45300
O  29.82500 2.92800 31.56400
C  31.96800 2.55900 32.72700
C  32.03900 4.01500 33.27600
O  32.94900 4.85000 33.09500
O  31.11900 4.10200 34.26500
C  31.24700 5.12500 35.29600
H  38.53600 0.97800 33.20300
H  38.85500 -0.34300 26.89800
H  32.57100 1.28700 26.47500
H  34.53100 3.04900 34.55100
H  36.54300 0.62800 34.53000
H  37.95000 2.06400 35.65800
H  36.67200 3.23000 35.83000
H  37.84400 3.33500 34.51200
H  34.57100 0.18700 35.25500
H  33.13400 0.50500 34.51100
H  33.50500 0.61400 37.06400
H  32.27500 1.56900 36.37200
H  41.21900 -1.17800 31.89500
H  40.29500 -0.01200 32.76700
H  41.63400 0.60600 31.83900
H  42.59900 0.53700 29.59800
H  43.19000 -0.54600 28.34100
H  42.73600 -1.15200 29.96500
H  36.93500 -0.75500 25.13800
H  34.69900 1.38300 24.87800
H  38.12600 1.69600 25.25900
H  36.61100 2.17600 24.33300
H  37.68500 0.95100 23.71300
H  33.37500 -1.00900 25.47600
H  34.82900 -1.60800 24.62600
H  33.74800 -1.35900 22.74000
H  33.88300 0.38800 22.98800
H  32.47800 -0.50400 23.54700
H  31.11300 2.88200 27.01000
H  29.96500 3.24700 28.26800
H  30.04900 1.57300 27.65500
H  31.57200 1.94100 33.53300
H  31.08000 4.69700 36.28400
H  30.60000 5.96000 35.02700
H  32.27400 5.49100 35.31000

