158

Mg 47.37100 15.13700 27.74300
C  45.50600 15.38000 30.77000
C  49.58600 17.37600 29.07900
C  49.11200 14.95600 24.81700
C  44.73200 13.55400 26.40300
N  47.38800 16.37500 29.61300
C  46.67300 16.14200 30.72600
C  47.22200 16.86700 31.90400
C  48.31600 17.82400 31.27700
C  48.46700 17.12800 29.89800
C  47.99000 19.32300 31.08900
C  47.87000 15.88700 32.99300
C  47.44200 16.13500 34.50800
H  48.39100 15.84800 35.67900
N  49.21200 16.00900 27.09900
C  49.92200 16.86700 27.80100
C  51.02900 17.26000 26.99300
C  51.01900 16.45700 25.77600
C  49.78500 15.75100 25.84400
C  52.01900 18.34200 27.36900
C  51.81900 16.51300 24.53500
O  51.84800 15.66500 23.67300
C  52.83300 17.64600 24.31100
N  46.99300 14.30500 25.95500
C  47.86200 14.33800 24.86400
C  47.18600 13.83600 23.62500
C  45.82100 13.29000 24.07600
C  45.76700 13.81600 25.54400
C  46.83700 15.00500 22.58600
C  45.74100 11.69500 24.11200
C  46.85000 10.92700 24.74700
N  45.51500 14.49200 28.42800
C  44.57800 13.74200 27.74100
C  43.46900 13.49200 28.60000
C  43.86000 13.93100 29.89200
C  45.01700 14.66900 29.67500
C  42.24800 12.74600 28.17800
C  43.50400 14.12900 31.30900
O  42.52500 13.76100 31.91700
C  44.60000 15.08500 31.90900
C  44.01200 16.32600 32.58400
O  43.69600 17.36100 32.07400
O  43.85100 16.08300 33.83900
C  43.24200 17.10400 34.70200
H  50.43300 17.96300 29.44200
H  49.75100 14.81500 23.94400
H  43.82500 13.06300 26.04600
H  46.47800 17.49600 32.39100
H  49.25700 17.92500 31.81800
H  48.70600 19.87000 31.70200
H  46.95800 19.49200 31.39700
H  48.16600 19.61700 30.05500
H  48.94700 15.87100 32.82700
H  47.48900 14.91600 32.67700
H  46.60800 15.44100 34.61600
H  47.02200 17.13800 34.58500
H  52.43400 18.93900 26.55700
H  52.78700 17.87000 27.98200
H  51.57400 19.04500 28.07300
H  53.41800 17.68300 25.23000
H  52.23100 18.54900 24.21400
H  53.53400 17.59800 23.47800
H  47.73900 13.05400 23.10500
H  44.99600 13.65000 23.46100
H  46.51000 15.89400 23.12500
H  46.23000 14.76400 21.71300
H  47.82500 15.16700 22.15500
H  45.58600 11.50500 23.05000
H  44.79200 11.33800 24.51200
H  47.71600 10.84400 24.09000
H  46.64500 9.91100 25.08400
H  47.17200 11.43500 25.65600
H  41.98000 12.88600 27.13000
H  41.41100 12.87800 28.86400
H  42.48100 11.68500 28.26400
H  45.06100 14.50200 32.70700
H  43.82000 18.02800 34.70400
H  43.08500 16.71300 35.70800
H  42.24900 17.32700 34.31400
Mg -0.43000 43.35900 25.25800
C  1.69700 42.61300 27.88200
C  -2.99600 42.80400 27.39300
C  -2.52100 43.37800 22.62500
C  2.44500 43.20100 23.12000
N  -0.60200 42.60000 27.41000
C  0.40900 42.64500 28.32500
C  -0.14200 42.64200 29.75300
C  -1.65000 42.31000 29.49900
C  -1.78100 42.59000 28.00400
C  -2.28300 40.94400 29.90000
C  0.07400 44.08900 30.37900
C  0.05100 44.13800 31.94300
H  -0.20900 42.84300 32.76700
N  -2.49000 43.32000 25.04000
C  -3.37100 43.06400 26.06800
C  -4.72400 43.15300 25.53900
C  -4.59800 43.24400 24.14400
C  -3.16000 43.33400 23.84700
C  -5.94800 43.04000 26.44000
C  -5.66800 43.39500 23.04500
O  -5.46000 43.71700 21.90100
C  -7.19600 43.24300 23.49300
N  -0.07800 43.36800 23.20300
C  -1.07500 43.31500 22.28900
C  -0.55000 43.40300 20.82300
C  0.95100 43.75800 21.10800
C  1.16200 43.39600 22.54200
C  -0.77900 41.97800 20.14000
C  1.51100 45.22400 20.78100
C  1.20300 46.42300 21.64800
N  1.64100 43.13700 25.38000
C  2.64100 43.00000 24.50900
C  3.92200 42.73400 25.15000
C  3.61700 42.59800 26.49500
C  2.19500 42.78000 26.55100
C  5.24400 42.57500 24.40400
C  4.18600 42.21300 27.75300
O  5.36700 41.97900 28.03900
C  3.02100 42.49900 28.74400
C  3.14600 41.40300 29.75700
O  2.78200 40.19900 29.72500
O  3.65700 41.92800 30.91100
C  4.13800 41.02300 31.98900
H  -3.82800 42.69400 28.09200
H  -3.12600 43.44100 21.71800
H  3.34000 43.22600 22.49500
H  0.42100 41.94900 30.37800
H  -2.28400 43.03800 30.00500
H  -3.07400 40.75600 29.17400
H  -2.71300 41.08900 30.89100
H  -1.45700 40.23500 29.96000
H  -0.63100 44.80700 29.96000
H  1.01600 44.50200 30.02000
H  -0.63700 44.94700 32.19100
H  0.98200 44.49400 32.38400
H  -6.56000 43.93900 26.37900
H  -5.83100 42.87500 27.51100
H  -6.47400 42.23800 25.92100
H  -7.44500 42.33900 24.04800
H  -7.60500 43.30100 22.48400
H  -7.62800 44.08800 24.02900
H  -0.94300 44.10700 20.08900
H  1.47800 43.07100 20.44700
H  -1.39500 41.30800 20.73900
H  0.18500 41.48700 20.00500
H  -1.32800 42.16700 19.21800
H  1.12000 45.23300 19.76400
H  2.59200 45.09400 20.73500
H  1.07300 47.29900 21.01400
H  2.08500 46.61300 22.26000
H  0.28600 46.30600 22.22600
H  5.96200 42.26200 25.16100
H  5.60600 43.44300 23.85100
H  5.11100 41.72800 23.73100
H  3.19200 43.49600 29.15100
H  5.19900 40.94800 31.75000
H  3.67000 40.03900 32.00800
H  4.05000 41.49000 32.97000

