158

Mg 41.58000 40.64000 27.04000
C  40.74500 43.05800 29.38800
C  42.40800 38.47700 29.63900
C  42.47600 38.43000 24.73000
C  41.13800 43.10200 24.56800
N  41.70900 40.76200 29.36500
C  41.06900 41.81400 30.00000
C  40.97700 41.44500 31.54000
C  41.55700 39.99700 31.58400
C  41.95800 39.71700 30.11100
C  42.66700 39.80700 32.61100
C  39.59900 41.58800 32.25500
C  39.54400 42.48100 33.51500
H  39.12000 41.80600 34.81200
N  42.35600 38.74000 27.16400
C  42.62000 38.01900 28.32000
C  43.09000 36.67100 27.99500
C  43.08700 36.60400 26.56400
C  42.64300 37.94500 26.09000
C  43.72700 35.70100 28.99400
C  43.33800 35.47200 25.65400
O  43.48900 35.53400 24.46500
C  43.49000 34.11800 26.29800
N  41.73900 40.73600 24.99400
C  42.00800 39.62900 24.16700
C  41.87800 39.99000 22.65300
C  41.16600 41.43300 22.72500
C  41.42200 41.81600 24.17800
C  43.25900 39.91000 21.84500
C  39.59600 41.41000 22.45000
C  38.77300 40.35300 23.25700
N  41.02500 42.59800 26.90600
C  40.87000 43.51900 25.88100
C  40.43500 44.77000 26.39400
C  40.39200 44.61100 27.72300
C  40.80400 43.32000 27.99900
C  40.26000 46.02900 25.48400
C  40.11000 45.33000 28.96100
O  39.77500 46.48800 29.21000
C  40.33700 44.34000 30.03200
C  41.42200 44.85700 30.92600
O  42.61100 44.55600 30.82200
O  40.88500 45.49000 32.00100
C  41.84200 45.93900 32.95400
H  42.52600 37.75600 30.45100
H  42.49800 37.76300 23.86500
H  41.01100 43.86900 23.80100
H  41.64900 42.19000 31.96600
H  40.75700 39.30200 31.84200
H  42.75600 38.77800 32.96000
H  42.62800 40.46400 33.48000
H  43.60900 40.04000 32.11500
H  39.20200 40.63700 32.61000
H  38.84100 41.90500 31.53800
H  38.85100 43.31500 33.40200
H  40.49200 42.99300 33.67700
H  44.68700 35.41100 28.56700
H  43.15500 34.80500 29.23500
H  44.06400 36.31100 29.83300
H  42.60400 34.07800 26.93200
H  44.44900 34.21600 26.80600
H  43.55200 33.27700 25.60600
H  41.12400 39.32900 22.22500
H  41.74800 42.18500 22.19100
H  43.98300 39.55700 22.58000
H  43.59200 40.92000 21.60800
H  43.16000 39.33700 20.92300
H  39.46700 41.21800 21.38500
H  39.09500 42.33400 22.73600
H  37.99100 39.98200 22.59500
H  38.33400 40.82800 24.13400
H  39.31500 39.46400 23.58100
H  41.13300 46.22400 24.86100
H  40.15200 46.80600 26.24000
H  39.44500 45.87400 24.77800
H  39.47600 44.32400 30.70000
H  42.59400 46.49100 32.39100
H  42.27900 45.06400 33.43600
H  41.23900 46.65300 33.51500
Mg 0.14300 43.40200 26.00900
C  2.28400 43.11200 28.79700
C  -2.41300 42.51700 28.15500
C  -1.84300 43.20100 23.37500
C  2.83100 44.27000 24.03400
N  -0.06000 42.73700 28.25100
C  0.93500 42.84400 29.17500
C  0.47100 42.66700 30.64500
C  -1.01900 42.12400 30.34200
C  -1.24100 42.55700 28.85300
C  -1.27700 40.58900 30.56600
C  0.61000 44.02600 31.46200
C  1.26700 43.89800 32.81000
H  0.87600 42.64700 33.65200
N  -1.90700 42.93400 25.80200
C  -2.82100 42.65500 26.77200
C  -4.10700 42.47500 26.22000
C  -3.91000 42.58300 24.77100
C  -2.46400 42.92300 24.56200
C  -5.27100 42.31400 27.16400
C  -4.92800 42.48900 23.60800
O  -4.70900 42.62400 22.45800
C  -6.34500 42.05800 23.96700
N  0.49500 43.63700 24.01200
C  -0.54700 43.57000 23.08600
C  -0.12800 44.05000 21.68100
C  1.34100 44.56600 21.99200
C  1.57000 44.20700 23.39900
C  -0.20600 42.89300 20.62200
C  1.53000 46.06700 21.76600
C  1.40200 46.61300 20.37500
N  2.11500 43.63800 26.28900
C  3.12300 43.96000 25.41600
C  4.44000 43.93900 26.08800
C  4.05500 43.66900 27.42500
C  2.68100 43.41800 27.48500
C  5.77100 44.03300 25.43300
C  4.66700 43.41600 28.70500
O  5.89100 43.38700 28.96600
C  3.53000 43.09600 29.71100
C  3.81100 41.68300 30.19500
O  3.87100 40.65700 29.50500
O  4.09400 41.69000 31.49900
C  4.85800 40.62800 32.12800
H  -3.24600 42.23700 28.80500
H  -2.50600 43.30200 22.51300
H  3.61700 44.77600 23.47100
H  0.97200 41.84900 31.16200
H  -1.74900 42.66300 30.94700
H  -1.79600 40.54700 31.52400
H  -0.32800 40.07900 30.39800
H  -1.83500 40.28400 29.68100
H  -0.34300 44.50500 31.68600
H  1.23500 44.71400 30.89400
H  1.05900 44.82400 33.34600
H  2.34700 44.02200 32.73600
H  -5.19400 41.25100 27.39300
H  -6.23000 42.45400 26.66600
H  -5.09100 42.88800 28.07300
H  -7.07800 42.85100 23.82100
H  -6.28700 41.55600 24.93200
H  -6.64800 41.22300 23.33600
H  -0.74900 44.90300 21.40700
H  2.08000 44.00900 21.41600
H  0.76400 42.72100 20.15600
H  -0.78700 43.28900 19.78900
H  -0.67800 41.94600 20.88300
H  2.47800 46.43200 22.16200
H  0.90200 46.55900 22.50800
H  0.99200 47.60000 20.59100
H  0.64000 46.18400 19.72600
H  2.37300 46.76600 19.90400
H  5.77900 44.08300 24.34400
H  6.49500 43.34700 25.87200
H  6.11800 45.05000 25.61800
H  3.41300 43.79900 30.53600
H  4.19700 39.92400 32.63300
H  5.52900 41.05500 32.87300
H  5.36600 39.98600 31.40800

