158

Mg 46.54000 43.41100 42.66700
C  43.13400 42.61300 42.05200
C  47.31900 40.21100 41.77000
C  49.67900 44.49600 42.28000
C  45.50700 46.88600 42.02500
N  45.35600 41.64400 42.09900
C  43.97800 41.49500 42.04500
C  43.55100 40.07600 41.75500
C  44.84700 39.27700 41.94700
C  45.96600 40.38800 41.93400
C  44.82900 38.27500 43.17700
C  42.84500 39.85600 40.45000
C  43.20900 40.78300 39.23600
H  43.34600 40.16700 37.88800
N  48.32600 42.41300 42.25700
C  48.43900 41.10300 41.96200
C  49.86200 40.87400 41.61400
C  50.60900 42.06200 41.75700
C  49.55600 43.07000 42.06200
C  50.28400 39.45900 41.31500
C  52.06600 42.20100 41.55800
O  52.73000 41.17800 41.42000
C  52.83400 43.57400 41.66700
N  47.55500 45.44000 42.25200
C  48.82600 45.57400 42.25800
C  49.24100 47.02700 42.16900
C  47.90700 47.74000 42.14800
C  46.84800 46.61200 42.09600
C  50.10100 47.45600 43.31100
C  47.70400 48.86300 41.12100
C  47.50100 48.42500 39.60300
N  44.65700 44.57700 42.40100
C  44.42100 45.97000 42.15600
C  42.95200 46.24800 42.01900
C  42.44500 44.93200 42.05900
C  43.50900 43.97400 42.15800
C  42.35000 47.65700 41.88400
C  41.24200 44.16000 42.11500
O  40.08500 44.55000 42.12700
C  41.61200 42.62600 42.26800
C  41.19200 42.16000 43.65400
O  40.36000 41.31200 43.82700
O  41.72000 42.98900 44.63300
C  41.09900 42.95600 45.98300
H  47.49900 39.15600 41.55300
H  50.69200 44.79200 42.00100
H  45.27400 47.95200 41.98600
H  42.78000 39.89100 42.50400
H  45.03200 38.68100 41.05300
H  45.37000 38.75800 43.99100
H  45.35300 37.34600 42.94800
H  43.88100 38.08800 43.68100
H  41.83500 40.18800 40.69000
H  42.91600 38.78700 40.25000
H  44.06500 41.44600 39.36000
H  42.31100 41.38600 39.10500
H  50.73600 39.59100 40.33200
H  49.46800 38.74400 41.42300
H  51.08700 39.30000 42.03400
H  52.55800 44.17400 40.80000
H  53.90300 43.40800 41.53900
H  52.64200 44.08400 42.61100
H  49.77800 47.11100 41.22400
H  47.78000 48.17400 43.14000
H  49.98700 46.84400 44.20500
H  49.80500 48.41100 43.74700
H  51.11500 47.45700 42.91200
H  48.60600 49.47200 41.17800
H  46.87000 49.51800 41.37300
H  48.22900 48.87700 38.92800
H  46.52000 48.86700 39.42700
H  47.52100 47.33800 39.52500
H  43.01200 48.43300 41.49800
H  41.84300 48.02800 42.77400
H  41.56500 47.47200 41.15000
H  41.12100 42.17100 41.40700
H  40.40700 42.12700 46.13300
H  40.52300 43.86200 46.17200
H  41.73900 42.87300 46.86200
Mg 8.45600 47.71400 28.55300
C  6.97400 47.19000 31.55500
C  11.49000 48.28200 30.25700
C  9.92800 48.67200 25.65600
C  5.42700 47.98100 27.14900
N  9.11100 47.94200 30.69500
C  8.32000 47.61400 31.73300
C  9.07500 47.89900 33.04300
C  10.41600 48.57200 32.62400
C  10.36900 48.26300 31.13200
C  10.48200 50.09000 32.80100
C  9.17700 46.76000 34.02500
C  8.74700 46.89900 35.50100
H  8.86000 45.66400 36.44400
N  10.42500 48.12700 28.00600
C  11.59100 48.20200 28.78700
C  12.73600 48.35800 27.93900
C  12.32400 48.52300 26.60800
C  10.78300 48.46400 26.72700
C  14.15600 48.26100 28.44300
C  13.09300 48.54200 25.26900
O  12.50000 48.42100 24.18300
C  14.57000 48.58700 25.25800
N  7.73100 48.47800 26.73200
C  8.48900 48.69800 25.58700
C  7.61600 48.79600 24.28100
C  6.21800 48.76500 24.91200
C  6.43400 48.36300 26.35400
C  7.95100 50.03700 23.38300
C  5.19100 47.90800 24.18400
C  3.69000 48.43300 24.32500
N  6.63400 47.58400 29.14200
C  5.40900 47.67400 28.49800
C  4.30900 47.29900 29.28500
C  4.86500 47.10500 30.50900
C  6.25900 47.23900 30.34400
C  2.80800 47.15000 28.84700
C  4.55300 46.79200 31.90500
O  3.49200 46.48000 32.42400
C  5.95300 46.81600 32.64700
C  6.12400 45.46800 33.23400
O  6.69300 44.52500 32.71400
O  5.42800 45.51100 34.41900
C  5.46600 44.33500 35.25900
H  12.42000 48.49900 30.78800
H  10.37800 48.96200 24.70400
H  4.41900 47.91800 26.73400
H  8.40400 48.57700 33.57100
H  11.25600 48.06000 33.09300
H  10.38000 50.50000 31.79700
H  11.43600 50.50000 33.13400
H  9.64600 50.51900 33.35300
H  10.23700 46.52900 34.13100
H  8.72800 45.85000 33.62600
H  7.74600 47.31700 35.61200
H  9.42000 47.65700 35.90200
H  14.52400 47.31300 28.05100
H  14.07200 48.14500 29.52400
H  14.82200 49.10700 28.27400
H  14.85900 47.56700 25.51200
H  14.88900 49.37300 25.94300
H  15.02300 48.73100 24.27800
H  7.98200 47.93100 23.72700
H  5.78600 49.76500 24.90200
H  8.65000 50.68200 23.91400
H  7.01100 50.49500 23.07500
H  8.33000 49.56200 22.47800
H  5.21100 46.94000 24.68600
H  5.34200 47.65000 23.13600
H  3.35000 48.61200 23.30500
H  3.50500 49.28400 24.98000
H  3.02100 47.72700 24.81800
H  2.41300 48.14500 28.63900
H  2.18000 46.68200 29.60400
H  2.77800 46.68800 27.86000
H  5.86900 47.49800 33.49300
H  5.91300 43.42300 34.86600
H  4.49200 43.97500 35.59300
H  5.92300 44.57700 36.21900

