158

Mg 52.75000 23.71100 44.70100
C  49.93400 25.83700 44.02200
C  50.74200 21.11100 43.65000
C  55.44800 21.85400 44.67300
C  54.49900 26.58100 45.69000
N  50.64200 23.53700 43.80000
C  49.76100 24.52600 43.59300
C  48.51400 24.05000 42.86000
C  48.52500 22.53000 43.35600
C  50.07900 22.32900 43.49500
C  47.86300 22.12100 44.66200
C  48.67200 24.29600 41.33700
C  47.41700 24.82900 40.58400
H  46.94100 24.07100 39.36000
N  52.98400 21.71400 44.23000
C  52.06700 20.75900 43.91900
C  52.64500 19.45400 43.94600
C  54.07700 19.60400 44.19100
C  54.28500 21.07400 44.36300
C  51.70800 18.22700 43.98900
C  55.04100 18.48700 44.26000
O  54.64700 17.30600 44.14000
C  56.40500 18.63700 44.69100
N  54.75200 24.14800 45.00700
C  55.71200 23.20500 44.99900
C  57.01600 23.74700 45.57400
C  56.72900 25.31700 45.80000
C  55.23700 25.39000 45.40300
C  57.72500 22.96300 46.69500
C  57.58100 26.25600 44.88600
C  58.85700 26.82300 45.55800
N  52.34300 25.79700 44.87200
C  53.12500 26.81900 45.36600
C  52.36900 28.05800 45.43700
C  51.11000 27.71400 44.93400
C  51.15200 26.36300 44.57400
C  52.80400 29.36100 45.99200
C  49.73500 28.21000 44.64900
O  49.21700 29.30300 44.81400
C  48.98500 27.05800 43.92600
C  48.49900 27.43200 42.63100
O  49.22200 27.87000 41.70600
O  47.16800 27.43900 42.68000
C  46.46600 28.22900 41.73000
H  50.01200 20.30300 43.57500
H  56.39600 21.33400 44.51200
H  55.03000 27.43600 46.11400
H  47.65900 24.54300 43.32200
H  48.19200 21.87100 42.55400
H  48.62300 21.57500 45.22000
H  46.92900 21.62100 44.40300
H  47.62200 23.04800 45.18200
H  49.02800 23.41300 40.80500
H  49.34300 25.14400 41.20300
H  47.63800 25.83700 40.23500
H  46.57500 24.95600 41.26500
H  52.13100 17.23300 43.84500
H  50.89300 18.35900 43.27800
H  51.13400 18.28100 44.91500
H  56.84700 19.20700 43.87400
H  56.95100 17.70200 44.81400
H  56.36000 19.21400 45.61500
H  57.67000 23.54600 44.72500
H  56.91400 25.48300 46.86200
H  57.60300 23.49200 47.64000
H  58.73200 22.63000 46.44500
H  57.07200 22.10800 46.87000
H  56.89400 27.00600 44.49600
H  57.99700 25.66400 44.07000
H  58.88100 26.32900 46.53000
H  58.87600 27.87200 45.85400
H  59.74900 26.63500 44.96200
H  52.11900 30.09100 45.56000
H  53.82500 29.53900 45.65400
H  52.85400 29.52500 47.06900
H  48.10400 26.69200 44.45500
H  46.95800 29.18500 41.54800
H  45.45300 28.31600 42.12200
H  46.43800 27.63000 40.82000
Mg 30.59000 59.67400 39.24500
C  27.76000 58.07000 38.20700
C  32.38500 56.91500 37.85000
C  33.35200 61.57800 39.15900
C  28.68800 62.44500 40.08400
N  30.14600 57.75300 37.93700
C  28.87000 57.31800 37.82900
C  28.85700 55.85100 37.19700
C  30.34300 55.38300 37.59600
C  30.99800 56.77800 37.81600
C  30.35200 54.52500 38.92700
C  28.50500 55.89100 35.62900
C  27.30200 55.08200 35.18000
H  26.37900 55.63800 34.03700
N  32.55800 59.29000 38.67100
C  33.10100 58.09000 38.17000
C  34.54700 58.27100 38.17700
C  34.91500 59.65700 38.39600
C  33.58400 60.22700 38.78000
C  35.46900 57.15000 37.89400
C  36.31700 60.33200 38.18300
O  37.32200 59.71200 37.82600
C  36.46300 61.83800 38.18100
N  30.97200 61.77100 39.42100
C  32.18700 62.31700 39.41700
C  32.18700 63.84100 39.83100
C  30.74700 64.05500 40.30400
C  30.11100 62.65000 39.98000
C  33.28400 64.15500 40.90700
C  30.14300 65.19800 39.50100
C  29.05300 65.92100 40.24200
N  28.60100 60.12700 39.30300
C  27.98500 61.27800 39.70500
C  26.52900 61.03000 39.58300
C  26.43300 59.77200 38.92800
C  27.69300 59.28900 38.82700
C  25.41600 61.89200 40.01500
C  25.46500 58.83100 38.48800
O  24.29700 58.92600 38.41600
C  26.29800 57.64300 37.98600
C  25.81400 56.47700 38.71300
O  26.13000 56.14800 39.85600
O  24.83600 55.86800 38.00300
C  24.00900 54.79300 38.71500
H  33.03000 56.08900 37.54500
H  34.24500 62.20500 39.21600
H  28.09200 63.30300 40.40100
H  28.10400 55.25100 37.70700
H  30.76000 54.89200 36.71700
H  31.22000 53.86800 38.98000
H  29.37400 54.04600 38.98300
H  30.36500 55.20500 39.77900
H  29.33700 55.46100 35.07200
H  28.30700 56.90100 35.26800
H  26.58000 55.01700 35.99400
H  27.71400 54.08600 35.02000
H  35.11700 56.15700 38.17600
H  36.44800 57.32500 38.34000
H  35.65400 57.20600 36.82200
H  37.45500 62.14400 37.84800
H  36.36900 62.36100 39.13300
H  35.81700 62.40900 37.51500
H  32.45100 64.52900 39.02900
H  30.74700 64.26600 41.37400
H  33.70400 63.23400 41.31200
H  32.83500 64.48200 41.84400
H  34.08600 64.81400 40.57200
H  29.73100 64.85400 38.55200
H  30.94000 65.90800 39.27900
H  28.16000 65.75200 39.64100
H  29.31300 66.98000 40.25700
H  28.82500 65.63900 41.27000
H  24.66100 61.38700 40.61700
H  24.82900 62.14000 39.13100
H  25.77300 62.75900 40.57100
H  26.04700 57.60800 36.92600
H  23.75800 55.23900 39.67800
H  24.47300 53.81500 38.84300
H  23.08400 54.66900 38.15100

