158

Mg 35.80700 0.88500 29.44000
C  33.38500 2.09900 31.80900
C  38.11300 0.92700 31.86400
C  37.95400 0.28500 27.03900
C  33.28800 1.46500 26.97600
N  35.75900 1.50000 31.57600
C  34.67800 1.91200 32.34200
C  35.15000 2.01100 33.84000
C  36.67900 1.86200 33.74900
C  36.90600 1.40900 32.33400
C  37.45100 3.13500 34.06600
C  34.46500 0.93300 34.65300
C  34.14400 1.12900 36.12300
H  34.35300 2.50600 36.67000
N  37.78200 0.64000 29.44500
C  38.52200 0.57200 30.57400
C  39.76200 0.02300 30.18200
C  39.81900 -0.20600 28.78000
C  38.47500 0.20200 28.34700
C  40.84200 -0.20600 31.22400
C  40.89200 -0.69600 27.88700
O  40.90200 -0.71600 26.67100
C  42.20200 -1.05800 28.54400
N  35.70800 0.96500 27.30700
C  36.76400 0.60900 26.56700
C  36.28900 0.54900 25.10800
C  34.72000 0.76300 25.11200
C  34.58300 1.11400 26.54200
C  37.01700 1.60200 24.24800
C  33.93900 -0.43400 24.59300
C  32.90400 -0.08100 23.52800
N  33.75900 1.47700 29.35100
C  32.88800 1.76500 28.27700
C  31.60500 2.12500 28.72500
C  31.79100 2.35400 30.10800
C  33.06400 1.95600 30.44500
C  30.38100 2.49700 27.90200
C  31.07900 2.80200 31.22400
O  29.96600 3.26900 31.39500
C  32.09600 2.66800 32.49000
C  32.29300 4.00100 33.16200
O  33.11400 4.87500 32.85100
O  31.45400 4.14100 34.22900
C  31.46900 5.46600 34.91400
H  38.86500 0.92500 32.65700
H  38.64500 -0.14600 26.31100
H  32.46700 1.51000 26.25800
H  34.93400 3.00800 34.22200
H  36.94000 0.99200 34.35200
H  36.83400 4.02000 34.22200
H  38.12800 3.42200 33.26100
H  38.02400 2.88600 34.95900
H  35.11500 0.05900 34.62100
H  33.49400 0.72000 34.20700
H  34.74400 0.44900 36.72800
H  33.09000 0.86800 36.21700
H  41.84500 -0.05800 30.82600
H  40.74200 -1.24700 31.53100
H  40.73700 0.34900 32.15700
H  42.20100 -1.62100 29.47700
H  42.93300 -0.26800 28.71200
H  42.57500 -1.78600 27.82300
H  36.54900 -0.41200 24.66500
H  34.51900 1.69900 24.59200
H  37.00600 1.29400 23.20300
H  38.04100 1.62400 24.62100
H  36.68200 2.60900 24.49800
H  33.41100 -0.83000 25.46000
H  34.57300 -1.21900 24.18100
H  32.18600 0.64000 23.92000
H  32.27200 -0.89600 23.17500
H  33.36600 0.26600 22.60400
H  30.11900 1.56300 27.40500
H  30.63500 3.18000 27.09200
H  29.52000 2.77300 28.51100
H  31.69700 1.92300 33.17800
H  30.41000 5.71200 34.83700
H  32.18800 6.16600 34.48900
H  31.68900 5.32900 35.97300
Mg 46.37300 44.33900 42.67200
C  43.08200 43.15700 42.35400
C  47.32700 40.96600 42.15700
C  49.46500 45.42100 42.12400
C  45.18400 47.64100 42.63900
N  45.35300 42.29600 42.23400
C  43.98000 42.07600 42.23000
C  43.62800 40.61300 41.86100
C  44.96300 39.88500 42.23600
C  45.96900 41.11800 42.17900
C  44.91900 39.13300 43.62200
C  42.95700 40.42200 40.40000
C  43.53900 41.31500 39.29600
H  44.32800 40.66300 38.08800
N  48.13800 43.29100 42.27800
C  48.34200 41.94700 42.09600
C  49.77700 41.67700 41.79400
C  50.35000 42.95100 41.62100
C  49.31800 43.95400 42.02200
C  50.38900 40.31200 41.67500
C  51.74900 43.24900 41.04400
O  52.35400 42.29500 40.52200
C  52.36800 44.58100 40.84200
N  47.15800 46.22200 42.44500
C  48.49700 46.37900 42.37500
C  48.95100 47.87800 42.55400
C  47.56900 48.62600 42.41900
C  46.59400 47.42700 42.46800
C  49.57600 48.15900 43.95200
C  47.36600 49.45700 41.10900
C  47.47200 50.97500 41.17700
N  44.50500 45.33300 42.50500
C  44.14700 46.66600 42.67200
C  42.61800 46.69900 42.85800
C  42.20900 45.32100 42.73000
C  43.41600 44.58400 42.45500
C  41.80500 47.91000 43.10300
C  41.01700 44.54600 42.77100
O  39.82500 44.80500 42.90700
C  41.51900 43.08000 42.38900
C  41.04200 42.25900 43.57300
O  40.02500 41.56500 43.68200
O  41.80500 42.58200 44.64700
C  41.51200 41.99600 45.99500
H  47.57100 39.91400 41.99600
H  50.45000 45.89000 42.08500
H  44.94800 48.66300 42.94400
H  42.93400 40.38100 42.66800
H  45.19000 39.21500 41.40700
H  43.92900 38.76600 43.89500
H  45.15900 39.81900 44.43400
H  45.59500 38.28500 43.73000
H  41.90900 40.69800 40.51600
H  42.94000 39.40400 40.00900
H  44.41500 41.84600 39.66900
H  42.79500 42.06100 39.01400
H  50.45100 39.98100 40.63900
H  49.80600 39.56700 42.21600
H  51.37900 40.23700 42.12600
H  51.79300 45.21100 40.16300
H  53.38300 44.45400 40.46400
H  52.51800 45.04100 41.81800
H  49.72600 48.12200 41.82600
H  47.50000 49.25400 43.30700
H  48.83400 47.95200 44.72300
H  49.88600 49.20200 44.01300
H  50.48400 47.56000 44.02100
H  46.39300 49.27100 40.65400
H  48.14900 49.26400 40.37600
H  47.70400 51.42400 40.21100
H  48.24200 51.23800 41.90300
H  46.60500 51.48700 41.59600
H  41.34400 48.32800 42.20900
H  42.34600 48.72000 43.59200
H  40.93200 47.55900 43.65400
H  41.14000 42.70600 41.43700
H  41.78600 42.81100 46.66600
H  42.04500 41.11000 46.33900
H  40.49000 41.79300 46.31700

