158

Mg 23.31100 -6.19100 45.98500
C  25.64800 -3.88300 44.87800
C  21.11300 -4.67800 43.55900
C  21.32000 -8.83100 46.12000
C  25.87800 -8.08600 47.61400
N  23.44900 -4.56900 44.31300
C  24.48900 -3.75800 44.14100
C  24.22700 -2.58500 43.21100
C  22.72200 -2.86400 42.86400
C  22.36500 -4.08700 43.67200
C  21.77400 -1.64900 43.30900
C  25.16300 -2.68400 41.96500
C  25.33500 -1.41600 41.22800
H  24.66000 -1.27700 39.80000
N  21.38900 -6.56900 45.15900
C  20.67300 -5.84900 44.22100
C  19.42500 -6.49900 43.90300
C  19.39900 -7.71200 44.67700
C  20.76800 -7.74900 45.43400
C  18.43700 -6.09700 42.82600
C  18.26200 -8.70600 44.65000
O  17.18100 -8.49600 44.05500
C  18.34800 -9.96200 45.44400
N  23.52600 -8.11800 46.85800
C  22.52700 -9.01500 46.80400
C  22.94200 -10.38800 47.23900
C  24.36200 -10.21700 47.76200
C  24.61400 -8.69000 47.46500
C  21.96200 -11.29500 48.07300
C  25.48000 -11.08600 47.20000
C  26.48200 -11.52500 48.18200
N  25.29800 -5.96300 46.34100
C  26.21900 -6.78800 47.06700
C  27.42500 -5.98400 47.25200
C  27.27200 -4.89600 46.46200
C  25.96900 -4.91100 45.90100
C  28.61200 -6.46800 48.02600
C  27.90300 -3.70400 45.96400
O  28.99500 -3.21600 46.23500
C  26.95400 -3.08100 44.88600
C  26.88800 -1.61200 45.17100
O  27.19700 -0.75000 44.34700
O  26.35600 -1.43900 46.45900
C  25.77600 -0.04500 46.66700
H  20.45100 -4.06300 42.94600
H  20.68900 -9.71900 46.19700
H  26.57300 -8.68300 48.20800
H  24.43900 -1.70200 43.81300
H  22.71300 -3.05400 41.79000
H  21.23800 -1.95800 44.20600
H  21.10400 -1.44100 42.47400
H  22.30400 -0.72000 43.51700
H  24.66300 -3.21700 41.15600
H  26.05700 -3.26400 42.19500
H  26.40700 -1.22200 41.24500
H  24.91500 -0.67700 41.90900
H  18.34000 -6.84200 42.03600
H  18.86700 -5.18800 42.40400
H  17.54800 -5.72800 43.33800
H  18.59000 -9.88400 46.50400
H  19.02800 -10.65100 44.94300
H  17.32500 -10.32900 45.35700
H  23.02500 -10.94500 46.30500
H  24.26000 -10.38800 48.83400
H  21.13700 -10.69000 48.44800
H  22.47400 -11.69500 48.94800
H  21.55000 -12.10400 47.46900
H  26.10200 -10.50700 46.51700
H  25.03400 -11.92000 46.65800
H  26.05300 -11.57900 49.18300
H  27.35500 -10.87700 48.26100
H  26.71500 -12.55500 47.91400
H  29.38000 -5.70800 48.16600
H  29.00000 -7.29400 47.43100
H  28.37200 -6.88400 49.00500
H  27.41000 -3.12500 43.89600
H  26.02500 0.77100 45.98900
H  26.08400 0.38900 47.61800
H  24.72100 -0.32000 46.62800
Mg 7.07700 53.81000 40.95400
C  6.63800 50.24300 40.52400
C  10.13400 53.50000 39.73300
C  7.04400 57.05200 40.33500
C  3.45000 53.80900 41.57700
N  8.21400 52.06800 40.16600
C  7.91400 50.75800 40.16400
C  9.14700 49.87600 39.76900
C  10.29900 50.88800 40.00200
C  9.48300 52.27800 39.94600
C  11.15700 50.78200 41.25500
C  9.06000 49.28500 38.34900
C  8.81100 50.25100 37.23200
H  7.41700 50.31600 36.52100
N  8.41600 55.15800 40.20200
C  9.67100 54.81700 39.80500
C  10.36900 56.02800 39.40800
C  9.51100 57.15600 39.55500
C  8.28700 56.51000 40.10600
C  11.78600 56.01400 38.95100
C  9.81900 58.65600 39.26900
O  10.90300 59.02200 38.79800
C  8.80000 59.78600 39.54000
N  5.42800 55.16700 40.81900
C  5.77000 56.45900 40.71800
C  4.52500 57.31000 40.85200
C  3.36700 56.25100 41.11400
C  4.10400 54.92000 41.09500
C  4.64600 58.41700 41.89300
C  2.17400 56.35500 40.12600
C  0.87300 56.58000 40.94400
N  5.36500 52.35300 41.21200
C  4.01400 52.48900 41.52900
C  3.42300 51.21500 41.67200
C  4.36900 50.34900 41.32000
C  5.53600 51.00900 40.98100
C  2.00500 50.98500 42.12500
C  4.71400 48.94000 41.22000
O  4.04500 47.98900 41.58800
C  6.14300 48.74300 40.65600
C  5.94900 48.06900 39.34000
O  5.43000 48.55000 38.36400
O  6.50600 46.79300 39.40900
C  6.27600 45.88400 38.25500
H  11.13600 53.40500 39.30800
H  7.03400 58.13000 40.15500
H  2.41900 53.97700 41.89600
H  9.20400 49.03700 40.46300
H  10.94500 50.93800 39.12500
H  10.88600 49.89900 41.83300
H  10.97400 51.62700 41.91900
H  12.19900 50.68100 40.95000
H  8.24900 48.55700 38.30600
H  9.91300 48.64900 38.11000
H  9.54700 49.97200 36.47700
H  9.03900 51.28500 37.49000
H  12.24200 57.00400 38.98400
H  11.98900 55.43100 38.05300
H  12.30700 55.46900 39.73800
H  7.85200 59.68200 39.01100
H  9.26400 60.71100 39.19700
H  8.51300 59.85100 40.59000
H  4.35900 57.76400 39.87500
H  3.02400 56.31000 42.14700
H  3.94500 58.27000 42.71500
H  4.72000 59.36700 41.36500
H  5.64300 58.33700 42.32500
H  2.00000 55.44300 39.55400
H  2.32700 57.22300 39.48500
H  0.87000 56.16700 41.95300
H  0.05900 56.00400 40.50500
H  0.63800 57.64400 40.93200
H  1.52500 50.53100 41.25800
H  1.47200 51.90900 42.35300
H  2.00500 50.34200 43.00500
H  6.82400 48.12900 41.24600
H  7.20700 46.03500 37.70900
H  5.39000 45.98500 37.62700
H  6.38800 44.87100 38.64200

