158

Mg 53.46500 24.98300 43.92900
C  50.86700 27.19400 43.33500
C  51.34500 22.46500 42.77300
C  56.05100 22.89000 43.90000
C  55.56400 27.75400 44.10300
N  51.45600 24.87600 42.90300
C  50.53100 25.87400 42.96700
C  49.15500 25.37800 42.49300
C  49.26900 23.82200 42.51700
C  50.79700 23.74700 42.70400
C  48.48200 23.06900 43.63100
C  48.65100 25.93600 41.12600
C  49.58200 26.21300 39.95500
H  49.42000 25.49100 38.66500
N  53.64900 22.97100 43.58300
C  52.65400 22.08400 43.14600
C  53.23700 20.74400 42.91500
C  54.60200 20.75500 43.22000
C  54.84000 22.22000 43.58200
C  52.48400 19.46600 42.43900
C  55.51700 19.60700 43.23400
O  55.18700 18.45700 42.78400
C  56.88300 19.68200 43.97500
N  55.45600 25.28700 43.89400
C  56.38300 24.26900 43.91800
C  57.80200 24.89100 43.94900
C  57.60400 26.41200 43.78600
C  56.11800 26.48000 43.90800
C  58.65000 24.42300 45.17400
C  58.15300 27.03800 42.47600
C  59.01400 28.30500 42.69700
N  53.34100 27.07500 43.83200
C  54.22600 28.09700 44.10400
C  53.55900 29.39600 44.29800
C  52.20700 29.06700 44.05700
C  52.18000 27.63200 43.66700
C  54.15900 30.70300 44.52800
C  50.88800 29.59700 44.01700
O  50.47500 30.69000 44.33300
C  50.02700 28.45300 43.38100
C  49.64200 28.96700 41.97700
O  50.42300 29.18800 41.04300
O  48.31500 29.30600 41.96500
C  47.90100 30.05500 40.71300
H  50.68800 21.63000 42.51900
H  56.92500 22.23600 43.94500
H  56.21100 28.63400 44.09200
H  48.43400 25.74800 43.22200
H  48.96200 23.41100 41.55400
H  47.78200 23.73000 44.14100
H  49.14400 22.63400 44.37900
H  47.90400 22.31200 43.10000
H  48.01500 26.76900 41.42300
H  47.92200 25.21600 40.75200
H  50.47800 25.67000 40.25800
H  49.71700 27.25500 39.66700
H  53.05700 18.79800 41.79500
H  51.46600 19.59200 42.06900
H  52.49900 18.94200 43.39400
H  57.39400 18.71900 44.00900
H  56.75100 20.07500 44.98300
H  57.48000 20.34700 43.35200
H  58.30200 24.42600 43.09900
H  58.00500 26.92800 44.65800
H  58.08400 23.66200 45.71000
H  58.99600 25.30200 45.71900
H  59.49000 23.86300 44.76400
H  57.33900 27.36400 41.82900
H  58.81300 26.30700 42.00900
H  59.18300 28.46800 43.76100
H  58.57500 29.10700 42.10300
H  59.95100 28.09900 42.17900
H  53.99600 31.19900 43.57100
H  55.23300 30.75400 44.70500
H  53.64400 31.28600 45.29200
H  49.10600 28.28400 43.93900
H  46.93100 30.52700 40.87100
H  47.82100 29.32700 39.90600
H  48.55600 30.80600 40.27000
Mg 29.85400 58.32900 40.88800
C  26.96900 56.54000 39.95500
C  31.68400 56.03800 38.91800
C  32.42500 60.40800 40.98400
C  27.73900 61.01800 42.04400
N  29.39300 56.43800 39.82400
C  28.14100 55.96300 39.44800
C  28.25100 54.77000 38.45100
C  29.75800 54.32000 38.76600
C  30.36200 55.66600 39.21200
C  29.96000 53.15100 39.70600
C  27.95800 55.18000 36.97100
C  27.06400 54.35700 36.10300
H  26.94200 54.56100 34.64600
N  31.85600 58.12700 40.28600
C  32.37700 57.18300 39.46700
C  33.77600 57.52500 39.14900
C  34.05400 58.80700 39.76500
C  32.71000 59.17600 40.38200
C  34.68200 56.48200 38.29900
C  35.30600 59.55000 39.65500
O  36.25700 59.09400 38.96200
C  35.60700 60.83100 40.41700
N  30.00500 60.33900 41.56000
C  31.26600 60.77600 41.66100
C  31.29200 62.22400 42.29800
C  29.73900 62.50100 42.49500
C  29.12900 61.25700 42.00000
C  32.09300 62.25000 43.60100
C  29.30600 63.82900 41.71100
C  28.39900 64.87200 42.46800
N  27.76300 58.71200 41.02400
C  27.08300 59.83600 41.56200
C  25.69000 59.53900 41.57200
C  25.58800 58.28200 40.95700
C  26.85500 57.82000 40.61000
C  24.59600 60.44000 42.07400
C  24.64100 57.25200 40.50000
O  23.44200 57.23500 40.52500
C  25.52100 56.07700 39.83500
C  25.30000 54.82300 40.65200
O  25.96200 54.57100 41.65900
O  24.45800 53.90300 40.07700
C  24.47000 52.51700 40.60700
H  32.11600 55.31000 38.22800
H  33.20600 61.17100 40.98700
H  27.13100 61.73700 42.59700
H  27.48800 54.04700 38.73800
H  30.22500 53.92600 37.86300
H  28.99300 52.86400 40.12100
H  30.57200 53.43700 40.56100
H  30.43000 52.26100 39.28700
H  28.92300 55.24900 36.47000
H  27.75100 56.24600 36.86900
H  26.07900 54.41000 36.56700
H  27.39700 53.33800 36.30400
H  34.84400 56.78300 37.26400
H  34.27300 55.47200 38.33100
H  35.64000 56.29200 38.78200
H  35.11500 61.68100 39.94400
H  36.69300 60.89800 40.35600
H  35.30200 60.77000 41.46200
H  31.73400 62.95300 41.61800
H  29.34100 62.48600 43.50900
H  32.63700 61.32400 43.78600
H  31.39700 62.38500 44.42800
H  32.77800 63.09600 43.66700
H  28.75000 63.57800 40.80800
H  30.16600 64.40900 41.37700
H  28.24100 64.63000 43.51900
H  27.51000 65.11400 41.88600
H  29.06400 65.73600 42.46000
H  24.90500 60.97500 42.97200
H  23.71600 59.82500 42.26200
H  24.53400 61.23100 41.32700
H  25.13600 55.92800 38.82600
H  25.46900 52.21000 40.91600
H  24.19400 51.82400 39.81200
H  23.71700 52.43000 41.38900

