158

Mg 1.92400 -3.11600 45.08200
C  5.14900 -2.27700 44.35400
C  0.80400 -0.79800 42.76600
C  -1.18500 -4.64900 45.04200
C  3.20800 -6.28100 46.38300
N  2.89200 -1.81700 43.66100
C  4.20200 -1.46500 43.71000
C  4.60000 -0.45200 42.65000
C  3.21500 0.27800 42.44900
C  2.21900 -0.82000 42.94600
C  3.02800 1.65100 43.20500
C  5.23700 -1.02200 41.31900
C  6.47100 -0.28000 40.74600
H  6.18800 0.60300 39.54900
N  0.04700 -2.67500 44.15300
C  -0.20800 -1.61500 43.31100
C  -1.65200 -1.59000 43.00000
C  -2.22900 -2.61700 43.81600
C  -1.07000 -3.38800 44.32400
C  -2.29200 -0.47200 42.19700
C  -3.70000 -2.87300 43.95100
O  -4.50200 -2.10300 43.52700
C  -4.32800 -4.08300 44.55600
N  1.19300 -5.16800 45.48700
C  -0.15400 -5.40300 45.64300
C  -0.43000 -6.52600 46.53700
C  0.92600 -7.33000 46.63600
C  1.87400 -6.22000 46.13700
C  -1.09400 -5.92200 47.80100
C  0.93600 -8.60300 45.78200
C  1.70000 -9.77800 46.35800
N  3.76900 -4.02100 45.55200
C  4.14400 -5.24700 46.07700
C  5.54800 -5.26000 46.27300
C  5.99400 -4.13000 45.58700
C  4.86000 -3.44600 45.11200
C  6.28000 -6.33800 47.03700
C  7.21300 -3.30800 45.30100
O  8.32500 -3.42200 45.77300
C  6.64400 -2.22500 44.35300
C  7.07000 -0.90500 44.75600
O  6.54300 -0.23600 45.61400
O  8.10900 -0.43900 43.98700
C  8.41400 0.97000 44.25900
H  0.55600 -0.03000 42.03100
H  -2.19300 -4.97500 45.30500
H  3.53200 -7.21400 46.84900
H  5.26500 0.25500 43.14500
H  3.04800 0.49400 41.39400
H  2.67800 2.42200 42.51900
H  3.80800 2.01000 43.87700
H  2.21700 1.49600 43.91600
H  4.44300 -0.90800 40.58100
H  5.50900 -2.06200 41.49800
H  7.32200 -0.94500 40.60100
H  6.68300 0.52900 41.44600
H  -2.26500 -0.90300 41.19600
H  -1.82500 0.51200 42.22200
H  -3.37000 -0.44100 42.35300
H  -3.96800 -4.97200 44.03800
H  -5.37500 -4.11000 44.25600
H  -4.21600 -4.12400 45.64000
H  -1.20700 -7.13000 46.06900
H  1.10800 -7.55300 47.68700
H  -2.10100 -6.29900 47.97700
H  -1.19800 -4.84800 47.95900
H  -0.50100 -6.29800 48.63600
H  1.20400 -8.37500 44.75000
H  -0.10700 -8.88400 45.92900
H  0.96700 -10.36300 46.91400
H  2.45800 -9.44800 47.06700
H  2.26500 -10.45700 45.71900
H  6.70400 -7.18300 46.49500
H  5.63500 -6.70000 47.83600
H  7.11400 -5.85600 47.54800
H  7.01700 -2.30500 43.33200
H  8.80200 0.99200 45.27800
H  7.53400 1.57100 44.02900
H  9.16600 1.24700 43.52000
Mg 2.04800 42.24400 26.37600
C  3.35300 42.15000 29.51900
C  -0.89500 40.87600 27.47600
C  0.95900 42.00600 23.08300
C  5.05500 43.49300 25.16800
N  1.31600 41.69400 28.25400
C  1.99400 41.81000 29.46100
C  1.04900 41.53000 30.69000
C  -0.26300 41.02500 29.95200
C  0.09900 41.22400 28.47700
C  -0.65400 39.59100 30.34700
C  0.77100 42.80200 31.58900
C  1.35100 42.65300 33.04800
H  1.06900 41.35500 33.79300
N  0.28800 41.46100 25.41500
C  -0.86400 41.01200 26.07800
C  -1.83800 40.72900 25.14600
C  -1.32800 41.00500 23.88200
C  0.04200 41.55000 24.03600
C  -3.11300 40.02800 25.66100
C  -2.05900 40.89300 22.42200
O  -1.65700 41.50800 21.41200
C  -3.45100 40.30200 22.42100
N  2.95400 42.53500 24.41200
C  2.26400 42.51700 23.23900
C  3.09300 43.06400 22.04500
C  4.25300 43.74000 22.83300
C  4.10000 43.22700 24.23900
C  3.62400 41.85000 21.23200
C  4.28800 45.24400 22.60300
C  4.66000 45.85800 21.16600
N  3.86900 42.63900 27.15300
C  4.99600 43.19000 26.54100
C  5.99900 43.41100 27.52600
C  5.40800 43.01700 28.72400
C  4.10400 42.56300 28.40900
C  7.43900 43.95400 27.35200
C  5.53000 42.89100 30.11600
O  6.52800 43.13600 30.84900
C  4.23400 42.31400 30.67600
C  4.56800 41.02000 31.36700
O  4.87400 39.95700 30.83600
O  4.73200 41.27600 32.70400
C  5.00800 40.08000 33.51900
H  -1.80100 40.47800 27.93800
H  0.71600 41.92800 22.02100
H  6.00700 43.89600 24.81700
H  1.55500 40.76100 31.27400
H  -1.12100 41.64200 30.22000
H  -1.73700 39.55600 30.46400
H  -0.23200 39.38000 31.33000
H  -0.26500 38.84000 29.66000
H  -0.29400 42.91900 31.79100
H  1.24600 43.62900 31.06100
H  1.04500 43.58500 33.52300
H  2.43500 42.75600 32.99100
H  -2.98500 39.43600 26.56700
H  -3.37300 39.33300 24.86300
H  -4.00100 40.62200 25.88100
H  -4.12400 40.97600 22.95100
H  -3.37400 39.31600 22.87700
H  -3.78000 40.08700 21.40400
H  2.59200 43.88400 21.53100
H  5.21900 43.33300 22.53400
H  4.46200 42.02700 20.55700
H  2.83600 41.61000 20.51800
H  3.67400 40.91200 21.78400
H  5.13700 45.59000 23.19200
H  3.38700 45.72600 22.98100
H  4.49600 44.97000 20.55600
H  5.69400 46.15800 20.99600
H  3.91400 46.62800 20.96900
H  8.19300 43.21600 27.62900
H  7.57900 44.76600 28.06500
H  7.58700 44.32400 26.33800
H  3.96200 43.15300 31.31600
H  4.40200 40.16900 34.42000
H  6.07400 39.97300 33.72200
H  4.67000 39.15300 33.05600

