158

Mg 47.23700 16.45600 28.33900
C  44.97600 15.98300 31.09000
C  49.23300 18.21300 30.38100
C  48.90800 17.53200 25.72000
C  44.68000 15.23500 26.28600
N  47.01200 17.25100 30.44300
C  46.12500 16.71600 31.38900
C  46.53000 17.18800 32.81700
C  47.75800 18.21000 32.46800
C  47.96000 17.98900 30.98900
C  47.60000 19.74400 32.85400
C  46.81700 16.01500 33.67400
C  46.20700 16.12400 35.10200
H  46.10700 17.53200 35.86400
N  48.93600 17.42500 28.14700
C  49.66600 18.01600 29.09600
C  50.99100 18.39400 28.61400
C  50.88400 18.27700 27.18500
C  49.53800 17.68400 26.93500
C  52.13500 18.92700 29.48800
C  51.92200 18.65300 26.10100
O  51.77700 18.39800 24.95200
C  53.11300 19.37300 26.44600
N  46.82000 16.34700 26.35400
C  47.68400 16.92600 25.44700
C  47.12500 16.91700 24.00200
C  45.89200 15.94700 24.16600
C  45.79500 15.81100 25.67000
C  46.74700 18.32100 23.54200
C  46.15500 14.55800 23.53800
C  44.85900 14.00100 22.88300
N  45.26100 15.63500 28.62900
C  44.44100 15.07200 27.65800
C  43.23300 14.58200 28.32100
C  43.37400 14.87500 29.68400
C  44.62900 15.58900 29.80700
C  42.08300 13.91700 27.59900
C  42.80600 14.78000 31.01600
O  41.77700 14.24000 31.45800
C  43.80900 15.61300 31.93700
C  43.03300 16.81200 32.36900
O  42.47000 17.58300 31.59700
O  42.83400 16.88700 33.76200
C  41.99900 18.06800 34.11900
H  49.82000 18.77700 31.10900
H  49.38800 17.82400 24.78400
H  43.94000 14.79800 25.61300
H  45.72600 17.79700 33.23100
H  48.63500 17.78100 32.95300
H  46.80300 19.90000 33.58100
H  47.37500 20.35800 31.98300
H  48.57800 20.10700 33.17100
H  47.89700 15.98400 33.81200
H  46.44500 15.08200 33.24900
H  46.64000 15.36300 35.75200
H  45.20500 15.79900 34.82300
H  52.12600 20.01500 29.42100
H  53.12300 18.59800 29.16700
H  51.89500 18.79600 30.54400
H  52.97500 20.43700 26.64000
H  53.65600 19.29700 25.50400
H  53.77400 18.82600 27.11800
H  47.82900 16.54200 23.25900
H  45.07900 16.40200 23.60100
H  45.68700 18.52700 23.39500
H  47.15100 18.57600 22.56200
H  46.98600 19.11400 24.25000
H  46.70200 13.98900 24.29100
H  46.87800 14.69600 22.73400
H  44.67100 12.98800 23.23900
H  45.03900 13.95300 21.81000
H  43.90100 14.50500 23.01500
H  41.15700 13.83800 28.16900
H  42.40600 12.94600 27.22300
H  41.79900 14.50900 26.72800
H  44.03600 14.98800 32.80100
H  42.61300 18.93200 33.86300
H  41.71500 18.12400 35.16900
H  41.09300 18.18900 33.52400
Mg 16.71300 51.95900 27.02000
C  18.77300 50.78400 29.49600
C  14.24800 52.61800 29.39400
C  14.72400 53.19300 24.55200
C  19.16500 51.18400 24.59600
N  16.56700 51.70300 29.20900
C  17.57400 51.30200 30.03500
C  17.18200 51.45700 31.48100
C  15.67900 51.84400 31.48500
C  15.43900 51.99700 29.95000
C  14.68400 50.74500 31.99900
C  18.11300 52.57200 32.16000
C  18.61200 52.44600 33.62200
H  17.70800 51.63800 34.52800
N  14.77500 52.84500 26.99200
C  13.98900 53.11400 28.10600
C  12.78100 53.76000 27.62800
C  12.86200 53.93400 26.22500
C  14.19500 53.32600 25.83100
C  11.69100 54.22000 28.62200
C  11.89300 54.66000 25.28200
O  12.09600 54.78200 24.13900
C  10.61500 55.22200 25.83300
N  16.83700 51.97500 24.85500
C  15.94100 52.66200 24.09700
C  16.38700 52.58900 22.58200
C  17.92300 52.44700 22.73500
C  18.04000 51.82600 24.13200
C  15.72400 51.40700 21.77800
C  18.87300 53.70200 22.66300
C  19.36800 54.08100 21.21100
N  18.45900 50.99600 26.94700
C  19.40700 50.76500 25.95100
C  20.49300 49.94700 26.45000
C  20.30900 50.01700 27.80800
C  19.08400 50.65800 28.10200
C  21.60900 49.33000 25.65400
C  20.88300 49.60700 29.06300
O  21.78700 48.77100 29.28400
C  19.97900 50.13800 30.26500
C  19.74500 48.98000 31.12300
O  19.28100 47.89500 30.69000
O  19.91500 49.42900 32.42700
C  19.52400 48.39400 33.37700
H  13.57300 52.89700 30.20500
H  14.07500 53.55000 23.74900
H  19.92500 51.16400 23.81300
H  17.26500 50.52600 32.04200
H  15.43500 52.73100 32.07000
H  14.18900 50.34900 31.11200
H  13.92600 51.19700 32.63900
H  15.26300 49.94700 32.46300
H  17.61800 53.53900 32.07200
H  18.93600 52.69400 31.45600
H  18.69300 53.38200 34.17500
H  19.62900 52.07600 33.75700
H  10.70400 53.88900 28.29700
H  11.78200 55.30100 28.51700
H  12.02800 53.89500 29.60600
H  9.95800 54.56600 26.40400
H  9.94300 55.52100 25.02700
H  10.69500 56.13200 26.42600
H  16.13300 53.53600 22.10600
H  18.33700 51.77100 21.98700
H  14.72900 51.32300 22.21500
H  16.22000 50.44100 21.86800
H  15.57000 51.70600 20.74100
H  19.71600 53.55300 23.33800
H  18.26500 54.53700 23.01300
H  19.01100 55.09500 21.02900
H  19.02400 53.40900 20.42400
H  20.44300 54.11900 21.38900
H  21.64100 49.85400 24.69900
H  21.51100 48.24500 25.64200
H  22.57900 49.46700 26.13200
H  20.46300 50.89600 30.88200
H  18.44300 48.26200 33.33500
H  19.67800 48.77000 34.38800
H  19.96600 47.40800 33.23700

