158

Mg 25.08600 1.85900 29.26500
C  27.32700 1.38100 32.01600
C  22.54000 1.75300 31.46000
C  23.02100 1.74100 26.61400
C  27.92200 1.34100 27.18600
N  25.02300 1.67500 31.54500
C  26.04100 1.51700 32.46200
C  25.54000 1.69800 33.88500
C  23.98900 1.68300 33.56600
C  23.79100 1.65300 32.07500
C  23.23100 0.64100 34.36300
C  26.02500 2.95900 34.62300
C  25.15900 3.44100 35.78700
H  25.90500 4.22100 36.92700
N  23.03100 1.88400 29.10100
C  22.16200 1.84500 30.07700
C  20.88100 2.08500 29.55400
C  20.92100 1.95500 28.11400
C  22.31500 1.80000 27.89500
C  19.65400 2.05300 30.49900
C  19.84300 1.81700 27.01700
O  20.10100 1.69400 25.80400
C  18.39600 1.74400 27.47400
N  25.43500 1.40300 27.25900
C  24.41600 1.60000 26.33900
C  24.91300 1.55200 24.88300
C  26.51600 1.72000 25.14600
C  26.65900 1.41200 26.59200
C  24.45400 0.40000 24.01500
C  27.08000 3.14600 24.76700
C  26.82600 4.33100 25.65500
N  27.21400 1.48000 29.47000
C  28.16200 1.34900 28.54100
C  29.43100 1.07600 29.18900
C  29.15500 1.11400 30.55300
C  27.77200 1.37300 30.63700
C  30.82800 0.83300 28.64100
C  29.68200 1.02400 31.91100
O  30.81300 0.90900 32.32700
C  28.54600 1.21900 32.89000
C  28.47700 0.23700 34.03100
O  27.67500 -0.73200 34.05400
O  29.37800 0.51000 35.05500
C  29.59200 -0.61300 35.90100
H  21.76400 1.75500 32.22800
H  22.37100 1.90500 25.75200
H  28.73900 1.46200 26.47100
H  25.63600 0.86600 34.58400
H  23.64400 2.66000 33.90400
H  23.64600 -0.33700 34.11900
H  22.15100 0.65200 34.21400
H  23.34400 0.78400 35.43800
H  26.12500 3.73400 33.86400
H  27.05900 2.85200 34.94900
H  24.77800 2.51600 36.21900
H  24.33900 4.10200 35.50600
H  19.20600 3.02000 30.73100
H  19.96500 1.65900 31.46700
H  18.88300 1.36500 30.15300
H  17.93300 0.76200 27.57000
H  17.91300 2.29000 26.66300
H  18.18600 2.32700 28.37100
H  24.59600 2.48100 24.40900
H  27.15200 0.99800 24.63400
H  25.15600 0.18200 23.21000
H  23.45900 0.62100 23.63000
H  24.39500 -0.44900 24.69500
H  26.46900 3.46200 23.92100
H  28.11200 3.02800 24.43700
H  26.82300 3.91900 26.66400
H  25.89500 4.89000 25.56400
H  27.60300 5.08900 25.55400
H  31.02000 -0.16700 29.03200
H  31.57900 1.58300 28.89000
H  30.83300 0.73000 27.55600
H  28.70300 2.16900 33.40100
H  28.79900 -0.65200 36.64800
H  30.51600 -0.54300 36.47400
H  29.64300 -1.50800 35.28000
Mg 36.11400 48.49300 25.16400
C  36.64300 46.70600 28.14800
C  34.60300 50.96500 26.77500
C  35.48700 50.07800 22.14300
C  37.74100 45.90100 23.36100
N  35.52700 48.67800 27.20200
C  35.87800 47.87600 28.25400
C  35.60400 48.61700 29.56000
C  34.77400 49.85100 29.13800
C  34.91000 49.80300 27.57900
C  33.26400 49.86800 29.64200
C  36.93800 48.99800 30.32200
C  36.82900 49.12100 31.85000
H  35.47600 49.10200 32.54600
N  35.23000 50.31300 24.55100
C  34.67000 51.15900 25.43200
C  34.22700 52.34400 24.74400
C  34.47200 52.13200 23.36900
C  35.04700 50.80900 23.26100
C  33.68300 53.54900 25.49000
C  34.24000 53.06600 22.19000
O  34.64200 52.88100 21.02300
C  33.34200 54.27300 22.38100
N  36.55300 48.07300 23.05500
C  36.07600 48.79000 22.06700
C  36.44800 48.11300 20.71600
C  37.52100 47.09200 21.07600
C  37.38200 47.06300 22.62800
C  35.15500 47.75200 19.96000
C  39.00200 47.43400 20.58300
C  39.59100 46.43200 19.56800
N  36.90700 46.59700 25.60900
C  37.60000 45.70400 24.79000
C  37.97100 44.59900 25.55400
C  37.59900 44.88200 26.89400
C  36.95800 46.16400 26.83100
C  38.60000 43.25500 24.98600
C  37.65800 44.42600 28.34400
O  37.94000 43.30200 28.84800
C  37.06800 45.61200 29.18300
C  35.85200 45.05800 29.83400
O  34.83900 44.73000 29.19200
O  36.02700 44.99400 31.22000
C  34.76100 44.86700 31.95000
H  34.14100 51.77800 27.33900
H  35.21900 50.55100 21.19600
H  38.21300 45.00600 22.95000
H  34.95700 47.93400 30.11100
H  35.23000 50.73300 29.58700
H  33.02800 48.93900 30.16000
H  32.56800 49.85700 28.80200
H  33.09600 50.74600 30.26600
H  37.22600 49.99300 29.98400
H  37.65600 48.24200 30.00500
H  37.38600 49.94600 32.29300
H  37.26100 48.16900 32.15900
H  33.46900 54.46300 24.93700
H  34.31600 53.85400 26.32300
H  32.71600 53.35900 25.95500
H  32.39200 54.11300 22.89000
H  33.14200 54.80200 21.44900
H  33.83100 55.07700 22.93100
H  36.86000 48.91000 20.09600
H  37.27600 46.08400 20.74300
H  34.45700 47.24300 20.62400
H  35.43800 47.13600 19.10600
H  34.60000 48.62300 19.61300
H  39.56700 47.63800 21.49300
H  39.10200 48.44600 20.19000
H  39.89800 46.98800 18.68200
H  39.01600 45.53800 19.32700
H  40.40300 45.91500 20.07900
H  39.37400 43.45400 24.24500
H  37.79800 42.59100 24.66400
H  39.08800 42.81600 25.85600
H  37.73100 45.94600 29.98100
H  35.04700 44.64300 32.97800
H  34.06600 44.07200 31.68000
H  34.21300 45.79000 31.75900

