158

Mg 34.36500 2.14900 29.45500
C  32.28400 3.36900 32.02200
C  36.94000 2.16200 31.53500
C  36.33800 1.60300 26.76000
C  31.62200 2.74700 27.18000
N  34.56400 2.70800 31.51100
C  33.57900 2.99000 32.46300
C  34.10700 2.83900 33.95300
C  35.64800 2.47000 33.79000
C  35.74100 2.52800 32.18300
C  36.58400 3.45600 34.59700
C  33.26000 1.79700 34.77000
C  33.03700 2.01400 36.32500
H  33.84700 3.04500 37.01700
N  36.40700 1.96100 29.20400
C  37.32300 1.97100 30.20400
C  38.67100 1.59500 29.69200
C  38.56400 1.43500 28.24600
C  37.08400 1.70100 28.01200
C  39.85900 1.35500 30.65900
C  39.54200 0.95100 27.21800
O  39.23100 0.89500 26.04400
C  40.95100 0.43000 27.64900
N  33.98400 2.13000 27.31100
C  35.02800 1.91700 26.44800
C  34.62300 2.02900 25.00900
C  33.04100 2.02100 25.17700
C  32.84400 2.31700 26.59500
C  35.18800 3.34700 24.29400
C  32.38400 0.71500 24.67600
C  32.21800 -0.41600 25.71900
N  32.40600 3.01100 29.46500
C  31.42800 3.16400 28.52800
C  30.22000 3.69100 29.10300
C  30.53700 3.79100 30.45700
C  31.85700 3.36200 30.65100
C  28.88800 3.96400 28.43400
C  29.95900 4.12300 31.76300
O  28.87000 4.53700 32.11500
C  31.07600 3.66700 32.76700
C  31.18400 4.68000 33.85000
O  31.71300 5.80400 33.74400
O  30.45200 4.31600 34.97200
C  30.30800 5.23900 36.03900
H  37.65800 1.93700 32.32600
H  36.90600 1.29400 25.88000
H  30.75000 2.75400 26.52200
H  33.97400 3.84900 34.33900
H  35.81500 1.42600 34.05300
H  37.41600 3.85000 34.01300
H  36.93200 3.04700 35.54500
H  36.03000 4.35300 34.87500
H  33.60400 0.80000 34.49500
H  32.21500 1.95700 34.50600
H  33.08200 1.07600 36.87800
H  32.04300 2.42900 36.49000
H  39.91600 1.92900 31.58400
H  40.77700 1.62400 30.13500
H  39.95600 0.28500 30.83900
H  40.87500 -0.08500 28.60700
H  41.50600 1.34800 27.83800
H  41.50000 -0.28100 27.03000
H  34.92300 1.14700 24.44400
H  32.56700 2.85400 24.65800
H  35.97700 3.87400 24.83000
H  34.39900 3.98700 23.90000
H  35.68800 3.07500 23.36400
H  32.99500 0.33300 23.85900
H  31.45800 1.00800 24.18200
H  32.40100 -0.04700 26.72800
H  32.86900 -1.27200 25.54400
H  31.23100 -0.86800 25.62600
H  28.78200 3.54900 27.43200
H  29.01500 5.04600 28.38300
H  27.97700 3.91200 29.03000
H  30.67500 2.83500 33.34600
H  29.98800 6.26500 35.85400
H  31.29600 5.42600 36.45800
H  29.66600 4.68600 36.72400
Mg 26.81300 50.69400 26.75400
C  24.73200 51.55700 29.64600
C  29.14100 49.55300 28.94100
C  28.58900 49.67000 24.10000
C  24.35700 51.94100 24.76900
N  26.77500 50.39900 29.06500
C  25.85600 50.80200 29.99700
C  26.21400 50.40100 31.43300
C  27.74700 50.00400 31.16300
C  27.95500 50.00600 29.63500
C  28.83000 50.80000 31.91800
C  25.36300 49.27100 32.19500
C  24.77300 49.50000 33.55400
H  25.78500 49.94000 34.60000
N  28.58200 49.72100 26.58600
C  29.43100 49.35900 27.60500
C  30.57700 48.68700 27.09700
C  30.53000 48.78000 25.66500
C  29.20200 49.38400 25.41100
C  31.68200 48.26800 28.02000
C  31.51200 48.40600 24.53900
O  31.31300 48.74500 23.35800
C  32.87200 47.94800 24.88600
N  26.53500 50.71400 24.70900
C  27.39600 50.27500 23.74800
C  26.86400 50.58500 22.36000
C  25.43200 50.88200 22.60500
C  25.40100 51.21100 24.09800
C  27.67000 51.71700 21.63300
C  24.30000 49.90100 22.19400
C  23.11800 50.48900 21.45500
N  25.04400 51.69700 27.06000
C  24.11900 52.19000 26.12800
C  22.88300 52.69300 26.80400
C  23.14800 52.54500 28.15300
C  24.42400 51.88500 28.26900
C  21.68000 53.24100 26.08900
C  22.57000 52.77200 29.49800
O  21.60700 53.37100 29.79400
C  23.57100 52.12400 30.46600
C  23.97900 53.16100 31.50400
O  24.76800 54.01200 31.25600
O  23.22900 52.93100 32.61600
C  23.61700 53.69500 33.80500
H  29.83100 49.14700 29.68300
H  29.15600 49.35600 23.22200
H  23.58600 52.24300 24.05700
H  26.16300 51.31900 32.01900
H  27.90400 48.93600 31.31700
H  28.44500 50.96900 32.92300
H  29.11700 51.73100 31.42900
H  29.73400 50.19100 31.95600
H  25.89200 48.32000 32.14000
H  24.45100 49.19300 31.60400
H  24.34200 48.57300 33.93200
H  23.98100 50.24900 33.58900
H  32.34800 47.52300 27.58300
H  31.28100 47.90900 28.96800
H  32.13900 49.23600 28.22300
H  33.51800 48.04000 24.01200
H  32.82100 46.89000 25.14300
H  33.24600 48.47000 25.76700
H  27.07000 49.69900 21.76000
H  25.02800 51.79700 22.17100
H  28.44800 52.04800 22.32200
H  27.07200 52.57100 21.31600
H  28.34400 51.41800 20.83000
H  23.80600 49.43500 23.04600
H  24.74700 49.05800 21.66600
H  23.03300 49.89700 20.54400
H  23.31300 51.48300 21.05200
H  22.19100 50.55900 22.02400
H  20.96300 53.63000 26.81100
H  21.14600 52.59600 25.39100
H  22.15700 53.96500 25.42900
H  23.10600 51.27900 30.97200
H  22.71500 53.76500 34.41300
H  23.95500 54.72000 33.65400
H  24.38900 53.15000 34.34700

