158

Mg 40.68300 10.07500 29.73300
C  42.49600 10.69700 32.81400
C  38.21000 8.70600 31.79700
C  38.92200 9.28300 27.07100
C  43.44500 11.02100 27.99100
N  40.48000 9.60000 32.04300
C  41.23200 10.22300 33.01800
C  40.57800 10.07600 34.41300
C  39.30400 9.17400 34.02900
C  39.31600 9.18300 32.52100
C  39.43800 7.74500 34.59700
C  40.32700 11.36300 35.22900
C  39.72600 11.26800 36.63900
H  40.46300 11.87900 37.82600
N  38.73200 9.25600 29.49600
C  37.91100 8.72300 30.46800
C  36.71000 8.15000 29.81700
C  36.80700 8.58600 28.43400
C  38.20800 9.02900 28.26600
C  35.78100 7.33100 30.64600
C  35.71700 8.40400 27.34100
O  35.91800 8.66600 26.15900
C  34.35700 7.96700 27.67700
N  41.25300 10.02500 27.71400
C  40.23800 9.69800 26.79400
C  40.86300 9.88400 25.39000
C  42.28800 10.40200 25.67500
C  42.37200 10.52800 27.22700
C  40.86900 8.61800 24.37400
C  42.81900 11.60800 24.77900
C  42.10700 12.93800 25.09900
N  42.56000 10.72500 30.25400
C  43.63400 11.12400 29.42300
C  44.75500 11.49300 30.12500
C  44.37000 11.31700 31.50700
C  43.03900 10.83400 31.54400
C  46.01300 11.94400 29.45500
C  44.84000 11.47900 32.86100
O  45.93300 11.78800 33.29000
C  43.59000 11.20000 33.76900
C  44.00200 10.26800 34.83000
O  44.19700 9.06400 34.64900
O  43.85000 10.87100 36.05700
C  44.09800 10.02700 37.23300
H  37.50000 8.29800 32.52000
H  38.25000 9.15200 26.22000
H  44.28100 11.24500 27.32600
H  41.39000 9.52000 34.88200
H  38.39100 9.68000 34.34100
H  40.37400 7.54800 35.11900
H  39.40700 7.07000 33.74100
H  38.57100 7.60100 35.24200
H  39.62500 11.95300 34.64000
H  41.21900 11.98900 35.20700
H  39.26500 10.32300 36.92600
H  38.83300 11.88300 36.52800
H  36.40100 6.60500 31.17300
H  35.13200 6.73800 30.00200
H  35.27700 7.98500 31.35800
H  33.77100 7.98900 26.75800
H  33.89900 8.58100 28.45300
H  34.47500 6.95300 28.05800
H  40.30600 10.62400 24.81600
H  42.91700 9.52700 25.51000
H  40.33900 7.77100 24.81000
H  41.82800 8.37700 23.91700
H  40.30300 8.91600 23.49100
H  42.71100 11.43400 23.70900
H  43.86400 11.78000 25.03600
H  41.46500 13.25900 24.27800
H  42.78000 13.75400 25.36400
H  41.42300 12.79700 25.93600
H  46.74500 12.04800 30.25600
H  45.81100 12.84900 28.88200
H  46.28500 11.19000 28.71700
H  43.20700 12.10600 34.23800
H  43.50000 9.12000 37.13800
H  43.93800 10.45300 38.22300
H  45.12000 9.65200 37.18200
Mg -6.23100 25.40800 25.98300
C  -4.50800 26.68400 28.76900
C  -8.04200 23.52600 28.03200
C  -7.48900 24.03400 23.24100
C  -3.74500 26.94500 23.91200
N  -6.42000 25.34000 28.15300
C  -5.61700 25.85900 29.13000
C  -6.05200 25.37300 30.55000
C  -6.92100 24.13300 30.19200
C  -7.12300 24.34500 28.68200
C  -6.15800 22.73200 30.43000
C  -6.84800 26.52300 31.33600
C  -7.14200 26.24500 32.88700
H  -6.30100 25.13200 33.55000
N  -7.71700 24.08900 25.69100
C  -8.40800 23.43200 26.67400
C  -9.37900 22.56000 26.05400
C  -9.15700 22.66400 24.69500
C  -8.10900 23.65800 24.47800
C  -10.38900 21.67300 26.92100
C  -9.95500 21.97500 23.60500
O  -9.60700 22.04000 22.41200
C  -11.02000 20.95800 23.87300
N  -5.68300 25.53700 23.85800
C  -6.32200 24.68200 22.96500
C  -5.74000 24.84800 21.53500
C  -4.67300 25.95500 21.66700
C  -4.70300 26.21500 23.21500
C  -5.30600 23.49600 20.89400
C  -5.08100 27.28100 20.95000
C  -4.37300 27.54000 19.57300
N  -4.56800 26.61600 26.23400
C  -3.67100 27.10200 25.32100
C  -2.53700 27.77700 26.00900
C  -2.85000 27.66000 27.31600
C  -4.03900 26.91500 27.44400
C  -1.38100 28.49100 25.37100
C  -2.38700 28.01200 28.64500
O  -1.34400 28.54500 28.97300
C  -3.48600 27.47100 29.70100
C  -2.87700 26.59100 30.71400
O  -2.30900 25.56400 30.40900
O  -3.05200 27.05000 32.01600
C  -2.54100 26.19000 33.10400
H  -8.68100 22.88000 28.63700
H  -7.88800 23.65100 22.29900
H  -2.89000 27.40200 23.40800
H  -5.12700 25.07300 31.04200
H  -7.79800 24.15300 30.83900
H  -5.91900 22.12000 29.56000
H  -6.81600 22.10600 31.03200
H  -5.23300 22.90000 30.98200
H  -7.77900 26.60400 30.77600
H  -6.34100 27.48700 31.30800
H  -8.20300 26.06500 33.05600
H  -6.69100 27.10300 33.38600
H  -9.97800 20.66400 26.92200
H  -11.33700 21.50200 26.41100
H  -10.53500 22.08300 27.92000
H  -11.30900 20.51600 22.92000
H  -11.90800 21.45000 24.26900
H  -10.71700 20.24800 24.64300
H  -6.63700 25.21700 21.03800
H  -3.72300 25.54300 21.32700
H  -5.20900 22.79700 21.72500
H  -4.31200 23.56900 20.45200
H  -6.05600 23.14000 20.18800
H  -4.71100 28.15300 21.49000
H  -6.16800 27.32100 20.88000
H  -4.95100 27.53200 18.65000
H  -3.64500 26.74200 19.42500
H  -3.78000 28.45400 19.60600
H  -1.69300 28.86200 24.39500
H  -0.49600 27.88000 25.19400
H  -1.05300 29.35500 25.94900
H  -3.85700 28.35700 30.21700
H  -1.49900 26.50900 33.12200
H  -2.77900 25.16900 32.80600
H  -3.02500 26.40500 34.05600

