158

Mg 44.01700 4.00200 47.49500
C  41.77600 6.75700 47.14000
C  41.25400 1.89600 46.80400
C  46.09000 1.48600 47.21600
C  46.62800 6.37300 47.73600
N  41.81400 4.25400 47.04400
C  41.12000 5.46800 46.97600
C  39.61600 5.14100 46.73500
C  39.53600 3.65000 46.92300
C  40.95900 3.21800 46.84700
C  38.75900 3.19200 48.22500
C  39.23600 5.51800 45.26600
C  37.75000 5.99000 45.11100
H  37.22200 5.93900 43.68600
N  43.77200 1.96900 47.13700
C  42.52700 1.27600 46.91300
C  42.71700 -0.10400 46.70000
C  44.19300 -0.21800 46.78500
C  44.76900 1.08000 47.10900
C  41.63500 -1.11700 46.38700
C  44.84300 -1.54100 46.54500
O  44.16100 -2.56100 46.30400
C  46.22500 -1.65900 46.66900
N  46.08700 3.93600 47.28100
C  46.72200 2.76100 47.39200
C  48.25700 2.95200 47.32300
C  48.39700 4.55700 47.59300
C  46.93700 5.00100 47.52900
C  49.11000 2.12300 48.28800
C  49.41800 5.20700 46.64100
C  50.36000 6.20900 47.36500
N  44.25400 6.11700 47.44300
C  45.33000 6.89300 47.64900
C  44.95900 8.29000 47.66800
C  43.58200 8.23400 47.48700
C  43.19100 6.92000 47.44000
C  45.81900 9.45000 47.83700
C  42.38400 9.09000 47.39500
O  42.31700 10.31800 47.60900
C  41.14600 8.13200 47.07200
C  40.19100 8.18600 48.19900
O  40.39300 7.69100 49.32800
O  39.11100 8.89900 47.72000
C  37.96300 9.02800 48.62300
H  40.38300 1.23900 46.76300
H  46.76300 0.62900 47.28300
H  47.46300 7.07100 47.82300
H  39.08800 5.74200 47.47400
H  39.17300 3.06600 46.07700
H  38.55300 4.07500 48.82900
H  39.30700 2.46200 48.82200
H  37.73500 2.83800 48.10600
H  39.27000 4.62400 44.64400
H  39.86700 6.30900 44.86100
H  37.63500 7.05500 45.30900
H  37.03900 5.51400 45.78600
H  40.68100 -0.90000 46.86900
H  41.83600 -2.16500 46.60700
H  41.59700 -0.90500 45.31800
H  46.40000 -1.25500 47.66700
H  46.76200 -1.15700 45.86400
H  46.49700 -2.71400 46.68600
H  48.44700 2.70000 46.28000
H  48.65500 4.58300 48.65200
H  48.45700 1.40900 48.79200
H  49.68600 2.75200 48.96600
H  49.90400 1.56800 47.79000
H  48.88900 5.68300 45.81500
H  50.14500 4.50400 46.23500
H  50.07200 7.25600 47.27800
H  51.37200 6.18700 46.96000
H  50.50600 5.98600 48.42200
H  46.47000 9.57300 46.97200
H  46.32700 9.51300 48.79900
H  45.22400 10.36200 47.88100
H  40.70800 8.37600 46.10400
H  37.12800 8.58500 48.08200
H  37.72000 10.08400 48.73700
H  38.05300 8.54600 49.59700
Mg 52.66600 23.33600 44.91500
C  50.24700 25.79500 44.15700
C  50.75500 20.98800 43.57200
C  55.52000 21.65800 44.48400
C  54.84900 26.19200 45.97200
N  50.82100 23.48700 43.81500
C  49.94300 24.48900 43.63700
C  48.63000 23.99200 43.09300
C  48.61500 22.46600 43.41500
C  50.14500 22.29300 43.59400
C  47.69600 22.14000 44.60200
C  48.38200 24.48800 41.62500
C  49.63100 24.31900 40.62100
H  49.19400 24.40200 39.15200
N  53.04100 21.47000 44.34900
C  52.06900 20.58700 43.87800
C  52.79200 19.36100 43.62500
C  54.17900 19.55700 43.94000
C  54.29600 20.99800 44.20100
C  52.07800 18.04600 43.20300
C  55.23700 18.44700 43.85000
O  54.86900 17.28000 43.64300
C  56.67400 18.68900 44.04100
N  54.86900 23.83000 45.14600
C  55.81800 22.93600 44.93000
C  57.24100 23.30700 45.44700
C  56.91700 24.77400 45.93800
C  55.46600 24.94800 45.66100
C  57.64900 22.40100 46.60800
C  57.84100 25.88700 45.29400
C  58.28000 27.10800 46.07500
N  52.57100 25.59900 45.08300
C  53.44300 26.48900 45.72600
C  52.74200 27.72800 45.90500
C  51.47800 27.56200 45.28900
C  51.46700 26.23700 44.81700
C  53.25400 28.99700 46.34800
C  50.30000 28.18400 44.96100
O  49.94200 29.32500 45.08900
C  49.41400 27.11300 44.15000
C  49.09900 27.61100 42.72900
O  49.83000 27.79100 41.81100
O  47.75000 27.95700 42.75900
C  47.13000 28.48600 41.57600
H  49.97700 20.23200 43.44700
H  56.35400 20.95900 44.39400
H  55.45800 27.00100 46.38000
H  47.97300 24.60500 43.71100
H  48.36800 21.88000 42.52900
H  48.16300 21.36500 45.20900
H  46.84400 21.63100 44.15100
H  47.49700 23.03500 45.19200
H  48.13500 25.54900 41.58600
H  47.52800 23.95500 41.20700
H  49.93300 23.30400 40.88200
H  50.41000 25.02600 40.90400
H  52.55600 17.76200 42.26600
H  51.09500 18.38000 42.87000
H  52.05800 17.32800 44.02300
H  56.79400 19.12000 45.03500
H  56.94900 19.38300 43.24600
H  57.15300 17.71300 43.96500
H  57.92600 23.33600 44.59900
H  57.09200 24.86900 47.01000
H  56.76500 22.15000 47.19500
H  58.34900 23.02700 47.16100
H  58.09500 21.49100 46.20800
H  57.28700 26.15700 44.39500
H  58.76800 25.38400 45.01800
H  57.91600 27.89800 45.41900
H  59.35900 27.21500 46.18900
H  57.94600 26.96400 47.10300
H  54.26700 29.19500 45.99800
H  53.20500 29.01600 47.43700
H  52.65200 29.82500 45.97500
H  48.50400 27.03600 44.74500
H  47.79600 29.22500 41.13200
H  46.24400 29.00200 41.94800
H  46.87200 27.74900 40.81600

