158

Mg 16.82800 -1.65200 27.48700
C  15.67600 0.51100 29.94000
C  18.67800 -3.19100 29.98400
C  18.48100 -3.27100 25.20800
C  15.33300 0.24700 25.10800
N  17.23200 -1.27200 29.70900
C  16.52200 -0.39800 30.49000
C  16.88300 -0.54400 31.97800
C  17.99400 -1.64600 31.93400
C  18.02700 -2.05700 30.45800
C  19.47400 -1.15100 32.37600
C  15.65300 -0.94200 32.88200
C  15.64500 -0.29400 34.31500
H  16.93600 0.34400 34.91300
N  18.13700 -3.26900 27.58600
C  18.69400 -3.82000 28.70900
C  19.24600 -5.09700 28.43600
C  19.48700 -4.95300 27.00700
C  18.74700 -3.77800 26.50700
C  19.59200 -6.10400 29.47600
C  20.32400 -5.95500 26.14900
O  20.58500 -5.83200 24.94300
C  20.96200 -7.09300 26.76600
N  16.83400 -1.53300 25.45500
C  17.59500 -2.36200 24.63500
C  17.53100 -1.99800 23.15300
C  16.40800 -0.95300 23.17100
C  16.15200 -0.75900 24.64700
C  18.93000 -1.53900 22.61800
C  15.17700 -1.14300 22.28200
C  14.80000 0.14200 21.48500
N  15.58700 0.01000 27.53100
C  15.04300 0.61900 26.45300
C  14.18300 1.69900 26.86400
C  14.33000 1.67600 28.26000
C  15.26000 0.67300 28.61000
C  13.40600 2.65300 26.01000
C  13.90400 2.34800 29.51300
O  13.18900 3.37400 29.64600
C  14.71800 1.56100 30.61500
C  15.43600 2.50900 31.49000
O  16.52400 2.98500 31.24300
O  14.62800 2.80000 32.59100
C  15.16200 3.88600 33.40800
H  19.04400 -3.85800 30.76800
H  19.18700 -3.78800 24.55500
H  14.79900 0.78900 24.32500
H  17.25900 0.44400 32.24400
H  17.75600 -2.50800 32.55700
H  19.52100 -0.33800 33.10000
H  20.02200 -0.74500 31.52600
H  19.94900 -2.00800 32.85300
H  15.63700 -2.02700 32.98200
H  14.85200 -0.57000 32.24300
H  15.26800 -1.06200 34.99000
H  14.96200 0.55200 34.24200
H  19.19200 -7.05200 29.11700
H  19.12600 -5.89600 30.43900
H  20.65600 -6.03600 29.70000
H  21.42900 -6.80300 27.70800
H  21.79400 -7.30400 26.09400
H  20.36700 -8.00400 26.82400
H  17.21400 -2.81300 22.50300
H  16.92800 -0.05400 22.83800
H  19.57700 -1.46100 23.49200
H  18.89200 -0.57100 22.11800
H  19.32900 -2.25500 21.90000
H  14.31800 -1.32000 22.92900
H  15.26500 -2.04200 21.67100
H  15.75100 0.54100 21.13300
H  14.32700 0.79300 22.22000
H  14.17200 0.04800 20.59900
H  13.96200 3.58400 25.90000
H  12.44200 2.85600 26.47600
H  13.34900 2.13100 25.05500
H  13.93300 0.98400 31.10500
H  16.24100 3.85800 33.56100
H  14.73300 3.88500 34.41000
H  15.05000 4.88500 32.98800
Mg 47.74100 16.81900 29.02000
C  45.85200 16.45500 31.90400
C  50.21700 18.37300 30.98000
C  49.54500 17.36700 26.25100
C  45.14800 15.56600 27.14600
N  47.98300 17.33500 31.17800
C  47.12300 17.07600 32.15300
C  47.71600 17.44000 33.53300
C  48.94200 18.43100 33.16600
C  49.06600 18.02800 31.66100
C  48.66000 19.94100 33.40500
C  48.05400 16.22200 34.43400
C  47.53000 16.28300 35.86500
H  47.48900 17.69300 36.49900
N  49.62700 17.71700 28.67300
C  50.57700 18.16800 29.57000
C  51.81400 18.58200 28.87900
C  51.42300 18.40700 27.47100
C  50.15000 17.77200 27.41600
C  53.10700 18.98200 29.61500
C  52.29400 18.82300 26.35900
O  52.00100 18.81800 25.17800
C  53.68200 19.37500 26.62600
N  47.39500 16.50900 27.06600
C  48.27000 16.80100 26.06500
C  47.73300 16.60800 24.62100
C  46.56700 15.66600 24.96800
C  46.30300 15.92400 26.47500
C  47.33900 17.91000 23.99100
C  46.74500 14.19100 24.73600
C  45.76800 13.51400 23.77100
N  45.84100 16.20100 29.42800
C  44.89000 15.69100 28.55700
C  43.69300 15.30000 29.30900
C  44.04900 15.50300 30.68700
C  45.32400 16.14800 30.65400
C  42.49300 14.75700 28.73600
C  43.60000 15.39500 32.08800
O  42.63600 14.82100 32.59800
C  44.76800 16.02000 32.88500
C  44.18900 17.00800 33.87200
O  43.81200 18.10200 33.44400
O  44.06100 16.54000 35.14400
C  43.10000 17.24600 36.05200
H  50.84500 18.93800 31.67200
H  50.04000 17.64800 25.31900
H  44.39500 15.12000 26.49200
H  47.00400 18.07100 34.06500
H  49.87600 18.09200 33.61300
H  48.60500 20.41300 32.42400
H  49.56600 20.35200 33.85000
H  47.78300 20.15700 34.01600
H  49.08300 15.86400 34.39100
H  47.52100 15.39000 33.97400
H  48.21700 15.68700 36.46500
H  46.51500 15.89000 35.79300
H  53.85600 18.23600 29.35000
H  52.95300 19.00100 30.69400
H  53.44800 19.97800 29.33200
H  53.65400 20.29700 27.20700
H  53.98000 19.70300 25.63000
H  54.43500 18.65000 26.93500
H  48.51400 16.03000 24.12700
H  45.67700 16.00300 24.43700
H  47.72700 17.94300 22.97300
H  47.83000 18.67700 24.59100
H  46.26600 18.09100 23.92000
H  46.71500 13.66300 25.68900
H  47.72500 14.07100 24.27600
H  46.31300 13.29100 22.85300
H  44.96300 14.20700 23.53000
H  45.32700 12.57500 24.10600
H  41.62100 15.21700 29.20100
H  42.56300 13.67000 28.78500
H  42.60100 15.12600 27.71700
H  45.00800 15.17500 33.53000
H  42.28100 17.70400 35.49700
H  43.72200 18.03500 36.47400
H  42.79100 16.58100 36.85800

