158

Mg 35.30400 0.90400 29.36200
C  33.35700 2.11200 32.01800
C  37.94700 0.92000 31.58000
C  37.18200 -0.40300 26.97000
C  32.66600 1.48800 27.13700
N  35.55000 1.31700 31.61800
C  34.61700 1.76200 32.45700
C  35.08700 1.79100 33.93100
C  36.66900 1.79800 33.75400
C  36.76700 1.32500 32.24300
C  37.41000 3.13600 34.08500
C  34.50000 0.54800 34.64400
C  34.08400 0.67400 36.13500
H  35.03200 1.48700 37.04900
N  37.32900 0.28800 29.27600
C  38.18500 0.30000 30.32500
C  39.45900 -0.33100 29.88800
C  39.26900 -0.72000 28.58900
C  37.90000 -0.28200 28.17000
C  40.69000 -0.47900 30.88100
C  40.19400 -1.51600 27.64200
O  39.99100 -1.55400 26.43700
C  41.51000 -2.07600 28.05400
N  34.90500 0.43400 27.36600
C  35.89200 -0.00600 26.53100
C  35.39000 -0.12400 25.06700
C  33.86300 0.27700 25.18400
C  33.78100 0.74200 26.65500
C  36.24500 0.85900 24.11400
C  32.86000 -0.86400 24.75500
C  32.37100 -0.64000 23.31700
N  33.41100 1.65700 29.50300
C  32.39700 1.78600 28.52900
C  31.21600 2.37400 29.17300
C  31.63400 2.56300 30.54100
C  32.91600 2.07000 30.66700
C  29.95800 2.58900 28.48300
C  31.10800 3.03400 31.83900
O  29.99200 3.54100 32.13200
C  32.17800 2.63800 32.91900
C  32.56000 3.85300 33.68800
O  33.49800 4.57100 33.48800
O  31.83300 3.96500 34.86500
C  32.37300 4.60100 36.04100
H  38.83300 0.93200 32.21800
H  37.80400 -0.79700 26.16300
H  31.90400 1.52000 26.35500
H  34.71500 2.62300 34.53000
H  37.07700 0.91300 34.24300
H  37.82900 3.55600 33.17000
H  38.20500 2.84300 34.77100
H  36.65000 3.76700 34.54700
H  35.26900 -0.22500 34.66700
H  33.56200 0.29200 34.15300
H  34.06400 -0.33800 36.54000
H  33.05000 0.97900 36.29900
H  41.44100 -1.22400 30.61900
H  40.47500 -0.62400 31.94000
H  41.33100 0.39800 30.78300
H  42.16600 -1.22800 28.25300
H  41.81600 -2.68100 27.20000
H  41.35100 -2.61400 28.98800
H  35.52300 -1.15900 24.75200
H  33.60100 1.11800 24.54200
H  37.07300 0.98000 24.81200
H  35.75900 1.83400 24.14000
H  36.56900 0.37900 23.19100
H  31.99500 -0.72300 25.40400
H  33.11200 -1.91100 24.92500
H  31.33200 -0.92400 23.14800
H  32.84100 -1.26600 22.55900
H  32.56300 0.36500 22.94300
H  29.82100 1.84700 27.69600
H  29.89400 3.58500 28.04600
H  29.16100 2.43900 29.21100
H  31.95400 1.89000 33.67900
H  31.63300 5.25000 36.51000
H  33.15400 5.34700 35.89400
H  32.70000 3.84100 36.75000
Mg 30.39500 59.85200 39.22800
C  27.35900 58.40200 38.40600
C  32.05100 57.10100 37.98700
C  33.34200 61.55500 39.38800
C  28.70200 62.89900 39.70000
N  29.67900 57.96800 38.29500
C  28.43800 57.55200 38.10800
C  28.46400 56.13400 37.43900
C  29.91400 55.70600 37.66800
C  30.64700 57.03700 37.98300
C  30.29300 54.62800 38.74000
C  28.24900 56.26100 35.83200
C  27.00700 55.45900 35.32600
H  26.05600 56.12200 34.35300
N  32.41900 59.39000 38.82700
C  32.87700 58.15900 38.30100
C  34.34200 58.26800 38.22000
C  34.75500 59.51500 38.76400
C  33.45000 60.21500 39.00500
C  35.08600 57.02600 37.92100
C  36.16000 59.95300 38.90200
O  37.07700 59.20600 38.50200
C  36.68900 61.20700 39.71200
N  30.92800 61.86100 39.55000
C  32.21600 62.34200 39.60800
C  32.31300 63.81700 39.98000
C  30.85300 64.23400 40.15800
C  30.11000 62.98100 39.66900
C  33.24600 64.21300 41.12100
C  30.49300 65.57800 39.38000
C  29.97200 66.70800 40.27700
N  28.42200 60.56600 39.16600
C  27.90500 61.79200 39.38500
C  26.40600 61.69800 39.32900
C  26.23300 60.42700 38.82500
C  27.40700 59.70200 38.86600
C  25.43100 62.81800 39.45200
C  25.17700 59.42400 38.52300
O  23.94300 59.44100 38.56400
C  25.98400 58.19700 38.09900
C  25.43200 57.06400 38.81400
O  25.35200 56.94600 40.04300
O  24.91700 56.11900 37.99900
C  24.31200 54.98300 38.67100
H  32.50700 56.11700 37.86200
H  34.26000 62.14100 39.46400
H  28.11300 63.80800 39.84100
H  27.84200 55.40200 37.95400
H  30.40600 55.38900 36.74800
H  31.15900 53.99700 38.53700
H  29.44700 53.96700 38.93100
H  30.67100 55.15400 39.61700
H  29.10000 55.92200 35.24100
H  28.17000 57.31200 35.55200
H  26.41500 55.19000 36.20000
H  27.44300 54.55700 34.89600
H  34.56600 56.45000 37.15600
H  35.13800 56.43500 38.83500
H  36.07800 57.26300 37.53400
H  37.77000 61.23000 39.57000
H  36.38600 61.16500 40.75900
H  36.25800 62.05200 39.17500
H  32.66500 64.37100 39.10900
H  30.60700 64.31700 41.21700
H  33.93500 64.97000 40.74600
H  33.85700 63.38100 41.47000
H  32.73300 64.63900 41.98200
H  29.72100 65.41600 38.62800
H  31.34000 66.02200 38.85700
H  30.43200 67.66900 40.04800
H  30.14400 66.55300 41.34200
H  28.90600 66.65100 40.05500
H  24.73600 62.75200 38.61500
H  25.85000 63.82300 39.40700
H  24.79800 62.78800 40.33900
H  25.91100 58.07000 37.01900
H  23.27800 55.28000 38.84700
H  24.80000 54.72000 39.60900
H  24.44800 54.10600 38.03900

