158

Mg 17.43100 -1.35500 26.48400
C  16.31300 0.63800 29.27200
C  19.11900 -3.25800 28.72500
C  18.78800 -2.88300 23.86900
C  16.00300 1.06500 24.41200
N  17.61800 -1.27200 28.73900
C  17.09600 -0.42600 29.68500
C  17.54800 -0.85300 31.05200
C  18.43000 -2.11300 30.86300
C  18.41500 -2.28800 29.31200
C  19.78800 -1.90400 31.55000
C  16.42100 -0.95300 32.17000
C  16.56500 -0.11600 33.40000
H  17.96000 0.30700 33.89100
N  18.67700 -2.98900 26.30200
C  19.20600 -3.64000 27.39300
C  19.99000 -4.73700 26.83400
C  19.97900 -4.62100 25.37800
C  19.14900 -3.46100 25.15400
C  20.55400 -5.79900 27.67100
C  20.55000 -5.54800 24.39300
O  20.40100 -5.39100 23.19400
C  21.29500 -6.80100 24.84100
N  17.46200 -0.97200 24.41600
C  18.07000 -1.77500 23.52200
C  17.99000 -1.25800 22.11000
C  17.04300 -0.00400 22.28100
C  16.81300 0.08400 23.82000
C  19.37300 -1.00300 21.49000
C  15.65400 0.08500 21.52900
C  14.52800 -0.89300 21.81600
N  16.26400 0.44900 26.71000
C  15.69600 1.30100 25.79800
C  14.93000 2.31800 26.43600
C  15.14900 2.09800 27.81200
C  15.93100 0.95900 27.94200
C  14.02900 3.28200 25.83200
C  14.79500 2.60500 29.14900
O  14.00400 3.44700 29.51800
C  15.57100 1.67200 30.14400
C  16.45500 2.49400 31.04600
O  17.66400 2.54100 31.00500
O  15.55800 3.14000 31.97400
C  16.09000 4.01600 33.08900
H  19.73100 -3.80200 29.44700
H  19.20100 -3.41600 23.01000
H  15.62000 1.78100 23.68200
H  18.19800 -0.03600 31.36500
H  17.85700 -2.90900 31.33700
H  19.71000 -1.77300 32.63000
H  20.40400 -1.04000 31.30500
H  20.46400 -2.74300 31.38400
H  16.54400 -1.99000 32.48000
H  15.42500 -0.77300 31.76400
H  16.09100 -0.67500 34.20700
H  16.03500 0.80300 33.15000
H  20.02700 -6.71800 27.41500
H  20.36400 -5.60900 28.72700
H  21.62900 -5.94400 27.56600
H  22.13300 -6.78900 25.53900
H  21.76900 -7.11200 23.91100
H  20.54400 -7.53700 25.13000
H  17.36200 -1.95800 21.55900
H  17.54500 0.91600 21.98100
H  19.30900 -0.21400 20.74100
H  19.91000 -1.86400 21.09300
H  20.10200 -0.70300 22.24300
H  15.89600 0.00500 20.46900
H  15.21600 1.07100 21.68300
H  14.09800 -1.32200 20.91100
H  13.73800 -0.52500 22.47000
H  14.95900 -1.76000 22.31700
H  13.83400 3.11600 24.77200
H  14.46100 4.24800 26.09300
H  13.05200 3.11700 26.28400
H  14.91500 1.14900 30.84000
H  15.48500 4.00900 33.99600
H  16.22600 5.00000 32.63900
H  17.13000 3.75900 33.29300
Mg -11.21800 16.99500 41.97500
C  -7.76500 16.74900 42.32600
C  -10.80200 20.46200 41.46800
C  -14.52700 17.25400 41.45200
C  -11.38600 13.49000 42.06100
N  -9.45000 18.38900 41.84700
C  -8.11400 18.05100 42.05000
C  -7.22700 19.28500 42.02300
C  -8.28500 20.49000 42.21800
C  -9.61100 19.72700 41.82700
C  -8.28100 21.04300 43.71900
C  -6.45300 19.38000 40.62900
C  -4.92300 19.43300 40.74600
H  -4.21400 18.59400 39.69700
N  -12.48900 18.64200 41.57200
C  -12.09500 19.91900 41.27300
C  -13.23700 20.69400 40.88000
C  -14.36500 19.86800 41.10600
C  -13.86100 18.52100 41.43800
C  -13.13000 22.13000 40.37200
C  -15.80700 20.32500 41.10100
O  -16.16800 21.49600 40.87000
C  -16.90400 19.34800 41.56200
N  -12.70100 15.49600 41.50800
C  -14.03200 15.95700 41.62300
C  -14.87700 14.72100 41.71100
C  -13.90100 13.49500 41.92600
C  -12.57900 14.20500 41.79100
C  -16.04900 14.73200 42.72000
C  -14.11600 12.21600 41.06000
C  -14.63800 10.89900 41.68500
N  -9.88400 15.40800 42.17200
C  -10.11000 14.09500 42.14400
C  -8.85800 13.40200 42.45100
C  -7.89700 14.42300 42.56200
C  -8.60300 15.61500 42.36100
C  -8.64500 11.88600 42.57700
C  -6.47100 14.67800 42.75800
O  -5.51100 13.95400 42.96900
C  -6.40700 16.27000 42.70100
C  -5.88400 16.73200 44.01100
O  -6.57700 16.97100 44.95900
O  -4.46100 16.70500 44.05400
C  -3.84700 16.99600 45.33700
H  -10.65800 21.53000 41.29500
H  -15.60500 17.39100 41.34200
H  -11.59900 12.42800 42.19800
H  -6.50700 19.34000 42.84000
H  -8.05000 21.21700 41.44000
H  -7.49400 20.64300 44.35700
H  -9.26500 20.90900 44.16800
H  -8.17000 22.11400 43.54600
H  -6.62400 20.33600 40.13600
H  -6.81300 18.62900 39.92600
H  -4.66800 19.15000 41.76700
H  -4.48800 20.41800 40.58100
H  -13.42500 22.71600 41.24300
H  -13.75100 22.36600 39.50800
H  -12.10400 22.40000 40.12300
H  -17.68500 19.98100 41.98200
H  -16.47900 18.94500 42.48100
H  -17.12500 18.54600 40.85700
H  -15.35700 14.71300 40.73200
H  -14.11700 13.15400 42.93900
H  -16.17900 13.72400 43.11500
H  -16.94900 15.07900 42.21300
H  -15.83400 15.54700 43.41000
H  -13.23800 11.91800 40.48700
H  -14.82500 12.35200 40.24400
H  -14.67800 10.01300 41.05100
H  -15.55000 11.03400 42.26600
H  -13.89300 10.67300 42.44700
H  -9.64100 11.49800 42.78700
H  -7.92000 11.58400 43.33400
H  -8.23200 11.42400 41.68100
H  -5.67100 16.56100 41.95200
H  -4.50400 16.83800 46.19200
H  -3.30100 17.93100 45.21400
H  -3.06700 16.23600 45.37400

