158

Mg 54.63000 24.84300 44.07900
C  51.87900 26.97100 43.73300
C  52.44200 22.17500 43.62200
C  57.30300 22.95200 43.89100
C  56.75800 27.72400 43.95700
N  52.38200 24.63200 43.54900
C  51.46200 25.64400 43.64800
C  50.07900 25.05000 43.76400
C  50.32600 23.57100 43.95700
C  51.78000 23.42800 43.64100
C  49.90600 22.98500 45.35600
C  49.03500 25.45400 42.76500
C  49.31800 24.87700 41.33200
H  49.49100 25.88400 40.20100
N  54.85500 22.85200 43.69500
C  53.81500 21.89700 43.62600
C  54.39800 20.57700 43.36200
C  55.81400 20.80000 43.37900
C  56.04200 22.23100 43.61600
C  53.53400 19.33400 43.04000
C  56.80600 19.59300 43.30800
O  56.44600 18.43200 43.17000
C  58.30200 19.85900 43.36300
N  56.67500 25.23700 43.96200
C  57.61500 24.23800 44.00000
C  59.05800 24.73900 44.09300
C  58.88500 26.28000 44.14200
C  57.30900 26.44300 44.00600
C  59.84400 24.16400 45.34300
C  59.82000 26.95200 43.06800
C  60.77400 28.05000 43.61500
N  54.43900 26.92400 43.95900
C  55.38800 27.94400 44.08500
C  54.59900 29.17600 44.37000
C  53.24800 28.88000 44.25300
C  53.19500 27.49000 43.92800
C  55.24100 30.45700 44.81500
C  51.86700 29.38000 44.30100
O  51.46600 30.50200 44.55400
C  50.89500 28.16900 43.92000
C  50.24400 28.53000 42.68300
O  50.76200 28.44400 41.58400
O  48.94100 28.91500 43.00200
C  47.98800 29.13900 41.92100
H  51.71300 21.36200 43.62600
H  58.16800 22.28700 43.83400
H  57.52700 28.49700 44.01000
H  49.72200 25.35100 44.74900
H  49.75100 22.96900 43.25300
H  49.53800 23.64000 46.14600
H  50.75200 22.51300 45.85600
H  49.20600 22.16600 45.19200
H  48.86700 26.53000 42.74500
H  48.14200 25.01900 43.21500
H  48.52800 24.21000 40.98600
H  50.17900 24.21000 41.38700
H  54.09400 18.39900 43.03000
H  53.33000 19.32600 41.96900
H  52.61500 19.29100 43.62400
H  58.59000 20.44100 42.48800
H  58.78900 18.88600 43.30000
H  58.66900 20.30500 44.28700
H  59.60500 24.39900 43.21300
H  59.17800 26.63600 45.13000
H  59.13500 23.87000 46.11700
H  60.61500 24.76300 45.82700
H  60.28600 23.25500 44.93500
H  59.26000 27.47300 42.29200
H  60.49400 26.21200 42.63600
H  60.70800 28.03400 44.70300
H  60.43800 29.03100 43.27900
H  61.82300 27.93100 43.34400
H  54.53400 31.28100 44.72000
H  56.05100 30.64800 44.11000
H  55.65700 30.58300 45.81400
H  50.18700 28.05100 44.74000
H  47.24000 29.83000 42.31000
H  47.39100 28.28600 41.60000
H  48.54800 29.47700 41.04900
Mg -1.87900 34.65100 27.41700
C  -3.81300 33.00100 29.76200
C  -0.51900 36.53900 29.57500
C  -0.50100 36.45400 24.81500
C  -3.48200 32.74300 24.80100
N  -2.14900 34.62600 29.43600
C  -3.02500 34.00900 30.26000
C  -2.89400 34.39100 31.69500
C  -2.00800 35.70700 31.58000
C  -1.52000 35.62700 30.09700
C  -2.76400 37.02100 31.93000
C  -2.31100 33.23500 32.62200
C  -3.03800 32.76000 33.84500
H  -2.27300 32.62900 35.12300
N  -0.61600 36.25800 27.23900
C  -0.05600 36.82500 28.33200
C  0.97300 37.77000 27.92800
C  0.94100 37.81900 26.49700
C  -0.05800 36.77700 26.09500
C  1.82000 38.60900 28.91500
C  1.75900 38.64200 25.54100
O  1.38200 38.87200 24.43700
C  2.85100 39.52400 25.96900
N  -2.05400 34.72900 25.14100
C  -1.42600 35.60200 24.36200
C  -1.88800 35.44800 22.86600
C  -2.57600 33.96600 22.80500
C  -2.70100 33.80400 24.36600
C  -2.78200 36.67700 22.52000
C  -1.95800 32.92200 22.01500
C  -1.00400 33.26900 20.87000
N  -3.26200 33.12100 27.22800
C  -3.73600 32.39200 26.14900
C  -4.69500 31.37600 26.57200
C  -4.69100 31.51700 27.93700
C  -3.84000 32.61000 28.38000
C  -5.62900 30.50000 25.81100
C  -5.40100 31.12400 29.17600
O  -6.29900 30.29000 29.32400
C  -4.69600 32.02300 30.41500
C  -5.75300 32.60200 31.30500
O  -6.45700 33.59400 31.07600
O  -5.89400 31.83500 32.50400
C  -6.89400 32.35200 33.48500
H  0.01400 37.00700 30.40400
H  -0.03300 37.06800 24.04300
H  -4.08900 32.30400 24.00700
H  -3.89600 34.54100 32.09900
H  -1.15500 35.71600 32.25800
H  -3.22200 36.95200 32.91700
H  -3.51600 37.19500 31.16000
H  -1.99000 37.78700 31.96600
H  -1.28700 33.51400 32.87000
H  -2.14400 32.29500 32.09500
H  -3.68500 31.89200 33.71500
H  -3.85300 33.47900 33.92600
H  1.59400 38.46700 29.97200
H  1.61800 39.63100 28.59400
H  2.88500 38.44000 28.75900
H  3.36700 39.08000 26.82000
H  2.25700 40.34100 26.37700
H  3.53400 39.83800 25.17900
H  -0.97500 35.50000 22.27300
H  -3.60500 34.06600 22.46100
H  -3.12000 37.25000 23.38300
H  -3.74900 36.39400 22.10200
H  -2.25900 37.39000 21.88300
H  -2.78600 32.38100 21.55700
H  -1.42800 32.19900 22.63300
H  -1.16300 32.58000 20.04000
H  0.03600 33.06800 21.12800
H  -1.10700 34.27000 20.45200
H  -5.64100 29.48700 26.21200
H  -5.31600 30.48500 24.76700
H  -6.63100 30.92900 25.84000
H  -4.09300 31.35000 31.02400
H  -7.39500 31.42500 33.76600
H  -7.61900 33.05100 33.06800
H  -6.36900 32.79600 34.33100

