158

Mg 25.65000 -5.39900 46.77000
C  27.25700 -2.74700 44.87000
C  22.99400 -5.05800 44.63700
C  24.60400 -8.43700 47.95400
C  28.64400 -5.69800 48.64200
N  25.25400 -4.17100 44.71300
C  26.03000 -3.12800 44.24400
C  25.25000 -2.42800 43.12800
C  23.88600 -3.10800 43.03500
C  23.93000 -4.11600 44.23700
C  22.60500 -2.21100 43.16900
C  26.04100 -2.34600 41.83700
C  26.03000 -0.94000 41.17500
H  25.12200 -0.92500 39.89800
N  24.01700 -6.57500 46.39100
C  23.02800 -6.16700 45.59500
C  21.93700 -7.08800 45.71300
C  22.31000 -8.05100 46.65500
C  23.71300 -7.73800 47.09100
C  20.62500 -6.98400 45.02800
C  21.46400 -9.18000 47.29500
O  20.31100 -9.43000 46.85200
C  21.92300 -10.10800 48.41100
N  26.48200 -6.81400 48.14800
C  25.82900 -7.98800 48.48200
C  26.74200 -8.97300 49.22600
C  27.95600 -8.08400 49.52600
C  27.72400 -6.78500 48.73400
C  26.14300 -9.71900 50.42700
C  29.27700 -8.69900 49.12300
C  30.45600 -8.30200 49.98400
N  27.44400 -4.30500 46.96100
C  28.53300 -4.51700 47.76900
C  29.47700 -3.48100 47.65300
C  29.00800 -2.76700 46.49800
C  27.74500 -3.30600 46.09500
C  30.76300 -3.20400 48.49600
C  29.35500 -1.70200 45.55000
O  30.27900 -0.88400 45.56000
C  28.19800 -1.66300 44.43100
C  27.54000 -0.29300 44.38500
O  27.94500 0.59200 43.66300
O  26.62800 -0.18400 45.43200
C  26.01200 1.15700 45.53200
H  22.09500 -4.79100 44.07700
H  24.36700 -9.46300 48.24300
H  29.57800 -5.68800 49.20700
H  25.04500 -1.46600 43.59800
H  23.83600 -3.58500 42.05600
H  22.20300 -2.12100 42.16000
H  22.91000 -1.19700 43.42800
H  21.93000 -2.62900 43.91600
H  25.75100 -3.09900 41.10500
H  27.07600 -2.51000 42.13800
H  27.07500 -0.79200 40.90100
H  25.86100 -0.26700 42.01500
H  20.57800 -6.90800 43.94200
H  20.28200 -5.99900 45.34300
H  19.80100 -7.65200 45.28200
H  22.44800 -9.67000 49.26100
H  22.56300 -10.80800 47.87400
H  21.08100 -10.70000 48.76900
H  26.95200 -9.74100 48.48100
H  27.99500 -7.90700 50.60100
H  26.18500 -10.76600 50.12600
H  25.14400 -9.33800 50.63600
H  26.74700 -9.64000 51.33100
H  29.56300 -8.38800 48.11800
H  29.17500 -9.76900 49.30000
H  31.26900 -7.98000 49.33300
H  30.95400 -9.07500 50.56900
H  30.12500 -7.47900 50.61700
H  31.34100 -4.12300 48.59200
H  30.35500 -2.93000 49.46900
H  31.36300 -2.34700 48.18900
H  28.70900 -1.85700 43.48800
H  25.14400 1.12800 44.87300
H  26.70900 1.94200 45.24000
H  25.59600 1.41100 46.50700
Mg 47.48700 15.78000 28.91200
C  45.73900 15.23300 31.81600
C  50.02500 17.16900 30.58400
C  48.82300 16.78800 25.83000
C  44.88600 14.20300 27.06400
N  47.72400 16.34000 30.97600
C  46.89000 16.02400 31.99100
C  47.47400 16.47800 33.36800
C  48.92800 16.92900 32.94000
C  48.90400 16.82700 31.40000
C  49.32000 18.34700 33.42800
C  47.23300 15.58800 34.63500
C  48.29500 15.53400 35.73700
H  48.15000 16.66800 36.74900
N  49.24300 16.77000 28.27900
C  50.14200 17.24100 29.16500
C  51.30200 17.58500 28.40600
C  51.00600 17.49100 27.04100
C  49.64800 17.00800 26.94300
C  52.63800 17.99200 29.12600
C  51.82200 17.78900 25.85300
O  51.31400 17.65400 24.73100
C  53.29000 18.02800 26.05800
N  46.96800 15.53600 26.78300
C  47.63300 16.11200 25.73800
C  46.97200 15.79100 24.36700
C  45.90900 14.74000 24.71000
C  45.90200 14.77500 26.26700
C  46.61900 17.07400 23.57700
C  46.16700 13.28400 24.08900
C  46.61300 12.10300 25.08600
N  45.82500 14.71600 29.24400
C  44.80800 14.17900 28.43800
C  43.71600 13.69100 29.28400
C  44.09100 14.01100 30.58600
C  45.37700 14.60600 30.54600
C  42.37600 13.14100 28.78600
C  43.57500 13.93400 31.96500
O  42.56400 13.39300 32.44200
C  44.68700 14.71600 32.78300
C  44.08300 15.78600 33.57000
O  43.97700 16.96200 33.26100
O  43.74700 15.29100 34.79900
C  42.91800 16.22800 35.60400
H  50.95400 17.56300 31.00100
H  49.07900 17.23800 24.86900
H  44.11000 13.65000 26.53100
H  46.97300 17.41700 33.60500
H  49.76400 16.25600 33.13100
H  49.37500 19.01100 32.56500
H  50.25800 18.23200 33.97100
H  48.56200 18.78600 34.07600
H  47.08700 14.55000 34.33500
H  46.36000 15.97100 35.16500
H  49.27300 15.70500 35.28700
H  48.22400 14.61000 36.31200
H  53.53000 17.64000 28.60900
H  52.76900 17.46100 30.06900
H  52.66800 19.07000 29.28100
H  53.70800 18.33200 25.09900
H  53.70800 17.09300 26.43000
H  53.33200 18.88100 26.73600
H  47.63800 15.29000 23.66400
H  44.98700 15.14400 24.29200
H  47.09200 17.92100 24.07200
H  45.57000 17.35500 23.67300
H  46.78400 16.98300 22.50300
H  46.99700 13.34700 23.38500
H  45.30200 12.99800 23.49200
H  46.91400 12.50700 26.05300
H  47.49800 11.66800 24.62100
H  45.79900 11.39100 25.22000
H  41.55100 13.59600 29.33500
H  42.35600 12.05200 28.78200
H  42.20800 13.44200 27.75200
H  45.17000 13.98800 33.43300
H  43.18300 17.26800 35.41400
H  43.30400 16.03900 36.60600
H  41.84200 16.05600 35.58200

