158

Mg 0.86000 7.79800 27.09400
C  1.26200 9.81300 29.84000
C  1.04400 4.97700 29.16100
C  0.90300 5.91900 24.29600
C  0.72200 10.64700 25.08000
N  1.09600 7.49800 29.26600
C  1.07900 8.47300 30.20200
C  1.15800 7.87700 31.64100
C  1.24600 6.35900 31.43600
C  1.08600 6.23500 29.87100
C  2.44900 5.54200 32.02800
C  -0.14000 8.33200 32.36800
C  -0.03600 8.38500 33.92800
H  1.12700 7.70900 34.67200
N  1.12000 5.70000 26.80300
C  1.12200 4.72300 27.73200
C  0.89600 3.43500 27.01000
C  0.94700 3.66600 25.56500
C  0.98100 5.18200 25.52400
C  0.79500 2.07600 27.73200
C  1.05600 2.72800 24.39400
O  1.16300 3.08400 23.22700
C  1.17000 1.30000 24.70100
N  0.88600 8.22000 24.98200
C  0.88200 7.26000 24.05000
C  0.67500 7.77100 22.62600
C  0.57900 9.27500 22.83900
C  0.72100 9.45800 24.42500
C  1.70800 7.20800 21.66200
C  -0.69000 9.87400 22.23200
C  -1.88800 9.83700 23.13300
N  0.94500 9.87200 27.34600
C  0.88200 10.94800 26.46500
C  1.23000 12.17000 27.08600
C  1.34100 11.80900 28.45600
C  1.28300 10.38300 28.53000
C  1.44800 13.50700 26.46600
C  1.65200 12.28000 29.79600
O  1.98900 13.40800 30.06600
C  1.58200 11.02300 30.75500
C  2.76800 10.98000 31.68400
O  3.89600 10.59300 31.39800
O  2.40900 11.36900 32.94800
C  3.32000 11.43500 34.06500
H  0.98700 4.05100 29.73700
H  0.77200 5.42100 23.33300
H  0.60100 11.55400 24.48400
H  2.11800 8.26500 31.98100
H  0.37900 5.85100 31.85900
H  3.15200 6.24600 32.47400
H  3.00000 4.98700 31.26900
H  2.09000 4.82400 32.76500
H  -1.00400 7.79300 31.98000
H  -0.34400 9.33900 32.00300
H  -0.99000 7.96000 34.24000
H  -0.11700 9.44100 34.18400
H  1.67800 1.44700 27.83600
H  -0.05400 1.50300 27.35700
H  0.60100 2.27100 28.78700
H  1.86000 1.14000 25.52900
H  1.45700 0.74800 23.80600
H  0.15800 0.94100 24.89300
H  -0.36100 7.55400 22.36400
H  1.38200 9.91500 22.47100
H  2.47400 7.93500 21.39100
H  1.15400 6.83800 20.80000
H  2.18700 6.31000 22.05200
H  -1.02000 9.40600 21.30400
H  -0.58100 10.94000 22.03200
H  -2.28600 10.82000 23.38600
H  -1.75400 9.20100 24.00900
H  -2.58700 9.38300 22.43100
H  2.27600 13.92700 27.03700
H  0.54300 14.11300 26.50700
H  1.76700 13.28800 25.44800
H  0.75100 11.38100 31.36300
H  4.31300 11.37200 33.62100
H  3.15500 10.63800 34.79000
H  3.27400 12.38600 34.59600
Mg 40.50500 9.53800 29.08000
C  42.03400 10.32600 31.99600
C  37.80000 8.28100 30.82000
C  39.26100 8.72400 26.09300
C  43.52700 10.54200 27.36100
N  39.96100 9.31600 31.14200
C  40.77900 9.75300 32.10200
C  40.10700 9.61400 33.47500
C  38.88600 8.71500 33.19000
C  38.80600 8.79000 31.61900
C  38.94500 7.26600 33.75000
C  39.87800 10.88200 34.31400
C  40.53900 10.70400 35.72800
H  40.97900 11.87300 36.62400
N  38.80200 8.65400 28.53700
C  37.79100 8.18200 29.39100
C  36.69100 7.62800 28.54700
C  37.21200 7.65500 27.21900
C  38.50600 8.43700 27.23700
C  35.34400 7.07300 29.11600
C  36.45400 7.25100 25.87100
O  36.88500 7.38400 24.72700
C  34.88800 6.90100 26.03900
N  41.19500 9.79500 26.93500
C  40.46800 9.34400 25.93600
C  41.26300 9.34100 24.61000
C  42.54400 10.13500 25.03300
C  42.40900 10.19000 26.58200
C  41.58100 7.84200 24.21100
C  42.63300 11.55900 24.40500
C  41.78200 12.77200 24.99100
N  42.42300 10.27700 29.46800
C  43.45700 10.67800 28.74100
C  44.43200 11.30200 29.63700
C  43.95800 11.15000 30.90600
C  42.71100 10.44200 30.78700
C  45.74200 11.92400 29.05900
C  44.12800 11.39300 32.35300
O  44.99000 11.97200 32.95700
C  42.96800 10.83000 33.08500
C  43.56000 9.74500 33.93600
O  43.83800 8.61600 33.47800
O  43.89900 10.09800 35.21000
C  44.79600 9.22600 36.00300
H  36.91100 7.93800 31.35300
H  38.94200 8.43500 25.08900
H  44.50700 10.65600 26.89300
H  40.85800 8.96700 33.93000
H  37.97400 9.11400 33.63300
H  38.05200 7.16600 34.36800
H  39.78400 6.99300 34.39000
H  38.92900 6.58100 32.90200
H  38.80600 11.06300 34.39700
H  40.25000 11.73600 33.74700
H  41.43400 10.11600 35.52400
H  39.83800 10.08800 36.29100
H  35.17200 7.40700 30.13900
H  35.40400 5.98900 29.21700
H  34.58800 7.44300 28.42300
H  34.80200 6.03600 26.69800
H  34.36300 6.66500 25.11400
H  34.43000 7.84000 26.34900
H  40.57400 9.78600 23.89300
H  43.45700 9.55700 24.89000
H  41.32200 7.17400 25.03200
H  42.63000 7.63200 24.00300
H  41.04200 7.51600 23.32100
H  42.42200 11.57900 23.33600
H  43.62300 11.95400 24.63300
H  41.31500 12.40100 25.90400
H  40.94500 13.11800 24.38500
H  42.44300 13.57900 25.30600
H  46.48000 11.14900 29.26300
H  46.15700 12.82500 29.51000
H  45.57900 12.17500 28.01100
H  42.46700 11.55400 33.72800
H  44.22600 8.46300 36.53300
H  45.25100 9.94800 36.68100
H  45.45100 8.63400 35.36400

