158

Mg 41.06100 9.48700 29.75700
C  42.63300 10.32400 32.83000
C  38.57100 7.94200 31.59800
C  39.65600 8.70600 26.92400
C  43.88600 10.66600 27.95900
N  40.75900 9.14300 31.93700
C  41.42600 9.65200 32.96600
C  40.79600 9.20800 34.28100
C  39.58500 8.41300 33.91400
C  39.67200 8.47200 32.34300
C  39.45100 7.03800 34.56600
C  40.49000 10.39000 35.26800
C  40.80800 10.14600 36.77400
H  41.16800 11.39100 37.67400
N  39.39600 8.46600 29.30400
C  38.46400 7.89700 30.16100
C  37.30800 7.49700 29.44500
C  37.51400 7.80700 28.08000
C  38.93300 8.34800 28.07900
C  36.08200 6.78200 30.06900
C  36.69000 7.46900 26.89900
O  37.00300 7.70600 25.72600
C  35.26000 6.83300 27.01500
N  41.78000 9.49600 27.74500
C  40.90000 9.17700 26.80900
C  41.37700 9.47200 25.43500
C  42.79900 10.11800 25.73600
C  42.86400 10.13000 27.21400
C  41.26400 8.28800 24.45400
C  43.11800 11.45300 25.05700
C  41.98400 12.49600 25.40700
N  42.91800 10.30300 30.25800
C  43.95000 10.70700 29.41800
C  45.00300 11.30700 30.26500
C  44.48100 11.23600 31.60500
C  43.23100 10.60100 31.55800
C  46.27100 11.92400 29.76200
C  44.74300 11.51900 33.01000
O  45.61900 12.19900 33.46400
C  43.57400 10.90200 33.84400
C  44.18400 10.02300 34.87600
O  44.68400 8.93200 34.63900
O  44.14500 10.63300 36.11100
C  44.66800 9.74000 37.15200
H  37.69900 7.54400 32.12000
H  39.08300 8.53200 26.01000
H  44.72800 11.15000 27.45900
H  41.61000 8.63000 34.71900
H  38.65900 8.90800 34.20800
H  38.45700 7.04300 35.01300
H  40.30300 6.95600 35.24100
H  39.47300 6.30600 33.75900
H  39.45100 10.70700 35.17700
H  41.07200 11.25700 34.95500
H  41.63100 9.44700 36.92400
H  40.05000 9.72000 37.43100
H  35.20700 7.43100 30.06900
H  36.30800 6.60600 31.12100
H  35.80200 5.81000 29.66200
H  35.36900 5.86400 27.50400
H  35.01900 6.71600 25.95900
H  34.44200 7.37000 27.49300
H  40.69700 10.25100 25.09200
H  43.60200 9.45100 25.42300
H  40.82600 7.35500 24.80700
H  42.22100 8.02800 24.00000
H  40.64700 8.66300 23.63700
H  43.12000 11.21900 23.99200
H  44.10400 11.80500 25.36000
H  41.21000 12.49300 24.63900
H  42.45500 13.47100 25.52500
H  41.53500 12.33900 26.38700
H  46.79400 12.27300 30.65200
H  46.04600 12.69800 29.02800
H  46.79800 11.15300 29.20100
H  42.96500 11.66900 34.32400
H  45.74100 9.73000 36.95800
H  44.16300 8.77400 37.14300
H  44.36500 10.18300 38.10100
Mg -11.39700 37.08800 42.19900
C  -9.05800 34.51000 41.27200
C  -9.60100 39.26600 40.24900
C  -14.11900 39.16700 41.89300
C  -13.48100 34.59800 43.29400
N  -9.57500 36.90300 40.94400
C  -8.82200 35.77400 40.64400
C  -7.68000 36.08500 39.66300
C  -7.69300 37.69800 39.53700
C  -8.98200 38.01500 40.35600
C  -6.40900 38.41500 39.96600
C  -7.73900 35.21800 38.31800
C  -6.41900 34.44300 37.93800
H  -5.50600 35.30800 37.01800
N  -11.71400 39.05200 41.45400
C  -10.80700 39.76900 40.80500
C  -11.30800 41.08400 40.70100
C  -12.62200 41.14900 41.21400
C  -12.87800 39.78700 41.54900
C  -10.59200 42.25500 40.16500
C  -13.53000 42.33700 41.34400
O  -13.28900 43.44400 41.01600
C  -14.82200 42.26500 42.13800
N  -13.50300 36.92800 42.38300
C  -14.46800 37.89700 42.21000
C  -15.88500 37.41500 42.46500
C  -15.60900 35.92000 42.87800
C  -14.09900 35.79500 42.98400
C  -16.77300 38.21400 43.45600
C  -16.31000 34.86500 41.98900
C  -16.04600 35.02200 40.46600
N  -11.24400 35.04400 42.61100
C  -12.16900 34.14400 43.12400
C  -11.47700 32.93400 43.35400
C  -10.25800 32.93400 42.58500
C  -10.15900 34.31900 42.19800
C  -11.92200 31.86000 44.28800
C  -9.05700 32.25300 42.14300
O  -8.65800 31.12300 42.28500
C  -8.16100 33.28700 41.37800
C  -6.82600 33.44100 42.02400
O  -5.92100 32.55500 41.91800
O  -6.76600 34.65300 42.70300
C  -5.46700 35.00900 43.26600
H  -9.02800 40.01500 39.69900
H  -15.01300 39.79300 41.87100
H  -14.12500 33.83600 43.73800
H  -6.80300 35.84500 40.26300
H  -7.96100 38.05900 38.54400
H  -5.69700 37.75800 40.46500
H  -6.51800 39.19200 40.72300
H  -6.00600 38.82700 39.04100
H  -8.00400 35.94800 37.55300
H  -8.58000 34.52500 38.29900
H  -6.63100 33.46300 37.51200
H  -5.84900 34.27100 38.85100
H  -9.51200 42.11200 40.12600
H  -10.69500 43.10900 40.83400
H  -10.97000 42.55000 39.18600
H  -15.35000 43.20500 42.30000
H  -14.65900 41.67400 43.03900
H  -15.52900 41.70400 41.52700
H  -16.46100 37.36500 41.54000
H  -15.92100 35.90800 43.92300
H  -17.29700 37.56400 44.15700
H  -17.48500 38.72300 42.80600
H  -16.21900 38.93300 44.05900
H  -17.38500 34.90400 42.16500
H  -15.91200 33.91400 42.34300
H  -17.02400 35.17500 40.01000
H  -15.60800 34.16900 39.94800
H  -15.48900 35.90800 40.16000
H  -11.08000 31.51400 44.88800
H  -12.38200 31.04900 43.72300
H  -12.47700 32.37600 45.07100
H  -7.79700 33.07100 40.37400
H  -5.58100 36.05900 43.53700
H  -4.72600 35.00900 42.46700
H  -5.17200 34.24200 43.98200

