158

Mg 24.54800 1.53800 29.14500
C  26.48000 1.27500 32.10200
C  21.78900 1.55200 31.14600
C  22.68500 1.52400 26.34400
C  27.49200 1.12700 27.37500
N  24.22800 1.47000 31.36500
C  25.18100 1.48100 32.39800
C  24.50400 1.56900 33.81500
C  22.99500 1.67700 33.42900
C  22.99600 1.50100 31.85500
C  22.07400 0.51200 34.12300
C  24.93000 2.77800 34.69800
C  24.35500 2.70800 36.18400
H  25.46000 2.73600 37.34900
N  22.50600 1.51600 28.77200
C  21.51600 1.52100 29.71800
C  20.23400 1.58100 29.08300
C  20.49500 1.44300 27.62300
C  21.93800 1.44900 27.48000
C  18.87500 1.76600 29.79900
C  19.52900 1.48600 26.46300
O  19.96200 1.39200 25.33800
C  18.05400 1.65400 26.62700
N  25.00400 1.27300 27.19800
C  24.08900 1.47700 26.20800
C  24.79900 1.57900 24.85900
C  26.26500 1.31700 25.15000
C  26.23900 1.21000 26.61200
C  24.18000 0.85700 23.67100
C  27.20500 2.47100 24.76000
C  26.97100 3.83300 25.45800
N  26.54900 1.19200 29.59500
C  27.65200 0.99300 28.81500
C  28.81600 0.71700 29.53500
C  28.42600 0.86100 30.88000
C  27.04400 1.09900 30.85100
C  30.18500 0.36200 29.00300
C  28.83700 0.89000 32.23200
O  29.95300 0.69500 32.69000
C  27.65700 1.27200 33.11400
C  27.58100 0.19200 34.10800
O  27.03400 -0.87400 33.90500
O  28.39200 0.38600 35.18300
C  28.53200 -0.48800 36.28700
H  20.89900 1.66100 31.77000
H  22.16300 1.49700 25.38500
H  28.30400 1.07200 26.64700
H  24.64000 0.66300 34.40500
H  22.62600 2.65600 33.73600
H  21.17900 0.79300 34.68000
H  22.68700 -0.12600 34.76000
H  21.72100 -0.12700 33.31400
H  24.63900 3.77400 34.36200
H  26.01500 2.77000 34.80600
H  23.83300 1.76900 36.36500
H  23.60400 3.48900 36.29800
H  18.98600 1.33100 30.79200
H  17.99200 1.35800 29.30600
H  18.77200 2.83300 29.99500
H  18.09000 2.67600 27.00400
H  17.43900 0.98600 27.23000
H  17.57900 1.80200 25.65700
H  24.68900 2.64600 24.66100
H  26.54000 0.37700 24.67200
H  24.89900 0.63500 22.88200
H  23.29600 1.37500 23.29900
H  23.79100 -0.06400 24.10400
H  27.10400 2.63200 23.68700
H  28.26500 2.24400 24.87200
H  26.21800 3.73600 26.24000
H  26.58400 4.58700 24.77200
H  27.74400 4.34300 26.03300
H  30.30700 -0.63400 29.42900
H  30.95100 0.97000 29.48500
H  30.31400 0.36700 27.92100
H  27.87700 2.24100 33.56000
H  27.87600 -0.20600 37.11100
H  29.53000 -0.28200 36.67400
H  28.52100 -1.55800 36.08100
Mg 53.63000 25.99300 44.60600
C  50.95000 28.14800 44.41400
C  51.43800 23.41500 43.75600
C  56.27200 23.92000 44.21900
C  55.62500 28.69200 45.10000
N  51.40200 25.82300 44.15400
C  50.53100 26.81500 44.12300
C  49.12800 26.39200 43.55500
C  49.27400 24.84100 43.88000
C  50.81800 24.63300 43.85000
C  48.54300 24.26800 45.08300
C  48.86700 26.69400 42.04600
C  50.08500 26.97200 41.07500
H  50.36900 26.01700 39.92200
N  53.81400 23.89900 44.12800
C  52.82100 22.98800 43.89400
C  53.40200 21.68200 43.55100
C  54.86100 21.81800 43.75400
C  55.01800 23.25900 44.06200
C  52.58700 20.52000 43.21000
C  55.93200 20.62900 43.72800
O  55.57500 19.48100 43.43400
C  57.38800 20.87300 44.12000
N  55.70400 26.32500 44.50300
C  56.58000 25.27100 44.39500
C  58.00300 25.78600 44.34600
C  57.83300 27.28900 44.72000
C  56.28600 27.49500 44.79000
C  59.12400 25.06600 45.24100
C  58.58000 28.52200 43.95700
C  59.26100 29.60500 44.82300
N  53.36600 27.97200 44.91400
C  54.26700 28.95300 45.22200
C  53.61300 30.22900 45.40000
C  52.27200 29.92600 45.15000
C  52.22100 28.55900 44.84700
C  54.27700 31.52100 45.68100
C  50.99700 30.50000 45.04600
O  50.60400 31.61700 45.30500
C  50.04800 29.34600 44.55900
C  49.58500 29.93000 43.24000
O  50.16400 29.96200 42.18800
O  48.16700 30.17400 43.41400
C  47.39200 30.50500 42.13600
H  50.72400 22.61000 43.57400
H  57.24400 23.42700 44.14800
H  56.33300 29.52400 45.09400
H  48.31800 26.80800 44.15300
H  48.91300 24.23100 43.05300
H  48.17800 24.99000 45.81300
H  49.24100 23.62700 45.62100
H  47.78200 23.49700 44.96200
H  48.17000 27.52700 41.94800
H  48.33500 25.92200 41.49100
H  51.00100 27.13900 41.64100
H  49.91300 27.92300 40.57000
H  52.88700 19.65000 43.79500
H  52.61400 20.29000 42.14500
H  51.59700 20.80600 43.56300
H  57.82400 21.47300 43.32100
H  57.89500 19.91100 44.20000
H  57.23600 21.18100 45.15400
H  58.37700 25.66900 43.32900
H  58.20300 27.48300 45.72700
H  58.65600 24.33200 45.89700
H  59.69800 25.77000 45.84200
H  59.89700 24.54000 44.68000
H  57.83300 28.94300 43.28500
H  59.37200 27.96800 43.45400
H  59.54500 29.09600 45.74400
H  58.51000 30.39100 44.90300
H  60.25800 29.91400 44.50900
H  53.92500 32.45800 45.24900
H  55.34300 31.65400 45.49300
H  54.21300 31.59500 46.76600
H  49.17600 29.31500 45.21200
H  46.69200 31.25800 42.50000
H  46.85400 29.60400 41.84000
H  47.99600 30.87600 41.30800

