158

Mg 30.70800 57.94300 39.47000
C  28.05000 56.02900 38.45000
C  32.81200 55.24900 38.52600
C  33.34000 59.82100 40.01400
C  28.42400 60.61300 39.73600
N  30.44400 55.97100 38.36300
C  29.22600 55.34300 38.18300
C  29.36700 53.85400 37.77400
C  30.88000 53.61300 38.11100
C  31.42000 55.07200 38.34700
C  31.16200 52.70100 39.35000
C  28.98200 53.49800 36.32000
C  29.35700 54.51900 35.17400
H  28.21700 55.08300 34.34300
N  32.73900 57.61400 39.37200
C  33.42800 56.45100 38.90600
C  34.80900 56.69400 39.04200
C  35.00900 57.94300 39.64800
C  33.66600 58.52200 39.75700
C  35.73100 55.54400 38.82300
C  36.37900 58.49900 40.07100
O  37.41300 57.86600 39.88800
C  36.56100 59.85300 40.73800
N  30.79300 59.97800 39.89500
C  32.05700 60.52400 40.05000
C  31.94000 62.12000 40.11300
C  30.38100 62.26900 40.14500
C  29.79300 60.87900 39.85600
C  32.75300 62.81800 41.32400
C  29.89100 63.31500 39.10200
C  29.91000 62.84100 37.55900
N  28.61400 58.27500 39.31200
C  27.83700 59.38400 39.55300
C  26.47600 58.99700 39.47200
C  26.46100 57.69500 39.05000
C  27.83700 57.30600 38.93400
C  25.27100 59.77700 39.80100
C  25.62700 56.57200 38.63900
O  24.43800 56.49300 38.55400
C  26.64200 55.41100 38.20200
C  26.19700 54.29500 39.16000
O  26.82600 53.92700 40.13200
O  25.00100 53.81000 38.66900
C  24.37000 52.82800 39.51800
H  33.38600 54.32300 38.45700
H  34.11500 60.58200 40.12100
H  27.73300 61.45800 39.72900
H  28.65800 53.35400 38.43400
H  31.40600 53.14000 37.28200
H  30.22000 52.32600 39.75100
H  31.77400 53.18700 40.11000
H  31.69000 51.77800 39.10900
H  27.91500 53.28100 36.26700
H  29.53500 52.58200 36.11300
H  30.04000 53.98200 34.51500
H  30.00200 55.25600 35.65100
H  36.78300 55.79500 38.96000
H  35.62900 55.15100 37.81100
H  35.48600 54.84200 39.62000
H  35.74000 60.04400 41.42900
H  36.52300 60.62000 39.96500
H  37.55300 59.75100 41.17900
H  32.29400 62.60000 39.20000
H  30.04600 62.43200 41.16900
H  33.50000 62.19300 41.81300
H  32.06000 63.03700 42.13700
H  33.20700 63.72900 40.93600
H  30.48000 64.23200 39.12100
H  28.89400 63.50500 39.49900
H  30.12200 63.72400 36.95500
H  28.91700 62.41100 37.43400
H  30.69400 62.12000 37.32700
H  25.16200 60.68800 39.21300
H  25.19900 59.95900 40.87400
H  24.46200 59.11000 39.50500
H  26.47900 55.08400 37.17500
H  24.01200 52.05000 38.84400
H  23.62300 53.37200 40.09600
H  25.01200 52.34600 40.25500
Mg 9.54600 48.52000 25.37900
C  7.65100 48.69200 28.45600
C  12.13300 49.64900 27.12100
C  11.45700 48.19000 22.52800
C  6.62700 48.13700 23.61700
N  9.86800 48.95700 27.60400
C  8.97100 48.94000 28.66900
C  9.70000 49.33100 29.99200
C  10.99700 50.04300 29.47100
C  11.01900 49.59800 27.97400
C  11.03800 51.57400 29.50400
C  10.07700 48.04600 30.75600
C  9.99300 48.13400 32.30000
H  9.92600 46.78900 33.02400
N  11.54800 48.79300 24.88500
C  12.49900 49.13400 25.78400
C  13.83700 49.17500 25.17700
C  13.63400 48.65700 23.83900
C  12.15300 48.60300 23.68100
C  15.17700 49.41400 25.96200
C  14.65200 48.25200 22.79400
O  14.41300 47.83000 21.68500
C  16.05000 48.42500 23.04900
N  9.12700 48.54700 23.34300
C  10.04400 48.18700 22.38400
C  9.37100 47.83000 21.04400
C  7.84200 47.63700 21.44500
C  7.86200 48.22400 22.92000
C  9.73900 48.68400 19.84400
C  7.25400 46.23900 21.35500
C  7.51100 45.24600 22.49000
N  7.50900 48.48100 25.90600
C  6.46300 48.31700 25.02600
C  5.19400 48.24500 25.85200
C  5.66000 48.35800 27.18900
C  7.05100 48.47700 27.14800
C  3.86200 47.95200 25.30700
C  5.17300 48.35400 28.51700
O  4.04000 48.30100 28.91800
C  6.47800 48.59200 29.44900
C  6.70600 47.34300 30.24100
O  7.06100 46.25800 29.80400
O  6.39700 47.64000 31.57400
C  6.67700 46.64200 32.57900
H  12.95800 50.09000 27.68400
H  12.13500 47.89700 21.72400
H  5.74700 47.82100 23.05300
H  9.17600 50.04200 30.63000
H  11.96100 49.74800 29.88500
H  10.62200 52.02000 28.60000
H  12.01300 52.03000 29.68000
H  10.34800 51.95800 30.25500
H  11.13400 47.86600 30.55700
H  9.47400 47.20400 30.41700
H  9.15100 48.75700 32.60100
H  10.83900 48.68600 32.71000
H  15.04300 49.67700 27.01200
H  15.78900 50.18300 25.49100
H  15.78300 48.50900 25.98800
H  16.36900 49.45600 23.20000
H  16.64100 47.99100 22.24200
H  16.21200 47.87600 23.97600
H  9.82100 46.83800 21.02000
H  7.06600 48.18600 20.91100
H  10.48400 49.40500 20.18200
H  8.94700 49.31200 19.43800
H  10.09100 48.06200 19.02200
H  7.65000 45.81800 20.43100
H  6.18800 46.25300 21.12600
H  8.05900 45.56800 23.37600
H  7.94600 44.30200 22.15900
H  6.49000 45.02700 22.80100
H  3.58100 48.57600 24.45800
H  3.09200 48.13200 26.05800
H  3.84800 46.90200 25.01500
H  6.46200 49.46000 30.10800
H  7.15300 47.15900 33.41200
H  7.21100 45.76000 32.22400
H  5.68000 46.34700 32.90500

