158

Mg -3.33400 16.94900 26.52800
C  -3.57700 14.83900 29.32000
C  -3.85200 19.66200 28.63300
C  -3.03000 18.94400 23.92000
C  -3.52400 14.22800 24.52200
N  -3.79000 17.17300 28.72300
C  -3.67300 16.18700 29.73800
C  -3.73700 16.73400 31.10200
C  -3.96300 18.27500 30.90100
C  -3.90900 18.43600 29.32400
C  -5.26100 18.87700 31.49300
C  -2.57500 16.35900 32.16200
C  -2.35900 17.18900 33.39800
H  -1.73100 16.54500 34.59400
N  -3.42000 18.96400 26.31100
C  -3.50200 19.90300 27.31700
C  -3.41400 21.21800 26.72300
C  -2.96900 21.04800 25.39200
C  -3.16200 19.60700 25.13400
C  -3.63000 22.48700 27.54200
C  -2.40400 22.04200 24.43400
O  -2.09700 21.77800 23.26900
C  -2.02000 23.28700 24.84700
N  -3.32900 16.61300 24.54100
C  -3.06300 17.62800 23.65200
C  -3.13000 17.04500 22.22700
C  -2.98000 15.55100 22.41500
C  -3.28100 15.40200 23.89000
C  -4.36400 17.42800 21.39300
C  -1.63800 14.88300 22.00500
C  -0.45900 15.40600 22.92100
N  -3.60300 14.90300 26.75600
C  -3.55300 13.89500 25.89000
C  -3.75100 12.61100 26.55200
C  -3.68300 12.96900 27.86300
C  -3.61800 14.33500 27.98900
C  -3.89500 11.25400 25.87100
C  -3.74100 12.32400 29.11400
O  -3.77900 11.16100 29.38100
C  -3.65200 13.56500 30.17600
C  -2.42000 13.26900 30.97200
O  -1.26600 13.43100 30.64600
O  -2.87300 12.86700 32.21200
C  -1.68900 12.54600 33.03300
H  -3.91300 20.50700 29.32200
H  -2.92200 19.56000 23.02500
H  -3.45200 13.31900 23.92000
H  -4.64200 16.41800 31.62000
H  -3.13300 18.85800 31.30100
H  -5.52600 18.28400 32.36800
H  -6.10000 19.01300 30.81000
H  -5.00700 19.86400 31.88100
H  -1.65900 16.17400 31.60000
H  -2.96500 15.38000 32.43900
H  -3.25300 17.74500 33.68100
H  -1.66900 17.94000 33.01400
H  -4.38300 22.33400 28.31500
H  -3.96600 23.33900 26.95100
H  -2.71200 22.77100 28.05800
H  -1.64600 23.21800 25.86900
H  -2.91200 23.91100 24.89900
H  -1.26100 23.79600 24.25300
H  -2.25200 17.38200 21.67500
H  -3.85000 15.13700 21.90500
H  -4.62700 18.43300 21.72500
H  -5.24100 16.78800 21.49500
H  -4.13100 17.32500 20.33400
H  -1.29300 15.20100 21.02100
H  -1.78200 13.80500 22.09000
H  -0.05500 14.50200 23.37700
H  -0.80200 16.09700 23.69100
H  0.37100 15.81800 22.34600
H  -3.64900 10.47100 26.58800
H  -3.20300 11.27100 25.02900
H  -4.88100 10.93200 25.53700
H  -4.55600 13.55700 30.78400
H  -1.95300 12.80200 34.05800
H  -0.73900 13.04900 32.85200
H  -1.57800 11.46200 33.01300
Mg -12.46600 16.49300 42.30200
C  -9.70000 14.51400 41.62800
C  -10.96300 18.98500 40.55100
C  -15.27400 18.00300 42.38000
C  -14.04400 13.49000 43.68700
N  -10.61300 16.64200 40.91800
C  -9.56700 15.69700 40.94600
C  -8.31200 16.31400 40.24500
C  -8.76000 17.80400 39.98900
C  -10.20900 17.82300 40.50700
C  -7.76200 18.78300 40.73200
C  -7.93400 15.66100 38.89300
C  -6.44200 15.48500 38.52700
H  -5.87000 16.34900 37.42700
N  -12.99600 18.29700 41.65200
C  -12.26300 19.23400 41.07000
C  -13.00800 20.44400 40.92300
C  -14.30400 20.22400 41.39000
C  -14.25200 18.80400 41.85600
C  -12.35900 21.69000 40.24900
C  -15.39700 21.19400 41.43800
O  -15.20700 22.32100 40.94300
C  -16.74000 20.93900 41.99100
N  -14.44800 15.80800 42.93800
C  -15.41200 16.72100 42.82100
C  -16.78300 16.04700 43.12000
C  -16.42400 14.53600 43.45100
C  -14.85500 14.61200 43.43300
C  -17.44200 16.90900 44.28900
C  -17.04600 13.58600 42.41800
C  -17.63400 12.16800 42.87000
N  -12.03100 14.46800 42.75300
C  -12.68500 13.39200 43.33400
C  -11.78800 12.29100 43.53000
C  -10.54800 12.72800 42.99400
C  -10.77200 14.03800 42.40500
C  -12.04800 11.00200 44.30000
C  -9.18200 12.31600 42.74500
O  -8.66800 11.28500 43.14900
C  -8.55200 13.44800 41.88200
C  -7.50700 14.03000 42.78300
O  -7.71500 14.62600 43.80300
O  -6.23200 13.80000 42.33500
C  -5.18700 14.48000 43.12400
H  -10.42200 19.87900 40.23300
H  -16.19500 18.56900 42.22200
H  -14.40500 12.53100 44.06400
H  -7.46300 16.17300 40.91400
H  -8.76000 18.10400 38.94100
H  -8.14300 19.27300 41.62800
H  -7.45500 19.53600 40.00700
H  -6.93500 18.24600 41.19600
H  -8.40200 16.12900 38.02700
H  -8.50600 14.73800 38.79900
H  -6.19300 14.45200 38.28100
H  -5.78700 15.83400 39.32400
H  -12.77200 22.60800 40.66800
H  -12.50300 21.62000 39.17100
H  -11.29700 21.70100 40.49300
H  -16.62000 20.50000 42.98200
H  -17.34100 20.35300 41.29600
H  -17.22100 21.90600 42.13500
H  -17.50700 16.00800 42.30600
H  -16.83600 14.38300 44.44900
H  -16.81300 17.72500 44.64400
H  -17.59800 16.15800 45.06400
H  -18.46800 17.23000 44.10800
H  -16.31500 13.42800 41.62600
H  -17.99200 14.03700 42.11900
H  -17.20100 11.89400 43.83200
H  -17.27500 11.39100 42.19500
H  -18.72200 12.22200 42.82800
H  -11.33300 10.80200 45.09800
H  -11.98700 10.19200 43.57300
H  -13.04800 10.97000 44.73100
H  -8.00800 12.98300 41.06100
H  -4.23400 14.01700 42.86900
H  -5.32000 14.34600 44.19700
H  -5.23800 15.52800 42.82800

