158

Mg -10.29100 39.28400 41.63900
C  -8.89500 36.12400 40.93600
C  -7.80500 40.70400 39.86700
C  -12.23500 42.03100 41.32200
C  -13.23300 37.50900 42.57400
N  -8.54900 38.48700 40.56800
C  -8.13800 37.15500 40.40700
C  -6.83500 37.08100 39.63000
C  -6.51500 38.53600 39.29000
C  -7.70300 39.32100 39.93700
C  -5.14200 39.00300 39.82800
C  -6.92000 36.03100 38.38400
C  -5.64500 35.34200 38.07900
H  -4.65800 36.19500 37.18900
N  -9.92100 41.16100 40.96500
C  -8.80600 41.58700 40.32400
C  -8.83300 42.97300 40.08300
C  -10.16200 43.42400 40.53000
C  -10.88900 42.18600 40.92000
C  -7.74100 43.74100 39.36800
C  -10.64600 44.86000 40.63800
O  -10.07000 45.76000 40.16300
C  -11.98400 45.23800 41.40900
N  -12.48300 39.72000 41.82500
C  -12.93300 40.98800 41.76900
C  -14.47800 41.00800 42.20200
C  -14.70900 39.50500 42.51600
C  -13.38600 38.88700 42.34300
C  -14.91600 42.08400 43.25600
C  -15.82900 38.89500 41.64300
C  -15.42800 38.27400 40.34200
N  -10.99800 37.21600 41.82100
C  -12.10300 36.72500 42.37000
C  -11.96500 35.29800 42.56400
C  -10.72700 34.96300 41.97600
C  -10.14800 36.20900 41.58600
C  -12.90700 34.39000 43.33000
C  -9.71900 33.93700 41.86400
O  -9.64400 32.75300 42.15200
C  -8.55900 34.62600 41.05300
C  -7.16700 34.42700 41.76200
O  -6.29900 33.61100 41.46400
O  -7.01200 35.37400 42.77100
C  -5.95200 35.10100 43.76500
H  -7.13000 41.13300 39.12300
H  -12.94400 42.85700 41.24300
H  -14.07500 37.04100 43.08700
H  -6.17000 36.72500 40.41700
H  -6.52900 38.65400 38.20700
H  -5.26300 39.85100 40.50200
H  -4.69300 39.53800 38.99200
H  -4.52200 38.22800 40.28000
H  -7.12900 36.61000 37.48400
H  -7.74600 35.32300 38.31800
H  -5.89500 34.39900 37.59100
H  -5.08100 35.03600 38.96000
H  -7.27200 43.12800 38.59800
H  -7.02700 44.09600 40.11100
H  -8.17700 44.59200 38.84500
H  -12.10200 44.62900 42.30400
H  -12.86000 45.06700 40.78400
H  -12.07000 46.31600 41.54900
H  -14.95700 41.30900 41.27000
H  -14.90200 39.27900 43.56400
H  -15.47200 42.89600 42.78600
H  -14.04400 42.37000 43.84500
H  -15.63000 41.71100 43.99100
H  -16.56400 39.67100 41.42900
H  -16.33200 38.13600 42.24300
H  -16.08400 38.77000 39.62700
H  -15.64400 37.20700 40.40200
H  -14.37800 38.41600 40.08600
H  -12.66000 34.31100 44.38900
H  -12.74400 33.40200 42.89900
H  -13.94300 34.72000 43.25900
H  -8.38500 34.09000 40.12000
H  -4.96000 34.93800 43.34400
H  -6.38600 34.30200 44.36700
H  -5.84700 36.03200 44.32300
Mg 1.81200 42.42100 25.48600
C  3.25000 42.63200 28.69100
C  -1.16600 41.22200 26.96200
C  0.57600 41.66900 22.50500
C  4.99300 43.05500 24.17900
N  1.13100 42.01000 27.56200
C  1.87300 42.18300 28.71400
C  1.03500 41.80300 29.88800
C  -0.25700 41.14100 29.30600
C  -0.06800 41.45700 27.80000
C  -0.42100 39.61900 29.64400
C  0.82300 43.18100 30.68400
C  0.69100 43.12100 32.23500
H  0.26300 41.71800 32.68500
N  -0.06200 41.75400 24.79200
C  -1.19400 41.33600 25.56000
C  -2.32600 41.07400 24.65000
C  -1.90800 41.22900 23.31000
C  -0.41900 41.54500 23.45200
C  -3.86600 40.81900 25.17300
C  -2.58800 41.08800 21.95200
O  -2.05800 41.43000 20.87100
C  -3.94900 40.54500 21.93600
N  2.65100 42.35000 23.68000
C  1.99400 41.93500 22.59700
C  2.88500 42.01200 21.36100
C  4.05900 42.88000 21.83300
C  3.94000 42.78900 23.30700
C  3.30300 40.56000 20.94500
C  4.04700 44.35000 21.38500
C  3.29000 45.44700 22.20700
N  3.73800 42.89000 26.28400
C  4.92500 43.17700 25.61700
C  5.95100 43.40000 26.54700
C  5.34100 43.22600 27.77000
C  4.02300 42.93000 27.56100
C  7.42500 43.75900 26.36200
C  5.61600 43.10300 29.18600
O  6.61400 43.38300 29.80700
C  4.24300 42.69100 29.83100
C  4.40100 41.37700 30.52300
O  4.40900 40.28100 30.02100
O  4.66600 41.63700 31.82700
C  5.37800 40.60100 32.55900
H  -2.04400 40.90000 27.52500
H  0.27900 41.41500 21.48500
H  5.98800 43.19400 23.75000
H  1.56000 41.12600 30.56200
H  -1.12900 41.67500 29.68600
H  -1.45900 39.42800 29.91500
H  0.23900 39.38300 30.47900
H  -0.31500 38.98400 28.76400
H  -0.08900 43.60300 30.26100
H  1.60700 43.91500 30.49200
H  -0.11800 43.77200 32.56900
H  1.57500 43.47300 32.76600
H  -3.81400 40.90500 26.25800
H  -4.21700 39.86500 24.78100
H  -4.51800 41.59000 24.76300
H  -4.52200 41.39200 22.31300
H  -3.91800 39.64900 22.55700
H  -4.26000 40.25200 20.93300
H  2.33100 42.46600 20.54000
H  5.04100 42.47700 21.58300
H  2.71000 39.81700 21.47900
H  4.38900 40.46700 20.93200
H  3.00900 40.35100 19.91700
H  3.74300 44.34700 20.33900
H  5.11800 44.53600 21.45200
H  2.59000 45.03200 22.93200
H  2.64600 46.05300 21.57000
H  3.94400 46.11500 22.76700
H  7.91300 43.77400 27.33600
H  7.41500 44.69300 25.80000
H  7.74200 42.96200 25.69000
H  3.91800 43.46100 30.53000
H  5.90000 39.87600 31.93500
H  4.55800 40.08300 33.05600
H  6.04000 41.04600 33.30300

