158

Mg 45.31400 3.35900 48.49700
C  43.06300 5.98700 47.54500
C  42.63500 1.17000 47.67500
C  47.43100 0.83800 48.35100
C  47.89000 5.66200 47.98700
N  43.08500 3.59000 47.76900
C  42.41100 4.75000 47.45900
C  40.97500 4.51000 47.04800
C  40.91100 2.94300 47.15800
C  42.25400 2.50500 47.56300
C  39.64000 2.47100 48.01000
C  40.65500 4.98800 45.61400
C  39.45800 5.89200 45.54500
H  38.78600 5.86900 44.16800
N  45.06000 1.21500 48.21400
C  43.88800 0.60800 47.90800
C  44.10900 -0.82900 47.92400
C  45.52600 -1.02200 48.05000
C  46.09800 0.36100 48.12800
C  42.96600 -1.79800 47.69800
C  46.22400 -2.42400 48.05800
O  45.60700 -3.45500 48.03300
C  47.74900 -2.47300 48.17300
N  47.36900 3.27100 48.16200
C  48.02100 2.08100 48.38900
C  49.51200 2.25500 48.55700
C  49.70700 3.80300 48.36300
C  48.26500 4.27000 48.12100
C  50.20300 1.65800 49.83600
C  50.64700 4.21700 47.24100
C  52.00400 4.93500 47.57900
N  45.47500 5.44600 48.04300
C  46.58600 6.30100 47.86900
C  46.12900 7.65900 47.72300
C  44.73300 7.59900 47.65600
C  44.41300 6.20500 47.79900
C  47.08100 8.87300 47.53700
C  43.50800 8.34000 47.54900
O  43.41800 9.55500 47.51400
C  42.34300 7.35600 47.45700
C  41.43600 7.66400 48.69400
O  41.73200 7.43200 49.87700
O  40.28100 8.34900 48.30700
C  39.42900 8.74200 49.38900
H  41.90200 0.41300 47.38800
H  48.15100 0.03400 48.51700
H  48.79100 6.27800 47.95000
H  40.39500 4.93500 47.86700
H  40.73200 2.59400 46.14100
H  38.86700 3.23600 48.08500
H  40.00700 2.18700 48.99600
H  39.24600 1.55500 47.56800
H  40.43700 4.19700 44.89700
H  41.47100 5.54900 45.15800
H  39.84300 6.91100 45.55400
H  38.76700 5.75500 46.37700
H  43.25900 -2.84800 47.70400
H  42.48100 -1.68500 46.72900
H  42.11300 -1.69100 48.36800
H  48.16200 -1.91800 47.33000
H  48.00200 -3.53200 48.12700
H  48.09900 -2.01100 49.09600
H  49.92800 1.70600 47.71100
H  50.20000 4.21600 49.24300
H  50.85200 0.83900 49.52400
H  49.36100 1.42500 50.48800
H  50.81900 2.40100 50.34100
H  50.05900 4.99400 46.75300
H  50.85400 3.42400 46.52200
H  52.04400 5.90900 47.09200
H  52.87800 4.37600 47.24500
H  52.26900 5.03000 48.63200
H  47.55400 9.13100 48.48400
H  46.57400 9.68000 47.00800
H  47.95400 8.64100 46.92700
H  41.75600 7.50400 46.55000
H  38.90900 9.62400 49.01500
H  39.97300 9.03600 50.28700
H  38.78800 7.91100 49.68500
Mg 9.43400 48.79800 24.65300
C  7.31300 49.46300 27.36500
C  12.04700 50.05900 26.49500
C  11.38500 48.38800 21.96900
C  6.60100 48.09300 22.65300
N  9.58700 49.59000 26.67600
C  8.65300 49.61500 27.70200
C  9.32800 50.07000 29.00500
C  10.57800 50.78800 28.48200
C  10.76100 50.11100 27.15000
C  10.45300 52.31400 28.27400
C  9.56200 48.87600 29.97000
C  8.75500 48.91400 31.26100
H  8.22200 47.54200 31.81300
N  11.52300 48.96300 24.25600
C  12.42500 49.47900 25.20700
C  13.79300 49.41200 24.53400
C  13.60200 48.81200 23.24800
C  12.12300 48.64800 23.14400
C  15.06400 49.66200 25.38700
C  14.57200 48.33800 22.14300
O  14.16000 47.73100 21.21400
C  16.05100 48.54600 22.23400
N  9.11600 48.46900 22.64200
C  10.08600 48.25600 21.68000
C  9.53900 47.92200 20.30600
C  8.03100 47.60200 20.65100
C  7.87400 48.14000 22.03200
C  9.81500 48.87100 19.17900
C  7.55500 46.05900 20.46700
C  8.25300 45.04300 21.34300
N  7.40800 48.95200 24.82400
C  6.38100 48.59700 23.95100
C  5.09900 48.71500 24.65600
C  5.39500 49.05400 25.92200
C  6.83900 49.15800 26.02000
C  3.74100 48.44500 24.12200
C  4.81700 49.25800 27.23600
O  3.66300 49.24300 27.64600
C  6.05700 49.59000 28.19300
C  5.91400 48.55600 29.25100
O  5.89800 47.33100 29.08400
O  5.58700 49.21400 30.43300
C  5.00700 48.39900 31.52200
H  12.86700 50.58100 26.99200
H  12.08500 48.27400 21.13900
H  5.78800 47.66300 22.06600
H  8.70400 50.78500 29.54100
H  11.33500 50.44200 29.18500
H  9.43700 52.54700 27.95600
H  11.12500 52.75200 27.53600
H  10.57100 52.92800 29.16700
H  10.58700 48.77000 30.32600
H  9.28400 47.97800 29.41800
H  7.86000 49.52500 31.14800
H  9.25300 49.49700 32.03600
H  14.85800 49.85500 26.44000
H  15.55000 50.59500 25.10000
H  15.79300 48.85400 25.33900
H  16.30500 48.69700 23.28400
H  16.41500 49.43800 21.72500
H  16.48800 47.60900 21.89000
H  9.96000 46.98400 19.94300
H  7.37900 48.15700 19.97500
H  10.43000 49.68400 19.56300
H  8.88700 49.35500 18.87600
H  10.28800 48.47100 18.28200
H  7.73300 45.81600 19.41900
H  6.48400 45.91700 20.61200
H  8.57900 45.45500 22.29800
H  9.15200 44.61400 20.90100
H  7.61700 44.17300 21.50300
H  3.67700 48.13400 23.07900
H  3.10400 49.32300 24.22800
H  3.17200 47.65200 24.60700
H  5.90800 50.58300 28.61700
H  5.58400 47.47500 31.56900
H  3.95900 48.23500 31.27200
H  5.12400 48.94500 32.45900

