158

Mg 42.00500 40.68500 27.32900
C  41.44000 43.30000 29.75600
C  42.67800 38.54000 30.04800
C  42.64900 38.21800 25.27400
C  41.59900 43.02400 24.90600
N  41.88200 40.87500 29.65400
C  41.61800 42.01100 30.35500
C  41.72300 41.71100 31.80000
C  42.32700 40.24700 31.92000
C  42.29100 39.81800 30.45600
C  43.81200 40.28600 32.56200
C  40.38500 41.92500 32.56200
C  40.29800 42.82500 33.75900
H  39.45800 42.15700 35.00000
N  42.59800 38.68700 27.59200
C  42.84200 38.01500 28.77400
C  43.21100 36.65000 28.44500
C  43.18300 36.50100 27.07200
C  42.78300 37.83700 26.60600
C  43.54300 35.60100 29.52200
C  43.34500 35.22600 26.24700
O  43.22900 35.18300 25.02700
C  43.48400 33.97300 26.91800
N  42.08600 40.65600 25.41100
C  42.39100 39.51900 24.69100
C  42.33500 39.68400 23.22400
C  41.67500 41.12500 23.13300
C  41.85900 41.67600 24.55200
C  43.73100 39.55600 22.62600
C  40.26900 41.27000 22.42900
C  39.03500 40.99200 23.31000
N  41.63400 42.73300 27.27300
C  41.43200 43.57600 26.16600
C  41.13800 44.92500 26.55100
C  41.10400 44.85600 27.97900
C  41.42700 43.49700 28.31000
C  40.78700 45.98500 25.60500
C  40.98000 45.60400 29.23600
O  40.79800 46.78600 29.27900
C  41.04700 44.63700 30.42300
C  42.10200 45.09600 31.35600
O  43.30900 44.98200 31.38100
O  41.31200 45.68800 32.33300
C  41.99700 46.19700 33.45500
H  42.84800 37.86500 30.89000
H  42.75000 37.30500 24.68400
H  41.69900 43.72000 24.07000
H  42.41300 42.45700 32.19500
H  41.70800 39.53800 32.46900
H  43.99700 41.21600 33.10000
H  44.42600 40.37600 31.66600
H  44.05000 39.42900 33.19200
H  39.97800 40.99400 32.95600
H  39.67600 42.17000 31.77100
H  39.78500 43.73800 33.45600
H  41.31700 43.07500 34.05500
H  44.62000 35.44200 29.47000
H  43.03600 34.65000 29.36000
H  43.32300 35.95000 30.53100
H  42.63300 33.74500 27.55900
H  44.45500 33.97100 27.41200
H  43.45700 33.27000 26.08500
H  41.61000 38.97000 22.83100
H  42.38300 41.69900 22.53600
H  44.38600 38.97900 23.27900
H  44.13200 40.51800 22.30600
H  43.53200 39.07700 21.66800
H  40.20700 40.70200 21.50000
H  40.22800 42.31100 22.10900
H  38.32000 40.23800 22.98200
H  38.46400 41.91100 23.44600
H  39.35400 40.78700 24.33200
H  40.52800 45.58500 24.62500
H  41.72600 46.53800 25.60300
H  40.07700 46.66600 26.07300
H  40.08900 44.40900 30.89100
H  41.47000 46.99400 33.97900
H  43.05600 46.38700 33.27900
H  41.85900 45.37300 34.15500
Mg 9.18800 48.29500 25.66000
C  6.95200 49.00000 28.18800
C  11.79900 49.63600 27.41800
C  11.01300 47.71900 22.92500
C  6.20600 47.66300 23.64000
N  9.31600 49.41800 27.56600
C  8.28900 49.40500 28.47100
C  8.83300 49.85500 29.88100
C  10.26500 50.44200 29.51900
C  10.51300 49.73100 28.10500
C  10.51000 51.96800 29.70700
C  8.97900 48.62300 30.82900
C  8.40400 48.84500 32.26900
H  8.33200 47.56200 33.05900
N  11.17000 48.49200 25.25500
C  12.08700 48.96000 26.20600
C  13.42900 48.89100 25.60500
C  13.28100 48.25200 24.26800
C  11.80000 48.14200 24.07300
C  14.70300 49.23000 26.35900
C  14.33200 47.86200 23.33100
O  14.12500 47.49000 22.16700
C  15.74300 47.96300 23.68900
N  8.64600 47.92000 23.46900
C  9.62800 47.66300 22.63500
C  9.03800 47.25300 21.23000
C  7.54700 47.12500 21.47400
C  7.45600 47.62400 22.93200
C  9.46600 48.12700 20.00000
C  6.90700 45.67700 21.26400
C  5.93800 45.55100 20.11900
N  6.99700 48.23900 25.85600
C  5.97900 47.94000 25.03400
C  4.71900 47.89800 25.74200
C  5.05800 48.32800 27.03800
C  6.45600 48.51100 26.99200
C  3.30900 47.71400 25.16100
C  4.49800 48.60500 28.29300
O  3.34700 48.53600 28.71500
C  5.68700 48.98800 29.20600
C  5.77700 47.87300 30.14200
O  6.39200 46.87000 29.83200
O  5.13100 48.22200 31.25400
C  4.73400 47.07000 32.13200
H  12.64000 49.98700 28.01800
H  11.69500 47.42900 22.12300
H  5.30800 47.41500 23.07000
H  8.25200 50.57900 30.45200
H  11.03800 50.14200 30.22700
H  9.68800 52.40300 30.27500
H  10.56600 52.38000 28.69900
H  11.43100 52.23300 30.22600
H  10.02200 48.36700 31.01700
H  8.50300 47.75400 30.37500
H  7.39800 49.25400 32.17400
H  8.93900 49.68800 32.70600
H  15.32700 48.34200 26.46000
H  14.57500 49.58200 27.38300
H  15.28300 49.97100 25.80800
H  16.02300 48.93100 24.10300
H  16.41300 47.68800 22.87500
H  15.79700 47.23700 24.50100
H  9.41800 46.26300 20.97600
H  7.01700 47.87700 20.88900
H  8.71400 48.45400 19.28200
H  10.06200 47.45100 19.38600
H  10.11600 48.96500 20.25300
H  6.22400 45.48500 22.09100
H  7.62500 44.86100 21.18500
H  5.12800 44.93500 20.50900
H  6.43000 44.94900 19.35500
H  5.59300 46.50300 19.71600
H  2.78500 46.88500 25.63500
H  3.36900 47.51800 24.09000
H  2.82200 48.68600 25.24800
H  5.56100 49.96600 29.67100
H  4.97500 47.16100 33.19100
H  5.00100 46.08700 31.74400
H  3.65900 46.95800 31.99600

