158

Mg 46.68600 17.19100 27.65500
C  44.90400 16.82800 30.65000
C  49.09400 18.96700 29.48300
C  48.10200 18.21800 24.73700
C  43.98100 15.86800 25.82100
N  46.91400 17.92800 29.89300
C  46.14000 17.40900 30.88100
C  46.88100 17.53200 32.25800
C  48.09900 18.47000 31.85100
C  48.02200 18.48200 30.32000
C  48.14600 20.00100 32.44000
C  47.21000 16.19800 33.02100
C  47.13300 16.10300 34.53600
H  47.03000 17.39900 35.29900
N  48.40100 18.29600 27.15000
C  49.30000 18.93300 28.05600
C  50.40100 19.44900 27.29200
C  50.04100 19.26900 25.94700
C  48.83600 18.50000 25.87800
C  51.65200 20.00300 27.96400
C  50.74900 19.72300 24.61100
O  50.32700 19.54600 23.47500
C  52.08800 20.29000 24.65900
N  46.14900 16.94900 25.51600
C  46.89800 17.48400 24.56000
C  46.16200 17.39800 23.22800
C  45.03100 16.28800 23.51900
C  45.05400 16.31800 25.01600
C  45.61200 18.70300 22.79800
C  45.29900 14.94100 22.86100
C  44.24300 14.46700 21.86300
N  44.82700 16.54100 28.03500
C  43.91100 15.89200 27.28400
C  42.81100 15.44000 28.13600
C  43.23100 15.72400 29.41800
C  44.42500 16.42100 29.36400
C  41.48500 14.70800 27.87000
C  42.82800 15.55700 30.79700
O  41.94900 15.00600 31.31800
C  43.91600 16.26300 31.73400
C  43.22000 17.24000 32.63700
O  42.89100 18.41000 32.45400
O  43.14900 16.61800 33.82400
C  42.62800 17.45000 34.92800
H  49.88600 19.38600 30.10600
H  48.33900 18.61400 23.74800
H  43.15800 15.44800 25.23900
H  46.29600 18.16500 32.92500
H  49.02700 17.98400 32.15200
H  49.02500 20.11700 33.07400
H  47.29000 20.11200 33.10600
H  48.00700 20.64500 31.57200
H  48.21800 15.92600 32.70900
H  46.50200 15.51300 32.55400
H  47.77200 15.34000 34.98100
H  46.12900 15.69500 34.65500
H  51.51000 21.07000 28.13000
H  52.56500 19.81600 27.39900
H  51.79600 19.49700 28.91800
H  52.03600 21.15100 25.32500
H  52.34200 20.66800 23.66900
H  52.83700 19.53800 24.90500
H  46.80600 17.05200 22.41900
H  44.04400 16.59100 23.17000
H  44.53400 18.76200 22.64900
H  46.21000 19.02700 21.94600
H  45.72500 19.40700 23.62200
H  45.52800 14.21300 23.63900
H  46.22100 15.03500 22.28700
H  43.46300 15.20800 21.69100
H  43.68900 13.63900 22.30600
H  44.67500 14.12300 20.92300
H  40.68300 15.05200 28.52300
H  41.72400 13.69900 28.20500
H  41.19400 14.71800 26.81900
H  44.41000 15.53300 32.37600
H  41.55100 17.49600 35.09300
H  42.99200 18.47700 34.90100
H  42.93600 17.00700 35.87500
Mg 17.57800 51.05600 26.00700
C  19.35200 49.89900 28.95500
C  15.21400 52.26600 28.04400
C  16.12300 51.91200 23.20200
C  20.21400 49.36400 24.08400
N  17.30000 50.99200 28.27400
C  18.16300 50.53300 29.24100
C  17.63900 50.97600 30.55700
C  16.18500 51.43400 30.36300
C  16.17700 51.59200 28.85100
C  15.07200 50.54000 30.82600
C  18.58300 52.03000 31.23900
C  18.55300 52.12300 32.75100
H  17.57600 51.27000 33.53900
N  15.89900 52.04900 25.62000
C  14.99900 52.51800 26.61900
C  13.95700 53.26300 25.96500
C  14.14300 53.13000 24.54500
C  15.44100 52.34800 24.35300
C  12.92200 53.92800 26.73600
C  13.38000 53.82300 23.41800
O  13.86000 53.89200 22.31800
C  12.11200 54.54500 23.63600
N  18.05800 50.67600 23.99500
C  17.27800 51.17000 23.03300
C  17.69400 50.72900 21.62700
C  19.08300 50.09700 21.86600
C  19.15200 50.06700 23.40000
C  16.62100 49.90500 20.79000
C  20.26200 50.82700 21.05400
C  20.50300 52.34800 21.44600
N  19.46300 49.86000 26.36300
C  20.39700 49.31400 25.52400
C  21.48500 48.77300 26.31300
C  21.11300 49.03200 27.62100
C  19.93600 49.70800 27.64200
C  22.56100 47.97000 25.86000
C  21.44500 48.64000 29.01100
O  22.39400 48.00000 29.49700
C  20.37900 49.26400 29.91600
C  19.74700 48.22000 30.75300
O  18.77600 47.52800 30.42700
O  20.39000 48.26300 31.97900
C  19.76900 47.44800 33.05300
H  14.45300 52.71800 28.68400
H  15.51000 52.05300 22.31000
H  21.04900 48.99200 23.48700
H  17.65700 50.07100 31.16500
H  16.00800 52.40600 30.82300
H  15.39500 49.81200 31.57100
H  14.57800 50.05700 29.98300
H  14.29600 51.17700 31.25100
H  18.43000 53.03600 30.84800
H  19.60400 51.80100 30.93300
H  18.37800 53.16800 33.00600
H  19.52500 51.86300 33.16900
H  12.00200 53.34800 26.67000
H  12.64000 54.90700 26.35000
H  13.16400 54.24200 27.75200
H  11.53600 53.94900 24.34400
H  11.63000 54.51900 22.65900
H  12.36300 55.59700 23.77100
H  17.74400 51.72300 21.18400
H  19.16500 49.08600 21.46800
H  15.96000 49.33000 21.43800
H  17.15100 49.25200 20.09600
H  15.90600 50.58400 20.32700
H  20.11600 50.89500 19.97600
H  21.19100 50.29400 21.25600
H  20.28500 53.01900 20.61600
H  21.50800 52.48100 21.84500
H  19.82200 52.60800 22.25600
H  22.98100 48.57600 25.05700
H  22.08000 47.19200 25.26800
H  23.28000 47.74100 26.64600
H  20.94500 49.95200 30.54400
H  20.11400 46.41500 33.05700
H  18.68900 47.37200 32.92300
H  20.10500 47.83300 34.01600

