158

Mg 23.77300 -7.70400 46.81000
C  26.39000 -5.74500 45.59200
C  21.76000 -6.50300 44.34400
C  21.80600 -10.36700 47.17200
C  26.30800 -9.52000 48.67300
N  24.10500 -6.24000 45.19200
C  25.21500 -5.48500 44.88800
C  24.95600 -4.50500 43.68600
C  23.42600 -4.77000 43.32200
C  23.03300 -5.89900 44.34000
C  22.48700 -3.42800 43.22300
C  25.85300 -4.63400 42.32800
C  26.46000 -3.22900 42.02900
H  25.92400 -2.34300 40.94800
N  21.87900 -8.24500 46.05300
C  21.21300 -7.54700 45.08800
C  19.87100 -8.08400 45.00200
C  19.87400 -9.35100 45.79900
C  21.19500 -9.39900 46.34800
C  18.85100 -7.51000 44.06900
C  18.73300 -10.34700 45.91100
O  17.65300 -10.03100 45.41200
C  18.82600 -11.56400 46.69400
N  24.00700 -9.60000 47.84300
C  23.02500 -10.58900 47.77500
C  23.39100 -11.91200 48.59500
C  24.74000 -11.47300 49.22800
C  25.04500 -10.05600 48.56600
C  22.31100 -12.53400 49.57200
C  25.90500 -12.52300 49.25700
C  26.44300 -12.86400 50.66800
N  25.88700 -7.67900 47.20800
C  26.72100 -8.38300 47.98900
C  28.05400 -7.78100 47.92800
C  27.85700 -6.66800 47.12300
C  26.56200 -6.71200 46.63000
C  29.28000 -8.32800 48.64000
C  28.55900 -5.50800 46.60100
O  29.68800 -5.17200 46.74400
C  27.60000 -4.88600 45.58600
C  27.35200 -3.50500 46.01200
O  26.68000 -3.11800 46.97400
O  28.13700 -2.66000 45.30700
C  28.30400 -1.33600 45.79700
H  21.15300 -5.93300 43.63700
H  21.22300 -11.28800 47.24300
H  27.13200 -9.97000 49.23000
H  25.10300 -3.53400 44.15900
H  23.36000 -5.24900 42.34500
H  21.83100 -3.51500 42.35700
H  23.18500 -2.60100 43.08900
H  21.91700 -3.24100 44.13300
H  25.16700 -4.83900 41.50600
H  26.43700 -5.54300 42.18800
H  27.50700 -3.39500 41.77900
H  26.52400 -2.71200 42.98600
H  18.94900 -7.92300 43.06500
H  18.97600 -6.43300 43.96200
H  17.84900 -7.58200 44.49300
H  19.60400 -12.27700 46.42200
H  17.98000 -12.18000 46.39000
H  18.71600 -11.38200 47.76300
H  23.66100 -12.53100 47.73900
H  24.46800 -11.26400 50.26300
H  21.71800 -13.39200 49.25400
H  21.79300 -11.65700 49.96100
H  22.78300 -12.89900 50.48500
H  26.75900 -12.22000 48.65100
H  25.44100 -13.44600 48.91100
H  27.52000 -13.02000 50.59500
H  25.91300 -13.70700 51.11200
H  26.16800 -12.03900 51.32500
H  29.44000 -9.40600 48.67500
H  29.15200 -7.87400 49.62300
H  30.08000 -7.93700 48.01100
H  28.15400 -4.76600 44.65500
H  28.65700 -1.31800 46.82800
H  27.38600 -0.75300 45.73000
H  29.02400 -0.94500 45.07800
Mg 0.39800 43.01100 26.53700
C  2.49600 42.24600 29.21000
C  -2.24600 41.89300 28.43900
C  -1.59400 43.39600 23.89100
C  3.12300 44.02000 24.60700
N  0.18600 41.94200 28.57100
C  1.17500 41.88400 29.52300
C  0.55000 41.78000 30.88400
C  -0.96500 41.52300 30.62400
C  -1.03900 41.84500 29.09900
C  -1.54900 40.17800 30.85000
C  0.80700 43.06400 31.75200
C  1.08700 42.83600 33.27800
H  0.53000 41.59800 33.94600
N  -1.63900 42.65100 26.19600
C  -2.60000 42.25600 27.12800
C  -3.89500 42.15600 26.46100
C  -3.72100 42.53400 25.07400
C  -2.29000 42.88600 24.98400
C  -5.14400 41.75200 27.19600
C  -4.67000 42.70500 23.97000
O  -4.44400 43.22700 22.90900
C  -6.05100 42.22800 24.15900
N  0.68100 43.62000 24.55900
C  -0.32200 43.81100 23.65400
C  0.07100 44.49800 22.35100
C  1.52200 44.79300 22.73600
C  1.83700 44.11700 24.05000
C  -0.07300 43.61000 21.12800
C  2.09500 46.24400 22.42900
C  1.98200 47.29500 23.51500
N  2.40400 43.08700 26.75100
C  3.38600 43.51100 25.88400
C  4.67100 43.38900 26.55100
C  4.36800 42.89600 27.81300
C  2.94100 42.74200 27.96400
C  6.03800 43.75000 25.89700
C  4.95500 42.54300 29.05900
O  6.10200 42.34300 29.39700
C  3.74900 42.30200 30.04300
C  4.03800 41.07300 30.85200
O  3.79600 39.92500 30.49300
O  4.64300 41.41400 32.01200
C  5.03000 40.25100 32.86500
H  -3.17300 41.62700 28.95000
H  -2.26600 43.41800 23.03000
H  3.94000 44.45700 24.02900
H  1.08300 40.94000 31.33000
H  -1.60600 42.26800 31.09600
H  -1.08800 39.66100 31.69100
H  -1.28800 39.58100 29.97600
H  -2.63900 40.16700 30.89200
H  -0.09600 43.66900 31.67200
H  1.66600 43.67900 31.48400
H  0.74400 43.71800 33.82000
H  2.17500 42.86600 33.33600
H  -5.87100 42.55800 27.30000
H  -5.03600 41.40300 28.22300
H  -5.61900 40.91500 26.68400
H  -6.42200 42.19100 23.13400
H  -6.61900 42.96500 24.72800
H  -6.05400 41.21300 24.55400
H  -0.53800 45.38600 22.17900
H  2.15000 44.04400 22.25400
H  0.88600 43.29400 20.71800
H  -0.66100 44.14300 20.38100
H  -0.65800 42.71400 21.33900
H  1.51800 46.61400 21.58200
H  3.05400 46.03300 21.95400
H  1.75400 46.90800 24.50800
H  1.36600 48.16000 23.27200
H  3.05400 47.47100 23.60600
H  6.25500 43.02400 25.11300
H  6.73100 43.64800 26.73200
H  6.01700 44.74300 25.44700
H  3.64400 43.05600 30.82300
H  5.00500 40.54400 33.91400
H  6.10500 40.09500 32.77300
H  4.54200 39.31100 32.60700

