158

Mg 1.54800 -0.88400 44.44100
C  4.72200 0.46400 43.75400
C  0.11900 1.85200 43.09200
C  -1.36600 -2.67900 44.24600
C  3.16700 -3.90000 45.31800
N  2.37000 0.89800 43.37600
C  3.69500 1.27300 43.27500
C  3.89700 2.58500 42.50800
C  2.39900 3.18200 42.71200
C  1.54700 1.91900 43.10000
C  2.25800 4.26300 43.76600
C  4.28300 2.38600 40.96500
C  5.22200 3.52600 40.48600
H  4.81100 4.33800 39.19800
N  -0.31800 -0.46100 43.81900
C  -0.71400 0.75400 43.28200
C  -2.10900 0.77600 43.01700
C  -2.58700 -0.50300 43.36500
C  -1.40700 -1.30200 43.87000
C  -2.84000 1.97900 42.42700
C  -4.07700 -0.84600 43.41400
O  -4.93700 0.01000 43.23100
C  -4.53000 -2.20700 43.72300
N  0.96600 -3.09000 44.84900
C  -0.27100 -3.43800 44.78700
C  -0.46300 -4.83200 45.28500
C  0.96200 -5.23300 45.70100
C  1.79000 -4.04500 45.24600
C  -1.52300 -4.92200 46.46400
C  1.46700 -6.61800 45.00000
C  2.38800 -7.46800 45.85600
N  3.51000 -1.55900 44.70200
C  3.99200 -2.82700 44.96200
C  5.48000 -2.82000 44.94500
C  5.78800 -1.49200 44.55900
C  4.54800 -0.79100 44.35300
C  6.38100 -4.01800 45.43800
C  6.86100 -0.59900 44.24600
O  8.05300 -0.79600 44.34100
C  6.20800 0.74100 43.60300
C  6.70400 1.93600 44.29200
O  6.26500 2.44500 45.32000
O  7.72000 2.50500 43.62000
C  8.16700 3.83200 44.08500
H  -0.51300 2.63200 42.66100
H  -2.31400 -3.22100 44.25800
H  3.67000 -4.77900 45.72700
H  4.56600 3.28700 43.00600
H  1.97400 3.54700 41.77700
H  3.05300 5.00300 43.67200
H  2.08400 3.80000 44.73800
H  1.29300 4.73300 43.57700
H  3.42300 2.57200 40.32200
H  4.74300 1.40800 40.82500
H  6.23000 3.11700 40.41800
H  5.45000 4.16700 41.33800
H  -2.76800 1.99500 41.34000
H  -2.50300 2.92600 42.84700
H  -3.86900 2.08600 42.77200
H  -5.59200 -2.21100 43.47800
H  -4.29300 -2.52800 44.73700
H  -3.95100 -2.74800 42.97400
H  -0.72100 -5.31300 44.34200
H  1.00900 -5.44400 46.76900
H  -2.25500 -5.61500 46.05200
H  -1.92200 -3.92600 46.65600
H  -1.02700 -5.24300 47.38000
H  2.01000 -6.27500 44.11900
H  0.60500 -7.22000 44.71500
H  3.44100 -7.47100 45.57700
H  2.15000 -8.53200 45.84600
H  2.35700 -7.27300 46.92800
H  6.89200 -4.50800 44.61000
H  5.78100 -4.70500 46.03600
H  7.14100 -3.65100 46.12800
H  6.57000 0.90800 42.58900
H  9.15700 4.07500 43.69900
H  8.39100 3.65500 45.13700
H  7.42700 4.58200 43.80600
Mg -3.13500 35.31600 27.27100
C  -4.95700 33.50800 29.69700
C  -2.16400 37.38900 29.84400
C  -1.56300 37.07300 24.98300
C  -4.24400 33.11400 24.88400
N  -3.46100 35.40800 29.51000
C  -4.20900 34.53100 30.24500
C  -3.93600 34.72200 31.73700
C  -3.22700 36.12100 31.72600
C  -2.99700 36.38300 30.27100
C  -4.18400 37.21300 32.24800
C  -3.27100 33.54400 32.53600
C  -4.17600 32.98600 33.67800
H  -3.83100 33.58700 35.07000
N  -2.05700 36.98700 27.39700
C  -1.65400 37.63000 28.54500
C  -0.58700 38.60600 28.15400
C  -0.44300 38.52400 26.77200
C  -1.34600 37.45700 26.34300
C  0.06300 39.47600 29.16200
C  0.44200 39.35000 25.81700
O  0.55300 39.12500 24.63100
C  1.14800 40.55200 26.25800
N  -3.11500 35.19800 25.17400
C  -2.31800 36.04200 24.46100
C  -2.31000 35.62100 22.97400
C  -2.96200 34.25900 22.97600
C  -3.44400 34.15500 24.43200
C  -3.06200 36.70000 22.08500
C  -2.16600 33.02100 22.44900
C  -2.94000 31.87300 21.96000
N  -4.41300 33.66900 27.27000
C  -4.76300 32.85000 26.19500
C  -5.73000 31.91700 26.57800
C  -5.82800 32.11300 28.02000
C  -4.99400 33.20300 28.33000
C  -6.44000 30.85500 25.74500
C  -6.48500 31.61100 29.17000
O  -7.20500 30.64100 29.26200
C  -5.90900 32.47200 30.35400
C  -7.00700 33.08400 31.09700
O  -7.50300 34.15900 30.80600
O  -7.54400 32.10700 31.95000
C  -8.72200 32.58400 32.69100
H  -1.80900 38.11500 30.57900
H  -1.01500 37.42000 24.10400
H  -4.50700 32.31900 24.18200
H  -4.89700 34.95600 32.19600
H  -2.25700 36.07800 32.22100
H  -5.13400 37.13700 31.71800
H  -3.81100 38.19200 31.94600
H  -4.30700 37.18400 33.33100
H  -2.41000 33.95100 33.06500
H  -2.90000 32.74700 31.89200
H  -4.21200 31.89800 33.74300
H  -5.24700 33.04900 33.48700
H  1.14400 39.59600 29.22700
H  -0.31000 39.49400 30.18600
H  -0.39800 40.38100 28.76600
H  0.49300 41.27000 26.75100
H  1.69700 40.93500 25.39700
H  1.88900 40.34400 27.02900
H  -1.30000 35.46600 22.59400
H  -3.84100 34.39900 22.34600
H  -2.93200 37.67800 22.54700
H  -4.12300 36.55600 21.87600
H  -2.58500 36.63700 21.10700
H  -1.66800 32.73300 23.37500
H  -1.35000 33.36900 21.81500
H  -2.82700 30.96900 22.55900
H  -2.62400 31.55600 20.96600
H  -3.99500 32.13800 22.02700
H  -6.69400 29.94700 26.29100
H  -5.73300 30.70800 24.92800
H  -7.32900 31.25800 25.25900
H  -5.45000 31.78300 31.06300
H  -9.28000 31.70100 33.00300
H  -9.43200 33.17600 32.11500
H  -8.47100 33.20100 33.55400

