158

Mg 36.10200 48.73200 24.72800
C  36.48800 46.87000 27.54500
C  34.57200 51.19400 26.51300
C  35.39400 50.30500 21.84300
C  37.32700 45.84400 22.76500
N  35.59500 48.95700 26.77800
C  36.00500 48.14800 27.84000
C  35.71500 48.77900 29.20700
C  34.89400 50.08300 28.81600
C  35.02000 50.08200 27.29300
C  33.39300 50.08200 29.25300
C  37.03500 49.14400 29.97700
C  36.88600 49.90200 31.31400
H  35.49000 49.85100 32.11800
N  35.18400 50.53500 24.24900
C  34.61100 51.42800 25.09100
C  34.21300 52.63000 24.36300
C  34.31800 52.30600 22.97900
C  34.94800 50.97600 22.97200
C  33.67600 53.79100 25.16400
C  33.94600 53.18200 21.83100
O  34.13800 52.87400 20.66900
C  33.28300 54.47500 22.11400
N  36.46700 48.18500 22.59400
C  36.10800 49.04400 21.63700
C  36.27500 48.41700 20.23700
C  36.86200 46.97300 20.58200
C  36.88200 46.95500 22.07200
C  35.04100 48.42100 19.28500
C  38.15700 46.74400 19.80200
C  39.39100 47.41100 20.42200
N  36.88200 46.88300 25.02600
C  37.27900 45.81300 24.20500
C  37.69500 44.65000 25.00400
C  37.38400 45.06400 26.32400
C  36.90200 46.39700 26.29100
C  38.13100 43.25300 24.54000
C  37.44200 44.62300 27.67500
O  37.81100 43.57200 28.17800
C  36.90400 45.83700 28.57300
C  35.62700 45.48200 29.34700
O  34.47000 45.45200 28.88300
O  35.91700 45.19500 30.68200
C  34.77400 44.58300 31.38300
H  34.18300 51.95500 27.19200
H  35.03300 50.67600 20.88100
H  37.82800 45.07600 22.17200
H  35.11100 48.04200 29.73700
H  35.40400 50.95300 29.23000
H  33.11300 49.32800 29.98900
H  32.63000 50.03300 28.47600
H  33.25700 51.02300 29.78700
H  37.64700 49.71000 29.27400
H  37.56100 48.23400 30.26500
H  37.05000 50.94400 31.04100
H  37.73800 49.70100 31.96400
H  33.59200 54.71300 24.59000
H  34.41200 54.08400 25.91300
H  32.74100 53.70600 25.71900
H  33.03300 55.00000 21.19200
H  34.09300 54.98500 22.63700
H  32.39500 54.39800 22.74100
H  37.14100 48.94100 19.83300
H  36.11000 46.29200 20.18200
H  34.22900 48.11400 19.94500
H  35.12200 47.72500 18.45100
H  34.91300 49.45100 18.95100
H  38.00000 47.18200 18.81600
H  38.35100 45.70600 19.53400
H  39.39200 47.40600 21.51200
H  39.53000 48.42100 20.03700
H  40.27900 46.81100 20.22300
H  39.13600 42.92800 24.80900
H  38.16700 43.39100 23.45900
H  37.39800 42.54700 24.92900
H  37.65200 46.25100 29.24900
H  34.14700 45.36200 31.81700
H  35.28000 43.97000 32.12900
H  34.09500 43.92400 30.84100
Mg 26.80300 49.81000 26.31600
C  24.71400 50.94100 28.93300
C  29.07400 48.78800 28.76100
C  28.85600 49.15800 23.88300
C  24.47700 51.24500 23.98600
N  26.85600 49.66400 28.56100
C  25.85200 50.17400 29.39600
C  26.13500 50.00800 30.80200
C  27.68900 49.55700 30.77400
C  27.88800 49.30600 29.30600
C  28.72100 50.64200 31.43200
C  25.05500 49.02300 31.36400
C  24.62500 49.24800 32.86700
H  25.57400 49.75300 33.94100
N  28.56400 48.90800 26.36100
C  29.35700 48.56600 27.40600
C  30.62500 47.97000 26.91400
C  30.58600 48.05000 25.46900
C  29.30700 48.72600 25.18700
C  31.60800 47.19000 27.78300
C  31.60500 47.52600 24.40000
O  31.46700 47.66200 23.20400
C  32.87600 46.77300 24.89100
N  26.71500 50.22400 24.26300
C  27.67400 49.87100 23.41300
C  27.41500 50.11800 21.97200
C  25.98400 50.50600 21.97100
C  25.62800 50.66800 23.48600
C  28.45400 50.93500 21.21500
C  25.05700 49.59300 21.09600
C  24.57000 48.29900 21.76400
N  25.02400 51.02200 26.41200
C  24.21800 51.46600 25.39200
C  23.06900 52.17400 25.99500
C  23.24200 51.90400 27.38300
C  24.41000 51.23800 27.57600
C  22.06500 52.98400 25.24300
C  22.68100 52.26200 28.64900
O  21.63900 52.92800 29.00600
C  23.57700 51.60800 29.80100
C  24.08400 52.67400 30.73300
O  24.94900 53.50000 30.48200
O  23.33100 52.56800 31.83500
C  23.74700 53.45800 32.94000
H  29.85000 48.61900 29.51000
H  29.48900 49.01200 23.00500
H  23.73300 51.69400 23.32500
H  26.08300 51.01000 31.22900
H  27.89200 48.60500 31.26600
H  28.35200 51.64000 31.66900
H  29.43200 50.83700 30.62900
H  29.30600 50.22800 32.25300
H  25.54300 48.04800 31.33400
H  24.15600 48.81600 30.78400
H  24.46400 48.24700 33.26700
H  23.64100 49.71400 32.82100
H  31.57400 46.15200 27.45500
H  31.33000 47.22100 28.83700
H  32.60400 47.63200 27.77600
H  33.67400 46.97900 24.17800
H  32.76500 45.70300 25.06600
H  33.22900 47.20900 25.82600
H  27.47800 49.16400 21.44800
H  25.92500 51.50200 21.53200
H  29.13800 50.31200 20.63800
H  29.04900 51.69900 21.71400
H  27.85000 51.45600 20.47300
H  25.64800 49.43100 20.19400
H  24.14300 50.06200 20.73100
H  23.48100 48.33900 21.74100
H  24.89400 48.13800 22.79200
H  24.89100 47.47700 21.12300
H  21.58300 53.73800 25.86600
H  21.22400 52.33500 24.99900
H  22.44700 53.37000 24.29800
H  23.00900 50.87800 30.37900
H  23.86600 54.48400 32.59200
H  24.66700 53.10100 33.40200
H  22.99900 53.52400 33.73100

