158

Mg -11.69100 37.63700 42.45500
C  -9.54700 34.95600 41.47700
C  -9.52200 39.73500 41.06800
C  -14.04700 40.02200 42.85500
C  -14.05400 35.14800 43.41300
N  -9.87800 37.30800 41.16800
C  -9.12300 36.19100 41.02300
C  -7.87200 36.48800 40.26900
C  -7.73600 38.08600 40.36700
C  -9.14700 38.37700 40.94100
C  -6.50300 38.70000 41.18200
C  -7.89100 35.85300 38.82400
C  -6.49300 35.33700 38.51400
H  -5.87300 36.09100 37.35100
N  -11.78100 39.67600 41.99800
C  -10.73400 40.34300 41.45100
C  -11.18600 41.65200 41.22400
C  -12.49500 41.80900 41.72300
C  -12.87800 40.52400 42.23100
C  -10.33400 42.70700 40.62800
C  -13.33800 43.06300 41.67600
O  -12.99400 43.99300 40.95300
C  -14.74200 43.16500 42.26600
N  -13.75000 37.59800 42.95500
C  -14.44600 38.77300 43.16200
C  -15.88300 38.52200 43.81800
C  -15.77600 37.00000 44.04300
C  -14.43400 36.55600 43.42500
C  -16.13400 39.38600 45.12900
C  -16.99000 36.27800 43.39400
C  -17.06400 36.13300 41.89700
N  -11.81700 35.53700 42.50700
C  -12.80200 34.69700 42.94800
C  -12.33300 33.30200 42.92700
C  -11.05000 33.39000 42.40400
C  -10.84500 34.71800 41.99000
C  -12.97800 32.04300 43.51300
C  -9.77900 32.58900 42.15100
O  -9.53200 31.40800 42.37800
C  -8.77100 33.60400 41.44700
C  -7.55800 33.72300 42.26400
O  -7.48900 34.38000 43.29900
O  -6.45600 33.04300 41.72100
C  -5.15400 33.15100 42.47700
H  -8.70700 40.39500 40.76600
H  -14.88900 40.71400 42.92400
H  -14.66200 34.42500 43.96000
H  -6.97100 36.13100 40.76700
H  -7.70400 38.53600 39.37500
H  -5.69800 38.02200 41.46500
H  -6.81200 39.40800 41.95200
H  -5.92300 39.31700 40.49600
H  -8.18400 36.62600 38.11400
H  -8.54600 34.98600 38.73800
H  -6.56800 34.29700 38.19500
H  -5.87000 35.36800 39.40800
H  -9.29700 42.36900 40.61100
H  -10.37500 43.63500 41.19900
H  -10.72300 42.95900 39.64200
H  -14.95600 44.23300 42.23200
H  -14.51200 42.86100 43.28700
H  -15.50900 42.63500 41.70000
H  -16.64000 38.85200 43.10600
H  -15.82700 36.89800 45.12700
H  -17.13200 39.81800 45.05300
H  -15.29100 40.07500 45.17600
H  -16.23700 38.69100 45.96200
H  -17.86500 36.89700 43.58900
H  -17.30300 35.37200 43.91300
H  -17.31900 35.11200 41.61300
H  -16.17500 36.30100 41.28900
H  -17.83000 36.84400 41.58900
H  -14.04400 32.20900 43.66300
H  -12.56000 31.48900 44.35400
H  -12.82400 31.39200 42.65200
H  -8.51600 33.22600 40.45800
H  -5.30100 33.01500 43.54800
H  -4.75800 34.15100 42.30500
H  -4.46600 32.42300 42.04600
Mg -1.51200 34.37900 26.26900
C  -3.14600 32.68500 28.94500
C  0.23600 36.17600 28.48900
C  -0.18900 36.20300 23.60400
C  -3.52700 32.70000 23.96500
N  -1.49500 34.39300 28.49900
C  -2.29600 33.65200 29.38300
C  -1.96600 34.09800 30.82100
C  -0.89800 35.23500 30.60900
C  -0.68300 35.28600 29.08500
C  -1.43600 36.62100 31.15700
C  -1.52700 32.95900 31.76900
C  -2.46500 32.61800 32.99600
H  -1.79000 32.34100 34.31200
N  -0.05900 35.83300 26.13600
C  0.55900 36.46600 27.16800
C  1.58100 37.38800 26.64300
C  1.35400 37.44800 25.23800
C  0.31900 36.45700 24.91800
C  2.54000 38.11900 27.48600
C  2.16800 38.23600 24.27900
O  2.05200 37.97700 23.03700
C  3.14800 39.11700 24.73000
N  -1.80600 34.40000 24.12000
C  -1.16300 35.21800 23.25700
C  -1.44800 34.75800 21.81300
C  -2.58500 33.62400 21.96000
C  -2.67300 33.54000 23.43600
C  -1.92900 35.80500 20.76900
C  -2.15700 32.36400 21.14800
C  -3.30200 31.47700 20.56100
N  -3.04800 33.01700 26.38700
C  -3.68300 32.35500 25.31500
C  -4.62700 31.40900 25.89400
C  -4.36300 31.43500 27.33200
C  -3.43800 32.46500 27.56600
C  -5.67100 30.64200 25.26700
C  -4.85000 30.82900 28.54800
O  -5.66300 29.94900 28.77400
C  -4.04700 31.68000 29.70500
C  -5.04900 32.47600 30.49300
O  -5.57200 33.48400 30.00000
O  -5.23800 31.95400 31.73600
C  -6.20200 32.69300 32.60400
H  0.87100 36.69900 29.20700
H  0.38800 36.51500 22.73000
H  -4.23600 32.16400 23.33100
H  -2.86000 34.55700 31.24300
H  -0.00100 35.12700 31.21900
H  -2.39200 36.91100 30.72100
H  -0.75500 37.41100 30.83800
H  -1.38500 36.74200 32.23900
H  -0.53400 33.16000 32.17100
H  -1.53000 32.04500 31.17600
H  -2.96300 31.67300 32.78000
H  -3.20200 33.41400 33.09200
H  3.59400 37.98600 27.24300
H  2.37800 37.80200 28.51600
H  2.17600 39.14500 27.42500
H  2.69900 39.87600 25.37100
H  3.59200 39.66500 23.90000
H  3.93000 38.56800 25.25500
H  -0.47800 34.35400 21.52100
H  -3.57800 33.81300 21.55200
H  -1.94200 36.77800 21.26100
H  -2.92000 35.70500 20.32700
H  -1.17300 35.82100 19.98300
H  -1.51200 31.74500 21.77200
H  -1.58300 32.67500 20.27500
H  -4.34200 31.69500 20.80200
H  -3.07200 30.45500 20.86500
H  -3.24600 31.50500 19.47300
H  -5.95000 29.72700 25.78900
H  -5.33900 30.42100 24.25300
H  -6.50100 31.34400 25.17600
H  -3.47300 31.00300 30.33800
H  -7.20400 32.31600 32.40000
H  -6.36900 33.75200 32.40400
H  -5.92800 32.51100 33.64300

