158

Mg 26.88200 50.14500 26.72700
C  24.77000 51.57800 29.15800
C  29.00500 49.33400 29.46000
C  29.24600 49.35100 24.60400
C  24.96200 51.54600 24.29200
N  26.91300 50.52900 29.02400
C  25.92900 50.96300 29.71800
C  26.17900 50.85200 31.23500
C  27.67000 50.35200 31.25400
C  27.87000 50.01100 29.85300
C  28.89100 51.33100 31.70600
C  25.25100 49.71200 31.86000
C  24.82000 49.89200 33.41500
H  25.81300 50.55600 34.38200
N  28.78000 49.38100 26.98900
C  29.42900 49.03000 28.11800
C  30.69900 48.44300 27.78300
C  30.85000 48.49900 26.36800
C  29.61900 49.14100 25.92700
C  31.54800 47.87300 28.89600
C  31.96900 48.05600 25.52500
O  31.95700 48.17700 24.33800
C  33.19100 47.42800 26.11900
N  27.02200 50.23100 24.73000
C  28.07300 49.85100 24.00800
C  27.78600 49.83400 22.52300
C  26.32500 50.39400 22.46300
C  26.03200 50.72400 23.91700
C  28.81700 50.67100 21.63200
C  25.24000 49.43600 21.97300
C  24.78200 49.79300 20.61000
N  25.20600 51.32800 26.63500
C  24.53500 51.76100 25.57800
C  23.32000 52.49200 26.06600
C  23.40100 52.41200 27.41800
C  24.54600 51.70700 27.77000
C  22.38200 53.30600 25.27900
C  22.75000 52.78900 28.70800
O  21.82000 53.52200 28.86100
C  23.53300 52.17300 29.83800
C  23.95100 53.24900 30.79200
O  24.90300 53.99400 30.69300
O  23.08800 53.31100 31.78400
C  23.17200 54.36700 32.90600
H  29.53100 49.04900 30.37400
H  30.04400 49.00900 23.94200
H  24.34100 51.80600 23.43200
H  26.05500 51.82400 31.71200
H  27.84100 49.40500 31.76500
H  28.51800 52.24700 32.16300
H  29.58500 51.54900 30.89400
H  29.34000 50.79500 32.54200
H  25.60100 48.71600 31.58800
H  24.35700 49.69300 31.23700
H  24.46200 48.91100 33.72800
H  23.95300 50.55100 33.45700
H  31.55500 46.78400 28.93400
H  31.27600 48.17900 29.90600
H  32.58300 48.21300 28.87900
H  34.00900 47.46300 25.40000
H  32.90400 46.43300 26.45900
H  33.59200 48.13100 26.85000
H  27.72700 48.80000 22.18100
H  26.17600 51.31000 21.89200
H  29.66100 51.10700 22.16600
H  28.35700 51.48100 21.06600
H  29.26300 49.93200 20.96600
H  24.43100 49.17800 22.65600
H  25.65900 48.43100 21.93700
H  23.79100 50.24300 20.66400
H  24.62400 48.82600 20.13200
H  25.37300 50.32100 19.86100
H  22.46500 54.39000 25.35800
H  21.35600 53.07000 25.56100
H  22.46300 53.07700 24.21600
H  22.96100 51.44700 30.41600
H  23.52100 55.31500 32.49500
H  23.85400 53.99300 33.67000
H  22.20100 54.56300 33.35900
Mg -11.57700 16.18000 42.44200
C  -8.17700 17.16600 42.30700
C  -12.40500 19.50600 42.22700
C  -14.85100 15.24400 42.07900
C  -10.59900 12.84900 42.29200
N  -10.38300 18.12500 42.37300
C  -9.05700 18.27400 42.28600
C  -8.65600 19.71100 41.98400
C  -10.06600 20.46500 42.34800
C  -11.05600 19.33000 42.30100
C  -9.94400 21.21900 43.73300
C  -8.19100 19.84300 40.42000
C  -7.04500 20.79300 40.10600
H  -6.02400 20.18900 39.09100
N  -13.39400 17.18600 42.33800
C  -13.48700 18.62700 42.22500
C  -14.87700 18.93200 42.12900
C  -15.61500 17.71000 42.15900
C  -14.64800 16.63000 42.21300
C  -15.32900 20.25700 41.99500
C  -17.17700 17.63900 42.22600
O  -17.83200 18.66200 42.29800
C  -17.97000 16.28600 42.36100
N  -12.56900 14.34300 42.31900
C  -13.91200 14.21100 42.18400
C  -14.29400 12.75800 42.28000
C  -12.99000 11.97400 42.00600
C  -11.96300 13.09600 42.27300
C  -14.78900 12.52200 43.62600
C  -12.86000 11.47900 40.52100
C  -13.60200 10.20400 40.35100
N  -9.75900 15.20300 42.15600
C  -9.49100 13.79900 42.22200
C  -8.07100 13.52600 42.24800
C  -7.52900 14.84400 42.24500
C  -8.61200 15.81200 42.24600
C  -7.40500 12.18700 42.45000
C  -6.28900 15.62500 42.36300
O  -5.11800 15.28800 42.41400
C  -6.68000 17.12600 42.42300
C  -6.22800 17.59400 43.81900
O  -6.01100 16.88300 44.82200
O  -5.91700 18.96000 43.87300
C  -5.36300 19.56000 45.11400
H  -12.62400 20.56700 42.09300
H  -15.88600 14.92000 41.95400
H  -10.17900 11.84600 42.18800
H  -7.82800 19.96600 42.64400
H  -10.26400 21.23400 41.60200
H  -10.63300 20.79800 44.46500
H  -10.23500 22.25800 43.57700
H  -8.93100 21.08000 44.11100
H  -9.03400 20.13100 39.79100
H  -7.85600 18.86100 40.08800
H  -6.49200 21.01500 41.01800
H  -7.48900 21.76100 39.87200
H  -14.56900 21.03800 42.02000
H  -15.95500 20.52500 42.84600
H  -15.83800 20.35400 41.03600
H  -18.95200 16.51100 42.77700
H  -17.42000 15.71900 43.11200
H  -18.08400 15.80400 41.39000
H  -15.05500 12.36700 41.60500
H  -12.87500 11.18800 42.75300
H  -15.22000 13.41100 44.08500
H  -14.12600 12.12800 44.39700
H  -15.56200 11.75600 43.57200
H  -11.83800 11.26200 40.20800
H  -13.26000 12.31400 39.94500
H  -14.47800 10.43100 39.74300
H  -13.84100 9.80300 41.33600
H  -12.99700 9.40100 39.92900
H  -7.31700 11.94200 43.50800
H  -6.46200 12.07500 41.91500
H  -7.99500 11.33500 42.11100
H  -6.13200 17.52200 41.56800
H  -5.56700 20.63000 45.11100
H  -4.27600 19.63800 45.13400
H  -5.72300 19.16200 46.06400

