158

Mg 25.88100 0.69500 29.19100
C  27.79900 0.32500 31.99500
C  23.19300 1.26200 31.19900
C  24.06800 0.82400 26.38900
C  28.70000 -0.36000 27.15000
N  25.64200 0.75300 31.33200
C  26.54700 0.73300 32.34500
C  25.88900 1.06900 33.73200
C  24.38000 1.19000 33.37600
C  24.43200 1.11100 31.86600
C  23.41500 0.10900 34.01500
C  26.49100 2.39500 34.44200
C  27.28300 2.16900 35.77800
H  27.04200 3.05200 36.94000
N  23.87900 0.88400 28.77900
C  22.92600 1.10000 29.78000
C  21.67000 1.18300 29.16100
C  21.81100 1.17200 27.75500
C  23.32100 1.02800 27.58000
C  20.31900 1.34200 29.85000
C  20.89200 1.31100 26.50400
O  21.27700 1.50300 25.30400
C  19.48000 1.35200 26.83100
N  26.41200 0.28100 27.05500
C  25.39500 0.52800 26.15500
C  25.92900 0.24900 24.69900
C  27.43200 -0.08000 24.86700
C  27.58300 0.05100 26.44400
C  25.08900 -0.79900 23.83000
C  28.44500 0.75600 24.02200
C  28.46600 0.48800 22.54200
N  27.86500 0.17900 29.47400
C  28.83300 -0.25800 28.57200
C  30.06800 -0.54600 29.38200
C  29.71200 -0.32600 30.69800
C  28.35700 0.10500 30.70400
C  31.45300 -1.07000 28.86500
C  30.17300 -0.43900 32.01800
O  31.18600 -0.86800 32.54100
C  29.04000 0.06200 32.95300
C  28.78500 -0.91500 34.05300
O  28.19800 -1.95300 33.98000
O  29.41000 -0.44500 35.15700
C  29.23000 -1.20400 36.34700
H  22.31100 1.50400 31.79400
H  23.52100 1.12400 25.49300
H  29.48100 -0.74000 26.48900
H  26.10500 0.19900 34.35200
H  23.97100 2.12200 33.76700
H  23.88100 -0.53400 34.76100
H  23.05100 -0.57400 33.24700
H  22.54200 0.55000 34.49700
H  25.76700 3.19600 34.58800
H  27.20500 2.71000 33.68100
H  28.34000 2.13200 35.51600
H  27.10200 1.14900 36.11900
H  20.53000 1.68800 30.86200
H  19.83700 0.36800 29.76700
H  19.69100 2.14000 29.45400
H  19.27400 0.46900 27.43500
H  19.03200 1.23800 25.84400
H  19.15100 2.28300 27.29200
H  25.85200 1.15400 24.09600
H  27.60500 -1.14100 24.68800
H  24.49500 -1.27100 24.61200
H  25.73200 -1.55700 23.38200
H  24.46700 -0.39000 23.03400
H  29.41600 0.44900 24.41200
H  28.34500 1.81800 24.24500
H  29.52000 0.33900 22.30600
H  27.95100 1.29600 22.02300
H  27.92100 -0.43100 22.32400
H  31.37900 -1.04000 27.77800
H  31.69500 -1.95800 29.44800
H  32.19300 -0.38500 29.27800
H  29.23200 1.05700 33.35400
H  28.21200 -1.45300 36.64800
H  29.70500 -0.74700 37.21600
H  29.74300 -2.16100 36.25700
Mg 30.82400 58.14700 40.92400
C  28.10800 56.45400 39.25100
C  32.88600 55.79700 39.51200
C  33.43600 60.13400 41.54200
C  28.56700 60.81700 41.42700
N  30.50700 56.38500 39.62200
C  29.36800 55.86500 39.07100
C  29.61000 54.55400 38.31600
C  31.10100 54.22600 38.74300
C  31.54900 55.57400 39.31200
C  31.40100 52.97400 39.71800
C  29.28100 54.72900 36.83800
C  28.40700 53.58700 36.20900
H  27.76600 53.93000 34.82900
N  32.85200 57.96700 40.61500
C  33.52500 56.93000 40.05500
C  34.98000 57.14400 40.11400
C  35.12200 58.38000 40.77100
C  33.76800 58.89100 41.02000
C  36.04300 56.26500 39.54700
C  36.42700 59.12400 41.15100
O  37.48800 58.76000 40.64200
C  36.48300 60.42700 42.10600
N  30.99300 60.25000 41.26300
C  32.16100 60.76800 41.71800
C  32.06400 62.26300 42.03700
C  30.50300 62.39300 42.29700
C  29.97400 61.06000 41.64000
C  32.96700 62.83100 43.17100
C  29.87300 63.68700 41.72800
C  28.86700 64.40400 42.65700
N  28.75700 58.55600 40.55400
C  27.97200 59.61700 40.96400
C  26.65300 59.44000 40.43900
C  26.61900 58.21300 39.80300
C  27.92700 57.67400 39.91600
C  25.48700 60.39200 40.63700
C  25.87000 57.29900 39.03600
O  24.71500 57.26900 38.69000
C  26.77300 55.97200 38.77900
C  26.34100 54.78600 39.65200
O  26.10000 54.88000 40.84400
O  26.29000 53.65300 38.94700
C  26.21800 52.33500 39.67300
H  33.58400 55.02800 39.17300
H  34.19400 60.88300 41.78200
H  27.87200 61.62700 41.65700
H  28.98400 53.81700 38.81900
H  31.80400 54.12300 37.91700
H  30.61900 52.21500 39.70600
H  31.51300 53.44300 40.69600
H  32.35900 52.55200 39.41500
H  30.27200 54.76100 36.38500
H  28.88300 55.73800 36.73300
H  27.62100 53.25500 36.88700
H  29.09800 52.75000 36.10500
H  36.73200 55.97700 40.34100
H  36.57800 56.79700 38.76000
H  35.68400 55.32700 39.12200
H  36.14900 61.33400 41.60200
H  37.52800 60.64300 42.32700
H  35.97800 60.29300 43.06300
H  32.38300 62.71300 41.09700
H  30.38000 62.30800 43.37700
H  33.76800 63.40400 42.70200
H  33.28800 61.97000 43.75800
H  32.38300 63.51300 43.78900
H  29.31000 63.34600 40.86000
H  30.58300 64.42400 41.35400
H  28.66100 63.74000 43.49700
H  27.93500 64.50900 42.10300
H  29.25300 65.40800 42.83600
H  25.65400 61.38700 40.22400
H  25.42800 60.48200 41.72200
H  24.58800 59.92800 40.23200
H  26.68600 55.61700 37.75200
H  25.66000 51.58000 39.11900
H  25.98400 52.42800 40.73400
H  27.14500 51.76100 39.66600

