158

Mg 8.53400 3.99400 27.85500
C  9.80900 2.03800 30.49600
C  6.72500 5.83700 30.02700
C  7.43000 5.56400 25.19400
C  10.12100 1.59800 25.77600
N  8.27400 3.90600 30.04900
C  9.05000 3.16200 31.00000
C  8.77600 3.54600 32.40200
C  7.77100 4.81000 32.13900
C  7.59800 4.90000 30.65800
C  6.48700 4.67600 32.94000
C  10.07000 3.92000 33.28600
C  9.84600 3.60100 34.77400
H  10.92900 3.97400 35.72600
N  7.20800 5.52000 27.64600
C  6.56100 6.17600 28.62200
C  5.79000 7.19900 28.07100
C  5.87300 7.08100 26.64700
C  6.84600 6.01400 26.42300
C  5.05900 8.20400 28.94900
C  5.25300 7.85100 25.54900
O  5.50500 7.71600 24.36300
C  4.22400 8.79400 25.92500
N  8.63800 3.47900 25.84200
C  8.19200 4.46200 24.96500
C  8.68200 4.19600 23.53700
C  9.48600 2.90400 23.64900
C  9.48600 2.64500 25.16800
C  7.47600 4.17000 22.52400
C  10.88800 3.00000 22.97200
C  11.26500 2.25000 21.68800
N  9.84000 2.22700 28.01900
C  10.30400 1.35900 27.08200
C  10.97900 0.29900 27.67000
C  10.93400 0.60500 28.98400
C  10.10600 1.70700 29.23100
C  11.62000 -0.87500 26.95800
C  11.37800 0.20200 30.24000
O  12.13300 -0.70400 30.56900
C  10.65700 1.18800 31.34000
C  9.75400 0.43200 32.25300
O  8.64400 -0.03500 31.98900
O  10.31700 0.38000 33.44900
C  9.47200 -0.20900 34.53600
H  6.11000 6.42300 30.71300
H  7.13800 6.06700 24.27000
H  10.70500 0.96600 25.10300
H  8.19800 2.75100 32.87200
H  8.28100 5.68500 32.54200
H  5.68600 4.07300 32.51300
H  5.98700 5.62600 33.12800
H  6.63600 4.29500 33.95000
H  10.21300 5.00000 33.27000
H  10.98400 3.43100 32.95200
H  9.67100 2.52900 34.87200
H  9.04900 4.29000 35.05300
H  5.10500 8.13800 30.03600
H  4.01200 8.19500 28.64700
H  5.40700 9.20800 28.70800
H  3.82800 9.22800 25.00700
H  4.51900 9.58700 26.61200
H  3.53500 8.11100 26.42300
H  9.35800 4.99400 23.22800
H  9.08100 1.97200 23.25500
H  6.54600 3.91000 23.02900
H  7.65400 3.42300 21.75000
H  7.30800 5.17000 22.12600
H  11.69000 2.80100 23.68200
H  11.18200 4.03100 22.77400
H  10.32700 1.81000 21.34800
H  12.02100 1.51900 21.97000
H  11.51600 2.92700 20.87000
H  12.64000 -0.58500 26.70500
H  11.01500 -1.11300 26.08300
H  11.53200 -1.74100 27.61400
H  11.41400 1.83800 31.77900
H  9.12000 -1.22900 34.38000
H  8.62200 0.46700 34.63200
H  10.09100 -0.01100 35.41100
Mg -5.06400 25.46400 25.66500
C  -3.88300 27.03900 28.68400
C  -6.56800 23.10400 27.69400
C  -5.71700 23.86000 22.90300
C  -3.00600 27.84400 23.93000
N  -5.18900 25.16200 27.93600
C  -4.87100 26.00500 28.91700
C  -5.49600 25.68300 30.26200
C  -6.24600 24.35000 29.92200
C  -5.96300 24.14100 28.38800
C  -5.87600 23.17700 30.84000
C  -6.37300 26.86300 30.82300
C  -6.32900 26.99900 32.39700
H  -5.72000 25.86200 33.30400
N  -6.01100 23.68000 25.33700
C  -6.61700 22.89100 26.23800
C  -7.48200 21.93900 25.51600
C  -7.35600 22.28400 24.09200
C  -6.30400 23.25300 24.04500
C  -8.48600 21.06500 26.27000
C  -8.12100 21.65500 22.95200
O  -7.99900 22.03400 21.79600
C  -9.21500 20.75400 23.32200
N  -4.59200 25.93100 23.76900
C  -4.88900 25.01800 22.73000
C  -4.39700 25.51000 21.36300
C  -3.64600 26.79000 21.68900
C  -3.82900 26.90900 23.22400
C  -3.53100 24.44300 20.67700
C  -4.02800 28.06800 20.88800
C  -5.15400 29.03700 21.50800
N  -3.79200 27.26100 26.13400
C  -3.01100 28.01100 25.36200
C  -2.27600 28.95600 26.21700
C  -2.61000 28.63800 27.54500
C  -3.60900 27.58900 27.42800
C  -1.33900 30.03800 25.73800
C  -2.31200 28.93500 28.93400
O  -1.58400 29.76000 29.48000
C  -3.07800 27.85900 29.71500
C  -2.34300 27.01100 30.60300
O  -2.07200 25.82200 30.37100
O  -2.05600 27.69200 31.72100
C  -1.27400 27.01700 32.79000
H  -7.28200 22.57600 28.32900
H  -5.90700 23.35600 21.95300
H  -2.45100 28.43400 23.19700
H  -4.61000 25.52100 30.87600
H  -7.31500 24.51600 30.05300
H  -6.75600 23.03500 31.46800
H  -4.96000 23.35900 31.40200
H  -5.70500 22.29500 30.22300
H  -7.41000 26.70600 30.52600
H  -6.13300 27.81700 30.35400
H  -7.34700 27.08200 32.77600
H  -5.82800 27.94400 32.60800
H  -8.27200 20.04300 25.95800
H  -9.55600 21.27200 26.26900
H  -8.20000 21.04000 27.32100
H  -9.93700 20.58500 22.52400
H  -9.83200 21.27100 24.05800
H  -8.80200 19.84500 23.75800
H  -5.27000 25.72800 20.74800
H  -2.60500 26.54300 21.48100
H  -2.46400 24.65900 20.74100
H  -3.85000 24.31600 19.64300
H  -3.67200 23.52400 21.24600
H  -4.37200 27.78100 19.89500
H  -3.06000 28.57000 20.91800
H  -5.97600 29.08300 20.79400
H  -4.71000 29.98200 21.82200
H  -5.65100 28.71800 22.42500
H  -1.28100 30.14000 24.65400
H  -0.36300 29.75600 26.13400
H  -1.61100 30.96100 26.25000
H  -3.76900 28.50200 30.26100
H  -1.87400 26.22900 33.24600
H  -1.07300 27.78100 33.54100
H  -0.42300 26.46100 32.39800

