158

Mg 42.21100 40.81700 26.30600
C  41.35000 43.33300 28.74900
C  43.21000 38.79600 28.70600
C  43.04700 38.67800 23.87000
C  41.35900 43.24100 23.88400
N  42.37100 41.19800 28.41700
C  41.81200 42.14300 29.30900
C  41.93300 41.75100 30.73100
C  42.75100 40.36400 30.68000
C  42.71100 40.04500 29.12100
C  44.16700 40.39600 31.37000
C  40.57900 41.69700 31.50500
C  40.45700 42.67900 32.71200
H  39.99700 42.13700 34.07700
N  43.01400 39.00200 26.27200
C  43.38100 38.25600 27.36200
C  43.79800 37.01700 26.89000
C  43.97200 37.04000 25.49600
C  43.34200 38.31200 25.15400
C  44.31500 35.93100 27.76200
C  44.49900 36.01300 24.48400
O  44.47000 36.14500 23.28100
C  45.11900 34.76400 24.96700
N  42.02400 40.89900 24.22500
C  42.52500 39.88800 23.44800
C  42.21600 40.12800 21.95600
C  41.73100 41.56700 21.94900
C  41.65600 41.95000 23.42400
C  43.41400 39.98800 20.92700
C  40.32800 41.85400 21.27800
C  40.20200 43.27400 20.53900
N  41.59000 42.92200 26.28500
C  41.25500 43.76900 25.20100
C  40.86800 45.08300 25.68300
C  40.76800 44.89400 27.09300
C  41.28500 43.59800 27.41600
C  40.62000 46.23600 24.80300
C  40.37700 45.57400 28.33100
O  39.79000 46.61800 28.49400
C  40.80100 44.52200 29.51400
C  41.80200 45.17900 30.40600
O  42.93700 45.51900 30.09300
O  41.22500 45.60300 31.59800
C  42.04400 46.32800 32.58900
H  43.54800 38.23700 29.58100
H  43.31200 37.93000 23.12000
H  41.13200 43.94700 23.08200
H  42.64500 42.51600 31.04000
H  42.11500 39.52700 30.96800
H  44.92800 40.41700 30.58900
H  44.31900 39.47600 31.93500
H  44.27300 41.17200 32.12800
H  40.44300 40.65100 31.78200
H  39.82800 42.07200 30.81000
H  39.79700 43.50000 32.42900
H  41.41500 43.14800 32.93500
H  44.11500 36.09200 28.82100
H  45.38000 35.71700 27.66500
H  43.75600 35.00600 27.62100
H  44.34800 34.30500 25.58500
H  45.98100 35.11400 25.53500
H  45.47200 34.17800 24.11800
H  41.42100 39.40500 21.77400
H  42.50600 42.23100 21.56500
H  43.01000 39.40100 20.10200
H  44.28400 39.39700 21.21400
H  43.80700 40.94300 20.57800
H  39.58000 41.76700 22.06600
H  40.02300 41.09900 20.55300
H  40.34500 43.19800 19.46200
H  40.97600 43.91400 20.96300
H  39.19200 43.65300 20.69600
H  41.30400 46.46300 23.98500
H  40.76200 47.08600 25.46900
H  39.67300 46.25500 24.26200
H  39.86000 44.26500 30.00200
H  41.35900 46.91400 33.20200
H  42.63900 47.08700 32.08100
H  42.68400 45.65400 33.15800
Mg -12.14700 16.38500 42.80800
C  -9.03800 14.83300 42.03300
C  -10.96900 19.18900 41.16000
C  -15.28400 17.52400 42.56100
C  -13.37800 13.13900 43.68200
N  -10.24100 16.86100 41.63900
C  -9.12300 16.15700 41.54800
C  -8.00600 16.97200 40.88800
C  -8.67400 18.36900 40.73800
C  -10.06600 18.10900 41.24700
C  -7.90900 19.47100 41.32300
C  -7.54200 16.24400 39.54600
C  -6.00300 16.12800 39.32700
H  -5.42600 16.62800 37.98500
N  -12.96400 18.15300 42.12100
C  -12.30300 19.19100 41.57900
C  -13.23900 20.31300 41.45200
C  -14.49200 19.88200 41.98000
C  -14.30400 18.46400 42.22400
C  -12.83600 21.64400 40.85400
C  -15.70900 20.73500 42.29200
O  -15.74500 21.90600 42.03200
C  -17.00100 20.26500 42.88800
N  -14.10000 15.42800 43.09300
C  -15.25000 16.16800 42.96100
C  -16.50300 15.30700 43.32400
C  -15.79300 13.90600 43.71500
C  -14.26300 14.17400 43.48200
C  -17.69500 15.80900 44.17800
C  -16.29700 12.71300 42.84000
C  -16.35600 11.32200 43.52300
N  -11.38400 14.38700 42.96200
C  -11.94200 13.25300 43.50800
C  -10.97000 12.15900 43.52100
C  -9.81700 12.83000 42.99800
C  -10.12500 14.14900 42.62000
C  -11.16000 10.79900 44.04400
C  -8.36600 12.63200 42.78200
O  -7.65500 11.67600 43.02900
C  -7.81900 13.90300 42.09800
C  -6.65900 14.49600 42.85500
O  -6.77700 15.19200 43.88000
O  -5.52000 14.20400 42.20700
C  -4.20500 14.42000 42.84100
H  -10.72900 20.11600 40.63700
H  -16.32100 17.85700 42.48100
H  -13.71700 12.20000 44.12500
H  -7.17400 16.99300 41.59200
H  -8.72200 18.68400 39.69500
H  -8.00100 20.48300 40.92900
H  -6.87700 19.14300 41.20200
H  -8.16600 19.52900 42.38100
H  -7.84000 16.76800 38.63700
H  -7.99700 15.25500 39.61300
H  -5.86300 15.05800 39.47900
H  -5.36300 16.54300 40.10600
H  -13.32500 21.81600 39.89500
H  -11.77100 21.73100 40.64000
H  -13.03200 22.46100 41.54800
H  -17.53100 19.87800 42.01700
H  -17.53200 21.14800 43.24300
H  -16.85500 19.63200 43.76300
H  -17.00400 15.00800 42.40300
H  -15.83000 13.66100 44.77600
H  -18.67500 15.76700 43.70200
H  -17.45800 16.86000 44.33800
H  -17.79900 15.29800 45.13500
H  -15.70300 12.54600 41.94100
H  -17.22600 12.80400 42.27700
H  -15.88500 10.61400 42.84200
H  -17.33500 10.95600 43.83200
H  -15.80300 11.28900 44.46200
H  -10.88000 10.75200 45.09700
H  -10.52600 10.08000 43.52400
H  -12.19400 10.49400 43.88500
H  -7.44900 13.49200 41.15900
H  -4.00200 14.03900 43.84200
H  -3.99200 15.48500 42.93000
H  -3.53000 13.97300 42.11100

