158

Mg 8.51100 3.36700 27.77700
C  9.91000 1.80700 30.51900
C  7.09900 5.62400 29.64700
C  6.85600 4.44400 24.95800
C  9.88400 0.75700 25.73100
N  8.54200 3.72500 29.88400
C  9.07100 2.89300 30.85300
C  9.06500 3.55700 32.28500
C  7.93400 4.71100 31.97300
C  7.88500 4.73600 30.40500
C  6.54800 4.40000 32.57700
C  10.43600 4.18800 32.70400
C  10.76100 3.89300 34.21600
H  11.28800 4.97900 35.12900
N  7.15400 4.86800 27.34600
C  6.73400 5.77000 28.28700
C  5.75600 6.67500 27.73900
C  5.64700 6.32900 26.34600
C  6.56200 5.20600 26.14000
C  5.05000 7.82800 28.40500
C  4.81600 6.87400 25.20900
O  4.76300 6.43500 24.03300
C  3.85200 8.09200 25.49200
N  8.34200 2.69800 25.65700
C  7.57600 3.30800 24.73400
C  7.81900 2.70700 23.29100
C  8.95500 1.66800 23.52700
C  9.08200 1.69700 25.05400
C  6.64000 2.22800 22.42500
C  10.30700 1.91300 22.85700
C  11.12300 0.75900 22.24300
N  9.77600 1.64100 28.00300
C  10.22100 0.67900 27.13200
C  11.02400 -0.32200 27.80700
C  11.03300 0.11400 29.13000
C  10.21900 1.28300 29.20000
C  11.68400 -1.53000 27.23600
C  11.45900 -0.20000 30.51100
O  12.21600 -1.05300 30.99300
C  10.77900 0.92000 31.45500
C  10.01100 0.23300 32.59200
O  8.97900 -0.36300 32.36300
O  10.51100 0.38800 33.90500
C  9.76300 -0.26200 35.01600
H  6.51800 6.26100 30.31700
H  6.47500 4.85700 24.02200
H  10.41400 0.05200 25.08600
H  8.70300 2.76800 32.94400
H  8.27200 5.66600 32.37500
H  6.68200 3.61600 33.32200
H  5.84800 4.18400 31.77000
H  6.16800 5.27900 33.09700
H  10.45500 5.22900 32.38100
H  11.23800 3.75400 32.10600
H  11.53800 3.13100 34.27700
H  9.86800 3.45800 34.66400
H  5.36000 8.70100 27.83100
H  5.22000 7.95100 29.47500
H  3.96600 7.77900 28.30000
H  3.15100 7.93300 26.31100
H  3.29800 8.25400 24.56700
H  4.49700 8.91800 25.79100
H  8.20800 3.43100 22.57600
H  8.58800 0.64800 23.41400
H  5.77700 2.18800 23.09100
H  6.88000 1.25800 21.99000
H  6.28500 2.86700 21.61700
H  10.94000 2.31200 23.64900
H  10.15100 2.78000 22.21600
H  10.59300 -0.14500 22.54100
H  12.09600 0.80700 22.73400
H  11.06400 0.69800 21.15700
H  11.30000 -1.75600 26.24100
H  11.42000 -2.39500 27.84400
H  12.72900 -1.22200 27.22400
H  11.49800 1.49900 32.03500
H  8.75900 -0.61500 34.78100
H  9.64900 0.39400 35.87800
H  10.37000 -1.10900 35.33700
Mg 30.18700 58.00300 40.10000
C  27.28800 56.52300 39.24800
C  31.85900 55.11500 39.38400
C  33.07800 59.77800 40.35100
C  28.42200 61.06500 40.31800
N  29.63900 56.01100 39.21600
C  28.35000 55.65600 38.97600
C  28.28800 54.21000 38.57800
C  29.73200 53.65800 39.10000
C  30.48000 54.95600 39.24400
C  29.82600 52.76500 40.38400
C  27.96200 53.77100 37.12000
C  28.49700 54.62200 35.94900
H  27.79300 54.65800 34.59300
N  32.17200 57.50500 39.84800
C  32.65500 56.24200 39.62800
C  34.07200 56.28200 39.59400
C  34.49400 57.56000 40.00600
C  33.23600 58.39600 40.12200
C  34.86400 55.03600 39.31500
C  35.87900 57.89300 40.34600
O  36.78200 57.11900 40.07400
C  36.20900 59.22100 41.05000
N  30.67300 60.10800 40.37300
C  31.93700 60.56700 40.46600
C  32.02800 62.09700 40.49400
C  30.49700 62.45000 40.56400
C  29.79000 61.15700 40.28800
C  32.95600 62.77800 41.51600
C  30.10500 63.41900 39.44000
C  29.08700 64.51200 39.76500
N  28.15100 58.68600 39.94400
C  27.52400 59.90700 40.17800
C  26.14400 59.76300 39.86600
C  26.01100 58.42500 39.52400
C  27.24100 57.83100 39.66300
C  25.19100 60.93200 39.75600
C  24.99100 57.47000 39.06800
O  23.82100 57.56700 38.77700
C  25.80700 56.13400 38.93100
C  25.34600 55.14900 39.93400
O  25.82500 54.99700 41.06300
O  24.43900 54.28500 39.32700
C  24.00500 53.15100 40.21200
H  32.28800 54.11200 39.32500
H  34.06200 60.25000 40.38000
H  27.98200 62.06200 40.40100
H  27.52000 53.90200 39.28800
H  30.29200 53.16900 38.30200
H  28.77300 52.54900 40.56300
H  30.24800 53.34900 41.20200
H  30.34800 51.86200 40.07000
H  26.87300 53.71700 37.11700
H  28.28700 52.75000 36.92000
H  29.57600 54.48000 35.88700
H  28.38700 55.64300 36.31400
H  34.31100 54.23800 38.81900
H  35.18600 54.60300 40.26200
H  35.67400 55.17200 38.59900
H  36.19400 60.09600 40.40000
H  37.26600 59.16700 41.31000
H  35.62100 59.38900 41.95200
H  32.33800 62.36400 39.48400
H  30.03000 62.72900 41.50900
H  32.32300 63.41700 42.13100
H  33.69900 63.36000 40.97000
H  33.47000 62.11700 42.21300
H  29.72400 62.87500 38.57500
H  30.96500 64.02200 39.14900
H  29.56400 65.45400 39.49300
H  28.90500 64.57500 40.83800
H  28.19500 64.40000 39.14800
H  24.73200 61.13400 40.72300
H  24.38700 60.65400 39.07500
H  25.63100 61.79500 39.25600
H  25.74900 55.72700 37.92100
H  23.09000 53.44700 40.72600
H  24.75400 52.80400 40.92400
H  23.72100 52.31500 39.57200

