158

Mg 54.23300 24.12300 45.06000
C  51.45000 26.15400 44.03700
C  52.21000 21.32600 43.98400
C  56.91900 22.34100 44.98600
C  55.80700 27.04900 45.87700
N  52.13700 23.79000 44.13700
C  51.19600 24.79700 43.87400
C  49.85100 24.21900 43.37100
C  50.00100 22.71900 43.84000
C  51.54000 22.55800 44.00300
C  49.28400 22.40200 45.15400
C  49.73500 24.24300 41.76100
C  51.03300 24.41600 40.94300
H  51.96300 23.25900 40.87800
N  54.54300 22.07100 44.55000
C  53.66700 21.06300 44.22400
C  54.40100 19.82700 44.05900
C  55.74700 20.17000 44.25000
C  55.81200 21.54800 44.61200
C  53.72000 18.42000 43.88400
C  57.02700 19.15100 44.03000
O  56.79300 17.95200 43.68400
C  58.47900 19.46700 44.35800
N  56.17300 24.68200 45.16100
C  57.11900 23.70300 45.22900
C  58.35200 24.20500 45.93800
C  58.05100 25.75000 45.98400
C  56.60600 25.86900 45.63900
C  58.58600 23.60000 47.34300
C  59.04100 26.63200 45.08400
C  58.62900 26.79100 43.62500
N  53.72400 26.23000 45.13500
C  54.48800 27.26700 45.60400
C  53.65000 28.50600 45.60100
C  52.49600 28.07000 44.97600
C  52.61800 26.68600 44.66700
C  54.05700 29.94300 46.06300
C  51.23100 28.53800 44.58100
O  50.66400 29.66800 44.74200
C  50.50600 27.35500 43.91300
C  50.03900 27.76000 42.60000
O  50.74200 28.15200 41.69200
O  48.62400 27.83400 42.57400
C  48.13800 28.24600 41.22900
H  51.71500 20.40700 43.66400
H  57.91700 21.90100 45.03400
H  56.53400 27.82000 46.13900
H  49.02300 24.80600 43.76700
H  49.67000 22.00500 43.08600
H  49.91700 21.84800 45.84800
H  48.34600 21.87900 44.96700
H  49.03000 23.32800 45.67100
H  49.10200 25.07300 41.44300
H  49.34000 23.27500 41.45200
H  51.56900 25.31500 41.24700
H  50.59700 24.67200 39.97700
H  53.58000 18.30500 42.81000
H  52.67000 18.41400 44.17800
H  54.27900 17.56300 44.26000
H  59.07400 18.58200 44.13600
H  58.47500 19.69500 45.42400
H  58.84500 20.17800 43.61700
H  59.16800 24.06500 45.22900
H  58.15700 26.15800 46.98900
H  57.89600 22.78200 47.55100
H  58.58300 24.28300 48.19300
H  59.61500 23.24200 47.37900
H  59.99100 26.10100 45.03000
H  59.22600 27.64200 45.45100
H  59.39600 26.37200 42.97300
H  58.63900 27.85800 43.40600
H  57.63000 26.44200 43.36600
H  54.15800 30.57800 45.18300
H  55.03700 29.92800 46.54100
H  53.33900 30.27800 46.81200
H  49.71700 27.07400 44.61000
H  48.62800 27.75000 40.39200
H  48.18800 29.33200 41.14400
H  47.11400 27.87100 41.24000
Mg -11.62200 37.46800 42.38300
C  -9.70800 34.74000 40.93800
C  -9.13800 39.50200 41.15100
C  -13.69800 39.98100 42.88500
C  -14.14700 35.11600 43.19000
N  -9.67400 37.17200 41.16600
C  -9.09400 35.99600 40.70900
C  -7.79300 36.21200 39.98000
C  -7.51700 37.68000 40.49100
C  -8.86200 38.19100 40.97400
C  -6.40200 37.75700 41.59300
C  -8.02600 36.03100 38.40800
C  -7.03900 35.18000 37.63600
H  -5.90200 35.82500 36.81800
N  -11.46100 39.56200 42.11700
C  -10.32500 40.23100 41.62000
C  -10.58100 41.60500 41.60900
C  -11.88500 41.84900 42.17800
C  -12.44200 40.44000 42.36900
C  -9.60800 42.69400 41.22100
C  -12.53000 43.12900 42.49100
O  -11.98900 44.15700 42.12500
C  -13.80900 43.27700 43.26800
N  -13.68400 37.52100 42.75200
C  -14.26600 38.68700 43.07700
C  -15.71700 38.47000 43.41000
C  -15.85600 36.93100 43.51600
C  -14.54000 36.48400 43.08200
C  -16.12300 39.18500 44.74900
C  -17.13100 36.42700 42.82200
C  -17.07900 36.35900 41.31400
N  -11.83100 35.37000 42.24800
C  -12.91000 34.62700 42.65600
C  -12.65900 33.24100 42.34000
C  -11.40300 33.26100 41.66100
C  -10.93800 34.52900 41.66200
C  -13.58500 32.01200 42.44400
C  -10.41600 32.39800 41.05100
O  -10.42100 31.18900 40.86500
C  -9.31500 33.36500 40.42700
C  -8.04800 32.77300 40.86400
O  -7.10800 32.61300 40.09800
O  -8.10000 32.32600 42.18800
C  -6.78800 32.39600 42.91300
H  -8.35300 40.18200 40.81300
H  -14.27200 40.83700 43.24600
H  -14.89300 34.32900 43.31500
H  -7.17100 35.43600 40.42500
H  -7.14500 38.25100 39.64100
H  -5.88800 36.80200 41.69800
H  -6.70300 38.22900 42.52800
H  -5.57100 38.32100 41.16900
H  -7.96000 36.96700 37.85300
H  -8.99900 35.56000 38.26700
H  -7.64800 34.49900 37.04100
H  -6.59300 34.47900 38.34100
H  -9.24600 43.23200 42.09700
H  -10.09600 43.36700 40.51700
H  -8.72600 42.28100 40.73000
H  -14.03600 44.29600 43.58400
H  -13.71900 42.61900 44.13200
H  -14.63200 42.92800 42.64500
H  -16.21700 38.77500 42.49000
H  -15.91800 36.53200 44.52800
H  -16.27800 40.25200 44.58600
H  -15.38000 39.23400 45.54400
H  -16.92800 38.61100 45.20800
H  -18.02200 36.95800 43.15800
H  -17.25000 35.38000 43.10300
H  -17.43000 35.36000 41.05400
H  -16.09500 36.50700 40.86900
H  -17.71900 37.14700 40.91700
H  -13.17400 31.08600 42.04100
H  -14.45000 32.32700 41.86100
H  -13.77400 31.58900 43.43100
H  -9.31600 33.29900 39.33900
H  -6.24800 31.46300 43.07500
H  -7.03100 32.65900 43.94200
H  -6.13400 33.14200 42.46100

