158

Mg 17.06300 52.51400 25.73600
C  19.02500 50.78000 28.15500
C  14.86600 53.17800 28.36400
C  15.18400 53.81300 23.39500
C  19.10200 50.93300 23.31600
N  17.06300 52.12100 28.05000
C  17.95000 51.44100 28.77400
C  17.60600 51.53400 30.26000
C  16.11100 51.93900 30.25300
C  16.02200 52.48100 28.81900
C  15.01200 50.87200 30.61400
C  18.53900 52.46100 30.93800
C  18.90200 52.23600 32.44500
H  17.75300 51.78100 33.34500
N  15.30000 53.50300 25.85800
C  14.51800 53.60500 26.98100
C  13.43200 54.52400 26.58800
C  13.46900 54.75600 25.17100
C  14.70300 54.09400 24.73100
C  12.41000 54.97900 27.60700
C  12.42000 55.41100 24.20700
O  12.67000 55.60600 22.99900
C  11.13600 55.86400 24.73500
N  17.16800 52.36300 23.65900
C  16.28700 53.06800 22.90800
C  16.41800 52.79000 21.45600
C  17.84800 52.10800 21.43600
C  18.03200 51.73000 22.86200
C  15.27900 51.98300 20.68800
C  19.05200 52.92000 20.81100
C  20.06600 53.51300 21.77900
N  18.73800 51.24400 25.71100
C  19.44700 50.74400 24.66400
C  20.61400 50.01500 25.13000
C  20.44900 49.92500 26.49900
C  19.32800 50.72700 26.84300
C  21.60500 49.32400 24.26800
C  21.05900 49.39900 27.73100
O  21.94500 48.59000 27.91300
C  20.16600 50.07400 28.89100
C  19.74900 49.03400 29.86700
O  18.84600 48.25000 29.60500
O  20.40000 49.21800 31.05000
C  20.00400 48.27100 32.05400
H  14.14500 53.34500 29.16800
H  14.48300 54.11200 22.61200
H  19.80900 50.55800 22.57200
H  17.60700 50.49100 30.57900
H  16.02800 52.77400 30.94800
H  15.42100 49.87600 30.78100
H  14.31400 50.94300 29.77900
H  14.53100 51.20400 31.53400
H  18.05800 53.43200 30.81300
H  19.48600 52.43400 30.40000
H  19.19200 53.22000 32.81200
H  19.71600 51.51500 32.51900
H  12.66600 54.90100 28.66300
H  11.50200 54.39000 27.48000
H  12.15300 56.01900 27.40500
H  10.36100 55.94800 23.97300
H  11.29300 56.82500 25.22400
H  10.68500 55.21500 25.48500
H  16.39200 53.80200 21.05100
H  17.85200 51.19200 20.84500
H  14.54300 51.84400 21.48000
H  15.78000 51.10000 20.29100
H  14.99600 52.58200 19.82300
H  18.56000 53.60500 20.12100
H  19.60900 52.20200 20.20900
H  19.84500 53.45300 22.84500
H  20.02100 54.58500 21.58800
H  21.07300 53.14100 21.59100
H  22.39600 48.81900 24.82300
H  22.04500 50.15600 23.71900
H  21.08300 48.63500 23.60300
H  20.71400 50.79900 29.49300
H  20.18900 47.27000 31.66500
H  18.98800 48.41900 32.41900
H  20.68000 48.47700 32.88400
Mg -6.00700 24.97700 26.84700
C  -4.59900 26.38500 29.68100
C  -7.87600 22.88900 28.76900
C  -7.08000 23.43500 23.92000
C  -3.79200 26.91400 24.84900
N  -6.15700 24.68000 29.07900
C  -5.56400 25.42100 30.00500
C  -6.10000 24.99600 31.37500
C  -7.04900 23.75400 31.09800
C  -7.12800 23.77600 29.51800
C  -6.61900 22.36300 31.69600
C  -6.84700 26.19000 32.10200
C  -7.07400 26.04600 33.61200
H  -6.35600 24.95600 34.41600
N  -7.29400 23.47800 26.41100
C  -7.97900 22.72900 27.36300
C  -8.83300 21.86800 26.67200
C  -8.64900 21.98900 25.29000
C  -7.62400 23.00600 25.16900
C  -9.72000 20.89600 27.40300
C  -9.36200 21.24400 24.10900
O  -9.21400 21.63400 22.97600
C  -10.37800 20.09200 24.41200
N  -5.30800 24.95500 24.69000
C  -6.04900 24.36400 23.72000
C  -5.41700 24.66200 22.35800
C  -4.41700 25.85900 22.62800
C  -4.52900 25.96200 24.14900
C  -4.77300 23.43000 21.67200
C  -4.67200 27.21100 21.83100
C  -3.62900 27.69600 20.88000
N  -4.51200 26.31800 27.11500
C  -3.71400 27.04400 26.26600
C  -2.84200 27.95900 27.03400
C  -3.25000 27.71200 28.38300
C  -4.20000 26.73700 28.38600
C  -1.71300 28.84800 26.56200
C  -2.98700 28.13600 29.72700
O  -2.20800 29.02700 30.18900
C  -3.85900 27.26900 30.62600
C  -2.98000 26.44600 31.44500
O  -2.58100 25.31800 31.23400
O  -2.58300 27.17100 32.58800
C  -1.80600 26.35100 33.56100
H  -8.60800 22.29100 29.31500
H  -7.43300 22.98100 22.99200
H  -3.05700 27.48500 24.27800
H  -5.22300 24.74200 31.97000
H  -8.05300 24.02400 31.42600
H  -5.72600 22.43200 32.31700
H  -6.42700 21.81100 30.77600
H  -7.40200 21.84500 32.25000
H  -7.84100 26.13800 31.65800
H  -6.39500 27.14100 31.82200
H  -8.13800 25.93500 33.81900
H  -6.86900 27.01700 34.06300
H  -9.87500 19.95900 26.86800
H  -10.71100 21.29400 27.61900
H  -9.27000 20.62300 28.35800
H  -11.11100 19.97000 23.61500
H  -11.00800 20.42900 25.23500
H  -9.81100 19.19900 24.67600
H  -6.22800 25.02500 21.72700
H  -3.42600 25.47600 22.38300
H  -3.69200 23.51600 21.77600
H  -5.01100 23.48000 20.60900
H  -5.06800 22.50100 22.15800
H  -4.96700 28.05300 22.45800
H  -5.54600 26.93400 21.24100
H  -2.74100 27.07100 20.96900
H  -3.43600 28.75800 21.03100
H  -3.90600 27.49200 19.84600
H  -1.88800 29.78300 27.09600
H  -1.88400 29.07000 25.50900
H  -0.66700 28.59800 26.74300
H  -4.39600 27.92100 31.31600
H  -0.75400 26.42600 33.28700
H  -2.15100 25.31900 33.50100
H  -1.85700 26.73000 34.58200

