158

Mg 53.24900 23.72300 44.39100
C  50.49200 25.70300 43.44800
C  51.33600 20.98000 43.07200
C  56.03900 21.83200 44.30700
C  54.92600 26.52600 45.14600
N  51.24200 23.42300 43.09000
C  50.30500 24.41100 42.90700
C  49.01100 23.84100 42.18900
C  49.14200 22.36900 42.45100
C  50.64800 22.20900 42.83800
C  48.20200 21.86700 43.51700
C  49.08800 24.31500 40.67200
C  47.74800 24.66000 39.98500
H  47.12900 23.72400 38.92200
N  53.62800 21.62700 43.91800
C  52.69200 20.69000 43.45100
C  53.31400 19.42500 43.44800
C  54.69100 19.58300 43.80200
C  54.84500 21.03300 44.07800
C  52.66700 18.18200 43.14700
C  55.70600 18.46200 43.93400
O  55.37000 17.36500 43.50700
C  57.13000 18.73600 44.39300
N  55.26600 24.16600 44.45700
C  56.25300 23.20400 44.52400
C  57.58400 23.82400 44.96800
C  57.22200 25.34500 45.30500
C  55.72100 25.38200 44.96200
C  58.42100 23.12900 46.04600
C  57.98000 26.35500 44.47500
C  58.40100 27.64000 45.19300
N  52.84500 25.66500 44.38400
C  53.60900 26.74000 44.81600
C  52.80200 27.92200 44.95400
C  51.57000 27.58600 44.44800
C  51.65700 26.17100 44.06900
C  53.16700 29.28700 45.41700
C  50.21300 28.09500 44.19000
O  49.72500 29.20400 44.31800
C  49.42200 26.79800 43.64700
C  48.84600 27.28200 42.37900
O  49.45900 27.60500 41.35800
O  47.50500 27.51500 42.49200
C  46.80000 28.29600 41.43400
H  50.68800 20.11400 42.92100
H  57.00100 21.31600 44.32700
H  55.41800 27.40500 45.56800
H  48.13400 24.27300 42.67100
H  48.96800 21.92500 41.47100
H  47.35900 21.35500 43.05400
H  47.85500 22.67500 44.16200
H  48.70900 21.06900 44.05800
H  49.51700 23.57300 39.99800
H  49.72500 25.18700 40.52100
H  47.96700 25.55400 39.40200
H  47.02600 24.94700 40.74900
H  52.44000 17.56400 44.01600
H  53.27700 17.64300 42.42300
H  51.72900 18.37200 42.62500
H  57.68000 19.25800 43.60900
H  57.54000 17.73100 44.49100
H  57.13500 19.19900 45.38000
H  58.18100 23.89500 44.06000
H  57.43300 25.57800 46.34900
H  58.04500 22.12000 46.21800
H  58.38300 23.66200 46.99700
H  59.42600 22.96300 45.66000
H  57.31900 26.70000 43.68000
H  58.82900 25.86800 43.99600
H  59.47300 27.79900 45.07800
H  58.26000 27.69400 46.27300
H  57.88400 28.51200 44.79100
H  54.23400 29.45400 45.27500
H  52.92200 29.40400 46.47200
H  52.57900 30.05000 44.90500
H  48.62700 26.46700 44.31500
H  46.07500 28.86900 42.01200
H  46.28000 27.72300 40.66700
H  47.45200 29.06100 41.01200
Mg 26.27700 51.85900 25.91300
C  23.91800 52.71800 28.26600
C  28.55500 50.92700 28.35200
C  28.53600 51.33200 23.43900
C  24.03500 53.02800 23.42100
N  26.21300 51.91600 28.13900
C  25.05700 52.17000 28.86700
C  25.47900 52.05400 30.35100
C  27.01100 51.52300 30.35600
C  27.31900 51.45000 28.84700
C  28.04800 52.30100 31.20700
C  24.51000 51.06900 31.17800
C  23.93100 51.64600 32.44900
H  24.10000 50.88400 33.81400
N  28.23800 51.13900 25.93300
C  29.04500 50.78500 27.04000
C  30.29700 50.25800 26.61100
C  30.32200 50.36100 25.19800
C  28.98300 50.90000 24.77700
C  31.31100 49.76800 27.66000
C  31.44700 49.96400 24.30300
O  31.36500 50.16400 23.05000
C  32.54100 49.24200 24.83300
N  26.30100 52.20900 23.68400
C  27.40600 52.00900 22.93500
C  27.13300 52.23600 21.39600
C  25.66800 52.83000 21.41100
C  25.31800 52.72800 22.89800
C  28.22400 53.08000 20.63000
C  24.65300 52.08500 20.36700
C  24.64000 52.61800 18.92000
N  24.41900 52.64100 25.83000
C  23.64600 53.04400 24.73700
C  22.31600 53.43100 25.20600
C  22.36700 53.34900 26.58000
C  23.68400 52.94100 26.87900
C  21.13400 53.93600 24.36600
C  21.59700 53.59500 27.74100
O  20.57400 54.18700 27.92700
C  22.59300 53.13400 28.92900
C  22.74500 54.31600 29.85700
O  23.52600 55.19800 29.74200
O  21.85900 54.05200 30.91400
C  21.90500 54.86000 32.13500
H  29.26200 50.69600 29.15200
H  29.29600 51.15200 22.67500
H  23.29400 53.12300 22.62500
H  25.29700 53.06400 30.71900
H  27.17100 50.50000 30.69600
H  27.51800 53.22700 31.42800
H  28.96700 52.41100 30.63200
H  28.28700 51.72200 32.09900
H  25.09300 50.20000 31.48200
H  23.73500 50.78900 30.46500
H  22.86200 51.70000 32.24300
H  24.38700 52.62700 32.58200
H  32.32600 50.14400 27.53100
H  31.32500 48.68700 27.79500
H  31.05900 50.19400 28.63200
H  33.09300 49.90000 25.50500
H  33.24900 49.10400 24.01600
H  32.21500 48.32900 25.33200
H  27.10200 51.21500 21.01400
H  25.68800 53.86200 21.06000
H  28.76400 53.58300 21.43200
H  27.71200 53.79000 19.98000
H  28.92400 52.64700 19.91500
H  23.67300 52.07200 20.84500
H  25.14900 51.14500 20.12900
H  23.66500 53.00700 18.62500
H  24.89300 51.79300 18.25400
H  25.43800 53.34000 18.75000
H  21.03500 53.34900 23.45300
H  21.30300 54.98700 24.13300
H  20.18100 53.81900 24.88200
H  22.19300 52.29800 29.50300
H  22.50700 54.20200 32.76200
H  20.89900 54.92200 32.54900
H  22.21600 55.89000 31.96200

