158

Mg 7.57800 2.31000 27.50300
C  9.15900 1.28100 30.49800
C  5.66900 4.50900 29.28000
C  6.00800 3.17100 24.64600
C  9.15000 -0.32700 25.88500
N  7.46700 2.89700 29.65600
C  8.18300 2.29800 30.71400
C  7.73900 2.92300 32.06200
C  6.53600 3.88300 31.66800
C  6.50900 3.69800 30.11400
C  5.13100 3.58600 32.20300
C  8.96100 3.55600 32.87500
C  9.29900 2.92800 34.19800
H  9.85100 3.85700 35.27000
N  6.14100 3.71200 26.99000
C  5.57700 4.58300 27.88300
C  4.71400 5.53000 27.16900
C  4.82200 5.13000 25.79600
C  5.66400 3.98100 25.74300
C  4.07200 6.74700 27.76700
C  4.23400 5.76600 24.58700
O  4.48100 5.31600 23.47400
C  3.45200 7.05200 24.70000
N  7.59200 1.50200 25.59400
C  6.80600 2.01400 24.63100
C  6.88600 1.13200 23.35700
C  7.87400 0.03600 23.81000
C  8.25200 0.45800 25.17300
C  5.49400 0.65200 22.81800
C  9.14200 0.03900 22.77500
C  9.28000 -1.35300 22.17400
N  8.93300 0.80900 28.05100
C  9.45100 -0.22200 27.25200
C  10.43800 -0.99300 28.04600
C  10.37800 -0.41000 29.29100
C  9.38100 0.59700 29.30500
C  11.33000 -2.06700 27.55000
C  10.91200 -0.52100 30.62200
O  11.75300 -1.25700 31.10700
C  10.19100 0.65400 31.48600
C  9.62000 0.05000 32.72100
O  8.44800 -0.29200 32.82900
O  10.54900 -0.14000 33.78000
C  10.05600 -0.62800 35.07600
H  4.99900 5.21200 29.77900
H  5.58300 3.25100 23.64300
H  9.57800 -1.11000 25.25500
H  7.33000 2.03500 32.54300
H  6.62500 4.95400 31.85000
H  4.36000 3.93900 31.51800
H  4.99200 4.19300 33.09800
H  5.00700 2.51500 32.36200
H  8.75500 4.61700 33.01800
H  9.76900 3.58200 32.14400
H  10.12400 2.26300 33.94300
H  8.41200 2.40600 34.55900
H  2.99200 6.61100 27.73600
H  4.40500 7.70900 27.37700
H  4.23100 6.80200 28.84500
H  3.05500 7.31100 23.71800
H  4.16900 7.74400 25.14100
H  2.56900 6.98100 25.33500
H  7.30900 1.79900 22.60600
H  7.29200 -0.88600 23.82600
H  4.70500 0.94800 23.51000
H  5.43500 -0.43500 22.77100
H  5.34300 1.07400 21.82500
H  10.01300 0.46900 23.26800
H  8.95600 0.69200 21.92300
H  10.29700 -1.52500 21.82100
H  8.53700 -1.34300 21.37700
H  8.93500 -2.00900 22.97400
H  10.83400 -2.88100 28.07800
H  12.34000 -1.97000 27.94800
H  11.19900 -2.34800 26.50500
H  10.81700 1.44300 31.90200
H  9.42000 0.10300 35.57500
H  10.81700 -1.05500 35.73000
H  9.33600 -1.43900 34.96500
Mg 24.09200 -5.38100 46.40500
C  26.00100 -2.88200 44.64600
C  21.43200 -4.30100 44.61400
C  22.62500 -8.30000 47.18300
C  27.14100 -6.74000 47.42400
N  23.82500 -3.85500 44.68400
C  24.67800 -2.85500 44.31400
C  23.98700 -1.87500 43.36500
C  22.46200 -2.09100 43.76900
C  22.55900 -3.54000 44.34100
C  21.91900 -1.07700 44.76300
C  24.28700 -2.24100 41.84400
C  24.93100 -1.17500 40.96900
H  24.54300 -1.35900 39.44800
N  22.31700 -6.17200 46.11100
C  21.36100 -5.51600 45.38600
C  20.18200 -6.27500 45.54400
C  20.40500 -7.40600 46.33200
C  21.81200 -7.40500 46.57800
C  18.87100 -5.77900 44.83000
C  19.35900 -8.48500 46.77600
O  18.19700 -8.38900 46.38500
C  19.67200 -9.65400 47.62800
N  24.79600 -7.18500 47.33800
C  23.95100 -8.22100 47.56700
C  24.68900 -9.40100 48.28400
C  26.16200 -9.00100 48.25200
C  26.04100 -7.53800 47.62700
C  24.29600 -9.74700 49.73600
C  27.14800 -9.95200 47.55100
C  27.34900 -9.75100 46.00200
N  26.16300 -4.83500 46.22800
C  27.24700 -5.47000 46.81900
C  28.41800 -4.72300 46.54100
C  28.01400 -3.65400 45.62000
C  26.64800 -3.79700 45.50400
C  29.89400 -4.94200 47.02700
C  28.47800 -2.56300 44.75300
O  29.58500 -2.19700 44.44300
C  27.19300 -2.08500 44.10000
C  27.13900 -0.70900 44.46900
O  26.75000 -0.18700 45.50600
O  27.57500 0.04300 43.38400
C  27.85900 1.47000 43.80100
H  20.49000 -3.97700 44.16600
H  22.23800 -9.30200 47.37700
H  28.10800 -7.16100 47.70800
H  24.33200 -0.85700 43.54400
H  21.82500 -2.03900 42.88600
H  20.94600 -0.70900 44.43600
H  22.60100 -0.22900 44.82000
H  21.73000 -1.52200 45.74000
H  23.35500 -2.56500 41.38200
H  25.00500 -3.06000 41.79800
H  26.01600 -1.20400 41.06700
H  24.58100 -0.20400 41.31800
H  18.75500 -4.71500 45.03500
H  17.96700 -6.26100 45.20100
H  19.06400 -5.84400 43.75900
H  18.87200 -10.36300 47.84200
H  20.14500 -9.25300 48.52400
H  20.37700 -10.19600 46.99700
H  24.58900 -10.31900 47.70600
H  26.65800 -8.78000 49.19700
H  23.81500 -10.72500 49.71900
H  23.59400 -8.98700 50.08000
H  25.13200 -9.62100 50.42300
H  26.76100 -10.95800 47.71500
H  28.11600 -9.86300 48.04200
H  27.02200 -10.71100 45.60200
H  28.39500 -9.55500 45.76900
H  26.63900 -9.03400 45.58900
H  30.15400 -3.94500 47.38100
H  30.51700 -5.21500 46.17500
H  29.92100 -5.66200 47.84400
H  27.26700 -2.27500 43.03000
H  26.89900 1.97100 43.92200
H  28.30600 2.07200 43.00900
H  28.51000 1.51500 44.67300

