158

Mg 7.32700 3.05600 27.59200
C  8.87900 1.98600 30.52100
C  5.38500 5.24400 29.50700
C  5.58000 3.86900 24.68500
C  9.14400 0.74900 25.75300
N  7.18500 3.55500 29.79200
C  8.01700 3.06200 30.76600
C  7.67800 3.73700 32.08000
C  6.48000 4.70400 31.75100
C  6.29000 4.49500 30.23800
C  5.15700 4.62000 32.53100
C  8.94900 4.45500 32.70700
C  8.69000 5.36200 33.97900
H  9.60300 5.11200 35.21600
N  5.79700 4.46400 27.13700
C  5.09500 5.20900 28.11600
C  4.10100 5.98500 27.42700
C  4.26900 5.73600 26.03000
C  5.18900 4.61600 25.87100
C  3.16400 7.01000 28.16800
C  3.67900 6.41300 24.79500
O  4.06300 6.20000 23.65300
C  2.89500 7.69100 25.05900
N  7.33900 2.38600 25.51800
C  6.54900 2.81900 24.53300
C  6.70700 2.04300 23.24500
C  7.85900 1.01000 23.52200
C  8.18900 1.41400 25.03500
C  5.43400 1.36000 22.71700
C  9.07700 1.20800 22.63800
C  9.64600 -0.10800 22.05600
N  8.80800 1.72100 27.97900
C  9.42900 0.87800 27.11900
C  10.31200 0.08900 27.98200
C  10.15600 0.45800 29.29500
C  9.23300 1.47800 29.21600
C  11.21900 -1.05400 27.57700
C  10.49200 0.14700 30.70100
O  11.17500 -0.73600 31.19000
C  9.67300 1.18800 31.57200
C  8.93400 0.54500 32.70800
O  7.77100 0.04100 32.60700
O  9.56700 0.80900 33.85800
C  8.91300 0.73500 35.12300
H  4.71500 5.86400 30.10600
H  4.91600 4.01900 23.83100
H  9.73900 -0.06000 25.32200
H  7.42400 3.05300 32.89100
H  6.84800 5.72700 31.81400
H  4.44700 4.15300 31.84900
H  4.76600 5.60900 32.77000
H  5.27700 4.02800 33.43900
H  9.41800 5.04200 31.91700
H  9.66600 3.68100 32.98300
H  7.63200 5.53100 34.17700
H  8.99000 6.40000 33.84000
H  3.50200 8.01800 27.92700
H  3.16500 6.92400 29.25500
H  2.16100 7.01600 27.74100
H  3.50800 8.28000 25.74100
H  1.89100 7.50200 25.43700
H  2.79800 8.27700 24.14500
H  7.02200 2.74000 22.46800
H  7.56900 -0.03800 23.44800
H  4.57000 1.87500 23.13700
H  5.43900 0.30700 22.99800
H  5.25300 1.58300 21.66500
H  9.85100 1.82600 23.09200
H  8.90200 1.78900 21.73200
H  10.36200 0.10700 21.26200
H  8.76200 -0.65400 21.72900
H  10.21000 -0.61900 22.83600
H  12.29200 -0.86000 27.54400
H  10.93500 -1.55100 26.64900
H  10.99100 -1.84300 28.29300
H  10.44300 1.78300 32.06400
H  9.35400 -0.01100 35.78500
H  7.86100 0.46000 35.04700
H  9.01500 1.67000 35.67500
Mg 34.30700 3.34900 29.72500
C  32.18000 4.00100 32.45700
C  36.86000 3.35300 32.00600
C  36.38000 2.85200 27.20900
C  31.61200 3.62900 27.55600
N  34.42100 3.46400 31.97100
C  33.44200 3.71100 32.87300
C  33.94500 3.53200 34.33700
C  35.47400 3.47900 34.11500
C  35.59000 3.40600 32.59600
C  36.31600 4.70300 34.78200
C  33.29200 2.29500 35.06600
C  32.74700 2.54200 36.52900
H  33.60900 3.48300 37.48700
N  36.28400 3.09100 29.63400
C  37.20600 3.20600 30.62000
C  38.64700 3.00700 30.19300
C  38.51800 2.80100 28.74600
C  37.01700 2.85500 28.46900
C  39.81700 3.15200 31.10600
C  39.55100 2.60700 27.66100
O  39.31600 2.38300 26.48600
C  40.97800 2.72300 28.07400
N  34.06600 3.48400 27.64700
C  35.06000 3.08400 26.82300
C  34.57900 2.80800 25.43300
C  33.00900 2.90400 25.59500
C  32.85200 3.28600 27.01700
C  35.17500 3.88600 24.44900
C  32.35500 1.58100 25.14500
C  31.06400 1.74200 24.44000
N  32.30100 3.79600 29.87100
C  31.27500 3.87700 28.91900
C  30.02300 4.18900 29.55000
C  30.37500 4.29800 30.94700
C  31.70800 3.97900 31.06500
C  28.69600 4.40300 28.97300
C  29.86600 4.64100 32.29400
O  28.87500 5.20900 32.63300
C  31.01500 4.36400 33.26700
C  31.23700 5.62100 34.00500
O  31.51800 6.68700 33.48200
O  31.09700 5.48200 35.32700
C  31.49100 6.61200 36.17100
H  37.77400 3.36100 32.60400
H  37.01200 2.41800 26.43200
H  30.78200 3.57700 26.84800
H  33.75700 4.44300 34.90500
H  35.86300 2.55300 34.53900
H  37.07900 4.17600 35.35400
H  35.71800 5.32400 35.44900
H  36.87700 5.26800 34.03600
H  34.07100 1.54200 35.18200
H  32.47400 1.95100 34.43300
H  32.69500 1.62700 37.11900
H  31.67700 2.74300 36.47400
H  40.10600 4.19000 31.27600
H  40.76000 2.69300 30.80800
H  39.72300 2.56900 32.02200
H  41.55800 2.68500 27.15200
H  41.30900 1.88200 28.68300
H  41.10900 3.69100 28.55800
H  34.99600 1.82100 25.23300
H  32.52000 3.67900 25.00500
H  36.01000 4.44900 24.86600
H  34.37900 4.62100 24.33300
H  35.39100 3.38500 23.50600
H  32.14000 0.88200 25.95300
H  33.00600 1.02900 24.46700
H  30.40900 1.01100 24.91500
H  31.17700 1.57100 23.36900
H  30.59200 2.71000 24.60700
H  28.41000 5.42000 29.24200
H  27.97400 3.64900 29.28900
H  28.68600 4.20900 27.90000
H  30.65000 3.57300 33.92100
H  31.16000 6.37700 37.18300
H  31.16000 7.59900 35.84800
H  32.57700 6.51300 36.16700

