158

Mg 43.79500 4.57400 47.09700
C  41.83900 7.60000 46.54300
C  41.02300 2.82900 46.23000
C  45.84800 1.97000 46.77700
C  46.67700 6.78600 47.08000
N  41.68600 5.18100 46.38100
C  41.09900 6.39100 46.55600
C  39.59800 6.23600 46.49100
C  39.42200 4.67600 46.54500
C  40.81100 4.15600 46.38700
C  38.66800 4.17200 47.78700
C  38.82700 6.94200 45.25100
C  39.59600 7.08200 43.98600
H  39.07800 6.22800 42.81800
N  43.44300 2.60600 46.70200
C  42.24800 2.05500 46.34100
C  42.47900 0.70000 46.05800
C  43.78100 0.41000 46.45800
C  44.42700 1.66600 46.71500
C  41.40300 -0.25700 45.53600
C  44.46000 -1.01500 46.54800
O  43.90600 -1.93900 46.01200
C  45.71300 -1.16700 47.34300
N  45.94300 4.38000 46.87500
C  46.50900 3.16100 46.93000
C  48.07900 3.25900 46.95900
C  48.34900 4.81000 46.98500
C  46.89900 5.40800 47.01900
C  48.67900 2.51300 48.26300
C  49.23900 5.34300 45.76100
C  50.43200 4.54700 45.30700
N  44.25600 6.74100 46.93400
C  45.45400 7.44700 46.96700
C  45.18500 8.86900 46.76400
C  43.77300 8.97200 46.62700
C  43.26600 7.67000 46.69800
C  46.14400 10.05100 46.68700
C  42.62500 9.91200 46.62500
O  42.65000 11.11400 46.66900
C  41.38000 9.05800 46.46800
C  40.42300 9.25900 47.60800
O  40.59500 8.72200 48.71900
O  39.41200 10.05800 47.21400
C  38.32300 10.13900 48.17100
H  40.12800 2.20300 46.21400
H  46.57800 1.16800 46.64800
H  47.53200 7.46500 47.08100
H  39.21300 6.64900 47.42400
H  38.77800 4.33100 45.73600
H  39.31600 3.85900 48.60500
H  38.12100 3.29900 47.43000
H  38.08500 4.98300 48.22400
H  38.48900 7.86800 45.71700
H  37.85000 6.49500 45.06700
H  40.62000 6.72400 44.08400
H  39.55900 8.13800 43.72100
H  40.41500 0.20100 45.50100
H  41.30900 -1.11000 46.20900
H  41.72700 -0.56400 44.54200
H  45.87400 -0.57900 48.24700
H  46.57800 -1.03400 46.69400
H  45.73100 -2.18300 47.73700
H  48.48800 2.75700 46.08200
H  48.82200 5.01100 47.94500
H  47.83600 2.14500 48.84800
H  49.41000 3.03000 48.88400
H  49.17000 1.62200 47.87100
H  49.61500 6.33100 46.02500
H  48.50900 5.43300 44.95600
H  50.27300 4.05200 44.34900
H  50.63000 3.73800 46.01000
H  51.37600 5.09300 45.29300
H  45.74400 10.66300 47.49500
H  46.14900 10.64900 45.77600
H  47.15100 9.71100 46.93000
H  41.01900 9.33700 45.47800
H  38.56800 9.73100 49.15200
H  37.40600 9.93200 47.61800
H  38.12800 11.18300 48.41700
Mg 9.77500 48.40500 26.48000
C  7.93800 48.21500 29.43100
C  12.41500 49.63100 28.22200
C  11.22000 48.90000 23.55400
C  6.63000 47.59800 24.70800
N  10.10700 48.74400 28.57200
C  9.24100 48.56000 29.59700
C  9.81300 49.11100 30.94000
C  11.19300 49.60000 30.50700
C  11.26700 49.36700 28.96800
C  11.42200 51.09800 30.84000
C  9.79200 48.07500 32.15100
C  10.66600 48.31500 33.38300
H  10.23800 47.85400 34.77100
N  11.59200 49.17800 25.98500
C  12.61000 49.49400 26.83900
C  13.79800 49.70300 26.06900
C  13.46700 49.58700 24.72000
C  12.06100 49.27000 24.68300
C  15.14500 49.94800 26.63300
C  14.41700 49.48900 23.53300
O  13.99800 49.30900 22.39600
C  15.90000 49.49400 23.67300
N  8.97500 48.26900 24.43600
C  9.89200 48.47300 23.39100
C  9.32500 47.84600 22.14300
C  7.88300 47.52100 22.40400
C  7.77600 47.89900 23.92100
C  9.52400 48.61400 20.80500
C  7.53900 46.12000 21.99400
C  8.12600 45.00700 22.83000
N  7.66100 48.11300 26.88000
C  6.56500 47.79300 26.06700
C  5.39600 47.78100 26.87500
C  5.87000 47.76500 28.20200
C  7.23400 48.07500 28.17500
C  4.02500 47.55100 26.34100
C  5.46300 47.67600 29.61000
O  4.34000 47.55200 30.09200
C  6.77500 47.95000 30.45000
C  6.93000 46.74500 31.31200
O  7.52800 45.75100 30.91900
O  6.27200 46.81800 32.60500
C  6.53800 45.69700 33.52200
H  13.21300 49.95300 28.89500
H  11.82000 48.87000 22.64200
H  5.76200 47.21700 24.16600
H  9.08800 49.87100 31.23300
H  12.01600 49.07400 30.99000
H  12.07000 50.96200 31.70700
H  10.54400 51.66500 31.14800
H  11.95200 51.56300 30.00900
H  9.99500 47.09600 31.71500
H  8.74200 48.16700 32.43000
H  10.97800 49.34600 33.21700
H  11.57400 47.77000 33.12500
H  15.04800 50.12400 27.70400
H  15.70100 50.83900 26.34100
H  15.80000 49.08900 26.49100
H  16.34600 49.54700 22.67900
H  16.38700 48.62000 24.10700
H  16.12600 50.38300 24.26200
H  9.96100 46.96300 22.07900
H  7.26500 48.25900 21.89100
H  8.71300 49.11900 20.28000
H  10.06200 48.03100 20.05700
H  10.15200 49.46400 21.07100
H  7.83300 45.96300 20.95600
H  6.45600 46.01700 22.05500
H  8.54700 45.33000 23.78200
H  8.80200 44.39900 22.22900
H  7.33200 44.30500 23.08300
H  3.71300 48.19900 25.52200
H  3.34100 47.67600 27.18100
H  3.95800 46.56300 25.88700
H  6.71000 48.79300 31.13700
H  6.88100 46.06900 34.48800
H  7.14000 44.88100 33.12200
H  5.58400 45.21100 33.73000

