158

Mg 47.32000 24.59100 28.78000
C  48.04700 26.89400 31.32800
C  46.43900 22.31600 31.13300
C  47.05800 22.39100 26.30300
C  48.55200 26.96600 26.44100
N  47.28800 24.69900 30.97300
C  47.47300 25.72000 31.82300
C  47.09200 25.33600 33.23000
C  46.95000 23.79700 33.18400
C  47.01700 23.54400 31.66100
C  48.12200 23.01800 33.95000
C  45.80800 26.10000 33.82500
C  45.98100 26.61400 35.33600
H  44.77100 26.51000 36.18200
N  46.71400 22.56800 28.72400
C  46.35600 21.88100 29.83900
C  45.89100 20.59400 29.30400
C  46.16400 20.56000 27.89700
C  46.63800 21.89200 27.58300
C  45.39000 19.53500 30.22700
C  45.93300 19.48400 26.81600
O  46.39600 19.47500 25.68200
C  45.45800 18.10400 27.28300
N  47.87500 24.67200 26.66800
C  47.54900 23.64600 25.86700
C  47.70800 24.05300 24.37900
C  47.84500 25.58500 24.41600
C  48.14300 25.75600 25.93100
C  48.94200 23.36100 23.73900
C  46.52900 26.34100 24.05100
C  45.24700 26.02200 24.83000
N  48.15600 26.46800 28.83000
C  48.49500 27.32900 27.81700
C  48.87900 28.60300 28.24300
C  48.70400 28.52400 29.66500
C  48.32000 27.14000 29.97500
C  49.32800 29.79200 27.46500
C  48.86700 29.21300 30.92200
O  49.16000 30.38300 31.22100
C  48.29400 28.20500 32.03300
C  49.40600 28.04400 33.05700
O  50.63300 27.90700 32.87100
O  48.97900 28.33600 34.30400
C  49.87400 28.39300 35.41200
H  46.21200 21.58000 31.90600
H  47.00000 21.73500 25.43200
H  48.81800 27.79700 25.78400
H  47.97100 25.49500 33.85500
H  45.96900 23.50700 33.56100
H  47.91500 22.89400 35.01300
H  48.92600 23.74500 33.83600
H  48.33000 22.12600 33.35900
H  45.02600 25.34600 33.92200
H  45.45000 26.94900 33.24200
H  46.30600 27.65300 35.28800
H  46.85100 26.05500 35.68100
H  44.68000 18.83100 29.79300
H  44.92600 20.06400 31.05900
H  46.21600 18.90500 30.55700
H  45.64300 17.30800 26.56200
H  44.38100 18.19900 27.42100
H  46.01300 17.92200 28.20400
H  46.78500 23.78800 23.86300
H  48.58000 25.94000 23.69400
H  48.75500 22.90800 22.76600
H  49.27600 22.50900 24.33200
H  49.72200 24.10500 23.58200
H  46.30600 26.12200 23.00700
H  46.78300 27.40100 24.06500
H  45.25600 25.16000 25.49700
H  44.39400 25.96800 24.15400
H  45.04500 26.86700 25.48900
H  49.67800 30.62900 28.06800
H  48.49100 30.16200 26.87300
H  50.15100 29.40300 26.86400
H  47.36500 28.62700 32.41400
H  50.75400 27.76000 35.29900
H  49.42900 28.10500 36.36500
H  50.12800 29.44800 35.51400
Mg 47.24900 34.81600 28.42400
C  45.78000 33.02000 30.79500
C  47.52500 37.62000 30.56600
C  47.95200 37.01500 25.80100
C  46.68000 32.27900 26.15000
N  46.71900 35.20900 30.41100
C  46.23400 34.28600 31.27900
C  46.10600 34.74800 32.73800
C  46.20700 36.29900 32.56700
C  46.86000 36.40100 31.08600
C  44.98200 37.13500 32.82400
C  47.24000 34.14700 33.67200
C  46.84000 33.76300 35.11400
H  47.52700 34.74200 36.09100
N  47.67800 36.94300 28.18600
C  47.86900 37.84900 29.21900
C  48.53300 39.10400 28.74600
C  48.62800 38.93900 27.34600
C  48.04300 37.61600 27.07600
C  49.14400 40.09800 29.63200
C  49.20000 39.90500 26.32200
O  49.35800 39.68100 25.10700
C  49.67500 41.31000 26.76200
N  47.31000 34.64800 26.34400
C  47.63300 35.70700 25.49900
C  47.76600 35.16600 24.00600
C  47.34300 33.65700 24.12000
C  47.14300 33.42600 25.60900
C  47.04700 35.96400 22.93300
C  48.29000 32.57500 23.44600
C  49.68100 32.48500 24.01500
N  46.52000 32.87300 28.46300
C  46.28800 31.97900 27.45300
C  45.72800 30.79800 27.93800
C  45.36800 31.17000 29.22700
C  45.87100 32.44500 29.49700
C  45.41000 29.53000 27.19300
C  44.70900 30.81100 30.44800
O  44.16500 29.75500 30.65900
C  44.88800 31.94800 31.52000
C  45.53100 31.29200 32.72000
O  46.68900 30.94500 32.81900
O  44.60900 31.07400 33.77600
C  45.17100 30.33600 34.93100
H  47.41200 38.53600 31.14900
H  48.39000 37.52000 24.93600
H  46.70000 31.48500 25.40000
H  45.11300 34.49700 33.11300
H  46.93500 36.77100 33.22700
H  44.99500 37.47500 33.86000
H  44.03900 36.59900 32.71700
H  45.00500 38.04000 32.21800
H  47.88300 35.02300 33.75900
H  47.83200 33.36900 33.19100
H  47.03000 32.73100 35.40800
H  45.77600 33.91100 35.29700
H  49.29100 39.67000 30.62300
H  48.48600 40.96700 29.60400
H  50.13300 40.34800 29.24800
H  49.68400 42.08000 25.99100
H  50.69700 41.14900 27.10500
H  49.09200 41.63200 27.62600
H  48.83300 35.18200 23.78500
H  46.34300 33.60900 23.68900
H  46.74300 36.98300 23.17200
H  46.14800 35.42700 22.63400
H  47.70200 36.00900 22.06200
H  48.41900 32.83300 22.39500
H  47.70800 31.65800 23.35300
H  49.90700 31.55500 24.53700
H  49.89800 33.30100 24.70400
H  50.45300 32.56500 23.25000
H  45.71100 29.74400 26.16800
H  44.33300 29.37000 27.14500
H  46.00000 28.69200 27.56400
H  43.90100 32.37700 31.69600
H  44.42300 30.50400 35.70600
H  46.18500 30.66700 35.15700
H  45.29600 29.28100 34.68700

