158

Mg 1.01500 7.19800 25.74500
C  1.64100 9.20100 28.60000
C  1.38900 4.44500 27.61000
C  0.46300 5.38800 22.95400
C  1.14100 10.17100 23.78300
N  1.59300 6.93800 27.88300
C  1.60400 7.83900 28.86500
C  1.71100 7.06500 30.21600
C  2.03200 5.60900 29.80300
C  1.73400 5.65900 28.28600
C  3.47400 5.08400 30.08800
C  0.47600 7.25300 31.17500
C  0.76400 7.71400 32.61100
H  1.97300 7.12600 33.25900
N  0.79400 5.23100 25.38400
C  0.94100 4.21700 26.28100
C  0.62700 2.92900 25.71100
C  0.41300 3.13800 24.30500
C  0.49600 4.62200 24.17300
C  0.64900 1.61000 26.39400
C  0.09400 2.09500 23.20900
O  -0.13900 2.41500 22.02500
C  0.04400 0.58900 23.49100
N  0.52500 7.77800 23.75100
C  0.59100 6.73900 22.78600
C  0.66700 7.40700 21.34900
C  0.56400 8.93900 21.64100
C  0.71400 9.00600 23.14400
C  1.94100 6.98900 20.59800
C  -0.69500 9.68900 21.06300
C  -0.37600 10.90600 20.20600
N  1.35000 9.20700 26.03000
C  1.45500 10.30400 25.14000
C  1.57500 11.56100 25.89900
C  1.71700 11.13000 27.24100
C  1.52300 9.72700 27.28900
C  1.55600 12.96300 25.42600
C  1.98800 11.59400 28.57600
O  2.30500 12.72200 28.98200
C  1.86000 10.36900 29.53300
C  2.98100 10.19200 30.43100
O  4.06600 9.63200 30.26500
O  2.63900 10.80400 31.61400
C  3.70300 10.80900 32.63600
H  1.44000 3.55500 28.24000
H  0.30600 4.89900 21.99000
H  1.32100 11.05900 23.17200
H  2.55100 7.52200 30.74000
H  1.41800 4.90300 30.36200
H  4.05400 5.87300 30.56600
H  3.98000 4.89100 29.14200
H  3.49300 4.23800 30.77500
H  -0.14200 6.35900 31.26500
H  -0.13300 8.08400 30.82100
H  -0.11200 7.49900 33.22400
H  0.91700 8.79100 32.66400
H  0.41200 1.72900 27.45100
H  1.54900 0.99900 26.32000
H  -0.20000 0.99600 26.09300
H  0.94500 0.16300 23.93300
H  -0.19600 0.17600 22.51200
H  -0.82300 0.49600 24.14400
H  -0.10500 7.05400 20.66500
H  1.44900 9.41100 21.21500
H  2.31700 7.81800 19.99900
H  1.80800 6.11200 19.96500
H  2.74000 6.74300 21.29700
H  -1.32800 10.09200 21.85400
H  -1.19100 8.93700 20.45100
H  -1.27500 11.23100 19.68300
H  0.54200 10.87300 19.61800
H  -0.31000 11.76000 20.88000
H  0.55500 13.16900 25.04700
H  2.50400 13.19300 24.93900
H  1.63600 13.51300 26.36400
H  0.92700 10.52200 30.07500
H  3.61700 9.92100 33.26200
H  3.59300 11.59200 33.38600
H  4.74000 10.85100 32.30300
Mg 41.30200 41.26300 26.40300
C  40.37500 43.33200 28.99400
C  42.32100 38.89100 28.81200
C  42.53400 39.39000 23.89400
C  40.77000 43.82900 24.10000
N  41.58400 41.25400 28.64600
C  40.89400 42.09800 29.45500
C  40.83400 41.62200 30.92400
C  41.68700 40.33400 30.80500
C  41.93500 40.10000 29.29000
C  43.05400 40.36600 31.57500
C  39.39800 41.54500 31.56700
C  39.06100 42.59100 32.59300
H  38.39200 42.12400 33.97000
N  42.30600 39.39700 26.32800
C  42.56400 38.57200 27.46400
C  43.07800 37.38700 26.95600
C  43.10100 37.39300 25.44900
C  42.70500 38.77700 25.14700
C  43.60500 36.21000 27.90000
C  43.42900 36.29900 24.49000
O  43.56400 36.49000 23.28600
C  43.50600 34.83500 25.06600
N  41.64600 41.55800 24.36600
C  42.13000 40.64300 23.54200
C  42.21900 41.16200 22.04600
C  41.23100 42.38800 22.06800
C  41.19500 42.62800 23.59700
C  43.63600 41.36600 21.49300
C  39.79000 42.18800 21.45100
C  39.14200 40.89100 21.83900
N  40.60600 43.18900 26.43600
C  40.44800 44.15800 25.44000
C  40.06700 45.36700 26.02900
C  39.91800 45.12200 27.44100
C  40.25500 43.73900 27.61700
C  39.98800 46.69200 25.30500
C  39.58600 45.64900 28.71400
O  39.28300 46.80000 28.98900
C  39.79900 44.50900 29.77600
C  40.75200 45.03700 30.65400
O  41.98600 45.10900 30.49100
O  40.14400 45.66600 31.70200
C  41.07100 46.21800 32.68600
H  42.38100 38.14700 29.60900
H  42.76000 38.76700 23.02600
H  40.70700 44.58400 23.31400
H  41.34900 42.36000 31.53800
H  41.18200 39.55100 31.37000
H  42.97300 39.56300 32.30700
H  43.21000 41.31800 32.08300
H  43.89700 40.13500 30.92400
H  39.29800 40.56100 32.02700
H  38.71600 41.51300 30.71700
H  38.36900 43.29300 32.12800
H  39.93500 43.17800 32.87700
H  43.36300 36.35600 28.95200
H  44.68500 36.24600 27.75100
H  43.27000 35.19200 27.70600
H  42.61300 34.66000 25.66600
H  44.37500 34.70800 25.71000
H  43.60500 34.10500 24.26200
H  41.81600 40.41300 21.36400
H  41.78400 43.24700 21.68800
H  44.38900 41.35300 22.28100
H  43.73400 42.30900 20.95600
H  43.87700 40.52000 20.85000
H  39.89200 42.29400 20.37100
H  39.24700 43.05700 21.82100
H  38.88800 40.37200 20.91400
H  38.19500 41.11300 22.33100
H  39.79500 40.26100 22.44200
H  40.08800 47.47700 26.05500
H  38.97300 46.85700 24.94500
H  40.78500 46.80800 24.57100
H  38.84400 44.21900 30.21300
H  41.64800 47.05900 32.30300
H  41.64900 45.42400 33.15900
H  40.49500 46.58700 33.53400

