158

Mg 16.50700 -1.80400 28.12700
C  15.16200 0.21000 30.78700
C  18.46100 -3.58100 30.33300
C  18.06800 -3.29700 25.46700
C  14.98600 0.54100 25.92000
N  16.85300 -1.59600 30.30600
C  16.19800 -0.74800 31.18800
C  16.49700 -1.14700 32.61100
C  17.53900 -2.28200 32.40400
C  17.65600 -2.46600 30.95900
C  18.84700 -2.05700 33.14100
C  15.13800 -1.47600 33.37800
C  15.09200 -1.03300 34.86900
H  16.31500 -0.51800 35.62600
N  17.97100 -3.25500 27.91200
C  18.57100 -3.95900 28.95000
C  19.27700 -5.11200 28.42900
C  19.22500 -5.01100 26.99200
C  18.42500 -3.78200 26.75000
C  20.21700 -5.98300 29.28700
C  19.75000 -5.91900 25.99000
O  19.48700 -5.83400 24.78500
C  20.47100 -7.18400 26.41500
N  16.61600 -1.37000 26.02600
C  17.21300 -2.20600 25.13300
C  16.81800 -1.89100 23.71100
C  15.72000 -0.81300 23.95000
C  15.74300 -0.52100 25.42300
C  17.98200 -1.34800 22.83100
C  14.26700 -1.30400 23.66400
C  13.87000 -1.44100 22.17600
N  15.10500 -0.11100 28.23800
C  14.71900 0.74000 27.23000
C  13.86700 1.75700 27.87400
C  14.01900 1.55800 29.19400
C  14.80000 0.47400 29.40800
C  13.12600 2.82100 27.16900
C  13.68100 2.09900 30.46400
O  13.00600 3.04900 30.74400
C  14.49700 1.26300 31.60400
C  15.37100 2.21800 32.33100
O  16.54300 2.43000 32.11900
O  14.75800 2.68800 33.46100
C  15.56100 3.31500 34.45300
H  19.06400 -4.14800 31.04500
H  18.47500 -3.78800 24.58100
H  14.63300 1.34500 25.27100
H  17.00100 -0.30500 33.08500
H  17.13000 -3.19200 32.84200
H  19.21200 -3.03000 33.47100
H  18.69200 -1.46900 34.04500
H  19.60400 -1.70000 32.44200
H  14.97400 -2.55200 33.42700
H  14.23100 -1.18600 32.84600
H  14.50100 -1.63200 35.56200
H  14.44700 -0.16100 34.76400
H  20.07600 -5.82200 30.35600
H  21.21000 -5.64700 28.98700
H  20.24800 -7.06800 29.18800
H  19.68000 -7.75700 26.90000
H  21.31800 -6.82900 27.00200
H  20.84000 -7.73900 25.55300
H  16.37000 -2.76200 23.23200
H  15.84900 0.12800 23.41600
H  17.75600 -0.31400 22.56800
H  18.03900 -1.89400 21.88900
H  18.93700 -1.25300 23.34700
H  13.58200 -0.58400 24.11200
H  14.19600 -2.25800 24.18500
H  14.33400 -0.71200 21.51000
H  12.78400 -1.50800 22.24100
H  14.09300 -2.44000 21.80200
H  12.13100 2.60000 26.78300
H  13.70100 3.16800 26.31000
H  12.96000 3.59000 27.92300
H  13.71700 0.84500 32.23900
H  15.26300 4.36300 34.47700
H  16.64800 3.28500 34.37200
H  15.32700 2.96300 35.45800
Mg 25.20400 0.94700 29.79900
C  27.15900 0.70400 32.63300
C  22.46200 1.09900 31.96000
C  23.19500 0.62300 27.15800
C  28.07000 0.35200 27.77100
N  24.89800 1.03600 31.99100
C  25.88100 1.03400 32.98900
C  25.33100 1.24100 34.38800
C  23.84400 1.29800 34.15000
C  23.70800 1.09200 32.58000
C  22.83400 0.37600 34.96900
C  26.06300 2.27800 35.26200
C  26.56100 1.73400 36.63200
H  26.52300 2.62200 37.92000
N  23.08900 0.77200 29.56700
C  22.17500 0.96800 30.59900
C  20.85000 0.96700 29.95500
C  21.02200 0.74100 28.54300
C  22.49900 0.65600 28.33700
C  19.58200 1.13700 30.77900
C  19.94000 0.56500 27.48900
O  20.18100 0.26200 26.31300
C  18.50400 0.95900 27.81000
N  25.71200 0.75400 27.68900
C  24.62600 0.65900 26.87800
C  25.13100 0.44500 25.41600
C  26.68700 0.27800 25.56700
C  26.87800 0.60300 27.05500
C  24.40700 -0.71700 24.68700
C  27.63900 1.29300 24.73000
C  28.21500 0.83600 23.40900
N  27.15500 0.52400 30.11900
C  28.21600 0.34800 29.21300
C  29.39800 0.09900 29.98800
C  29.02700 0.22500 31.32600
C  27.65400 0.50900 31.33900
C  30.76000 -0.22100 29.45400
C  29.57700 0.25600 32.58600
O  30.72700 0.01300 32.95000
C  28.30300 0.39400 33.56400
C  28.23600 -0.94300 34.31200
O  27.77900 -1.99100 33.83200
O  28.59800 -0.79600 35.61400
C  28.49000 -1.85600 36.59100
H  21.65200 1.22100 32.68200
H  22.50800 0.50200 26.31800
H  28.91100 0.02800 27.15500
H  25.33000 0.30300 34.94400
H  23.43500 2.26000 34.46000
H  22.10200 1.00500 35.47600
H  23.32700 -0.25500 35.70900
H  22.40900 -0.40100 34.33300
H  25.43000 3.14800 35.43400
H  26.97800 2.53300 34.72700
H  27.59800 1.50200 36.38800
H  26.02600 0.80100 36.81100
H  18.97700 0.24700 30.60500
H  19.04900 2.07400 30.62000
H  19.63100 1.10800 31.86700
H  18.00900 0.35800 28.57300
H  17.93600 0.84200 26.88800
H  18.56200 2.00900 28.09800
H  24.88000 1.37500 24.90500
H  26.98600 -0.75900 25.41600
H  23.68500 -1.13800 25.38700
H  25.09300 -1.54200 24.49300
H  23.85200 -0.36300 23.81800
H  28.48100 1.65600 25.31900
H  27.15100 2.26400 24.64100
H  27.79100 -0.11100 23.07600
H  29.25600 0.51300 23.40000
H  28.07200 1.55500 22.60300
H  31.13000 -0.90600 30.21700
H  31.43300 0.63600 29.42800
H  30.75400 -0.80000 28.53000
H  28.44900 1.16200 34.32300
H  28.66000 -2.81900 36.10800
H  27.44800 -1.86500 36.91200
H  29.18900 -1.74700 37.42000

