158

Mg 41.00400 40.93900 26.13400
C  40.43700 43.27600 28.87300
C  42.39000 38.89000 28.40200
C  41.75700 38.93000 23.60400
C  40.30800 43.60400 23.94200
N  41.42300 41.19100 28.35300
C  40.94400 42.08200 29.27600
C  41.06300 41.58600 30.67500
C  41.63600 40.17100 30.47700
C  41.80000 40.04700 28.97400
C  42.86200 39.90200 31.38000
C  39.69700 41.59900 31.45000
C  39.65100 42.32900 32.84200
H  38.83500 41.75300 34.03500
N  41.90600 39.12800 26.05000
C  42.36000 38.37800 27.06500
C  42.86800 37.07500 26.62200
C  42.55700 37.06900 25.21200
C  41.98600 38.41500 24.85600
C  43.51300 36.06700 27.57800
C  42.77700 35.89800 24.27300
O  42.38600 35.81900 23.12600
C  43.49400 34.71700 24.78600
N  41.17700 41.27500 24.07400
C  41.35300 40.22900 23.20000
C  41.00900 40.58200 21.75900
C  40.37900 42.00200 21.97400
C  40.67800 42.37800 23.42000
C  42.28300 40.53000 20.81400
C  38.84900 42.26300 21.61900
C  37.81500 41.81700 22.63000
N  40.55600 43.00800 26.26200
C  40.26200 43.94700 25.32800
C  39.86300 45.27100 25.93600
C  39.85300 44.99200 27.29500
C  40.38200 43.66000 27.50300
C  39.59900 46.56100 25.21500
C  39.64500 45.65800 28.59200
O  39.29400 46.78400 28.94000
C  40.08200 44.48100 29.71300
C  41.18800 44.99800 30.56200
O  42.34900 45.24500 30.17700
O  40.80000 45.06800 31.88100
C  41.79500 45.40700 32.89800
H  42.58700 38.11700 29.14700
H  41.94000 38.19100 22.82100
H  39.81900 44.27800 23.23600
H  41.81200 42.20800 31.16500
H  40.86900 39.50600 30.87300
H  42.78800 38.84400 31.63300
H  42.87500 40.44900 32.32200
H  43.76100 40.06000 30.78400
H  39.32100 40.58900 31.61200
H  39.03200 42.11000 30.75500
H  39.31300 43.35500 32.69300
H  40.67900 42.35200 33.20300
H  42.69400 35.36500 27.73000
H  43.86300 36.59300 28.46700
H  44.44400 35.68500 27.15900
H  43.48500 33.85700 24.11600
H  43.10000 34.32000 25.72100
H  44.52700 35.04700 24.89700
H  40.21600 40.01600 21.26900
H  41.10500 42.72100 21.59600
H  43.23700 40.39100 21.32400
H  42.38600 41.49800 20.32300
H  42.15100 39.79300 20.02200
H  38.62300 41.64500 20.75100
H  38.69400 43.30600 21.34400
H  37.00400 42.52100 22.81200
H  38.30900 41.59900 23.57700
H  37.43600 40.86500 22.25700
H  39.97400 46.61500 24.19300
H  40.12200 47.33600 25.77600
H  38.53900 46.78200 25.08700
H  39.17900 44.26600 30.28300
H  42.78800 45.71100 32.56600
H  42.01100 44.57200 33.56500
H  41.47600 46.19300 33.58200
Mg 30.72600 58.06500 40.56300
C  28.00100 55.86600 39.55800
C  32.86000 55.44500 39.97200
C  33.12500 60.23000 41.05300
C  28.34100 60.73000 40.72100
N  30.38800 55.89500 39.73600
C  29.25300 55.21200 39.45500
C  29.50700 53.73800 39.28100
C  31.07100 53.60500 39.58600
C  31.49200 55.07600 39.83200
C  31.54000 52.66500 40.75800
C  28.95900 53.15600 37.92900
C  29.50900 53.71900 36.58200
H  28.48300 54.23100 35.53600
N  32.71700 57.90200 40.56900
C  33.40200 56.73600 40.23600
C  34.79800 57.07100 40.49500
C  34.90300 58.41500 40.79600
C  33.58800 58.88600 40.87700
C  35.82000 56.01400 40.25700
C  36.21900 59.12100 40.91300
O  37.31000 58.50400 40.72700
C  36.32500 60.53300 41.29600
N  30.73800 60.28000 40.71100
C  31.83600 60.84700 41.14200
C  31.58500 62.31600 41.51100
C  30.05100 62.51800 41.21600
C  29.64400 61.10300 40.90000
C  32.06900 62.72700 42.91800
C  29.62400 63.64000 40.19900
C  29.03900 64.96800 40.86900
N  28.64200 58.29100 40.23100
C  27.83400 59.45900 40.33600
C  26.42600 59.13600 39.99100
C  26.45400 57.72400 39.67900
C  27.83900 57.28300 39.87500
C  25.35400 60.18700 40.09300
C  25.65800 56.57600 39.37500
O  24.44600 56.47700 39.27400
C  26.57200 55.36900 39.28100
C  25.99700 54.36500 40.21200
O  26.37200 54.22300 41.34400
O  25.13500 53.53000 39.60000
C  24.50200 52.46600 40.42500
H  33.55300 54.60800 39.86300
H  33.82400 61.03500 41.28900
H  27.61300 61.49400 40.99900
H  28.98600 53.26400 40.11300
H  31.54000 53.27500 38.66000
H  32.07200 51.76400 40.45000
H  30.60600 52.17600 41.03500
H  31.94300 53.27900 41.56300
H  27.88400 53.33700 37.90900
H  29.20100 52.09400 37.96800
H  30.03100 52.97400 35.98100
H  30.17400 54.54000 36.85000
H  36.28300 55.65100 41.17500
H  36.58200 56.44100 39.60400
H  35.39800 55.14500 39.75200
H  36.13500 60.60700 42.36700
H  35.65400 61.22200 40.78400
H  37.31500 60.91800 41.05200
H  32.12800 62.86400 40.74200
H  29.54400 62.75600 42.15100
H  32.76600 61.96400 43.26600
H  31.24100 62.83100 43.61900
H  32.71900 63.60100 42.88800
H  28.92400 63.13400 39.53400
H  30.37700 63.79000 39.42500
H  29.27100 65.16700 41.91600
H  27.95500 65.08700 40.85600
H  29.50000 65.82100 40.37000
H  25.52500 60.89800 39.28500
H  25.36700 60.76600 41.01600
H  24.41200 59.72400 39.79900
H  26.59300 54.88000 38.30700
H  24.17800 52.82600 41.40100
H  25.25200 51.70000 40.62500
H  23.71500 51.88900 39.93900

