158

Mg 34.96100 2.79000 29.54300
C  32.96300 3.78700 32.21100
C  37.69800 2.73900 31.70400
C  37.03400 2.34400 26.81200
C  32.27400 3.53600 27.45000
N  35.30500 3.42700 31.69200
C  34.35800 3.67800 32.55900
C  34.90400 3.57200 34.00600
C  36.48800 3.47300 33.78900
C  36.49600 3.20600 32.33300
C  37.37000 4.69800 34.11500
C  34.43600 2.35400 34.74700
C  34.19300 2.43500 36.29200
H  34.80700 3.55000 37.19500
N  36.99500 2.46600 29.29100
C  37.96000 2.43300 30.33200
C  39.14200 1.98400 29.70100
C  39.00800 1.97100 28.29200
C  37.59800 2.33500 28.09100
C  40.43400 1.74400 30.63700
C  40.04800 1.72100 27.11800
O  39.81600 1.61000 25.93200
C  41.47200 1.43800 27.55300
N  34.70300 2.89100 27.44700
C  35.70500 2.65500 26.48600
C  35.17200 2.58100 25.04100
C  33.57500 2.68800 25.28000
C  33.46800 3.03500 26.78100
C  35.70100 3.65400 24.05000
C  32.79200 1.26500 25.07800
C  31.44200 1.23200 24.39000
N  33.04700 3.52100 29.73600
C  32.10200 3.77900 28.85000
C  30.84000 4.05900 29.50100
C  31.13500 4.08300 30.84400
C  32.48600 3.78200 30.95600
C  29.58300 4.25900 28.82500
C  30.59100 4.33700 32.15500
O  29.51500 4.70600 32.44500
C  31.80600 4.14700 33.12400
C  32.02300 5.43900 33.80800
O  32.15900 6.53800 33.26700
O  31.82900 5.26800 35.17300
C  31.73400 6.43600 36.02500
H  38.60900 2.81700 32.30100
H  37.66700 2.11200 25.95300
H  31.41800 3.63100 26.77800
H  34.56600 4.45200 34.55400
H  36.97800 2.63800 34.29000
H  37.70500 4.53900 35.13900
H  36.66700 5.52900 34.17700
H  38.25900 4.91400 33.52200
H  35.17000 1.55500 34.63700
H  33.49800 2.08100 34.26300
H  34.52400 1.53600 36.81100
H  33.11900 2.49500 36.46800
H  41.25900 2.17700 30.07100
H  40.61100 0.66900 30.65400
H  40.51600 2.23700 31.60600
H  41.56600 0.52900 28.14700
H  41.78900 2.22400 28.24000
H  42.09200 1.52300 26.66100
H  35.33000 1.54400 24.74500
H  33.02400 3.46400 24.74800
H  36.54900 4.28100 24.32700
H  34.90200 4.34600 23.78300
H  36.05800 3.18600 23.13300
H  32.55800 0.92100 26.08600
H  33.51600 0.57200 24.64900
H  30.63800 0.95100 25.07100
H  31.44900 0.53800 23.54900
H  31.12000 2.21100 24.03300
H  29.18000 3.25200 28.72100
H  29.57600 4.75900 27.85700
H  28.91200 4.89100 29.40800
H  31.55700 3.28500 33.74300
H  31.65500 7.46400 35.67300
H  32.57300 6.51400 36.71700
H  30.90500 6.37500 36.73100
Mg -11.91400 16.14200 42.66600
C  -8.88000 14.79200 42.16400
C  -10.88300 19.15900 41.19600
C  -15.08500 17.31000 42.69600
C  -13.04300 13.10200 43.84800
N  -10.10000 16.91800 41.72800
C  -8.94400 16.16100 41.70600
C  -7.79800 17.05500 41.15400
C  -8.40600 18.46300 40.97600
C  -9.89800 18.23400 41.45700
C  -7.63500 19.62500 41.68900
C  -7.13000 16.52900 39.87900
C  -5.60200 16.38600 39.99500
H  -5.07100 15.24300 39.09300
N  -12.86100 17.96700 42.14200
C  -12.27600 19.08900 41.53500
C  -13.29900 20.02300 41.09100
C  -14.53500 19.47200 41.52400
C  -14.18300 18.23000 42.17700
C  -13.02900 21.29400 40.31400
C  -15.91700 20.13900 41.18600
O  -15.92000 21.20500 40.63000
C  -17.21800 19.56900 41.62100
N  -13.77300 15.34000 43.33200
C  -14.98900 15.95800 43.16200
C  -16.21700 14.99600 43.59500
C  -15.46600 13.82100 44.15400
C  -14.00500 14.06100 43.71700
C  -17.35100 15.62600 44.46600
C  -16.00800 12.49400 43.57200
C  -15.99000 11.24100 44.51300
N  -11.14600 14.29900 42.95300
C  -11.68000 13.16200 43.46900
C  -10.69200 12.13300 43.56500
C  -9.51900 12.75900 43.14000
C  -9.92000 14.01400 42.71900
C  -10.92900 10.77500 44.13900
C  -8.11000 12.55600 42.91700
O  -7.35200 11.54100 43.08900
C  -7.61800 13.86800 42.40700
C  -6.79500 14.43300 43.44400
O  -7.19800 15.21500 44.29600
O  -5.47400 14.11000 43.23400
C  -4.55000 14.63300 44.27900
H  -10.65800 20.19800 40.94600
H  -16.12900 17.63100 42.66000
H  -13.54100 12.23400 44.28700
H  -7.04800 17.02600 41.94400
H  -8.37300 18.76500 39.92900
H  -7.04400 19.12600 42.45600
H  -8.39400 20.18300 42.23700
H  -7.05700 20.28000 41.03700
H  -7.19100 17.25400 39.06700
H  -7.49400 15.55600 39.54800
H  -5.34100 16.14900 41.02600
H  -5.13600 17.34200 39.75500
H  -13.24100 22.19100 40.89600
H  -13.71800 21.22000 39.47200
H  -12.00200 21.42500 39.97300
H  -17.35900 18.63400 41.07900
H  -17.95500 20.35400 41.45500
H  -17.13500 19.36000 42.68800
H  -16.71700 14.86800 42.63500
H  -15.48000 13.74700 45.24100
H  -18.18100 16.01700 43.87800
H  -17.08400 16.45200 45.12500
H  -17.79000 14.89300 45.14200
H  -15.56100 12.37800 42.58500
H  -17.07100 12.51000 43.33100
H  -15.71500 10.36600 43.92300
H  -16.86500 10.99300 45.11300
H  -15.16400 11.44500 45.19400
H  -10.12400 10.58200 44.84800
H  -10.93200 10.16600 43.23500
H  -11.89500 10.64200 44.62400
H  -6.99800 13.72500 41.52100
H  -4.36700 15.70700 44.31600
H  -3.59100 14.11600 44.23500
H  -4.98500 14.32000 45.22900

