158

Mg 1.16600 8.47700 26.78500
C  1.17700 10.40900 29.66000
C  1.63200 5.73000 28.73000
C  1.11900 6.61900 23.89400
C  1.17900 11.37500 24.91400
N  1.35400 8.16800 28.97100
C  1.13400 9.03900 29.93500
C  0.95800 8.39500 31.25600
C  1.42100 6.93400 31.00100
C  1.47400 6.91300 29.41700
C  2.77900 6.59800 31.56900
C  -0.47800 8.63700 31.81200
C  -0.53600 8.92000 33.33000
H  0.54200 8.26100 34.20600
N  1.31000 6.42400 26.37600
C  1.48100 5.49200 27.31100
C  1.49000 4.16900 26.65000
C  1.33100 4.41900 25.24800
C  1.20800 5.86100 25.10800
C  1.60300 2.90600 27.37600
C  1.36100 3.42400 24.10800
O  1.43200 3.79700 22.97200
C  1.49600 1.93000 24.37700
N  0.91700 8.92200 24.75200
C  0.95700 8.00200 23.74700
C  1.01900 8.64300 22.35100
C  0.74500 10.22800 22.70300
C  1.04300 10.16800 24.20400
C  2.31600 8.41900 21.58300
C  -0.73300 10.73900 22.44200
C  -0.96200 11.89800 21.29300
N  1.24500 10.49300 27.15100
C  1.33400 11.56400 26.29500
C  1.55800 12.83000 26.98800
C  1.54100 12.35200 28.30900
C  1.22500 11.00100 28.35500
C  1.92400 14.22000 26.52300
C  1.79700 12.76300 29.66700
O  2.18500 13.85600 30.06800
C  1.33900 11.59200 30.55600
C  2.28600 11.42500 31.67800
O  3.49600 11.31100 31.55500
O  1.63600 11.59000 32.91100
C  2.52700 11.69800 34.13100
H  1.61100 4.89300 29.43000
H  1.54100 6.10300 23.02800
H  1.05700 12.29800 24.34300
H  1.70500 8.91200 31.85800
H  0.64800 6.23900 31.32700
H  3.52700 6.19500 30.88700
H  2.51200 5.86300 32.32800
H  3.26900 7.40200 32.11800
H  -1.17100 7.83300 31.56500
H  -0.85700 9.58600 31.43200
H  -1.48300 8.60400 33.76800
H  -0.60500 9.98900 33.53400
H  2.66500 2.69500 27.25100
H  1.02600 2.04700 27.03400
H  1.19800 3.00900 28.38300
H  0.61700 1.49000 24.84900
H  2.42600 1.75800 24.91800
H  1.66600 1.46000 23.40900
H  0.17700 8.33500 21.73200
H  1.47200 10.85600 22.18800
H  1.99500 8.07800 20.59900
H  2.90800 7.70700 22.15800
H  2.78300 9.40000 21.49700
H  -1.14900 11.04300 23.40200
H  -1.34400 9.89100 22.13400
H  -1.36700 12.81600 21.72000
H  -1.68900 11.42000 20.63700
H  -0.11500 12.28900 20.72900
H  2.12900 14.13200 25.45600
H  2.77500 14.68800 27.01900
H  1.05800 14.84700 26.73300
H  0.46000 11.78400 31.17200
H  3.28500 10.92000 34.22300
H  1.92400 11.52100 35.02100
H  2.90300 12.72100 34.16000
Mg 4.46400 53.87800 40.46100
C  4.69900 50.44200 40.87500
C  7.58700 53.80900 38.86000
C  4.11500 57.08000 39.73400
C  1.28600 53.81500 42.07500
N  5.83600 52.26500 39.74300
C  5.75200 50.93300 40.13600
C  6.99200 50.17100 39.69600
C  8.06500 51.33700 39.40500
C  7.10100 52.54600 39.30500
C  9.22800 51.50400 40.33000
C  6.83200 49.23000 38.47200
C  5.74100 49.45000 37.44500
H  6.11700 49.60400 36.01400
N  5.64300 55.24900 39.31700
C  6.90500 55.04800 38.82300
C  7.44100 56.32000 38.42000
C  6.43500 57.32800 38.69000
C  5.30300 56.58000 39.20900
C  8.87600 56.52200 38.02600
C  6.60300 58.87300 38.56900
O  7.73300 59.28300 38.27400
C  5.56400 59.92900 38.93800
N  2.79500 55.21500 40.65500
C  3.01100 56.52600 40.38500
C  1.90000 57.41500 40.99400
C  0.89200 56.31500 41.58800
C  1.68100 55.04000 41.44500
C  2.41100 58.32500 42.16400
C  -0.45300 56.19700 40.82900
C  -1.39000 57.29300 40.57500
N  3.15300 52.49300 41.37200
C  1.97100 52.59400 42.00000
C  1.68300 51.38100 42.72900
C  2.73900 50.48000 42.33000
C  3.60500 51.18400 41.46700
C  0.56700 51.07700 43.60700
C  3.19300 49.16500 42.42200
O  2.71700 48.13700 42.95000
C  4.35900 49.02400 41.38800
C  3.88700 48.14400 40.22000
O  3.24000 48.60600 39.26600
O  4.31300 46.81000 40.27800
C  3.93700 45.94700 39.13600
H  8.64900 53.79800 38.60500
H  4.02400 58.16800 39.73500
H  0.33800 53.85400 42.61600
H  7.43300 49.65300 40.54700
H  8.38200 51.18500 38.37300
H  9.08500 52.38800 40.95100
H  10.18500 51.68200 39.84000
H  9.37400 50.59600 40.91500
H  6.72400 48.23700 38.90800
H  7.74100 49.19500 37.87200
H  5.08800 50.25700 37.77700
H  5.17900 48.51900 37.51900
H  8.89700 56.76300 36.96300
H  9.37800 55.56400 37.88600
H  9.47900 57.31200 38.47500
H  5.92500 60.82700 38.43700
H  5.57300 60.06000 40.02000
H  4.59300 59.63700 38.53900
H  1.39100 58.03200 40.25200
H  0.78200 56.47000 42.66200
H  3.43600 58.12400 42.47500
H  1.65900 58.31000 42.95300
H  2.30500 59.37400 41.88800
H  -0.98300 55.38100 41.32000
H  -0.26100 55.79900 39.83300
H  -2.38600 56.89300 40.76200
H  -1.34700 57.61200 39.53300
H  -1.12600 58.14000 41.20900
H  -0.36600 51.50500 43.24100
H  0.83300 51.47600 44.58600
H  0.48600 50.00300 43.77100
H  5.22500 48.54200 41.84200
H  2.85400 45.89800 39.01900
H  4.32900 44.96400 39.39700
H  4.39200 46.40300 38.25600

