158

Mg 9.05600 47.02000 25.04100
C  6.99600 47.07100 27.90000
C  11.62400 48.28000 26.92700
C  10.87000 47.42500 22.25500
C  6.04900 47.02000 23.01400
N  9.26500 47.62000 27.18300
C  8.34800 47.40900 28.15600
C  8.95700 47.80200 29.51300
C  10.18500 48.62000 29.07500
C  10.43600 48.09100 27.67300
C  9.89300 50.13800 29.06100
C  9.25800 46.53200 30.37300
C  9.59500 46.76100 31.83000
H  9.00200 45.69400 32.78400
N  11.08800 47.48200 24.70900
C  11.97700 47.96000 25.60900
C  13.27900 48.02000 24.94400
C  13.13000 47.59300 23.55900
C  11.63600 47.47300 23.42200
C  14.63000 48.40600 25.65400
C  14.14200 47.42500 22.54400
O  13.85600 47.16400 21.38900
C  15.63900 47.69500 22.76600
N  8.48600 47.23100 22.92900
C  9.48700 47.44000 22.04700
C  8.88800 47.68100 20.68100
C  7.36200 47.35900 20.88000
C  7.25400 47.21200 22.38600
C  9.06500 49.18900 20.29500
C  6.76800 46.15400 20.20500
C  5.66700 46.42900 19.19700
N  6.93800 46.98300 25.35400
C  5.87300 46.95500 24.46600
C  4.65100 46.73200 25.27100
C  4.98500 46.77000 26.63600
C  6.42700 46.83400 26.64400
C  3.25000 46.87600 24.68400
C  4.51200 46.75800 28.06200
O  3.40100 46.95600 28.56500
C  5.90000 46.94600 28.89300
C  5.97900 45.69700 29.70000
O  6.33600 44.58300 29.26000
O  5.34700 45.91300 30.91600
C  5.27900 44.75000 31.74700
H  12.34800 48.74000 27.60300
H  11.43600 47.56600 21.33300
H  5.10400 47.21700 22.50300
H  8.23900 48.41400 30.06000
H  11.08200 48.35600 29.63500
H  10.13000 50.67700 29.97800
H  8.84200 50.35800 28.87300
H  10.57300 50.61500 28.35500
H  10.20600 46.21800 29.93800
H  8.47900 45.80600 30.13500
H  9.33600 47.73600 32.24300
H  10.67400 46.65800 31.93900
H  14.39800 48.50900 26.71400
H  14.79900 49.42900 25.31700
H  15.41800 47.68800 25.42800
H  15.93900 48.53700 23.38900
H  16.10300 47.84300 21.79000
H  15.87700 46.74100 23.23800
H  9.39500 47.09200 19.91600
H  6.71600 48.21600 20.69000
H  9.37200 49.65600 21.23100
H  8.23100 49.78100 19.91900
H  9.91900 49.29100 19.62600
H  6.25000 45.50000 20.90600
H  7.55500 45.64100 19.65200
H  5.44600 47.47900 19.00700
H  4.76200 45.91000 19.51200
H  6.02300 46.17000 18.20000
H  2.74800 47.82200 24.89000
H  2.66400 46.13900 25.23300
H  3.22700 46.55500 23.64300
H  5.68800 47.81900 29.51100
H  6.20400 44.18100 31.84800
H  4.46700 44.13700 31.35600
H  4.95900 45.00900 32.75600
Mg -8.91100 41.05500 42.19700
C  -7.98200 37.88800 41.15400
C  -6.00600 42.18900 40.51600
C  -10.10700 44.34700 42.24200
C  -12.07400 39.96100 43.13600
N  -7.29700 40.09300 40.85000
C  -7.04400 38.79200 40.72500
C  -5.70000 38.46600 40.09900
C  -4.97800 39.84800 40.06800
C  -6.16100 40.76700 40.46100
C  -3.84000 39.97700 41.02000
C  -5.95300 37.82500 38.65800
C  -5.15300 36.59900 38.32900
H  -3.94800 36.66400 37.36800
N  -8.17500 42.92600 41.49800
C  -6.95900 43.15000 40.94700
C  -6.78300 44.58000 40.73800
C  -7.96900 45.29300 41.09200
C  -8.88400 44.19600 41.56900
C  -5.48400 45.12600 40.12400
C  -8.17400 46.79400 40.90800
O  -7.25400 47.47900 40.42000
C  -9.49700 47.46200 41.36400
N  -10.83800 41.99200 42.64900
C  -10.97200 43.36200 42.77900
C  -12.49600 43.63400 43.20200
C  -13.02900 42.26700 43.67700
C  -11.89300 41.32500 43.22300
C  -12.65100 44.72200 44.23000
C  -14.44900 41.81900 43.12300
C  -15.53500 41.60100 44.22100
N  -9.81400 39.32500 42.27900
C  -11.14300 39.02300 42.68800
C  -11.33600 37.57500 42.60200
C  -10.06900 37.12700 42.12600
C  -9.28100 38.21300 41.78300
C  -12.55600 36.72700 43.02800
C  -9.36500 35.98600 41.84800
O  -9.67800 34.81000 42.10600
C  -8.01200 36.35600 41.07400
C  -6.90100 35.72800 41.79500
O  -6.21200 36.24100 42.72900
O  -6.92600 34.45800 41.37300
C  -6.41400 33.52400 42.32800
H  -5.07500 42.49900 40.03700
H  -10.35700 45.41000 42.27800
H  -13.00600 39.56200 43.54300
H  -5.11500 37.77900 40.71000
H  -4.70200 40.19400 39.07200
H  -2.94800 39.60800 40.51300
H  -3.88000 39.24400 41.82600
H  -3.73000 40.92300 41.54900
H  -5.62800 38.59700 37.96100
H  -7.01700 37.69300 38.45700
H  -5.86300 35.81100 38.07500
H  -4.80600 36.19800 39.28100
H  -4.61500 44.46800 40.11900
H  -5.16300 45.91200 40.80800
H  -5.49000 45.74200 39.22500
H  -10.34600 47.11200 40.77600
H  -9.46500 48.52700 41.13300
H  -9.64000 47.25900 42.42500
H  -13.06700 43.94000 42.32500
H  -13.07700 42.24200 44.76500
H  -11.65200 45.08700 44.47100
H  -13.21100 44.35900 45.09100
H  -13.15400 45.59600 43.81800
H  -14.38500 41.00500 42.40100
H  -14.71700 42.70700 42.54900
H  -16.33600 42.33500 44.13900
H  -15.11200 41.42300 45.21000
H  -15.89000 40.59900 43.97900
H  -12.25200 35.68600 43.13100
H  -13.16400 36.81100 42.12800
H  -13.01900 37.06300 43.95600
H  -8.04000 35.97300 40.05400
H  -5.37000 33.71500 42.57800
H  -6.51800 32.65700 41.67500
H  -6.96900 33.49900 43.26600

