158

Mg 17.29100 -1.42500 27.93300
C  16.24900 0.81400 30.49100
C  19.32900 -2.89900 30.18400
C  18.52800 -3.13400 25.40900
C  15.47700 0.60700 25.69900
N  17.81600 -0.95700 30.05300
C  17.11200 -0.19800 30.91200
C  17.65100 -0.25700 32.34500
C  18.67700 -1.44200 32.24100
C  18.69800 -1.77700 30.71000
C  20.09300 -1.14800 32.72100
C  16.53800 -0.57900 33.44000
C  16.68600 0.15600 34.81400
H  18.05100 0.59100 35.26300
N  18.80400 -2.80700 27.85000
C  19.44200 -3.37400 28.90800
C  20.26800 -4.46400 28.39600
C  20.01700 -4.58900 26.96600
C  19.11400 -3.45100 26.65400
C  21.25100 -5.19900 29.30600
C  20.61100 -5.53600 25.90600
O  20.54600 -5.47900 24.71300
C  21.51100 -6.74200 26.36900
N  17.10800 -1.17400 25.84100
C  17.62800 -2.14700 25.02900
C  17.35800 -1.80700 23.54000
C  16.41900 -0.56900 23.67500
C  16.27400 -0.37100 25.19200
C  18.63700 -1.35400 22.78200
C  15.03700 -0.72600 23.05400
C  14.00000 -1.60500 23.75100
N  15.99500 0.28200 28.03100
C  15.24000 0.94300 27.06100
C  14.49500 2.00800 27.64200
C  14.84100 2.03200 29.05600
C  15.77400 0.96900 29.17500
C  13.62400 3.07300 26.90400
C  14.68900 2.70100 30.30600
O  14.01600 3.69000 30.63600
C  15.59500 1.95500 31.29300
C  16.41300 2.99900 32.03900
O  17.52900 3.39800 31.72700
O  15.64700 3.47600 33.06500
C  16.31600 4.51500 33.90300
H  19.92200 -3.43100 30.93100
H  18.88100 -3.69300 24.54000
H  14.96100 1.27700 25.00900
H  18.12700 0.68100 32.63500
H  18.16300 -2.19400 32.84000
H  20.44400 -1.85900 33.46900
H  20.07300 -0.12000 33.08100
H  20.83000 -1.13800 31.91800
H  16.32700 -1.61300 33.71400
H  15.56300 -0.16600 33.18300
H  16.20400 -0.44000 35.59000
H  16.07900 1.06100 34.77500
H  20.74800 -5.93400 29.93500
H  21.59800 -4.56300 30.12100
H  22.14100 -5.65400 28.87200
H  20.88900 -7.17100 27.15400
H  22.45600 -6.34100 26.73500
H  21.61800 -7.51900 25.61200
H  16.92500 -2.63000 22.97300
H  16.83000 0.37000 23.30200
H  18.77300 -0.27400 22.73400
H  18.60600 -1.79200 21.78400
H  19.53900 -1.76700 23.23500
H  15.07300 -1.02200 22.00600
H  14.60500 0.26400 22.90800
H  13.30800 -0.94700 24.27700
H  14.36800 -2.38000 24.42300
H  13.38100 -2.05200 22.97400
H  12.55700 2.86300 26.96100
H  13.86500 3.10200 25.84100
H  13.72800 3.99100 27.48300
H  14.90700 1.53700 32.02800
H  16.89000 5.31400 33.43400
H  17.01200 4.06300 34.60900
H  15.56900 5.06500 34.47400
Mg -5.74900 24.67400 25.78600
C  -4.02300 26.22800 28.49700
C  -7.02800 22.46700 28.20100
C  -7.11700 22.99600 23.34300
C  -4.13900 26.82800 23.66800
N  -5.57500 24.46700 28.09200
C  -4.88600 25.18400 28.97900
C  -5.28300 24.98200 30.48700
C  -6.02600 23.59300 30.30400
C  -6.26200 23.48200 28.73400
C  -5.34700 22.36000 30.92300
C  -6.08100 26.22800 31.01000
C  -5.77900 26.78500 32.41100
H  -5.23400 25.78700 33.40600
N  -7.00100 23.04500 25.79300
C  -7.44300 22.26500 26.85700
C  -8.28800 21.20300 26.30200
C  -8.48400 21.42300 24.88300
C  -7.47900 22.52100 24.61600
C  -8.98500 20.10000 27.16600
C  -9.44600 20.77200 23.97200
O  -9.56000 20.95000 22.76900
C  -10.51700 19.82700 24.50900
N  -5.53200 24.77300 23.73200
C  -6.22600 23.95700 22.91300
C  -5.93500 24.28500 21.45000
C  -4.96400 25.59500 21.46600
C  -4.87500 25.73100 23.03100
C  -5.39900 22.97200 20.75500
C  -5.57400 26.71700 20.57800
C  -4.59500 27.30200 19.57200
N  -4.23500 26.13400 26.01900
C  -3.84200 27.02100 25.05100
C  -2.87700 27.94400 25.55700
C  -2.92200 27.68700 26.95200
C  -3.78600 26.58500 27.18600
C  -2.15900 29.11800 24.90700
C  -2.52300 28.24200 28.17800
O  -1.87400 29.21200 28.36100
C  -3.19800 27.26000 29.31900
C  -2.10800 26.59300 30.10800
O  -1.15000 25.94300 29.63700
O  -2.36400 26.92600 31.44000
C  -1.26900 26.57900 32.34400
H  -7.36400 21.70000 28.90200
H  -7.57000 22.39800 22.54900
H  -3.64900 27.48700 22.94900
H  -4.37500 24.99600 31.09000
H  -7.05300 23.55900 30.66800
H  -4.67900 22.73000 31.70100
H  -4.81300 21.74400 30.20000
H  -6.24200 21.81100 31.21500
H  -7.12300 25.91200 31.05900
H  -6.18500 27.05800 30.31100
H  -6.67200 27.28800 32.78400
H  -5.10900 27.61100 32.17400
H  -9.26500 19.14000 26.73100
H  -9.91400 20.46500 27.60400
H  -8.22600 19.88800 27.91800
H  -10.96900 20.15900 25.44400
H  -10.16900 18.80100 24.62500
H  -11.32000 19.66800 23.78900
H  -6.88900 24.54900 20.99400
H  -4.00500 25.29900 21.04200
H  -4.44800 23.26600 20.31000
H  -6.02600 22.76100 19.88900
H  -5.13200 22.12000 21.38000
H  -5.86700 27.53900 21.23100
H  -6.49300 26.46200 20.05000
H  -3.80800 26.61400 19.26300
H  -4.19400 28.20000 20.04200
H  -5.07400 27.52300 18.61800
H  -1.72600 29.89100 25.54200
H  -2.92500 29.53300 24.25100
H  -1.40400 28.65800 24.26900
H  -3.77300 27.86900 30.01700
H  -0.44000 27.20900 32.02300
H  -0.87100 25.58700 32.13200
H  -1.49000 26.73600 33.40000

