158

Mg 24.84800 -6.95200 48.06500
C  27.47300 -4.90400 46.80500
C  22.79200 -5.65900 45.48700
C  22.53800 -9.30700 48.83100
C  27.20200 -8.60300 49.78400
N  25.14900 -5.53100 46.27000
C  26.29900 -4.85300 45.98300
C  26.07800 -3.98300 44.77300
C  24.55000 -4.11600 44.41500
C  24.11000 -5.11600 45.46400
C  23.74600 -2.76100 44.33000
C  27.11500 -4.40700 43.59100
C  27.88700 -3.31000 42.92700
H  27.70100 -2.99100 41.45600
N  22.92700 -7.32100 47.40500
C  22.20400 -6.65600 46.39800
C  20.90200 -7.21100 46.28300
C  20.80400 -8.33900 47.18400
C  22.09300 -8.34500 47.92000
C  19.89600 -6.66100 45.35000
C  19.69400 -9.31600 47.30900
O  18.81800 -9.31200 46.49100
C  19.55100 -10.33000 48.38300
N  24.91500 -8.71000 49.10000
C  23.76400 -9.46700 49.38300
C  24.08700 -10.61500 50.28500
C  25.56400 -10.43700 50.68900
C  25.96100 -9.19400 49.82800
C  23.07900 -10.84000 51.45400
C  26.35400 -11.72200 50.27000
C  27.23200 -12.33900 51.35800
N  26.88400 -6.72600 48.47600
C  27.70300 -7.49500 49.17800
C  28.96900 -6.87000 49.30300
C  28.92600 -5.82600 48.41800
C  27.65300 -5.90600 47.74600
C  30.21900 -7.34100 50.03200
C  29.60400 -4.68400 47.88200
O  30.67900 -4.28800 48.28000
C  28.79300 -4.03900 46.70200
C  28.54500 -2.63400 46.91100
O  28.10000 -2.15100 47.96900
O  28.93600 -1.91500 45.81800
C  28.94200 -0.47200 45.90100
H  22.22800 -5.33000 44.61200
H  21.79900 -10.06800 49.09300
H  27.81500 -9.21500 50.44800
H  26.24700 -2.99100 45.19200
H  24.51900 -4.61900 43.44900
H  24.40100 -1.89200 44.39100
H  22.99400 -2.79900 45.11900
H  23.30500 -2.70700 43.33500
H  26.47200 -4.87000 42.84300
H  27.77300 -5.19300 43.96100
H  28.92600 -3.61400 43.05600
H  27.78900 -2.36400 43.46000
H  19.95300 -7.07900 44.34500
H  20.03400 -5.58000 45.36500
H  18.86200 -6.77300 45.67400
H  20.19000 -11.16900 48.11000
H  18.59800 -10.80300 48.14800
H  19.68800 -9.94800 49.39500
H  23.88300 -11.54700 49.75800
H  25.63000 -10.29600 51.76800
H  22.36700 -11.65800 51.34400
H  22.42000 -9.98100 51.58700
H  23.60900 -10.95500 52.39900
H  27.01500 -11.60200 49.41100
H  25.64100 -12.50700 50.01900
H  28.17800 -12.60900 50.88800
H  26.75900 -13.14300 51.92100
H  27.51000 -11.54100 52.04700
H  30.93600 -7.77800 49.33800
H  30.23000 -8.12600 50.78800
H  30.69900 -6.41300 50.34200
H  29.31900 -4.26500 45.77400
H  29.46800 0.04000 45.09600
H  29.25700 -0.14800 46.89200
H  27.90200 -0.15300 45.83100
Mg 25.94400 -1.29800 29.03400
C  27.95100 -1.26500 31.95700
C  23.20800 -0.58800 31.26100
C  23.93700 -1.28800 26.37300
C  28.57200 -2.43900 27.16100
N  25.61700 -1.07600 31.38600
C  26.61800 -0.95700 32.31700
C  26.06400 -0.47000 33.73100
C  24.55500 -0.38000 33.45700
C  24.43800 -0.79400 31.93500
C  23.69800 -1.05700 34.53000
C  26.58600 0.88500 34.38800
C  27.32500 0.86900 35.68200
H  26.98800 1.81500 36.85600
N  23.89000 -0.98600 28.82400
C  22.98300 -0.69600 29.83200
C  21.75000 -0.45800 29.12800
C  21.93200 -0.51400 27.76800
C  23.32900 -0.99800 27.57300
C  20.39600 -0.33000 29.78900
C  20.93600 -0.15200 26.66200
O  21.32200 -0.07700 25.48900
C  19.54200 0.27100 26.90500
N  26.15700 -1.95100 27.07700
C  25.26000 -1.69300 26.14100
C  25.74600 -2.12200 24.72300
C  27.24400 -2.35500 24.98500
C  27.36400 -2.19100 26.50800
C  25.03200 -3.33500 24.13200
C  28.23800 -1.44100 24.19700
C  28.00500 0.05200 24.27800
N  27.82800 -1.87600 29.44600
C  28.78200 -2.25600 28.53500
C  30.03500 -2.31500 29.22900
C  29.74100 -1.91200 30.59300
C  28.41000 -1.67100 30.67400
C  31.30500 -2.84400 28.60500
C  30.36000 -1.68900 31.88500
O  31.49700 -1.78800 32.36500
C  29.19100 -1.17300 32.76000
C  29.01300 -2.01600 34.06500
O  28.60000 -3.14400 34.14700
O  29.65100 -1.30500 35.03900
C  29.61200 -1.83300 36.44900
H  22.37100 -0.23000 31.86500
H  23.35200 -1.10800 25.46900
H  29.46200 -2.70900 26.58800
H  26.46500 -1.26800 34.35600
H  24.17800 0.62900 33.62400
H  22.79900 -0.46100 34.69000
H  24.16700 -1.32700 35.47700
H  23.22300 -1.98400 34.20700
H  25.85700 1.68500 34.50800
H  27.26800 1.26100 33.62500
H  28.40200 0.83900 35.51400
H  27.03100 -0.10500 36.07100
H  20.44600 -0.42500 30.87300
H  19.79300 -1.18300 29.47700
H  19.83800 0.55800 29.49100
H  19.03800 -0.57300 27.37600
H  19.08400 0.45100 25.93300
H  19.44000 1.16800 27.51600
H  25.68600 -1.31000 23.99800
H  27.47100 -3.40000 24.77400
H  24.61300 -3.04200 23.17000
H  24.28300 -3.68100 24.84500
H  25.77200 -4.12500 24.00500
H  28.29000 -1.77300 23.16000
H  29.20300 -1.63000 24.66500
H  27.06600 0.29600 24.77400
H  28.10800 0.48900 23.28500
H  28.75600 0.55100 24.89100
H  31.39500 -2.64100 27.53700
H  31.36700 -3.92700 28.71500
H  32.16700 -2.43200 29.12900
H  29.32200 -0.12500 33.03000
H  28.64900 -1.75800 36.95500
H  30.39200 -1.54100 37.15200
H  29.76400 -2.91000 36.38100

