158

Mg 29.95500 57.37600 39.73700
C  27.23300 55.18400 38.91900
C  32.10900 54.79300 38.89700
C  32.40400 59.58600 40.07000
C  27.62500 59.90900 40.21100
N  29.69300 55.30200 38.95500
C  28.49800 54.55600 38.74700
C  28.75700 53.08000 38.47400
C  30.27600 52.97900 38.70300
C  30.77000 54.43400 38.84600
C  30.73000 52.12800 39.94600
C  28.19900 52.73000 37.01900
C  28.73000 53.38700 35.68400
H  27.73500 54.27900 34.83500
N  31.99400 57.19800 39.43800
C  32.67700 56.07400 39.05900
C  34.05800 56.44300 39.06500
C  34.24800 57.81700 39.39800
C  32.86800 58.24700 39.68700
C  35.01200 55.44800 38.54900
C  35.62200 58.58400 39.27400
O  36.62900 57.97500 38.92700
C  35.74200 60.11900 39.65600
N  29.96300 59.52800 40.18700
C  31.11400 60.17800 40.21900
C  30.86200 61.66600 40.59200
C  29.30600 61.69800 40.78900
C  28.91200 60.32100 40.38200
C  31.66300 62.11900 41.86300
C  28.60800 62.88200 40.01100
C  27.86700 63.96100 40.66900
N  27.87300 57.50300 39.73600
C  27.09500 58.63800 39.87100
C  25.76000 58.27700 39.73000
C  25.80500 56.96000 39.45400
C  27.10200 56.49600 39.32000
C  24.54700 59.16200 39.84900
C  24.92900 55.81600 39.25400
O  23.71800 55.75500 39.41800
C  25.80800 54.61800 38.79800
C  25.47600 53.43400 39.71800
O  25.98000 53.12600 40.76200
O  24.56500 52.67500 39.09400
C  23.97500 51.49200 39.73700
H  32.80100 53.97300 38.70000
H  33.21000 60.31900 40.14300
H  26.84300 60.66000 40.34300
H  28.28500 52.51200 39.27500
H  30.87900 52.63900 37.86100
H  31.71600 51.68500 39.80700
H  29.99700 51.32100 39.96200
H  30.67500 52.67300 40.88800
H  27.11400 52.72900 37.13000
H  28.49700 51.68200 36.99200
H  29.14100 52.57300 35.08700
H  29.60800 54.01900 35.81800
H  34.58400 54.97000 37.66800
H  35.14000 54.61900 39.24400
H  35.96800 55.83000 38.19200
H  35.43300 60.22600 40.69600
H  35.23700 60.74000 38.91700
H  36.80600 60.33500 39.75700
H  31.17700 62.34900 39.80400
H  29.03600 61.60800 41.84100
H  32.00200 63.13100 41.64500
H  32.43900 61.36400 41.98900
H  30.99000 62.12400 42.72000
H  27.96800 62.57600 39.18300
H  29.35500 63.40600 39.41400
H  26.83900 63.86700 40.31700
H  28.23700 64.93700 40.35300
H  27.91400 63.88200 41.75500
H  24.82500 60.18500 39.59400
H  24.21300 59.08600 40.88300
H  23.71800 58.71400 39.30100
H  25.68000 54.27700 37.77100
H  24.54500 50.79200 39.12600
H  22.90400 51.54400 39.53800
H  24.08300 51.47600 40.82100
Mg 26.79600 50.38000 26.82700
C  24.59500 51.40700 29.40100
C  29.03200 49.32800 29.15100
C  28.73100 49.72200 24.25500
C  24.48500 51.95700 24.52200
N  26.73300 50.45400 28.98100
C  25.76800 50.90000 29.86600
C  26.14000 50.55300 31.38100
C  27.64900 50.06300 31.24500
C  27.81600 49.90600 29.71900
C  28.66500 51.01000 31.85700
C  25.11400 49.46500 31.94300
C  24.37100 49.88900 33.26100
H  24.16500 48.97100 34.46100
N  28.57800 49.62300 26.66100
C  29.31500 49.15900 27.77800
C  30.56900 48.64300 27.27300
C  30.52800 48.72100 25.82900
C  29.29900 49.40100 25.49600
C  31.62200 48.08400 28.16800
C  31.58900 48.17100 24.86100
O  31.51100 48.27000 23.65400
C  32.74500 47.40700 25.31400
N  26.62500 50.90800 24.68700
C  27.57900 50.42800 23.85000
C  27.07500 50.52400 22.38800
C  25.61600 51.00400 22.53300
C  25.54300 51.32100 24.04600
C  28.04000 51.44000 21.57300
C  24.43100 50.04500 22.18300
C  23.41200 50.53300 21.13100
N  24.90000 51.47200 26.91700
C  24.09700 51.95700 25.90700
C  22.87200 52.55500 26.50900
C  23.00500 52.29600 27.89400
C  24.27900 51.68700 28.08300
C  21.77700 53.31300 25.71000
C  22.32500 52.45700 29.16400
O  21.29700 52.97300 29.52400
C  23.41900 51.99000 30.20400
C  23.93100 53.13000 31.04300
O  25.04200 53.71000 30.91400
O  23.09700 53.37500 32.02800
C  23.40300 54.48100 32.98200
H  29.72100 48.91300 29.89000
H  29.32700 49.35600 23.41600
H  23.73500 52.26300 23.79000
H  26.20100 51.53100 31.85800
H  27.75400 49.10600 31.75600
H  29.20300 50.42900 32.60600
H  28.24800 51.94100 32.24200
H  29.28700 51.38600 31.04400
H  25.69100 48.55400 32.10400
H  24.40000 49.22400 31.15500
H  23.41600 50.22700 32.85900
H  24.85200 50.81300 33.58100
H  31.51000 48.19800 29.24700
H  32.62100 48.50500 28.05600
H  31.86500 47.03100 28.02500
H  32.41700 46.70000 26.07700
H  33.43600 48.04700 25.86200
H  33.16100 46.94300 24.42000
H  27.21600 49.51800 21.99300
H  25.47400 51.93500 21.98400
H  29.02100 51.46600 22.04600
H  27.54600 52.36800 21.28600
H  28.15400 50.95400 20.60400
H  23.89900 49.78600 23.09800
H  24.94800 49.14000 21.86300
H  23.64800 50.15400 20.13700
H  23.54700 51.61000 21.02700
H  22.39200 50.26100 21.40000
H  21.86600 53.30800 24.62300
H  21.94900 54.33500 26.04900
H  20.80200 53.06700 26.12900
H  22.89400 51.30000 30.86400
H  23.98800 54.08200 33.81100
H  22.51400 54.86500 33.48200
H  23.80800 55.36800 32.49500

