158

Mg 23.50200 -5.48100 45.86000
C  25.92500 -3.61600 44.11800
C  21.24100 -4.56500 43.42700
C  21.48000 -8.05800 46.88100
C  26.20100 -7.00600 47.69100
N  23.57900 -4.26400 44.01300
C  24.61900 -3.52100 43.54200
C  24.22200 -2.66100 42.36000
C  22.61000 -2.74600 42.54300
C  22.51700 -4.00600 43.34200
C  22.03000 -1.50200 43.25800
C  24.77600 -3.33300 41.07600
C  25.53400 -2.42100 40.02200
H  25.01900 -2.46300 38.58600
N  21.56700 -6.07700 45.30400
C  20.76100 -5.60500 44.24600
C  19.60500 -6.37800 44.19600
C  19.58700 -7.30900 45.27700
C  20.92400 -7.19700 45.87800
C  18.51200 -6.16400 43.13400
C  18.51300 -8.23300 45.65700
O  17.43000 -8.09200 45.09500
C  18.57400 -9.34200 46.73400
N  23.87300 -7.42400 46.90200
C  22.79000 -8.15700 47.29300
C  23.33600 -9.25500 48.28500
C  24.74700 -8.76100 48.71000
C  24.97800 -7.58600 47.74900
C  22.50500 -9.60100 49.52000
C  25.78600 -9.91700 48.67600
C  26.25100 -10.30200 47.23900
N  25.64600 -5.28500 46.04800
C  26.53600 -5.92400 46.88800
C  27.83900 -5.28600 46.60800
C  27.61600 -4.28700 45.61800
C  26.30200 -4.44300 45.25000
C  29.17300 -5.67000 47.35800
C  28.20100 -3.26900 44.83700
O  29.33400 -3.02200 44.82000
C  27.12300 -2.85700 43.72700
C  26.94600 -1.41000 43.99200
O  26.59500 -0.93500 45.09600
O  27.34200 -0.69500 42.92300
C  27.19700 0.75800 43.11800
H  20.46700 -4.18800 42.75700
H  20.92700 -8.87600 47.34800
H  26.90000 -7.37900 48.44300
H  24.69400 -1.69500 42.53800
H  22.08700 -2.89300 41.59700
H  22.77100 -0.89900 43.78400
H  21.22700 -1.78300 43.94000
H  21.48100 -0.81000 42.62000
H  24.00500 -3.80000 40.46200
H  25.31900 -4.25400 41.28900
H  26.58300 -2.71800 40.04400
H  25.54400 -1.39500 40.38900
H  18.02600 -7.11100 42.90200
H  19.09900 -5.88800 42.25800
H  17.86800 -5.30700 43.33400
H  17.74200 -10.00400 46.49400
H  18.54200 -8.84100 47.70100
H  19.46700 -9.95400 46.60800
H  23.50300 -10.17000 47.71600
H  24.75700 -8.34800 49.71900
H  21.76500 -8.83700 49.75800
H  23.07900 -9.72200 50.43900
H  21.96800 -10.51100 49.25400
H  25.44100 -10.83100 49.16000
H  26.72300 -9.64600 49.16200
H  27.27700 -9.96500 47.09000
H  25.68300 -9.73400 46.50200
H  26.11200 -11.37500 47.10000
H  29.95000 -6.01300 46.67500
H  28.93200 -6.51300 48.00600
H  29.42200 -4.77200 47.92300
H  27.45100 -3.08100 42.71200
H  26.22400 1.04100 43.52100
H  27.51700 1.49500 42.38100
H  27.97200 1.00400 43.84300
Mg 47.00200 17.52400 28.50800
C  45.33800 16.81600 31.55100
C  49.59800 18.83900 30.31600
C  48.29400 18.32500 25.64800
C  44.25800 16.06600 26.82900
N  47.37900 17.91100 30.74200
C  46.56100 17.60000 31.76400
C  47.22300 17.96600 33.05700
C  48.42700 18.86000 32.56300
C  48.44800 18.54600 31.12000
C  48.35400 20.42200 32.78100
C  47.58100 16.77900 34.01400
C  47.27600 16.85000 35.52700
H  46.96700 18.13900 36.18300
N  48.82900 18.43800 28.06300
C  49.84200 18.75700 28.92100
C  50.99600 18.95300 28.14700
C  50.58700 19.02800 26.78700
C  49.17400 18.60200 26.75500
C  52.32600 19.24300 28.77300
C  51.44000 19.37300 25.54900
O  51.02700 19.28300 24.36100
C  52.83200 19.86400 25.73100
N  46.40500 17.20600 26.48000
C  47.10800 17.69500 25.45100
C  46.44600 17.38000 24.09000
C  45.18500 16.54700 24.46600
C  45.28100 16.53700 25.98800
C  46.17200 18.47300 23.06300
C  45.16400 15.09200 23.83100
C  44.69600 14.98400 22.37200
N  45.14600 16.72200 29.01500
C  44.18200 16.02900 28.21700
C  43.12600 15.48000 29.00400
C  43.54700 15.81700 30.31100
C  44.81300 16.48600 30.27200
C  42.02800 14.58100 28.60900
C  43.25800 15.59200 31.77000
O  42.29800 14.95300 32.32300
C  44.37100 16.35400 32.57200
C  43.66900 17.45400 33.33800
O  43.68100 18.64700 33.06600
O  43.16300 16.94600 34.50000
C  42.66400 17.99600 35.45300
H  50.43300 19.25100 30.88600
H  48.76400 18.63600 24.71300
H  43.45800 15.74400 26.15900
H  46.48900 18.58900 33.56800
H  49.29800 18.42000 33.04800
H  47.92300 20.87300 31.88700
H  49.33400 20.75100 33.12700
H  47.63900 20.49900 33.60000
H  48.64500 16.58400 33.87800
H  47.01200 15.93600 33.62200
H  48.14900 16.37100 35.97000
H  46.45100 16.20200 35.82100
H  52.20700 19.11300 29.84900
H  52.58600 20.29200 28.62900
H  53.07400 18.52400 28.43900
H  52.86000 20.77500 26.32800
H  53.13800 20.28700 24.77400
H  53.57200 19.10100 25.97500
H  47.12800 16.71800 23.55900
H  44.24100 16.97000 24.12300
H  46.40100 17.95600 22.13100
H  46.74900 19.38000 23.24400
H  45.09800 18.65700 23.07500
H  44.63100 14.37500 24.45600
H  46.13400 14.64100 24.03800
H  45.45900 14.43400 21.82000
H  44.59900 15.98900 21.96200
H  43.70900 14.55700 22.19500
H  41.92300 13.82200 29.38400
H  42.32300 14.22700 27.62100
H  41.11700 15.17500 28.54100
H  44.83100 15.78700 33.38100
H  42.54200 17.48500 36.40800
H  41.80100 18.58900 35.15200
H  43.45100 18.73200 35.61900

