158

Mg 48.19600 15.25500 27.97300
C  46.40300 15.09200 30.93300
C  50.55200 17.29800 29.56300
C  49.82000 15.64200 25.03300
C  45.53700 13.74100 26.27400
N  48.37100 16.05300 30.00300
C  47.55100 15.92200 31.08900
C  47.96000 16.65200 32.29900
C  49.07100 17.58300 31.65900
C  49.40100 16.91200 30.28200
C  48.76000 19.12000 31.60100
C  48.48500 15.77100 33.49400
C  47.95400 16.16500 34.88100
H  49.05800 16.25500 35.93800
N  50.07100 16.21200 27.40700
C  50.87800 16.90800 28.24000
C  52.04600 17.26100 27.51600
C  51.81000 16.99200 26.15500
C  50.53100 16.21600 26.14400
C  53.20700 17.84600 28.27000
C  52.62300 17.30900 24.99500
O  52.46700 16.73500 23.87900
C  53.93900 18.12600 25.20200
N  47.71300 14.71500 25.86300
C  48.61300 14.92800 24.83900
C  48.20500 14.25700 23.56300
C  46.84100 13.59300 24.01900
C  46.66000 13.96700 25.48500
C  48.09400 15.26700 22.28800
C  46.62700 12.11400 23.77800
C  47.25400 11.03400 24.72300
N  46.31300 14.57100 28.42200
C  45.37200 13.95600 27.64400
C  44.34400 13.44600 28.50800
C  44.70200 13.85100 29.80200
C  45.91200 14.52600 29.68600
C  43.17200 12.54100 27.98400
C  44.36300 13.72500 31.19000
O  43.45800 13.16600 31.80700
C  45.37800 14.66700 31.95800
C  44.41200 15.72700 32.50600
O  44.02200 16.66600 31.83900
O  44.06900 15.42600 33.80400
C  43.05300 16.19400 34.44300
H  51.27800 17.97300 30.02000
H  50.37400 15.72400 24.09500
H  44.70000 13.22400 25.80000
H  47.07700 17.25600 32.50800
H  49.94100 17.53900 32.31400
H  47.80500 19.35200 32.07200
H  48.75800 19.46900 30.56800
H  49.56700 19.72200 32.01900
H  49.57300 15.79300 33.43700
H  48.23300 14.73400 33.26800
H  47.18600 15.40500 35.02600
H  47.49400 17.15100 34.92800
H  53.24700 17.25600 29.18600
H  53.10500 18.87700 28.60700
H  54.16800 17.76700 27.76200
H  54.67800 17.39300 25.52600
H  53.67800 18.87700 25.94800
H  54.31000 18.63200 24.31100
H  48.88500 13.42400 23.38200
H  46.09300 14.11900 23.42600
H  48.86500 15.06900 21.54300
H  48.22200 16.32500 22.51500
H  47.14100 15.04400 21.80800
H  46.95800 11.99500 22.74700
H  45.55100 12.14100 23.94800
H  47.82100 11.60500 25.45700
H  47.91800 10.38900 24.14700
H  46.42500 10.50200 25.19000
H  43.53000 11.86800 27.20500
H  42.35400 13.18000 27.65000
H  42.80300 11.88200 28.76900
H  45.73600 14.09500 32.81300
H  42.22300 16.52800 33.82000
H  43.45700 17.11600 34.86100
H  42.74300 15.64900 35.33500
Mg -9.52500 40.32300 42.42100
C  -8.24400 37.25900 41.41200
C  -6.67300 41.74900 41.02400
C  -10.80700 43.30900 43.14800
C  -12.55000 38.75900 43.26400
N  -7.87800 39.64000 41.01100
C  -7.49600 38.30100 40.87600
C  -6.18800 38.06300 40.11500
C  -5.53500 39.48200 40.35200
C  -6.75200 40.35900 40.85800
C  -4.42000 39.62400 41.41700
C  -6.38000 37.78400 38.64400
C  -5.69800 36.42900 38.16800
H  -4.68800 36.34300 37.03800
N  -8.80100 42.30500 42.14200
C  -7.58300 42.70300 41.57600
C  -7.59200 44.15200 41.62500
C  -8.71300 44.61700 42.35400
C  -9.53000 43.42300 42.51500
C  -6.60900 44.94900 40.79900
C  -8.91800 46.05500 42.81400
O  -8.27100 47.02900 42.40800
C  -9.93800 46.39000 43.85900
N  -11.34000 40.91000 43.28100
C  -11.71400 42.23600 43.39900
C  -13.17200 42.43300 43.92300
C  -13.66700 40.94700 43.90500
C  -12.46400 40.11500 43.49500
C  -13.33900 43.26200 45.21400
C  -14.99600 40.74600 43.05200
C  -16.23000 39.86700 43.56400
N  -10.24300 38.46000 42.51000
C  -11.45900 37.97900 42.90900
C  -11.41500 36.51700 42.80700
C  -10.14400 36.23300 42.29700
C  -9.49100 37.44000 42.04600
C  -12.42700 35.61800 43.25800
C  -9.26300 35.11400 41.86500
O  -9.39800 33.90100 41.80600
C  -7.90200 35.81400 41.37800
C  -6.85300 35.40800 42.38300
O  -6.52700 36.02600 43.42300
O  -6.22600 34.21900 41.99800
C  -5.45100 33.62900 43.03800
H  -5.73400 42.19100 40.68300
H  -11.21000 44.23200 43.56800
H  -13.44200 38.21000 43.57200
H  -5.55700 37.32600 40.61000
H  -5.18000 39.91400 39.41600
H  -3.53800 40.04900 40.93900
H  -4.19400 38.65000 41.85100
H  -4.69200 40.29000 42.23600
H  -6.15100 38.60200 37.96100
H  -7.44600 37.58700 38.52700
H  -6.51900 35.73300 37.99200
H  -5.32800 35.90900 39.05100
H  -5.75200 44.45100 40.34500
H  -6.21700 45.79100 41.37100
H  -7.19500 45.45200 40.03000
H  -10.89900 46.36900 43.34600
H  -9.88700 47.39800 44.27200
H  -9.85100 45.70200 44.70100
H  -13.60800 42.96700 43.07900
H  -13.84500 40.68500 44.94800
H  -14.32200 43.18800 45.67800
H  -13.06700 44.29100 44.97900
H  -12.62000 42.93500 45.96500
H  -14.66400 40.31000 42.11000
H  -15.42700 41.73700 42.91100
H  -17.10100 40.52000 43.62600
H  -16.03200 39.48500 44.56500
H  -16.33800 38.94800 42.98800
H  -13.20700 35.58100 42.49800
H  -12.85800 36.11600 44.12700
H  -12.06600 34.59800 43.39100
H  -7.54000 35.54000 40.38700
H  -6.18500 33.24800 43.74700
H  -4.70900 34.22900 43.56600
H  -4.80000 32.91200 42.53800

