158

Mg 30.73100 58.52600 39.37800
C  28.06000 56.46300 38.50600
C  32.87200 55.89900 38.60200
C  33.30300 60.78800 39.43200
C  28.46800 61.30700 39.51200
N  30.50000 56.50200 38.60200
C  29.34600 55.90200 38.31200
C  29.46700 54.45200 37.76100
C  31.02400 54.15600 38.11400
C  31.52400 55.55300 38.51700
C  31.23500 53.19100 39.39200
C  29.18600 54.44600 36.21100
C  29.46000 55.76400 35.37600
H  28.37500 56.27200 34.38900
N  32.82500 58.35400 38.98600
C  33.50600 57.13900 38.67900
C  34.86100 57.44800 38.59100
C  35.04500 58.88900 38.88500
C  33.72800 59.43000 39.09300
C  35.96000 56.39500 38.39100
C  36.38600 59.51600 38.99700
O  37.46400 58.94100 38.79200
C  36.46100 61.02500 39.15300
N  30.81900 60.68800 39.43700
C  32.04200 61.34400 39.53400
C  31.89500 62.80100 39.80900
C  30.33100 62.96600 39.89200
C  29.79200 61.63700 39.53400
C  32.65500 63.29400 41.20400
C  29.71500 64.10900 39.03200
C  28.48500 64.75300 39.61100
N  28.63500 58.86200 39.11600
C  27.90300 60.05100 39.22900
C  26.49100 59.65200 39.03400
C  26.54200 58.26500 38.69200
C  27.84200 57.83600 38.87100
C  25.22900 60.52500 38.99400
C  25.74700 57.06900 38.27500
O  24.51400 56.96300 38.15700
C  26.65000 55.86400 38.24900
C  26.11300 54.89300 39.30500
O  26.26300 55.05200 40.48900
O  25.25000 54.03000 38.78600
C  24.35100 53.28100 39.70100
H  33.49000 55.06400 38.26600
H  34.05000 61.57900 39.51400
H  27.68900 62.07200 39.51500
H  28.72500 53.82400 38.25400
H  31.61300 53.73500 37.30000
H  31.71000 52.32100 38.93900
H  30.29700 52.72600 39.69500
H  31.68400 53.53300 40.32400
H  28.15300 54.10200 36.15100
H  29.86500 53.68400 35.82800
H  30.33100 55.54700 34.75800
H  29.70900 56.61600 36.00900
H  35.64300 55.46700 37.91600
H  36.43100 56.30600 39.37000
H  36.65500 56.78200 37.64500
H  35.85600 61.25300 40.03100
H  36.15700 61.53900 38.24100
H  37.49300 61.35100 39.27600
H  32.31300 63.31600 38.94400
H  29.99700 63.17400 40.90800
H  32.90300 62.45500 41.85400
H  32.08500 63.96200 41.85000
H  33.60800 63.75600 40.94400
H  29.49100 63.79000 38.01400
H  30.40500 64.95100 38.98600
H  27.82200 64.91700 38.76200
H  28.81900 65.67200 40.09300
H  28.04000 64.03900 40.30300
H  25.19700 60.91100 40.01300
H  24.35900 59.93700 38.70400
H  25.38000 61.38300 38.33800
H  26.58100 55.36500 37.28200
H  24.86200 53.13900 40.65300
H  24.12900 52.32500 39.22600
H  23.36100 53.73500 39.73800
Mg -5.48000 25.42500 26.26300
C  -4.04500 26.81600 29.10000
C  -7.46900 23.32700 28.31000
C  -6.49300 23.88200 23.50800
C  -3.10700 27.22900 24.35900
N  -5.67600 25.01000 28.44400
C  -5.00300 25.76800 29.38900
C  -5.54700 25.50400 30.83200
C  -6.48000 24.21000 30.51900
C  -6.58000 24.18000 29.01500
C  -5.88200 22.89800 31.18100
C  -6.36300 26.58900 31.52500
C  -6.01400 26.75100 32.98700
H  -5.94100 25.58000 33.93900
N  -6.86000 23.82700 25.92100
C  -7.60900 23.18000 26.87000
C  -8.44800 22.21800 26.16500
C  -8.08600 22.26000 24.77000
C  -7.08000 23.31600 24.69000
C  -9.36300 21.27300 26.88100
C  -8.53600 21.43500 23.59000
O  -7.86900 21.44200 22.54700
C  -9.67900 20.62800 23.67800
N  -4.76200 25.45900 24.17800
C  -5.40100 24.78300 23.31200
C  -4.87200 25.11600 21.92200
C  -3.86900 26.22100 22.11400
C  -3.96300 26.40000 23.63000
C  -4.14900 23.89200 21.23500
C  -4.25500 27.54100 21.40700
C  -3.39100 27.81700 20.21200
N  -3.86200 26.67600 26.58500
C  -3.03100 27.39500 25.75300
C  -2.21400 28.32000 26.45200
C  -2.59800 28.08400 27.83900
C  -3.50800 27.04700 27.81400
C  -1.26600 29.32100 25.92200
C  -2.26800 28.49900 29.20400
O  -1.58400 29.42400 29.64700
C  -3.24800 27.60700 30.10800
C  -2.38700 26.73400 30.99300
O  -1.88500 25.74900 30.61200
O  -2.50800 27.14800 32.25900
C  -1.88900 26.32300 33.34400
H  -8.25800 22.79100 28.84100
H  -6.71800 23.36000 22.57600
H  -2.52600 27.92200 23.74800
H  -4.71400 25.16800 31.44900
H  -7.44200 24.33900 31.01500
H  -6.60700 22.28100 31.71300
H  -5.01600 23.10800 31.80800
H  -5.57200 22.29200 30.33000
H  -7.44700 26.48800 31.46500
H  -6.18700 27.56800 31.07900
H  -6.80400 27.35100 33.43700
H  -5.09000 27.30600 33.15100
H  -10.38900 21.63400 26.96100
H  -8.94000 20.87500 27.80300
H  -9.59700 20.35400 26.34500
H  -10.08500 20.55700 22.66900
H  -10.39400 21.20300 24.26700
H  -9.58900 19.58600 23.98600
H  -5.68100 25.40300 21.25000
H  -2.81900 25.99900 21.92200
H  -3.06200 23.95000 21.16900
H  -4.67600 23.72800 20.29500
H  -4.34900 23.02700 21.86800
H  -4.08200 28.38600 22.07300
H  -5.29600 27.58700 21.08600
H  -3.96500 27.88800 19.28700
H  -2.51800 27.17900 20.07300
H  -2.92700 28.79500 20.34200
H  -1.81100 30.26400 25.88100
H  -0.98200 29.03000 24.91100
H  -0.36500 29.50100 26.50900
H  -3.84400 28.28100 30.72300
H  -1.75300 26.85700 34.28400
H  -0.95200 25.86700 33.02500
H  -2.65200 25.60100 33.63500

