158

Mg 24.66500 -5.86500 45.64400
C  26.75300 -3.41700 44.42800
C  22.07200 -4.58800 43.79100
C  23.06900 -8.70500 46.00200
C  27.36700 -7.13700 47.50900
N  24.41800 -4.15900 44.26600
C  25.42800 -3.31300 43.89600
C  24.95800 -2.43500 42.71500
C  23.39100 -2.56700 42.84300
C  23.26100 -3.81900 43.66900
C  22.60500 -1.32300 43.50000
C  25.56300 -2.98900 41.37000
C  25.95700 -1.82900 40.38200
H  25.37000 -1.81800 39.00700
N  22.76700 -6.52100 45.11800
C  21.84900 -5.81000 44.42100
C  20.59200 -6.57500 44.37900
C  20.88900 -7.75600 45.07200
C  22.30800 -7.69200 45.43600
C  19.38500 -6.19200 43.63100
C  19.83400 -8.78500 45.35000
O  18.69200 -8.66900 44.87300
C  20.11800 -9.99700 46.17900
N  25.10200 -7.67700 46.72600
C  24.34800 -8.74400 46.46600
C  24.90500 -9.96900 47.16600
C  26.37900 -9.52800 47.56600
C  26.25800 -7.98600 47.30400
C  24.11700 -10.25400 48.51900
C  27.52100 -10.13100 46.75400
C  28.80700 -10.53000 47.53600
N  26.68700 -5.37500 45.96200
C  27.61500 -5.95900 46.79700
C  28.80700 -5.09400 46.83700
C  28.60900 -4.16400 45.76800
C  27.27300 -4.36000 45.35300
C  30.04100 -5.31400 47.65200
C  29.20500 -3.02100 45.08900
O  30.27300 -2.44300 45.11700
C  28.00700 -2.59100 44.09000
C  27.77700 -1.24100 44.39100
O  27.11000 -0.79200 45.32800
O  28.41900 -0.46700 43.39700
C  27.90900 0.89600 43.36600
H  21.29300 -4.03500 43.26100
H  22.71400 -9.73300 46.09600
H  28.20100 -7.53900 48.08900
H  25.19600 -1.37200 42.77000
H  23.04900 -2.85900 41.85100
H  23.40600 -0.70300 43.90300
H  21.91800 -1.52700 44.32100
H  21.96500 -0.81400 42.78000
H  24.84300 -3.55300 40.77800
H  26.46600 -3.59000 41.48000
H  27.00900 -2.01000 40.16300
H  25.82600 -0.84000 40.82200
H  19.04800 -7.08300 43.10100
H  19.55700 -5.29500 43.03600
H  18.58600 -5.96900 44.33700
H  19.21000 -10.41900 46.61000
H  20.64000 -9.73300 47.09900
H  20.57700 -10.80000 45.60200
H  24.86500 -10.73100 46.38800
H  26.64900 -9.62100 48.61800
H  23.20900 -10.80800 48.27900
H  24.02700 -9.24400 48.91800
H  24.65200 -11.02500 49.07300
H  27.91900 -9.31400 46.15100
H  27.19700 -10.90400 46.05700
H  29.67400 -9.87000 47.56500
H  29.07800 -11.53700 47.21900
H  28.66800 -10.68600 48.60600
H  30.73500 -5.68300 46.89700
H  29.90800 -6.09200 48.40300
H  30.33200 -4.37500 48.12200
H  28.32800 -2.75700 43.06200
H  26.87100 0.91900 43.03400
H  28.55000 1.50400 42.72700
H  27.92200 1.24800 44.39800
Mg -5.19600 25.78400 26.98000
C  -3.66400 27.08200 29.88100
C  -6.70100 23.29400 28.74800
C  -5.86400 24.29500 24.05500
C  -2.82000 27.89600 25.09800
N  -5.01400 25.24800 29.04400
C  -4.54400 26.04700 30.11200
C  -5.11300 25.47200 31.43900
C  -6.04500 24.31800 31.04100
C  -5.82500 24.20800 29.47400
C  -5.85100 23.04300 31.83000
C  -5.60200 26.61900 32.41000
C  -6.72300 26.27700 33.44200
H  -6.39300 25.36400 34.69500
N  -6.25200 24.08600 26.44800
C  -6.87500 23.23300 27.34400
C  -7.70400 22.31200 26.63200
C  -7.49100 22.49900 25.21900
C  -6.51800 23.67700 25.19900
C  -8.76400 21.53200 27.34200
C  -8.03400 21.78900 24.05100
O  -7.78000 22.11200 22.86800
C  -9.07700 20.73600 24.05400
N  -4.50000 26.06200 24.92400
C  -4.97600 25.31800 23.89400
C  -4.57200 25.79700 22.52300
C  -3.50300 26.87000 22.93400
C  -3.61200 26.97400 24.38900
C  -4.01000 24.65500 21.56300
C  -3.70000 28.21400 22.18800
C  -3.68100 28.31900 20.66500
N  -3.61500 27.27200 27.36100
C  -2.76900 27.97900 26.51300
C  -2.09100 28.90900 27.31400
C  -2.27800 28.50500 28.65400
C  -3.28600 27.56900 28.60100
C  -1.12700 30.01300 26.82600
C  -1.91500 28.86100 29.97800
O  -1.10300 29.60600 30.48500
C  -2.81100 28.02600 30.86500
C  -2.00800 27.21900 31.85600
O  -1.21000 26.36200 31.56600
O  -2.14600 27.74100 33.13300
C  -1.10100 27.37500 34.06800
H  -7.11800 22.46500 29.32300
H  -6.16000 23.77800 23.14000
H  -2.16300 28.59100 24.57100
H  -4.37000 24.96600 32.05600
H  -7.09300 24.61700 31.01900
H  -6.71500 22.85500 32.46800
H  -5.02200 23.02300 32.53700
H  -5.64400 22.18900 31.18600
H  -5.99600 27.35900 31.71300
H  -4.86800 27.15400 33.01200
H  -7.54400 25.87400 32.84800
H  -7.11300 27.18700 33.89800
H  -8.83400 20.52700 26.92600
H  -9.70700 22.02500 27.10500
H  -8.61400 21.56400 28.42100
H  -8.55700 19.78300 24.14700
H  -9.77300 20.81500 23.21900
H  -9.63400 20.98000 24.95900
H  -5.46500 26.17400 22.02400
H  -2.59200 26.42000 22.54000
H  -4.71300 24.34700 20.78800
H  -3.86600 23.75600 22.16100
H  -3.06000 24.91900 21.09900
H  -2.91800 28.88900 22.53700
H  -4.68800 28.61500 22.41700
H  -4.70900 28.33000 20.30400
H  -3.30800 27.34200 20.35800
H  -3.11500 29.16400 20.27300
H  -0.27100 29.90600 27.49100
H  -1.70700 30.93600 26.84100
H  -0.77800 29.78900 25.81800
H  -3.36300 28.81500 31.37600
H  -1.17500 26.28700 34.09800
H  -1.23200 27.86800 35.03100
H  -0.19600 27.78800 33.62200

