158

Mg 25.61600 1.58800 29.57100
C  27.40800 1.46500 32.56800
C  22.69800 1.67000 31.52200
C  23.89700 1.76900 26.88300
C  28.55200 0.94300 27.87500
N  25.08900 1.45500 31.79400
C  26.03000 1.64400 32.79100
C  25.33000 1.73500 34.17600
C  23.80900 1.44200 33.84100
C  23.83800 1.49100 32.32100
C  23.05900 0.12700 34.28900
C  25.62600 3.09500 34.93100
C  26.11000 2.91300 36.41000
H  25.86200 3.97300 37.43200
N  23.59200 1.72300 29.24400
C  22.59500 1.81500 30.13900
C  21.34300 1.96200 29.41600
C  21.69700 1.89600 28.05700
C  23.11200 1.85100 28.00400
C  19.96800 2.12100 30.00500
C  20.77700 1.81800 26.87600
O  21.18000 1.79100 25.70800
C  19.25800 1.68700 27.02700
N  26.20700 1.45100 27.65700
C  25.27400 1.71600 26.66800
C  25.91800 1.73800 25.25400
C  27.49400 1.64700 25.62000
C  27.42700 1.34200 27.14900
C  25.47100 0.49800 24.40100
C  28.29200 2.88600 25.25000
C  27.96800 4.21000 25.96800
N  27.56500 1.17100 30.05900
C  28.66700 0.82300 29.28800
C  29.82000 0.46500 30.10200
C  29.39700 0.81900 31.38000
C  28.01700 1.19700 31.31900
C  31.09300 -0.07900 29.56200
C  29.77500 0.93100 32.79100
O  30.84400 0.66500 33.30300
C  28.51900 1.43800 33.56700
C  28.39600 0.48800 34.65700
O  27.92700 -0.64000 34.59500
O  29.11100 0.98900 35.72800
C  28.93000 0.13100 36.90900
H  21.72600 1.84500 31.98700
H  23.51300 1.88000 25.86700
H  29.45600 0.71600 27.30400
H  25.55900 0.84800 34.76800
H  23.24500 2.30700 34.19100
H  22.05400 0.38200 34.62500
H  23.57000 -0.26100 35.17000
H  22.99300 -0.68100 33.56100
H  24.81400 3.82000 34.98200
H  26.44100 3.55300 34.37000
H  27.11000 2.50000 36.28500
H  25.62400 2.04400 36.85400
H  19.25500 2.81900 29.56600
H  20.08300 2.38500 31.05700
H  19.51200 1.13200 30.03600
H  18.80400 1.40600 26.07600
H  18.96000 2.69300 27.32300
H  19.00500 1.01100 27.84400
H  25.69500 2.64700 24.69500
H  27.88300 0.77300 25.09800
H  24.38500 0.43300 24.33200
H  25.64900 -0.35300 25.05900
H  25.94100 0.49200 23.41800
H  28.03800 3.08800 24.20900
H  29.35500 2.69600 25.40100
H  27.37800 4.88600 25.34900
H  28.74700 4.84500 26.39100
H  27.28800 3.94700 26.77800
H  31.73500 0.60800 29.01100
H  30.84700 -1.01900 29.06800
H  31.48600 -0.37200 30.53600
H  28.71200 2.47300 33.85000
H  29.05300 -0.93700 36.73100
H  28.06100 0.44200 37.48800
H  29.75000 0.37100 37.58600
Mg 48.13900 34.74200 27.26200
C  46.35900 33.19100 29.80200
C  48.40500 37.58100 29.21000
C  49.53700 36.40500 24.55600
C  47.52700 32.05900 25.08200
N  47.57800 35.23200 29.26400
C  46.92500 34.38400 30.16500
C  47.02500 34.95200 31.57100
C  47.24500 36.53100 31.33600
C  47.74100 36.48700 29.82100
C  45.98100 37.37800 31.50200
C  48.21400 34.24000 32.34200
C  48.07400 34.06800 33.91100
H  48.82000 35.09700 34.76300
N  48.75600 36.77500 26.87600
C  48.77400 37.76500 27.83200
C  49.39800 39.02700 27.24600
C  49.92600 38.57100 25.99300
C  49.41100 37.20000 25.73100
C  49.52000 40.26900 28.12000
C  50.81300 39.35700 25.01400
O  51.30500 38.91300 23.96700
C  51.06300 40.84300 25.30700
N  48.58800 34.19000 25.09900
C  49.11200 35.09400 24.23200
C  49.16900 34.51600 22.83600
C  48.58800 33.08400 23.13800
C  48.15000 33.09100 24.50500
C  48.28200 35.40200 21.85400
C  49.41500 31.91900 22.63300
C  49.68700 31.87300 21.10500
N  47.10000 32.91300 27.36500
C  46.98100 31.96500 26.39500
C  46.17800 30.91200 26.94200
C  45.85700 31.30800 28.27400
C  46.50800 32.52600 28.50500
C  45.73100 29.69900 26.22500
C  45.14400 31.01500 29.56500
O  44.61500 29.95900 29.92700
C  45.29800 32.28500 30.48100
C  45.43100 31.95900 31.90100
O  46.32100 31.29900 32.44400
O  44.35900 32.48900 32.53100
C  44.31600 32.32900 33.99800
H  48.51600 38.40500 29.91800
H  49.98700 36.88300 23.68400
H  47.27200 31.22300 24.42700
H  46.06300 34.79700 32.05900
H  48.00600 36.73600 32.08900
H  46.12700 37.99800 32.38700
H  45.08500 36.75900 31.51400
H  45.90000 38.02600 30.62900
H  49.09200 34.81100 32.04100
H  48.38300 33.23500 31.95700
H  48.49000 33.14500 34.31300
H  47.01100 34.15600 34.13600
H  49.52000 41.16700 27.50200
H  50.48000 40.23300 28.63500
H  48.66000 40.34900 28.78500
H  51.57900 41.23400 24.43000
H  51.64900 40.87600 26.22500
H  50.13700 41.37600 25.52100
H  50.18000 34.53300 22.42900
H  47.67100 33.09600 22.54800
H  47.38400 34.83200 21.61700
H  48.82400 35.55000 20.92000
H  48.06700 36.33100 22.38300
H  48.94500 30.99800 22.97800
H  50.35900 31.96200 23.17600
H  49.29100 32.75600 20.60300
H  49.38900 30.93400 20.63700
H  50.77100 31.94600 21.01700
H  45.38100 29.00500 26.98900
H  46.54500 29.16400 25.73600
H  44.95400 29.91000 25.49100
H  44.32000 32.76300 30.41700
H  43.38700 32.74600 34.38500
H  45.05000 32.91700 34.54900
H  44.42700 31.27400 34.25000

