158

Mg -2.23800 34.09200 26.78700
C  -3.61200 32.48600 29.54500
C  -0.69400 36.29400 28.96200
C  -1.23800 35.93000 24.09700
C  -4.31700 32.23800 24.66900
N  -2.25600 34.33000 29.00800
C  -2.69500 33.40500 29.92000
C  -1.98100 33.51700 31.28000
C  -1.15800 34.85400 31.12600
C  -1.35400 35.26200 29.57400
C  -1.53300 35.91000 32.10200
C  -1.15600 32.27800 31.83700
C  -1.47600 31.86000 33.30200
H  -0.27400 31.84200 34.27600
N  -1.07900 35.86400 26.56800
C  -0.52800 36.56400 27.60600
C  0.28600 37.56400 27.11700
C  0.15600 37.48000 25.66800
C  -0.69700 36.37300 25.35700
C  1.15200 38.54900 27.86600
C  0.83900 38.24000 24.49200
O  0.72500 37.98000 23.30300
C  1.76800 39.33300 24.85700
N  -2.88300 34.20400 24.64900
C  -2.23900 34.98700 23.76000
C  -2.80700 34.77400 22.32400
C  -3.82700 33.63700 22.48700
C  -3.66300 33.34400 24.03000
C  -3.32400 36.07400 21.65500
C  -3.64400 32.48900 21.54200
C  -2.42100 31.61700 21.73700
N  -3.66000 32.64400 26.97900
C  -4.31800 31.90900 26.04000
C  -5.15800 30.90100 26.74900
C  -4.76900 31.07300 28.11200
C  -3.97100 32.17600 28.18000
C  -6.07500 29.92300 26.07700
C  -5.00200 30.52400 29.43100
O  -5.73000 29.60600 29.80800
C  -4.11300 31.34300 30.39100
C  -5.03400 31.90000 31.36700
O  -5.96700 32.62300 31.04300
O  -4.77600 31.64900 32.66900
C  -5.61800 32.28900 33.71800
H  -0.14700 37.04400 29.53700
H  -0.93400 36.41100 23.16500
H  -4.91700 31.54500 24.07500
H  -2.82800 33.72200 31.93400
H  -0.08000 34.70000 31.15800
H  -2.36900 35.71400 32.77300
H  -1.89600 36.77800 31.55100
H  -0.65700 36.29300 32.62600
H  -0.11600 32.60500 31.82500
H  -1.26400 31.36700 31.24800
H  -1.83400 30.85000 33.49800
H  -2.11100 32.66800 33.66600
H  2.18900 38.37700 27.58000
H  0.87700 38.56500 28.92100
H  0.78900 39.50800 27.49500
H  1.92100 40.01700 24.02200
H  2.74200 38.95000 25.16200
H  1.27800 39.91900 25.63500
H  -2.01300 34.31400 21.73600
H  -4.80800 34.11300 22.47700
H  -3.12800 36.07000 20.58300
H  -2.85900 37.01100 21.96200
H  -4.40500 36.18700 21.74000
H  -3.72500 32.79600 20.49900
H  -4.51700 31.84800 21.66400
H  -1.90200 31.85800 20.80900
H  -2.62200 30.54600 21.70200
H  -1.80600 31.91200 22.58700
H  -6.17000 30.08700 25.00300
H  -7.04400 29.97700 26.57300
H  -5.73800 28.90000 26.24300
H  -3.43300 30.63200 30.86100
H  -4.99400 32.56400 34.56800
H  -6.29600 31.50400 34.05400
H  -6.01000 33.23900 33.35600
Mg -8.68700 18.06500 43.64700
C  -5.19400 17.90000 43.99000
C  -8.58800 21.31000 43.24200
C  -12.02000 18.06000 42.77900
C  -8.72200 14.53800 43.77700
N  -6.96400 19.41100 43.44400
C  -5.65000 19.23100 43.85500
C  -4.82600 20.51100 43.79400
C  -6.07200 21.58000 43.91100
C  -7.31200 20.74200 43.52100
C  -6.11200 22.24400 45.38600
C  -4.05700 20.82100 42.43200
C  -4.08900 19.75600 41.31900
H  -4.44700 20.10300 39.84200
N  -10.07500 19.50400 43.06700
C  -9.80900 20.78700 42.97500
C  -10.92100 21.46700 42.41200
C  -11.99300 20.51100 42.21200
C  -11.40700 19.30100 42.57000
C  -10.98000 22.97200 42.34800
C  -13.42900 20.85500 41.73400
O  -13.82100 22.04800 41.60000
C  -14.37600 19.75400 41.46500
N  -10.09000 16.48500 43.21700
C  -11.44500 16.78400 43.12900
C  -12.30000 15.56700 43.38700
C  -11.19300 14.47900 43.53800
C  -9.88600 15.21500 43.61200
C  -13.31200 15.60100 44.58600
C  -11.17600 13.61400 42.25800
C  -12.21500 12.42700 42.28700
N  -7.27400 16.51000 43.89800
C  -7.41000 15.18500 43.87100
C  -6.07200 14.59500 43.90400
C  -5.15100 15.59500 43.94800
C  -5.96400 16.76200 43.96700
C  -5.94400 13.12500 43.73300
C  -3.78400 15.93200 43.94500
O  -2.77600 15.23200 43.99900
C  -3.73500 17.44300 44.19300
C  -3.33900 17.51100 45.62400
O  -2.25200 17.82700 46.12500
O  -4.42200 17.12400 46.45200
C  -4.30300 17.26600 47.92500
H  -8.46700 22.39400 43.27000
H  -13.11000 18.00700 42.76700
H  -8.76100 13.44700 43.80000
H  -4.15000 20.58900 44.64500
H  -5.83400 22.35400 43.18200
H  -7.14800 22.12000 45.70200
H  -5.87300 23.30100 45.26400
H  -5.52500 21.67800 46.10900
H  -3.05000 20.89500 42.84300
H  -4.36500 21.72300 41.90300
H  -4.95900 19.13100 41.52400
H  -3.19200 19.14200 41.39700
H  -10.83500 23.39800 41.35600
H  -10.15800 23.28300 42.99300
H  -11.91100 23.39700 42.72300
H  -14.72800 19.28300 42.38200
H  -14.01500 19.03600 40.72800
H  -15.22100 20.26500 41.00500
H  -12.89400 15.39600 42.49000
H  -11.27400 13.83000 44.41000
H  -14.33600 15.75500 44.24500
H  -12.91900 16.43800 45.16300
H  -13.33900 14.73600 45.24900
H  -10.13900 13.30800 42.11800
H  -11.51600 14.22400 41.42100
H  -12.98700 12.68200 43.01300
H  -11.64300 11.50100 42.34300
H  -12.59500 12.40200 41.26600
H  -6.55600 12.60400 44.47000
H  -4.90700 12.85300 43.93000
H  -6.19800 12.79100 42.72700
H  -3.04600 18.02900 43.58400
H  -3.36000 16.81600 48.23500
H  -5.20300 16.78100 48.30300
H  -4.31800 18.34100 48.10800

