158

Mg 0.73900 8.16200 25.84300
C  1.56500 10.10300 28.63000
C  0.68400 5.44700 27.93200
C  0.10200 6.18100 23.10600
C  1.01200 10.90700 23.76400
N  1.30900 7.79100 28.05800
C  1.47500 8.71600 29.02000
C  1.40200 8.19500 30.50300
C  1.32400 6.64700 30.18000
C  1.12100 6.60300 28.61700
C  2.43200 5.68000 30.72200
C  0.30000 8.78500 31.40900
C  0.61500 8.84700 32.87700
H  1.61100 7.90100 33.53700
N  0.37200 6.08400 25.57300
C  0.34800 5.16100 26.60600
C  -0.05300 3.88100 26.09100
C  -0.31500 4.10200 24.67100
C  0.10200 5.48400 24.37800
C  -0.25700 2.66300 26.93900
C  -0.81500 3.11400 23.71800
O  -1.11000 3.38400 22.58200
C  -0.95900 1.62000 24.08500
N  0.45000 8.52400 23.68500
C  0.23000 7.52900 22.79100
C  0.32500 8.04400 21.37400
C  0.25800 9.59900 21.63800
C  0.56700 9.72000 23.11000
C  1.57300 7.46900 20.61500
C  -1.14300 10.34100 21.33900
C  -0.99100 11.47900 20.28500
N  1.22300 10.03800 26.04200
C  1.27800 11.12500 25.08500
C  1.60700 12.34300 25.73900
C  1.72300 11.95700 27.10000
C  1.48900 10.57900 27.22800
C  1.62800 13.77100 25.07500
C  1.92500 12.52000 28.45500
O  2.13700 13.69800 28.73100
C  1.85700 11.29000 29.46600
C  3.22300 11.11400 29.89500
O  4.32300 11.13900 29.29400
O  3.06700 10.84100 31.20900
C  4.36500 10.48800 31.92300
H  0.55900 4.53100 28.51300
H  -0.07700 5.50600 22.26600
H  0.90500 11.80100 23.14600
H  2.40200 8.40700 30.88100
H  0.41600 6.22000 30.60500
H  2.98500 6.05600 31.58300
H  3.14600 5.50900 29.91700
H  1.97200 4.69300 30.76000
H  -0.58200 8.18100 31.19400
H  0.11500 9.83100 31.16200
H  -0.33800 8.81400 33.40500
H  1.06000 9.83900 32.96600
H  -1.33900 2.63200 26.81200
H  -0.02000 2.81900 27.99200
H  0.18500 1.74500 26.55200
H  -0.00200 1.27900 24.48000
H  -1.01300 0.96700 23.21400
H  -1.79700 1.37800 24.73900
H  -0.51400 7.65000 20.80100
H  1.05800 10.05100 21.05100
H  2.15400 6.78200 21.22900
H  2.30000 8.22800 20.32300
H  1.17600 7.01400 19.70700
H  -1.58500 10.72200 22.26000
H  -1.81000 9.56400 20.96800
H  0.03300 11.81800 20.13000
H  -1.50400 12.37000 20.64600
H  -1.42300 11.19600 19.32500
H  0.88400 14.45200 25.48900
H  1.16000 13.69000 24.09400
H  2.63100 14.18500 24.97300
H  1.12300 11.51100 30.24100
H  5.15500 11.20900 31.71400
H  4.67300 9.49400 31.59700
H  4.29400 10.46900 33.01000
Mg 23.18800 -7.86200 45.47500
C  25.58200 -5.55800 44.52800
C  21.01300 -6.28000 43.29000
C  21.07200 -10.40900 45.89700
C  25.69500 -9.59500 47.16800
N  23.32900 -6.18800 44.01800
C  24.37500 -5.31400 43.84900
C  24.06500 -4.20900 42.81000
C  22.50600 -4.41300 42.60300
C  22.28500 -5.72200 43.28000
C  21.55600 -3.25500 43.13200
C  24.95700 -4.25000 41.51700
C  25.64400 -2.94100 41.08700
H  25.83000 -2.57700 39.55400
N  21.25400 -8.24100 44.87500
C  20.52600 -7.49200 43.94600
C  19.17500 -7.97700 43.89000
C  19.21300 -9.18500 44.71300
C  20.50800 -9.28800 45.26200
C  18.09900 -7.39100 43.01600
C  17.96300 -9.99300 45.03100
O  16.98800 -9.76200 44.34500
C  17.77700 -10.92300 46.14200
N  23.50100 -9.92800 46.17300
C  22.39400 -10.68100 46.39300
C  22.75000 -11.86900 47.31000
C  24.12500 -11.47300 47.81500
C  24.50300 -10.29000 47.00800
C  21.64900 -12.29800 48.34000
C  25.20300 -12.72800 47.91000
C  25.65600 -13.36400 46.53800
N  25.20800 -7.58700 45.86000
C  26.04100 -8.40500 46.63500
C  27.31400 -7.70800 46.67900
C  27.23700 -6.62000 45.87500
C  25.91600 -6.61600 45.39900
C  28.60800 -8.26800 47.34300
C  27.91800 -5.42200 45.36200
O  29.00900 -5.00200 45.66100
C  26.88300 -4.79100 44.33700
C  26.63700 -3.42400 44.75500
O  26.10600 -3.08400 45.85200
O  27.27000 -2.60000 43.87700
C  27.19000 -1.22700 44.18500
H  20.25500 -5.69100 42.77100
H  20.42100 -11.25300 46.13400
H  26.48300 -10.12200 47.71000
H  24.29100 -3.27600 43.32600
H  22.42100 -4.56000 41.52600
H  20.88700 -2.98800 42.31300
H  22.04300 -2.30600 43.35400
H  20.94500 -3.52700 43.99200
H  24.41300 -4.64400 40.65900
H  25.70900 -5.00600 41.74500
H  26.67300 -2.83100 41.43100
H  24.99400 -2.11900 41.38700
H  17.47100 -8.17500 42.59300
H  18.64800 -6.87300 42.23000
H  17.64200 -6.54200 43.52400
H  18.36300 -10.47200 46.94300
H  18.24000 -11.82800 45.74800
H  16.82800 -11.15300 46.62500
H  22.95600 -12.70200 46.63900
H  23.99200 -11.04700 48.81000
H  21.26200 -13.28700 48.09500
H  20.73600 -11.70400 48.39600
H  22.00500 -12.17100 49.36300
H  24.73800 -13.50700 48.51400
H  26.06300 -12.49300 48.53700
H  26.65200 -12.99300 46.30000
H  24.97400 -13.22600 45.69900
H  25.75900 -14.44100 46.67200
H  29.10200 -9.02500 46.73300
H  28.48200 -8.50100 48.40000
H  29.31000 -7.43500 47.31000
H  27.26900 -4.82400 43.31800
H  26.20600 -0.80600 44.39200
H  27.48400 -0.53600 43.39500
H  27.78500 -1.01100 45.07200

