158

Mg 46.59700 24.73200 28.02900
C  47.39900 27.16500 30.51100
C  45.85400 22.53300 30.44500
C  46.32900 22.32700 25.50800
C  47.68700 26.84400 25.61800
N  46.67600 24.80700 30.24900
C  46.82600 25.99900 31.01600
C  46.54800 25.73400 32.53700
C  45.94900 24.30800 32.39700
C  46.16100 23.80100 30.98200
C  46.47800 23.16600 33.29700
C  45.52500 26.71100 33.19500
C  45.81000 27.08300 34.63800
H  44.69300 27.04200 35.62400
N  46.09000 22.75100 28.06100
C  45.78400 21.98700 29.12400
C  45.53200 20.63900 28.72900
C  45.84600 20.50600 27.34000
C  46.14600 21.88900 26.89700
C  45.05000 19.55700 29.68900
C  45.92900 19.27500 26.44900
O  46.23500 19.21500 25.26800
C  45.77700 17.92800 27.13800
N  46.95500 24.56500 25.81400
C  46.57600 23.57200 24.98700
C  46.79700 23.92600 23.48000
C  46.98000 25.46200 23.63300
C  47.27100 25.62200 25.11200
C  47.95300 23.19700 22.86500
C  45.83500 26.31400 23.00700
C  44.33700 25.95900 23.42200
N  47.39500 26.57200 27.97000
C  47.76100 27.39300 26.93000
C  48.29100 28.63900 27.31900
C  48.14400 28.59300 28.73400
C  47.54900 27.32200 29.11400
C  48.77900 29.69000 26.45400
C  48.45700 29.27900 29.93800
O  48.93100 30.41000 30.10700
C  47.80400 28.50400 31.09200
C  48.85600 28.34900 32.16600
O  49.87100 27.64300 32.08200
O  48.44600 29.07700 33.29800
C  49.29600 28.86900 34.47600
H  45.36800 21.83100 31.12500
H  46.17100 21.50500 24.80800
H  47.82400 27.66700 24.91300
H  47.51800 25.67400 33.03000
H  44.86500 24.25200 32.49200
H  46.66400 23.51600 34.31300
H  47.21800 22.50700 32.84300
H  45.62700 22.50400 33.45300
H  44.48200 26.43500 33.04400
H  45.60100 27.67100 32.68300
H  46.29300 28.05000 34.49600
H  46.53500 26.43200 35.12700
H  44.25700 18.87000 29.39600
H  44.67400 20.07300 30.57200
H  45.92200 19.00100 30.03500
H  46.54900 17.92000 27.90700
H  46.15300 17.19700 26.42100
H  44.73400 17.84000 27.44400
H  45.91200 23.62000 22.92200
H  47.91400 25.78000 23.16900
H  48.09500 23.66900 21.89300
H  47.71000 22.14600 22.70900
H  48.77000 23.38000 23.56400
H  45.83600 26.22400 21.92100
H  46.03200 27.35100 23.27800
H  43.68400 25.74100 22.57700
H  43.93100 26.78500 24.00500
H  44.29100 25.09200 24.08200
H  48.14800 30.55300 26.67000
H  48.81100 29.60100 25.36800
H  49.81900 29.85000 26.74000
H  46.96300 29.04700 31.52500
H  48.99200 27.98500 35.03800
H  49.23000 29.74600 35.12100
H  50.37000 28.75200 34.33200
Mg -2.45700 34.30600 26.31800
C  -4.04000 32.45600 28.96200
C  -1.36100 36.58900 28.72000
C  -1.16500 36.25200 23.75100
C  -4.16700 32.35800 24.01000
N  -2.87500 34.56100 28.49900
C  -3.42200 33.67500 29.42100
C  -3.25100 34.14500 30.90500
C  -2.71700 35.62400 30.73900
C  -2.19400 35.58700 29.22400
C  -3.78100 36.73800 31.02300
C  -2.37900 33.16900 31.68900
C  -3.00600 32.54600 32.94200
H  -2.18900 32.46600 34.24300
N  -1.30000 36.03300 26.18400
C  -0.96000 36.77900 27.29300
C  0.01300 37.69000 26.88000
C  0.07400 37.71200 25.48800
C  -0.79500 36.64600 25.03900
C  0.75400 38.58600 27.92100
C  0.78300 38.60500 24.48400
O  0.76800 38.43100 23.27300
C  1.54800 39.82700 25.01200
N  -2.71000 34.35200 24.16400
C  -2.02000 35.15600 23.35600
C  -2.34100 34.86800 21.89700
C  -3.02300 33.48400 22.02200
C  -3.39400 33.41100 23.47600
C  -3.38600 35.95500 21.22700
C  -2.00100 32.41200 21.63300
C  -0.88500 31.88600 22.61100
N  -3.74900 32.71600 26.43000
C  -4.23500 31.97000 25.40100
C  -5.06400 30.87100 25.93900
C  -4.96600 31.03900 27.31100
C  -4.15200 32.11200 27.60500
C  -5.91800 29.84700 25.29600
C  -5.39600 30.44800 28.52800
O  -6.11100 29.47800 28.74800
C  -4.75600 31.32400 29.73700
C  -5.78900 31.73600 30.62400
O  -6.56600 32.65300 30.43400
O  -5.85000 30.88900 31.61800
C  -6.87800 31.26100 32.61400
H  -0.75500 37.02100 29.51900
H  -0.85400 36.85200 22.89300
H  -4.62600 31.56600 23.41400
H  -4.25000 34.11700 31.34000
H  -1.81300 35.82100 31.31400
H  -3.53700 36.99600 32.05400
H  -4.76000 36.26400 30.94400
H  -3.61600 37.62200 30.40900
H  -1.49200 33.68700 32.05600
H  -2.12600 32.34400 31.02300
H  -3.26800 31.50200 32.76800
H  -3.92600 33.09600 33.13900
H  1.82800 38.59800 27.73100
H  0.59500 38.25600 28.94700
H  0.43100 39.62300 27.82800
H  0.82300 40.46600 25.51600
H  2.01700 40.35400 24.18100
H  2.25300 39.53900 25.79100
H  -1.46000 34.92800 21.25800
H  -3.93500 33.35300 21.43900
H  -3.44900 36.87400 21.81000
H  -4.39500 35.58500 21.04600
H  -2.93900 36.09600 20.24200
H  -1.48000 32.90100 20.81000
H  -2.57200 31.55600 21.27300
H  0.06300 32.27000 22.23400
H  -0.80300 30.80400 22.50100
H  -1.09100 32.22000 23.62800
H  -5.89100 29.62700 24.22900
H  -6.96100 30.12800 25.44400
H  -5.65500 28.97900 25.90100
H  -4.03000 30.77800 30.33900
H  -6.35800 31.83200 33.38300
H  -7.12500 30.31500 33.09500
H  -7.81000 31.71800 32.28400

