158

Mg -1.94400 17.49600 26.39000
C  -2.21800 15.14400 29.02100
C  -2.59700 20.03300 28.60700
C  -2.18600 19.53100 23.82000
C  -1.92400 14.67000 24.15500
N  -2.48600 17.51700 28.57200
C  -2.35400 16.43700 29.47200
C  -2.50400 17.03300 30.92100
C  -2.65500 18.60200 30.73500
C  -2.58200 18.74800 29.19300
C  -3.98300 19.14500 31.41200
C  -1.26100 16.71000 31.76100
C  -1.05500 17.50600 33.04300
H  -0.66300 16.66700 34.28600
N  -2.14600 19.49700 26.24000
C  -2.36200 20.35300 27.28500
C  -2.40100 21.77100 26.74400
C  -2.27000 21.58500 25.32900
C  -2.24500 20.16400 25.07100
C  -2.44100 22.99400 27.59200
C  -2.10400 22.60100 24.28000
O  -2.23200 22.39300 23.08200
C  -1.80800 24.00400 24.77900
N  -2.17000 17.07500 24.25300
C  -1.98700 18.19300 23.48100
C  -1.96300 17.79400 22.00300
C  -1.65300 16.27000 22.09700
C  -1.86200 15.93800 23.57400
C  -3.23400 18.25200 21.27500
C  -0.25600 15.85500 21.56200
C  -0.19200 15.18200 20.14800
N  -2.07200 15.37000 26.44900
C  -2.06200 14.37000 25.51800
C  -2.13300 13.05100 26.05200
C  -2.14000 13.20700 27.45600
C  -2.10200 14.71900 27.66000
C  -2.37600 11.82400 25.30700
C  -2.19700 12.63100 28.81000
O  -2.10600 11.47200 29.22800
C  -2.27000 13.85000 29.80100
C  -1.15000 13.58100 30.72900
O  -0.03200 13.96900 30.53200
O  -1.64100 13.05600 31.83400
C  -0.62800 12.63100 32.82100
H  -2.81700 20.83900 29.31000
H  -2.26400 20.20100 22.96200
H  -1.73800 13.88900 23.41500
H  -3.41600 16.60900 31.34200
H  -1.76800 19.13200 31.08200
H  -3.64500 19.97600 32.03000
H  -4.62100 18.36000 31.81900
H  -4.58600 19.60900 30.63100
H  -0.41700 16.79800 31.07700
H  -1.27200 15.66800 32.08100
H  -1.90000 18.14400 33.29900
H  -0.23200 18.21100 32.93400
H  -2.47600 22.77700 28.66000
H  -3.27000 23.67500 27.39900
H  -1.55800 23.58700 27.35400
H  -0.90700 23.84100 25.37100
H  -2.67700 24.42700 25.28200
H  -1.64400 24.58000 23.86900
H  -1.16200 18.39600 21.57400
H  -2.48800 15.74000 21.64000
H  -3.91700 18.83900 21.89000
H  -3.67900 17.27600 21.08200
H  -3.03900 18.85700 20.38900
H  0.15000 15.18500 22.31900
H  0.29400 16.79500 21.50700
H  0.26800 14.20100 20.26900
H  0.46700 15.79000 19.52800
H  -1.18500 15.09900 19.70700
H  -1.51500 11.25600 24.95400
H  -2.96300 12.15500 24.45000
H  -2.96600 11.27900 26.04300
H  -3.21600 13.83600 30.34100
H  0.23100 12.13600 32.36900
H  -0.93600 11.95200 33.61600
H  -0.32600 13.55400 33.31700
Mg 1.86900 -0.97600 43.40200
C  5.26000 -0.51500 43.05500
C  1.27900 1.88900 41.64400
C  -1.45500 -1.78700 43.41700
C  2.54600 -4.21200 44.71500
N  3.12400 0.49500 42.49100
C  4.51800 0.48100 42.42900
C  5.03500 1.47400 41.47600
C  3.75700 2.34400 41.08100
C  2.63900 1.50900 41.78100
C  3.79800 3.90600 41.39400
C  5.66700 0.86200 40.21300
C  7.08900 1.36200 39.86400
H  7.27700 2.42700 38.75400
N  0.15200 -0.00100 42.79800
C  0.13500 1.14200 42.04600
C  -1.19100 1.57600 41.86400
C  -1.97200 0.48500 42.31900
C  -1.07900 -0.50000 42.89900
C  -1.47100 2.81600 41.13100
C  -3.49800 0.38500 42.25200
O  -4.19500 1.25200 41.83100
C  -4.42100 -0.80800 42.77000
N  0.68900 -2.80100 43.88900
C  -0.62600 -2.83600 43.80900
C  -1.22600 -4.15000 44.25700
C  0.02700 -4.90400 44.82600
C  1.20800 -3.91300 44.44200
C  -2.46100 -4.18900 45.22300
C  0.29800 -6.41600 44.39000
C  0.70000 -7.35800 45.53500
N  3.57400 -2.08200 44.03900
C  3.66300 -3.34600 44.48900
C  5.04100 -3.69300 44.73800
C  5.79900 -2.58200 44.13400
C  4.79400 -1.64800 43.71700
C  5.52000 -4.94600 45.40100
C  7.12400 -2.06500 43.66200
O  8.25300 -2.48900 43.82900
C  6.74800 -0.68500 42.98700
C  7.38400 0.27600 43.74600
O  7.02000 0.69100 44.86000
O  8.43400 0.86600 42.98600
C  8.93700 1.99900 43.69300
H  1.13600 2.85200 41.14900
H  -2.49400 -2.08300 43.26100
H  2.77300 -5.20300 45.11100
H  5.72200 2.15200 41.98300
H  3.52900 2.29100 40.01700
H  3.44800 4.44600 40.51400
H  4.85200 4.16100 41.50400
H  3.27300 4.29300 42.26700
H  5.03100 1.00500 39.34000
H  5.73400 -0.21600 40.36100
H  7.71600 0.50100 39.63300
H  7.45200 1.85600 40.76500
H  -1.02300 2.88300 40.13900
H  -0.99200 3.60100 41.71500
H  -2.54800 2.95100 41.03700
H  -5.46800 -0.50300 42.75500
H  -4.12800 -1.03500 43.79400
H  -4.32500 -1.69100 42.13700
H  -1.62500 -4.79400 43.47300
H  -0.01500 -4.90800 45.91500
H  -2.34400 -4.57400 46.23600
H  -3.23300 -4.77800 44.72800
H  -2.86500 -3.18400 45.34900
H  0.93600 -6.34800 43.50900
H  -0.57000 -6.83500 43.88100
H  0.41600 -6.89700 46.48100
H  1.75900 -7.61100 45.56400
H  0.13700 -8.29100 45.49100
H  4.81000 -5.65700 45.82400
H  6.19600 -4.65600 46.20400
H  6.07800 -5.51200 44.65500
H  7.22500 -0.69000 42.00700
H  9.47200 1.77100 44.61500
H  8.10800 2.67400 43.90500
H  9.75900 2.36600 43.07700

