158

Mg -3.35300 17.43100 26.63800
C  -3.72900 15.10500 29.28200
C  -3.20500 19.93400 28.77500
C  -3.41600 19.55900 23.94800
C  -3.94900 14.74800 24.34600
N  -3.44400 17.48200 28.66300
C  -3.55400 16.44600 29.62100
C  -3.42200 16.95200 31.06200
C  -3.30400 18.49900 30.90000
C  -3.41900 18.64000 29.34400
C  -4.43200 19.39500 31.61500
C  -2.25400 16.35000 31.99600
C  -1.88700 17.07800 33.33600
H  -2.03600 16.38300 34.67100
N  -3.33900 19.51100 26.34200
C  -3.19600 20.35900 27.41200
C  -3.13600 21.73000 26.93900
C  -3.05600 21.62900 25.52100
C  -3.22200 20.20500 25.18000
C  -3.16600 22.98600 27.78300
C  -2.77300 22.64000 24.44100
O  -2.58100 22.32400 23.23400
C  -2.64200 24.06400 24.83000
N  -3.77400 17.20800 24.45700
C  -3.65800 18.24100 23.63100
C  -3.79700 17.74000 22.09000
C  -3.88200 16.27400 22.25400
C  -3.88000 16.05000 23.76600
C  -4.99400 18.38500 21.41000
C  -2.68700 15.42800 21.52400
C  -1.24400 15.71400 22.05400
N  -3.82600 15.41800 26.71000
C  -3.87000 14.43900 25.70600
C  -3.97900 13.11400 26.28500
C  -4.05700 13.33600 27.69200
C  -3.88100 14.69200 27.94100
C  -4.09400 11.87100 25.60200
C  -4.26300 12.71900 28.96100
O  -4.36300 11.52900 29.37400
C  -4.14700 13.82300 30.08600
C  -2.99700 13.29900 30.95200
O  -1.79800 13.41000 30.76300
O  -3.49100 12.50400 31.96700
C  -2.60000 11.76600 32.85500
H  -3.10400 20.77600 29.46200
H  -3.36700 20.21000 23.07300
H  -4.11500 13.89400 23.68600
H  -4.31800 16.74100 31.64500
H  -2.35100 18.81000 31.33000
H  -5.41200 18.92300 31.68200
H  -4.55300 20.32900 31.06600
H  -4.08800 19.71000 32.60000
H  -1.35600 16.31100 31.37900
H  -2.53400 15.34700 32.31800
H  -2.56100 17.93100 33.41500
H  -0.85900 17.43900 33.30900
H  -2.22500 23.53600 27.80200
H  -3.42300 22.76900 28.82000
H  -3.85900 23.74300 27.41700
H  -3.58400 24.26300 25.34000
H  -2.44200 24.72100 23.98400
H  -1.75800 24.03800 25.46800
H  -2.89900 18.04300 21.55300
H  -4.84200 15.90600 21.88900
H  -4.66000 18.80600 20.46200
H  -5.41000 19.17800 22.03000
H  -5.78000 17.67400 21.15300
H  -2.64300 15.70500 20.47100
H  -2.96800 14.37500 21.52000
H  -0.67200 15.93300 21.15100
H  -0.71600 14.82100 22.38800
H  -1.13300 16.48300 22.81800
H  -3.44700 11.12200 26.05800
H  -3.68200 11.88300 24.59300
H  -5.12800 11.53900 25.50700
H  -5.03700 14.03600 30.67800
H  -1.91100 11.08700 32.35300
H  -3.09000 11.13900 33.60000
H  -2.10800 12.55500 33.42500
Mg 39.75600 9.98400 29.32500
C  41.86000 10.75600 32.09000
C  37.76000 8.20000 31.53700
C  37.84500 9.15000 26.85500
C  42.04300 11.41000 27.26100
N  39.83600 9.68500 31.55100
C  40.66000 10.22000 32.46200
C  40.10900 10.00500 33.86800
C  38.99600 8.99300 33.74000
C  38.82000 8.91500 32.19100
C  39.21500 7.58800 34.44200
C  39.65300 11.39000 34.55700
C  39.44300 11.40500 36.11400
H  40.55900 12.04300 36.92500
N  37.92700 8.91700 29.23300
C  37.26100 8.26100 30.20500
C  36.06200 7.65500 29.69700
C  36.03700 7.91600 28.29400
C  37.34300 8.65500 28.07300
C  35.06000 6.83100 30.51400
C  35.01800 7.51500 27.18600
O  35.29500 7.82600 26.01700
C  33.59200 7.06700 27.63700
N  39.91900 10.23300 27.34500
C  38.96600 9.85700 26.52000
C  39.23700 10.33300 25.06400
C  40.50200 11.22100 25.24500
C  40.88600 10.88800 26.71200
C  39.35800 9.17600 24.03800
C  40.28200 12.70800 24.99300
C  39.35600 13.40300 26.00700
N  41.62000 10.92000 29.52200
C  42.43800 11.37200 28.58100
C  43.73500 11.80200 29.21100
C  43.45400 11.65700 30.63800
C  42.24500 11.04700 30.73100
C  44.95200 12.30700 28.53400
C  43.95100 11.87000 31.99400
O  44.91200 12.48800 32.48300
C  43.01300 11.22300 32.95900
C  43.53200 10.16400 33.85000
O  43.61300 8.99900 33.53100
O  43.96600 10.61700 35.05200
C  44.61000 9.73400 36.03000
H  37.12700 7.62000 32.21200
H  37.29600 8.79600 25.98000
H  42.80600 11.86800 26.62700
H  40.85900 9.57600 34.53300
H  38.15500 9.57000 34.12400
H  40.16800 7.47600 34.95900
H  39.12200 6.75700 33.74300
H  38.49200 7.57600 35.25700
H  38.70200 11.78500 34.20100
H  40.40200 12.14300 34.30900
H  39.38900 10.35700 36.40700
H  38.52000 11.89600 36.42100
H  34.83200 5.91400 29.97000
H  34.12500 7.39000 30.49400
H  35.47500 6.59000 31.49300
H  33.24900 7.92100 28.22100
H  33.59800 6.27200 28.38200
H  32.95200 6.87900 26.77500
H  38.38800 10.96200 24.79700
H  41.37300 11.04900 24.61200
H  38.61300 9.29700 23.25100
H  39.28700 8.21100 24.54000
H  40.36300 9.11200 23.62100
H  39.73900 12.86000 24.06100
H  41.28500 13.13400 24.98400
H  38.87300 12.64600 26.62500
H  38.63400 14.03500 25.49000
H  39.99700 14.01100 26.64500
H  44.63300 12.77100 27.60100
H  45.67400 11.49900 28.41400
H  45.41800 13.07100 29.15600
H  42.61000 11.89600 33.71600
H  43.80400 9.88900 36.74700
H  45.58400 10.04100 36.41000
H  44.61200 8.71700 35.63700

