158

Mg 9.12200 4.13900 27.72500
C  10.28800 2.51700 30.56600
C  7.37700 6.31200 29.72200
C  7.70800 5.60100 24.95900
C  10.67500 1.84400 25.69000
N  8.92600 4.38200 29.91200
C  9.47100 3.63000 30.93000
C  9.11900 4.11800 32.32400
C  8.07700 5.23100 31.99800
C  8.09300 5.31100 30.43600
C  6.65100 5.06300 32.41900
C  10.40300 4.63100 33.23000
C  10.38600 4.20200 34.69800
H  10.65700 5.35900 35.71400
N  7.67800 5.78500 27.38000
C  7.17400 6.60200 28.36200
C  6.33100 7.62200 27.77100
C  6.49700 7.43400 26.36300
C  7.26900 6.24300 26.15700
C  5.47700 8.64600 28.50000
C  6.04400 8.30900 25.29600
O  6.19300 8.09100 24.11300
C  5.47400 9.65400 25.57500
N  9.12500 3.66300 25.62000
C  8.56400 4.49500 24.71700
C  8.88000 4.07600 23.31200
C  9.98800 3.02900 23.51800
C  9.87100 2.76300 24.98200
C  7.57500 3.61600 22.50800
C  11.45700 3.38500 23.11200
C  12.24500 2.19500 22.63200
N  10.23500 2.56100 28.04500
C  10.82600 1.62200 27.06100
C  11.57500 0.63600 27.79400
C  11.36400 0.95600 29.12800
C  10.54200 2.08800 29.26100
C  12.45800 -0.40300 27.28400
C  11.79300 0.52700 30.41400
O  12.46200 -0.42700 30.76600
C  11.21400 1.59900 31.42900
C  10.50100 0.79600 32.50400
O  9.57300 0.04900 32.38100
O  10.95500 1.20800 33.74000
C  10.30300 0.52700 34.86800
H  6.77600 6.92400 30.39800
H  7.36400 6.15000 24.08000
H  11.21600 1.11900 25.07900
H  8.59900 3.28300 32.79300
H  8.30100 6.19600 32.45400
H  6.49300 5.93400 33.05400
H  6.55300 4.19100 33.06500
H  5.90400 5.12600 31.62800
H  10.28500 5.70700 33.36000
H  11.39100 4.39900 32.83100
H  11.16000 3.44000 34.79100
H  9.38500 3.88000 34.98600
H  5.69000 8.54500 29.56500
H  4.41600 8.48400 28.31000
H  5.78500 9.65200 28.21500
H  4.49800 9.63400 26.06200
H  5.42800 10.06500 24.56700
H  6.18800 10.19600 26.19500
H  9.16100 4.98600 22.78200
H  9.56900 2.21900 22.92100
H  7.19700 4.46400 21.93700
H  6.86300 3.37400 23.29700
H  7.62900 2.75300 21.84400
H  11.88500 3.93100 23.95300
H  11.41600 4.06100 22.25800
H  12.88000 2.41100 21.77300
H  11.62100 1.33800 22.37700
H  12.91700 1.99500 23.46700
H  13.52900 -0.20400 27.31200
H  12.15800 -0.47700 26.23900
H  12.26400 -1.35500 27.77700
H  12.04800 2.17500 31.83200
H  10.28800 1.15700 35.75700
H  10.80300 -0.41300 35.10200
H  9.25700 0.33000 34.63600
Mg -10.17800 17.29300 41.00600
C  -6.67000 17.28900 41.00700
C  -10.08500 20.58500 40.33400
C  -13.50000 17.12500 40.54500
C  -10.17100 13.74700 41.44200
N  -8.45800 18.74100 40.44800
C  -7.11500 18.56600 40.57200
C  -6.36400 19.86000 40.25000
C  -7.51500 20.92700 40.47900
C  -8.80200 20.05500 40.44600
C  -7.36900 21.93000 41.72200
C  -5.78600 19.80400 38.82400
C  -4.31300 19.32200 38.77700
H  -4.10000 18.20200 37.76400
N  -11.61300 18.70200 40.58100
C  -11.35900 19.95300 40.23800
C  -12.61400 20.66000 39.96900
C  -13.68800 19.73500 40.09500
C  -12.89600 18.41800 40.46200
C  -12.60800 22.12600 39.47000
C  -15.17500 19.96300 39.81500
O  -15.49200 21.08600 39.54200
C  -16.27400 18.88300 39.75100
N  -11.60100 15.63500 41.04100
C  -12.88500 15.85400 40.72200
C  -13.71300 14.56600 40.59800
C  -12.64800 13.46300 40.97800
C  -11.38200 14.32400 41.15300
C  -14.98900 14.57900 41.52600
C  -12.46500 12.28400 39.99600
C  -11.74900 12.61400 38.63100
N  -8.78700 15.78700 41.21800
C  -8.91500 14.44100 41.42700
C  -7.67900 13.82900 41.74700
C  -6.68600 14.87500 41.60600
C  -7.43500 16.10300 41.28000
C  -7.47200 12.37400 41.86300
C  -5.30700 15.23100 41.62700
O  -4.32200 14.51500 41.90100
C  -5.21900 16.76400 41.28300
C  -4.39800 17.34900 42.34500
O  -3.30300 16.94300 42.63700
O  -4.99800 18.45100 42.92100
C  -4.20600 19.19300 43.89600
H  -10.10300 21.66600 40.18000
H  -14.56500 17.11900 40.30100
H  -10.14500 12.65600 41.41100
H  -5.50900 19.99600 40.91200
H  -7.54200 21.44800 39.52200
H  -6.39900 21.78900 42.19800
H  -8.15400 21.69100 42.43900
H  -7.58500 22.97400 41.49200
H  -5.95200 20.76500 38.33800
H  -6.38100 19.12200 38.21600
H  -3.92600 18.83800 39.67400
H  -3.72300 20.19200 38.48800
H  -13.45500 22.23400 38.79300
H  -11.71200 22.36900 38.89800
H  -12.70200 22.79400 40.32700
H  -16.07600 18.18300 38.93900
H  -17.20300 19.44000 39.63000
H  -16.33900 18.28700 40.66100
H  -14.07700 14.42800 39.58000
H  -12.75300 13.07500 41.99200
H  -14.61400 14.66700 42.54600
H  -15.54500 13.66400 41.32500
H  -15.63900 15.42400 41.30000
H  -13.44300 11.88800 39.72000
H  -11.94100 11.54500 40.60300
H  -12.49600 12.48000 37.84900
H  -10.86700 12.02000 38.38900
H  -11.49000 13.67200 38.58300
H  -8.31300 11.89700 42.36600
H  -6.49000 12.17000 42.29000
H  -7.51000 11.96800 40.85200
H  -4.58400 16.81100 40.39900
H  -3.25600 19.46800 43.43800
H  -3.97500 18.46700 44.67500
H  -4.67000 20.14300 44.16300

