158

Mg 47.46200 14.53800 27.61700
C  45.52800 14.87100 30.45100
C  49.81500 16.55000 28.93800
C  48.95600 14.68800 24.47500
C  44.57900 13.29600 25.85200
N  47.64800 15.59400 29.50800
C  46.75800 15.56800 30.58000
C  47.41200 16.29400 31.76700
C  48.62300 17.04500 31.17800
C  48.75900 16.38000 29.80900
C  48.38100 18.54500 30.86700
C  47.72700 15.29400 32.97900
C  46.95500 15.56000 34.31100
H  47.69400 15.39400 35.63600
N  49.18800 15.33500 26.88400
C  50.00100 16.13800 27.61000
C  51.18400 16.44000 26.82700
C  51.02100 15.82700 25.53800
C  49.66800 15.24700 25.56900
C  52.36700 17.19000 27.41300
C  51.91100 15.87100 24.35500
O  51.64700 15.31300 23.33400
C  53.19300 16.75000 24.29500
N  46.86200 14.04000 25.45500
C  47.69900 14.17500 24.34000
C  47.07200 13.58500 23.00600
C  45.75700 12.98600 23.63200
C  45.69800 13.49400 25.04900
C  46.90000 14.54000 21.79600
C  45.66500 11.44200 23.39700
C  46.32900 10.65500 24.52300
N  45.48500 14.01700 28.07100
C  44.45600 13.61500 27.21800
C  43.26800 13.43600 28.11900
C  43.65900 13.84300 29.40200
C  45.04200 14.23700 29.30100
C  41.85800 13.03300 27.74400
C  43.33500 14.00900 30.80500
O  42.30700 13.56600 31.34100
C  44.49900 14.67000 31.55200
C  43.96500 15.87200 32.22500
O  44.26700 17.04400 31.85600
O  43.31300 15.55600 33.37000
C  42.80100 16.72800 34.11700
H  50.68200 17.06800 29.35400
H  49.53000 14.61100 23.55000
H  43.70900 12.82500 25.39000
H  46.76800 17.11100 32.09400
H  49.53700 16.99100 31.76900
H  48.64100 18.73000 29.82500
H  49.08700 19.14200 31.44400
H  47.35300 18.81900 31.10600
H  48.79800 15.11800 33.07400
H  47.31200 14.33700 32.66300
H  46.13600 14.84400 34.36900
H  46.58500 16.58100 34.21800
H  52.64500 16.90600 28.42800
H  52.32100 18.25500 27.18600
H  53.30800 16.83800 26.99100
H  54.07700 16.25000 24.68900
H  52.89700 17.69100 24.76000
H  53.33200 17.07600 23.26400
H  47.63400 12.68000 22.77700
H  44.85400 13.45400 23.24100
H  47.42700 14.24100 20.89000
H  47.37500 15.45700 22.14800
H  45.86300 14.58700 21.46400
H  46.03500 11.06100 22.44500
H  44.59600 11.23200 23.42700
H  46.81800 9.80700 24.04400
H  45.62500 10.30700 25.27900
H  47.15300 11.23100 24.94500
H  41.61100 13.73100 26.94400
H  41.19500 13.03300 28.61000
H  41.91600 11.98900 27.43600
H  44.94900 14.02100 32.30400
H  42.16300 17.39700 33.53800
H  43.61200 17.30200 34.56400
H  42.11100 16.31900 34.85500
Mg 6.98100 54.88100 40.99900
C  6.42400 51.36200 41.24100
C  10.28100 54.09900 40.67700
C  7.42900 58.07400 40.18500
C  3.52600 55.23000 41.19100
N  8.19200 52.99000 40.76700
C  7.75900 51.68600 40.90100
C  8.92200 50.72800 40.70300
C  10.04100 51.68400 41.02700
C  9.49800 53.01800 40.85600
C  10.87700 51.46900 42.39400
C  8.88500 49.98200 39.32300
C  8.57900 50.91700 38.12900
H  7.34100 50.78700 37.34900
N  8.60000 55.96800 40.49900
C  9.91400 55.49600 40.47000
C  10.80400 56.55700 40.12900
C  10.01000 57.77200 40.06100
C  8.61900 57.33300 40.21000
C  12.29600 56.38900 39.78500
C  10.50400 59.19800 39.84600
O  11.73600 59.44600 39.89800
C  9.57000 60.43600 39.84600
N  5.71100 56.30200 40.55300
C  6.14500 57.59800 40.32500
C  4.98100 58.55700 40.32100
C  3.66000 57.64300 40.42600
C  4.31000 56.28500 40.77700
C  4.94900 59.67800 41.36700
C  2.74000 57.70700 39.20600
C  2.24100 59.15000 38.66200
N  5.29800 53.55900 41.15300
C  3.94200 53.90400 41.32400
C  3.20300 52.76200 41.79900
C  4.14200 51.71100 41.70400
C  5.41400 52.26700 41.38000
C  1.72200 52.65300 42.04100
C  4.33600 50.33200 41.98900
O  3.59300 49.48900 42.47000
C  5.82600 49.97900 41.57200
C  5.63500 49.02700 40.47300
O  5.21600 49.40800 39.35700
O  5.83100 47.73900 40.79200
C  5.87600 46.75500 39.69300
H  11.31300 53.78600 40.50500
H  7.50500 59.11700 39.87000
H  2.47300 55.43500 41.39400
H  8.75500 50.00100 41.49800
H  10.82300 51.79000 40.27500
H  11.93500 51.45500 42.13100
H  10.78100 50.44300 42.75000
H  10.61500 52.15300 43.20000
H  8.14100 49.18800 39.39000
H  9.85900 49.54000 39.11500
H  9.40800 50.84000 37.42500
H  8.60300 51.92200 38.55100
H  12.82800 55.94700 40.62800
H  12.71500 57.35700 39.50900
H  12.27000 55.77500 38.88400
H  8.96300 60.38600 38.94300
H  10.10100 61.38500 39.92900
H  8.94900 60.25200 40.72300
H  5.01900 59.05100 39.35000
H  3.01800 57.83500 41.28600
H  4.82200 60.67000 40.93400
H  5.94900 59.63800 41.80000
H  4.20300 59.61800 42.15900
H  1.84300 57.13300 39.43600
H  3.30600 57.22800 38.40700
H  2.64800 59.91800 39.32000
H  1.16000 59.26900 38.73500
H  2.45300 59.22300 37.59500
H  1.25000 52.13500 41.20700
H  1.32200 53.66300 42.13300
H  1.64800 52.04500 42.94300
H  6.21300 49.48200 42.46100
H  6.26200 45.85600 40.17500
H  6.44800 46.98100 38.79300
H  4.85400 46.48700 39.42400

