158

Mg 8.72700 3.25900 26.91300
C  10.11600 1.48500 29.69200
C  6.92400 5.11400 28.98100
C  7.83100 4.75400 24.15800
C  10.22100 0.66700 24.80700
N  8.49100 3.26300 29.11600
C  9.25000 2.61000 30.03300
C  8.91300 3.08800 31.50000
C  7.60500 3.96800 31.25000
C  7.67300 4.11900 29.68400
C  6.33400 3.32300 31.69300
C  10.17800 3.75700 32.11800
C  10.73000 3.10200 33.41800
H  11.49600 4.03600 34.45100
N  7.51600 4.76200 26.60700
C  6.99600 5.46900 27.66400
C  6.32200 6.59700 27.09500
C  6.43500 6.49700 25.68200
C  7.31800 5.31700 25.43800
C  5.51900 7.55900 27.92100
C  5.82100 7.37300 24.69500
O  5.99000 7.04300 23.50200
C  5.24700 8.70700 24.99300
N  8.99800 2.73100 24.78700
C  8.52700 3.63300 23.84900
C  8.81400 3.16400 22.40900
C  9.46800 1.79800 22.62900
C  9.60400 1.70900 24.17200
C  7.65200 3.16500 21.41100
C  10.60000 1.26200 21.68500
C  10.56100 -0.23300 21.33300
N  9.82900 1.38600 27.16000
C  10.38000 0.51700 26.21300
C  11.06200 -0.55600 26.83100
C  11.07700 -0.17200 28.19000
C  10.29900 0.98800 28.38100
C  11.67300 -1.77800 26.24000
C  11.60900 -0.38500 29.49100
O  12.26200 -1.27800 29.92700
C  10.93300 0.61300 30.56400
C  10.02400 -0.11800 31.45800
O  9.22800 -0.96400 31.11400
O  10.30000 0.26500 32.74300
C  9.29000 -0.30600 33.74000
H  6.31200 5.66400 29.69900
H  7.59000 5.45000 23.35100
H  10.72000 -0.05900 24.16100
H  8.51600 2.32700 32.17100
H  7.76300 4.98100 31.62100
H  6.36200 3.22800 32.77900
H  6.19800 2.29400 31.36100
H  5.42100 3.85300 31.42200
H  10.03800 4.81300 32.35200
H  10.88100 3.71100 31.28600
H  11.49700 2.37800 33.14500
H  9.96100 2.63000 34.02900
H  5.76800 7.47200 28.97900
H  4.47400 7.34900 27.69400
H  5.84000 8.56200 27.64200
H  6.05600 9.23600 25.49600
H  4.37800 8.55500 25.63400
H  4.95200 9.15300 24.04300
H  9.52800 3.84200 21.94200
H  8.68200 1.04700 22.56000
H  6.74400 3.65000 21.76800
H  7.27800 2.19900 21.07100
H  7.88300 3.81700 20.56800
H  11.50600 1.33900 22.28800
H  10.80800 1.85200 20.79300
H  9.53800 -0.60900 21.30400
H  11.15800 -0.83100 22.02100
H  11.01000 -0.40900 20.35600
H  12.32400 -1.38700 25.45800
H  10.96600 -2.30100 25.59500
H  12.22900 -2.37300 26.96300
H  11.62900 1.26600 31.09000
H  9.36700 -1.37700 33.93100
H  8.28100 -0.09800 33.38400
H  9.52700 0.12500 34.71200
Mg 48.67400 44.41600 42.90600
C  45.26100 44.22200 42.72200
C  48.69600 40.95200 42.42900
C  52.12100 44.43700 42.97500
C  48.59600 47.87900 42.43500
N  47.14900 42.74200 42.72700
C  45.77300 42.94400 42.61800
C  44.95600 41.62500 42.65800
C  46.14700 40.62000 42.84500
C  47.42200 41.48100 42.62200
C  46.07700 39.96400 44.25500
C  44.04800 41.41600 41.40300
C  44.26000 42.25200 40.10000
H  44.73600 41.52300 38.85000
N  50.16700 42.94500 42.84100
C  49.99100 41.54400 42.55200
C  51.35200 40.91800 42.52400
C  52.28300 41.85700 42.91400
C  51.53500 43.14000 42.97500
C  51.63600 39.43200 42.19800
C  53.74500 41.49700 43.13200
O  54.17200 40.34400 42.96500
C  54.74800 42.47800 43.63100
N  50.17500 45.96700 42.67400
C  51.50700 45.71000 42.81900
C  52.25500 47.06600 42.88500
C  51.13600 48.17800 42.86800
C  49.87400 47.28800 42.61900
C  53.23100 47.12500 44.18300
C  51.31500 49.50000 42.00100
C  51.29900 50.86400 42.72800
N  47.30000 45.84000 42.56100
C  47.32700 47.19800 42.43100
C  46.03400 47.79300 42.41400
C  45.16700 46.63900 42.49500
C  45.96500 45.44100 42.58500
C  45.68100 49.25300 42.46900
C  43.75900 46.27400 42.57300
O  42.73800 46.97400 42.62300
C  43.79600 44.63000 42.75400
C  43.08800 44.35700 43.95500
O  42.07100 43.72700 43.97700
O  43.83800 44.75000 45.03300
C  43.41400 44.09500 46.29400
H  48.73500 39.88700 42.19100
H  53.20800 44.54000 42.95000
H  48.43900 48.95900 42.44600
H  44.32700 41.63600 43.54700
H  46.02300 39.84900 42.08500
H  47.06200 40.08000 44.70800
H  45.83600 38.91500 44.08100
H  45.28000 40.44900 44.81900
H  43.02200 41.30300 41.75300
H  44.32300 40.39900 41.12300
H  44.93200 43.08100 40.32200
H  43.33700 42.74800 39.80100
H  52.31800 39.32500 41.35400
H  50.69000 38.92400 42.01000
H  52.16300 38.98100 43.03900
H  55.17300 43.14300 42.87900
H  55.63400 41.97200 44.01200
H  54.27800 42.88600 44.52600
H  52.79000 47.21200 41.94700
H  51.00400 48.36300 43.93400
H  53.18500 46.17400 44.71400
H  52.78800 47.88500 44.82700
H  54.22300 47.43700 43.85700
H  50.55800 49.51800 41.21700
H  52.26400 49.52600 41.46500
H  52.26400 51.35300 42.60000
H  51.09100 50.67800 43.78200
H  50.56200 51.47200 42.20300
H  45.60900 49.67300 41.46600
H  46.42200 49.79600 43.05600
H  44.74600 49.44900 42.99400
H  43.32500 44.12100 41.91300
H  44.03000 43.19600 46.33300
H  42.35600 43.86400 46.41400
H  43.63800 44.67000 47.19300

