158

Mg 24.22700 -5.43000 46.22900
C  26.40800 -2.96800 44.59400
C  21.70800 -4.20400 44.13600
C  22.59100 -8.06200 46.82200
C  27.07700 -6.59200 47.78800
N  24.12300 -3.74000 44.65600
C  25.05100 -2.85600 44.16000
C  24.45700 -1.84800 43.13800
C  22.91800 -2.08200 43.37500
C  22.86700 -3.40800 44.09700
C  22.23700 -0.99500 44.18800
C  25.00800 -2.23200 41.69800
C  25.46800 -1.03600 40.87100
H  24.98000 -0.87400 39.44800
N  22.33000 -6.00500 45.70200
C  21.47200 -5.41000 44.83100
C  20.25400 -6.19300 44.70100
C  20.39200 -7.37100 45.49900
C  21.78900 -7.22800 46.06300
C  19.21400 -5.80800 43.70900
C  19.31400 -8.40000 45.80300
O  18.18600 -8.34100 45.24500
C  19.50700 -9.67200 46.67700
N  24.76800 -7.08300 47.08800
C  23.82200 -8.00800 47.39000
C  24.40000 -9.11600 48.22100
C  25.73600 -8.46900 48.77000
C  25.90100 -7.29800 47.81100
C  23.45400 -9.79200 49.31800
C  26.87800 -9.39700 48.94400
C  27.45900 -9.62800 50.34000
N  26.29800 -4.92500 46.19500
C  27.31800 -5.45300 47.01500
C  28.56700 -4.79900 46.76200
C  28.26500 -3.77600 45.79100
C  26.87500 -3.99300 45.50400
C  29.89600 -5.04000 47.51700
C  28.72300 -2.68700 45.00600
O  29.85200 -2.26300 44.91000
C  27.54800 -2.11700 44.13800
C  27.54400 -0.64900 44.48000
O  27.65400 -0.16800 45.60100
O  27.53600 0.16100 43.33700
C  27.91500 1.59700 43.58300
H  20.99300 -3.58600 43.58900
H  22.00900 -8.91800 47.17000
H  27.92200 -6.93500 48.38800
H  24.77100 -0.81900 43.31400
H  22.42400 -2.25400 42.41900
H  21.46100 -0.48100 43.62000
H  22.92700 -0.21100 44.49700
H  21.68500 -1.36100 45.05300
H  24.17000 -2.64400 41.13700
H  25.86800 -2.89800 41.63100
H  26.55000 -1.15900 40.91900
H  25.16600 -0.13700 41.40800
H  19.60200 -5.09800 42.97900
H  18.42600 -5.35000 44.30800
H  18.72700 -6.68200 43.27600
H  20.00900 -9.36700 47.59500
H  20.05400 -10.49200 46.21200
H  18.48100 -9.92700 46.94100
H  24.50700 -9.97800 47.56300
H  25.54200 -8.03100 49.74900
H  23.50000 -10.87900 49.25100
H  22.40900 -9.49600 49.23200
H  23.76200 -9.68400 50.35800
H  27.69900 -9.15700 48.26900
H  26.56800 -10.42700 48.76800
H  26.58600 -9.63300 50.99200
H  27.98900 -8.71400 50.60800
H  28.07000 -10.53100 50.31100
H  30.29100 -4.09800 47.89700
H  30.63500 -5.55800 46.90400
H  29.66200 -5.72900 48.32900
H  27.80000 -2.14900 43.07800
H  28.59400 1.70800 44.42800
H  26.99000 2.11200 43.84200
H  28.37000 2.04000 42.69700
Mg 51.31400 46.29100 43.43200
C  48.33200 47.11300 41.95100
C  50.75300 43.01400 42.16100
C  54.37800 45.47200 44.43900
C  51.87500 49.59000 44.31500
N  49.57800 45.21400 42.32500
C  48.54200 45.79900 41.69400
C  47.68100 44.77200 40.89900
C  48.54000 43.53600 41.00800
C  49.69000 43.94400 41.96400
C  47.69900 42.24400 41.34400
C  47.43100 45.21500 39.38000
C  46.03700 44.89500 38.83900
H  45.88500 44.12100 37.59700
N  52.44800 44.55000 43.29800
C  52.05500 43.30800 42.72000
C  53.13400 42.35500 42.84300
C  54.20800 43.04200 43.53400
C  53.68200 44.38100 43.87200
C  53.05800 40.92100 42.38300
C  55.55800 42.45700 43.81700
O  55.86100 41.34300 43.46600
C  56.50700 43.29000 44.55100
N  53.04200 47.48300 44.05800
C  54.15200 46.89400 44.57800
C  55.06900 47.99700 45.32200
C  54.13100 49.15500 45.32300
C  52.98600 48.75600 44.46400
C  55.55300 47.45200 46.76100
C  54.70600 50.57300 44.99000
C  54.11000 51.69300 45.78400
N  50.33100 48.03900 43.37600
C  50.62500 49.27400 43.74900
C  49.59400 50.22000 43.35700
C  48.65200 49.40900 42.62700
C  49.12800 48.09800 42.68000
C  49.53700 51.67400 43.73900
C  47.39800 49.39200 42.04200
O  46.55100 50.29600 41.96800
C  47.17200 47.96100 41.40600
C  45.85800 47.41100 41.67000
O  45.41500 47.13400 42.75300
O  45.13700 47.37800 40.53200
C  43.70200 47.05300 40.58400
H  50.66600 42.02500 41.70500
H  55.30000 45.32500 45.00600
H  51.92900 50.61000 44.70100
H  46.85600 44.64700 41.60100
H  48.93800 43.34500 40.01100
H  47.90400 42.15900 42.41100
H  48.19100 41.41500 40.83600
H  46.62000 42.34900 41.23300
H  48.13500 44.68400 38.73900
H  47.54600 46.29700 39.31800
H  45.48400 45.81400 38.64600
H  45.43200 44.37100 39.57900
H  53.92900 40.74300 41.75300
H  52.21200 40.72800 41.72300
H  52.94900 40.23000 43.21900
H  57.43900 42.80100 44.83300
H  56.05100 43.49500 45.52000
H  56.79500 44.21100 44.04400
H  55.92700 48.32100 44.73400
H  53.70400 49.18600 46.32600
H  55.18800 48.16200 47.50300
H  56.61400 47.48900 47.00800
H  55.25500 46.40800 46.86000
H  54.49600 50.98900 44.00500
H  55.78700 50.60100 45.13200
H  53.63800 52.35200 45.05600
H  54.87700 52.20200 46.36800
H  53.35300 51.36600 46.49600
H  48.58300 52.11800 43.45800
H  50.41000 52.22300 43.38800
H  49.51900 51.67200 44.82900
H  47.45000 48.22500 40.38600
H  43.40800 46.32200 41.33600
H  43.43700 46.65400 39.60400
H  43.16500 47.98300 40.77100

