158

Mg 6.95500 2.24700 27.69000
C  8.76200 1.06700 30.26200
C  5.02200 4.23300 29.72400
C  5.43600 3.52300 24.84800
C  8.39900 -0.27900 25.60600
N  6.81100 2.52400 29.81500
C  7.80200 2.05500 30.61700
C  7.64100 2.51600 32.01100
C  6.33400 3.44400 31.84800
C  6.00400 3.41800 30.37900
C  5.19300 2.90000 32.83900
C  8.87500 3.32300 32.52600
C  8.67700 4.11100 33.85200
H  9.77700 3.84900 34.84600
N  5.35000 3.63300 27.35300
C  4.75600 4.40300 28.34100
C  3.90500 5.36000 27.65700
C  3.99900 5.14200 26.26400
C  4.94800 4.02700 26.09700
C  3.04500 6.25500 28.42800
C  3.22100 5.81500 25.11100
O  3.31300 5.51300 23.95600
C  2.08500 6.73700 25.42100
N  6.62800 1.49800 25.55300
C  6.32800 2.43100 24.63200
C  6.81200 1.97900 23.15400
C  7.61800 0.66600 23.44400
C  7.51600 0.57900 24.97600
C  5.69000 1.79100 22.09800
C  9.03000 0.76700 22.80400
C  9.39000 -0.48200 22.03100
N  8.24000 0.59900 27.88500
C  8.77200 -0.29400 26.95000
C  9.70700 -1.14200 27.61300
C  9.74600 -0.69600 28.94300
C  8.87400 0.42700 29.03300
C  10.45700 -2.28600 26.96200
C  10.29400 -0.82900 30.32100
O  11.14100 -1.60600 30.75300
C  9.79000 0.33800 31.17100
C  9.17000 -0.37000 32.38300
O  8.43800 -1.34900 32.29000
O  9.57800 0.22900 33.54500
C  9.25700 -0.39600 34.78300
H  4.65200 5.01800 30.38700
H  5.09200 4.02500 23.94100
H  8.73700 -1.05000 24.91100
H  7.36700 1.66400 32.63400
H  6.62100 4.47800 32.04200
H  5.00100 3.51200 33.72100
H  5.45700 1.93400 33.27000
H  4.28800 2.78700 32.24300
H  9.14100 4.00400 31.71700
H  9.74000 2.67200 32.64900
H  7.73800 3.86400 34.34700
H  8.56400 5.13400 33.49300
H  3.49200 6.46400 29.40000
H  2.07200 5.79500 28.60000
H  2.93900 7.15200 27.81800
H  1.40000 6.98500 24.61100
H  2.53800 7.69600 25.67100
H  1.49200 6.30400 26.22600
H  7.45600 2.83200 22.94000
H  7.05800 -0.15200 22.99100
H  4.77200 1.62800 22.66400
H  5.99000 0.98200 21.43200
H  5.50600 2.72900 21.57300
H  9.88200 0.84400 23.47800
H  9.11800 1.64700 22.16700
H  10.05700 -0.22800 21.20800
H  8.53700 -1.07700 21.70300
H  9.85500 -1.13600 22.76900
H  10.61900 -1.99000 25.92500
H  9.79300 -3.14500 27.05800
H  11.33700 -2.47400 27.57800
H  10.57700 1.00600 31.51900
H  10.20000 -0.70600 35.23200
H  8.48400 -1.16500 34.79900
H  8.85100 0.41200 35.39100
Mg 40.60500 9.24700 29.92800
C  42.73500 10.46800 32.57800
C  38.28500 8.44400 32.05500
C  38.87200 8.23400 27.24000
C  43.39400 10.03200 27.75300
N  40.60500 9.32900 32.07700
C  41.45400 9.94400 32.96000
C  40.93800 9.97600 34.43200
C  39.53200 9.28800 34.17900
C  39.45800 8.90800 32.66000
C  39.25700 8.09600 35.08500
C  41.01200 11.40000 34.99000
C  40.23000 11.62700 36.29600
H  40.91500 12.40800 37.39000
N  38.78300 8.45300 29.63700
C  37.95100 8.20900 30.67400
C  36.70200 7.65400 30.18300
C  36.80200 7.68000 28.75900
C  38.19000 8.13200 28.46000
C  35.54100 7.17600 31.10800
C  35.82600 7.31800 27.65900
O  36.06900 7.44800 26.43500
C  34.41200 6.74800 28.06000
N  41.12500 9.10400 27.75700
C  40.17500 8.67600 26.91000
C  40.71400 8.65600 25.47100
C  42.14500 9.17700 25.66600
C  42.20200 9.60100 27.14400
C  40.52000 7.29000 24.68800
C  42.62400 10.33100 24.72000
C  42.22800 11.74400 25.04400
N  42.63400 10.12400 30.09500
C  43.54900 10.35900 29.15800
C  44.79200 10.90000 29.76800
C  44.56200 10.95100 31.11600
C  43.18800 10.52200 31.23300
C  46.04900 11.23800 28.97400
C  45.07400 11.31800 32.40700
O  46.17200 11.74200 32.67700
C  43.93100 11.01500 33.52100
C  44.42700 9.88100 34.36300
O  44.71400 8.73100 34.02700
O  44.71300 10.40000 35.64800
C  45.33900 9.49000 36.53400
H  37.52000 8.05700 32.73300
H  38.31100 7.95700 26.34500
H  44.16200 10.20000 26.99600
H  41.58800 9.37500 35.06700
H  38.81200 10.03300 34.51600
H  40.17900 7.75800 35.55800
H  38.75300 7.29900 34.53800
H  38.57100 8.33100 35.89900
H  40.69800 12.06900 34.18900
H  42.09100 11.50800 35.10500
H  39.86000 10.64500 36.59100
H  39.38500 12.24900 36.00000
H  35.55800 7.67600 32.07600
H  35.43500 6.10700 31.29200
H  34.55600 7.40100 30.69700
H  33.99000 6.33700 27.14300
H  33.95500 7.60100 28.56100
H  34.43400 5.92000 28.76800
H  40.14300 9.45600 25.00100
H  42.84700 8.35900 25.50300
H  41.47200 6.98200 24.25500
H  39.81600 7.48100 23.87700
H  40.19100 6.47100 25.32800
H  42.31600 10.07500 23.70600
H  43.70500 10.19300 24.74700
H  42.95200 12.15300 25.74900
H  41.30100 11.71100 25.61800
H  42.06200 12.28000 24.10900
H  46.93200 10.90300 29.51900
H  46.15000 12.32000 28.88200
H  46.20100 10.70900 28.03400
H  43.74200 11.87400 34.16600
H  45.89100 10.01400 37.31400
H  45.77800 8.63700 36.01700
H  44.49000 9.09700 37.09200

