158

Mg 2.80600 -3.20900 45.07600
C  5.72500 -1.14000 44.37900
C  1.08200 -1.32000 42.97400
C  0.64400 -5.50900 45.45300
C  5.29600 -5.34800 46.75100
N  3.44900 -1.36800 43.82000
C  4.62100 -0.79100 43.61300
C  4.55200 0.36400 42.57900
C  2.99100 0.27300 42.14200
C  2.40500 -0.84000 43.09000
C  2.25500 1.62500 42.27100
C  5.47100 0.21100 41.31300
C  6.53600 1.28100 41.12000
H  6.60800 1.93600 39.77900
N  1.03300 -3.32200 44.35200
C  0.41700 -2.43500 43.52800
C  -0.89200 -3.01900 43.11300
C  -1.02100 -4.24900 43.83200
C  0.24600 -4.47900 44.61100
C  -1.85700 -2.30800 42.17400
C  -2.25100 -5.19600 43.67300
O  -3.18400 -4.83400 42.93000
C  -2.29200 -6.54600 44.18700
N  3.00200 -5.24800 45.99900
C  1.80800 -5.88500 46.13300
C  1.96800 -7.12200 47.06900
C  3.49700 -7.20200 47.22300
C  4.02200 -5.83700 46.63100
C  1.06400 -7.07500 48.35600
C  4.09700 -8.40100 46.37400
C  3.68300 -9.71500 46.91900
N  4.99500 -3.18700 45.69400
C  5.76000 -4.10100 46.38600
C  7.07500 -3.65100 46.59500
C  7.10500 -2.41100 45.87600
C  5.85500 -2.22700 45.24800
C  8.35300 -4.28400 47.40500
C  7.92200 -1.30900 45.51400
O  9.10100 -1.05100 45.67800
C  7.06500 -0.46000 44.43000
C  6.97800 0.95600 44.89900
O  7.61000 1.88600 44.46100
O  6.09500 1.01800 45.93900
C  5.88100 2.28500 46.63800
H  0.44300 -0.68100 42.36100
H  -0.17800 -6.17000 45.73400
H  6.03300 -5.99400 47.23200
H  4.84800 1.23000 43.17200
H  2.80900 -0.12600 41.14400
H  1.81200 1.98800 41.34400
H  2.90200 2.40900 42.66500
H  1.52800 1.46400 43.06700
H  4.87100 0.14000 40.40600
H  6.03300 -0.72200 41.37200
H  7.50000 0.91400 41.47100
H  6.20400 2.11400 41.73900
H  -1.53500 -1.29200 41.94700
H  -2.86700 -2.34400 42.58200
H  -1.72500 -2.85100 41.23800
H  -1.29300 -6.94300 44.00500
H  -3.07500 -7.06500 43.63400
H  -2.45900 -6.56400 45.26400
H  1.53700 -7.87600 46.41000
H  3.85400 -7.20100 48.25200
H  0.83600 -6.00900 48.35400
H  1.67900 -7.30600 49.22600
H  0.14800 -7.65300 48.23400
H  5.17900 -8.29600 46.45800
H  3.79000 -8.47300 45.33100
H  2.93400 -9.61000 47.70300
H  4.50300 -10.31600 47.31400
H  3.30700 -10.23900 46.04000
H  8.43000 -5.31000 47.04600
H  8.16800 -4.30700 48.47900
H  9.25000 -3.68400 47.25200
H  7.50100 -0.35000 43.43700
H  5.49500 1.91700 47.58900
H  5.32000 3.09300 46.17000
H  6.84700 2.74800 46.83900
Mg -6.07600 24.89400 25.08500
C  -4.53700 26.15000 28.11700
C  -7.53500 22.48100 27.10600
C  -6.83600 23.31600 22.33900
C  -3.83900 27.10100 23.35600
N  -5.95400 24.37800 27.30900
C  -5.33900 25.05600 28.32300
C  -5.83900 24.62400 29.64000
C  -6.55800 23.20100 29.32800
C  -6.57600 23.26100 27.77900
C  -5.83700 21.95600 29.89900
C  -6.82000 25.69000 30.26300
C  -6.62500 25.96800 31.73600
H  -5.86900 24.92100 32.58500
N  -7.24700 23.30000 24.78600
C  -7.81500 22.49600 25.70600
C  -8.69500 21.56400 25.01400
C  -8.45400 21.73100 23.63400
C  -7.46000 22.83600 23.51900
C  -9.48100 20.57200 25.79300
C  -8.97100 20.87500 22.41100
O  -8.68700 21.10600 21.24500
C  -10.00600 19.77800 22.59700
N  -5.43700 25.16900 23.14100
C  -5.96200 24.39600 22.10700
C  -5.50700 24.80400 20.74200
C  -4.58500 26.04200 21.02100
C  -4.59100 26.14800 22.61300
C  -4.73100 23.66500 19.99700
C  -5.02300 27.37000 20.28200
C  -4.01400 27.97400 19.37200
N  -4.50300 26.37000 25.52000
C  -3.76700 27.19500 24.70500
C  -2.89100 28.01900 25.47200
C  -3.16300 27.64500 26.81200
C  -4.19900 26.69500 26.78400
C  -1.82200 28.96500 24.83900
C  -2.79400 27.89900 28.22100
O  -1.97200 28.62300 28.69000
C  -3.75600 26.97900 29.06700
C  -2.91200 26.32800 30.09800
O  -2.27200 25.31700 29.88000
O  -2.84800 27.13300 31.23100
C  -1.87500 26.75900 32.28100
H  -8.12900 21.81900 27.74000
H  -7.13400 22.66100 21.51700
H  -3.35300 27.85200 22.73000
H  -4.92800 24.44600 30.21200
H  -7.60500 23.19600 29.62800
H  -4.99900 22.17700 30.56000
H  -5.51100 21.41900 29.00800
H  -6.59400 21.35300 30.40200
H  -7.83200 25.30200 30.14800
H  -6.97900 26.60300 29.69000
H  -7.49100 26.16400 32.36800
H  -6.03800 26.87600 31.87000
H  -8.87100 19.68500 25.96500
H  -10.37100 20.22200 25.27000
H  -9.88300 21.05600 26.68300
H  -9.70600 19.00200 23.30200
H  -10.21700 19.37900 21.60500
H  -10.91600 20.27900 22.92600
H  -6.42400 25.06500 20.21400
H  -3.54900 25.81900 20.76500
H  -3.95700 23.98800 19.30000
H  -5.49100 23.03100 19.53900
H  -4.17100 22.96900 20.62000
H  -5.21300 28.08400 21.08400
H  -5.92700 27.21800 19.69100
H  -3.93500 29.04300 19.56800
H  -4.36500 27.87100 18.34500
H  -3.03500 27.50100 19.44400
H  -2.07200 30.02300 24.92100
H  -1.61800 28.67700 23.80800
H  -0.83400 28.76200 25.25200
H  -4.50400 27.60700 29.55100
H  -0.85300 27.01400 32.00000
H  -1.85200 25.67100 32.35500
H  -2.25400 27.14800 33.22500

