158

Mg 9.45100 4.21500 28.08500
C  10.66200 2.64000 30.92600
C  7.58700 6.33000 30.18800
C  8.17900 5.75200 25.38500
C  10.73400 1.69700 26.11600
N  9.15500 4.39500 30.29000
C  9.77300 3.66000 31.26100
C  9.38700 4.05500 32.71200
C  8.54100 5.37700 32.38500
C  8.42700 5.39500 30.83100
C  7.17700 5.52400 33.17000
C  10.55300 4.34000 33.71300
C  10.29200 5.26200 34.87100
H  10.76200 4.79500 36.22500
N  7.96800 5.82100 27.84100
C  7.33900 6.52800 28.81700
C  6.39600 7.40000 28.18900
C  6.66600 7.32300 26.82400
C  7.59800 6.25700 26.62100
C  5.48600 8.31200 29.00400
C  6.12800 8.21000 25.80000
O  6.38500 8.04400 24.59800
C  5.00500 9.17000 26.07900
N  9.48200 3.77300 26.01800
C  8.96000 4.61700 25.09700
C  9.37700 4.16500 23.70000
C  10.09100 2.78800 23.92400
C  10.17800 2.77500 25.44400
C  8.19100 4.14400 22.68500
C  11.50700 2.61500 23.18600
C  11.50800 1.55300 22.16500
N  10.50500 2.49200 28.42800
C  11.00200 1.58200 27.51000
C  11.88000 0.63600 28.18000
C  11.67500 0.98900 29.53500
C  10.88000 2.17900 29.62400
C  12.54300 -0.60200 27.56200
C  12.03600 0.58300 30.85400
O  12.65200 -0.34100 31.19900
C  11.38700 1.62500 31.87600
C  10.47500 0.91400 32.82200
O  9.37400 0.38000 32.56500
O  11.02900 0.97800 34.07300
C  10.28900 0.33600 35.12100
H  7.20000 7.03200 30.92900
H  7.88200 6.26800 24.46900
H  11.09300 0.88900 25.47500
H  8.82800 3.19700 33.08700
H  9.16500 6.23000 32.65200
H  6.93400 4.69800 33.83900
H  6.37300 5.55200 32.43500
H  7.23300 6.49900 33.65200
H  11.41300 4.63300 33.11100
H  10.89500 3.41500 34.17900
H  9.25700 5.60000 34.91400
H  10.91600 6.12100 34.62100
H  5.49400 7.98200 30.04300
H  4.48600 8.25600 28.57300
H  5.90800 9.31400 28.92600
H  4.09000 8.76500 26.51000
H  4.86900 9.61400 25.09200
H  5.30100 10.03200 26.67800
H  10.13900 4.92900 23.54900
H  9.36400 2.03200 23.62600
H  7.26500 4.00200 23.24300
H  8.21800 3.38000 21.90800
H  8.12400 5.07900 22.13000
H  12.35600 2.44600 23.84800
H  11.61200 3.56700 22.66600
H  11.25300 1.93100 21.17500
H  10.76200 0.77400 22.32400
H  12.45800 1.02000 22.12300
H  12.77700 -0.46900 26.50600
H  11.93500 -1.50600 27.60300
H  13.52100 -0.82300 27.99000
H  12.09700 2.22200 32.44800
H  10.23800 1.07900 35.91600
H  10.96200 -0.46400 35.43000
H  9.30700 -0.09700 34.93000
Mg 5.96800 53.69900 40.49000
C  5.31600 50.20500 40.18200
C  9.20900 53.14400 39.56300
C  6.13600 56.92000 39.81100
C  2.39300 54.04300 40.81500
N  7.03600 51.91300 39.84200
C  6.61200 50.61800 39.79700
C  7.79100 49.70000 39.25600
C  9.01800 50.65100 39.39000
C  8.36000 52.01000 39.63600
C  9.99100 50.19500 40.42200
C  7.57400 49.03100 37.80700
C  6.77300 49.87600 36.77100
H  6.20000 49.23600 35.60500
N  7.54400 54.87400 39.94200
C  8.86500 54.49800 39.72900
C  9.63300 55.65600 39.82600
C  8.75100 56.78000 40.00600
C  7.37000 56.23800 39.84500
C  11.13700 55.54600 39.71100
C  9.17600 58.21400 40.19200
O  10.32700 58.54600 39.95800
C  8.21100 59.17700 40.77900
N  4.46100 55.23600 40.33800
C  4.82700 56.47300 39.99700
C  3.56500 57.40500 39.74400
C  2.41200 56.51200 40.10800
C  3.11600 55.17800 40.43200
C  3.47400 58.71800 40.54700
C  1.39400 56.33100 38.98600
C  0.48200 57.49400 38.67400
N  4.23700 52.46500 40.72200
C  2.91900 52.73100 40.98500
C  2.13900 51.55900 41.07800
C  3.04300 50.51600 40.78600
C  4.30700 51.16200 40.52800
C  0.64500 51.43900 41.38600
C  3.20800 49.09300 40.72400
O  2.34600 48.24300 40.84400
C  4.67500 48.83000 40.34900
C  4.74800 47.97600 39.12800
O  4.18300 48.24200 38.04500
O  5.25100 46.69900 39.48000
C  4.96200 45.77500 38.37300
H  10.25600 52.87600 39.40200
H  6.34400 57.99100 39.76200
H  1.31100 54.19100 40.84200
H  7.75200 48.85900 39.94800
H  9.58100 50.73600 38.46100
H  10.90600 50.28200 39.83600
H  9.97300 49.14100 40.69800
H  10.08400 50.71700 41.37400
H  7.10500 48.05100 37.89100
H  8.58000 48.96800 37.39100
H  7.54700 50.58100 36.47000
H  5.92200 50.35500 37.25400
H  11.63900 56.50600 39.82900
H  11.44800 55.22100 38.71900
H  11.62600 54.85800 40.40100
H  8.73000 59.99900 41.27300
H  7.59700 58.61400 41.48200
H  7.74100 59.75200 39.98100
H  3.55800 57.74800 38.70900
H  1.82900 56.82300 40.97400
H  4.32500 58.76400 41.22600
H  2.56500 58.93900 41.10600
H  3.63900 59.57800 39.89800
H  0.61400 55.64600 39.31900
H  1.84000 56.07100 38.02600
H  0.79600 58.04100 37.78500
H  0.30900 58.13700 39.53700
H  -0.51900 57.11700 38.46200
H  0.43000 51.13300 42.41000
H  0.26900 50.80400 40.58400
H  0.20200 52.42300 41.22800
H  5.14300 48.37400 41.22200
H  3.90700 45.83300 38.10600
H  5.08800 44.75500 38.73800
H  5.57000 46.06600 37.51700

