158

Mg 8.45600 3.29900 27.38500
C  9.75700 1.76000 30.33000
C  6.71900 5.39800 29.43800
C  7.21700 4.61300 24.58300
C  9.94700 0.65000 25.56100
N  8.42600 3.62800 29.59900
C  9.00700 2.86600 30.62900
C  8.80700 3.59200 32.04800
C  7.76000 4.66300 31.63000
C  7.60800 4.55900 30.09700
C  6.42900 4.60900 32.40900
C  10.27000 3.96200 32.68900
C  10.27300 4.99900 33.79900
H  10.52600 4.47800 35.19100
N  7.14700 4.85700 27.05300
C  6.43900 5.57900 28.07200
C  5.56000 6.54300 27.38400
C  5.73900 6.34900 25.93800
C  6.74000 5.24300 25.81200
C  4.94000 7.71600 28.09900
C  5.20300 7.15800 24.79300
O  5.37900 6.82500 23.59700
C  4.37200 8.44600 25.06600
N  8.74300 2.84900 25.28600
C  8.10800 3.54200 24.30700
C  8.24000 2.80700 22.93700
C  9.17300 1.64300 23.29900
C  9.31500 1.66900 24.80400
C  6.87900 2.24500 22.43700
C  10.57100 1.63100 22.58800
C  10.65700 0.67100 21.37000
N  9.66800 1.61800 27.81400
C  10.09700 0.60400 26.99100
C  10.73700 -0.52500 27.75000
C  10.66400 -0.01600 29.05800
C  9.89800 1.19700 29.07700
C  11.51300 -1.65800 27.15800
C  11.07700 -0.33700 30.37500
O  11.87300 -1.16900 30.84000
C  10.49300 0.80900 31.27500
C  9.57000 0.05200 32.28400
O  8.61500 -0.64700 31.97600
O  9.99200 0.25800 33.57100
C  9.19700 -0.41700 34.68700
H  6.13600 6.02700 30.11300
H  6.82700 5.12100 23.69800
H  10.19300 -0.28700 25.05700
H  8.40000 2.90900 32.79200
H  8.23300 5.62000 31.84900
H  6.21400 5.57100 32.87400
H  6.46700 3.83100 33.17200
H  5.55800 4.45100 31.77200
H  11.03500 4.17700 31.94300
H  10.54600 3.05900 33.23500
H  9.26100 5.40400 33.80400
H  11.03500 5.75800 33.62200
H  5.36700 7.62000 29.09700
H  3.86100 7.57600 28.04000
H  5.35500 8.64100 27.69800
H  5.10300 9.15000 25.46500
H  3.56900 8.15800 25.74400
H  3.98300 8.76200 24.09800
H  8.66000 3.48300 22.19300
H  8.64700 0.71400 23.08000
H  6.35400 1.87500 23.31800
H  7.16300 1.35200 21.87900
H  6.18500 2.88400 21.89200
H  11.32300 1.31000 23.31000
H  10.89200 2.62400 22.27300
H  9.67300 0.65900 20.90300
H  10.82100 -0.33800 21.75000
H  11.43900 1.00400 20.68800
H  12.27500 -1.24200 26.49900
H  10.79300 -2.27700 26.62300
H  12.01000 -2.31400 27.87200
H  11.35300 1.24600 31.78300
H  8.88900 0.41500 35.32000
H  9.77200 -1.09400 35.31800
H  8.35100 -1.05300 34.42400
Mg 16.53900 51.39000 24.89700
C  18.05200 50.42000 27.88600
C  13.76600 52.37300 26.70800
C  14.99700 51.96100 21.98900
C  19.45500 50.40300 23.22500
N  16.03400 51.44100 27.02000
C  16.84900 51.04100 28.04600
C  16.19500 51.37800 29.42100
C  14.79000 51.92100 29.02800
C  14.86300 51.93200 27.50900
C  13.52300 51.13900 29.50900
C  17.16900 52.34800 30.27200
C  17.52500 51.87400 31.65400
H  16.39300 51.21700 32.51000
N  14.68100 52.19000 24.42500
C  13.61400 52.45700 25.31200
C  12.48900 52.88200 24.56300
C  12.83000 52.72200 23.15800
C  14.25400 52.31600 23.15500
C  11.20900 53.39500 25.19100
C  12.06100 53.02800 21.97000
O  12.45800 52.91500 20.78900
C  10.82200 53.79100 22.18200
N  17.10000 51.02700 22.90400
C  16.22800 51.41700 21.86500
C  16.90100 51.15800 20.51500
C  18.34700 50.80900 20.91300
C  18.36600 50.88000 22.45900
C  16.15300 49.98200 19.74100
C  19.47500 51.62500 20.22400
C  20.03200 50.98900 18.88600
N  18.33300 50.43800 25.35000
C  19.42700 50.11400 24.57300
C  20.49700 49.51000 25.42300
C  19.98500 49.66000 26.71700
C  18.71200 50.23200 26.64400
C  21.66900 48.77400 24.92700
C  20.35200 49.49700 28.11100
O  21.33500 49.05500 28.65600
C  19.09400 49.92000 28.93800
C  18.63000 48.71800 29.64800
O  17.92400 47.80500 29.13400
O  19.10200 48.83500 30.93600
C  18.87700 47.68200 31.76300
H  12.99800 52.83300 27.33400
H  14.51300 52.07400 21.01600
H  20.31400 50.06300 22.64200
H  16.19800 50.38000 29.85900
H  14.68600 52.94900 29.37300
H  12.95800 50.70100 28.68600
H  12.78700 51.74800 30.03300
H  13.82900 50.37300 30.22100
H  16.66300 53.30200 30.42300
H  18.13800 52.52400 29.80600
H  17.87700 52.76700 32.17100
H  18.35400 51.17400 31.55300
H  11.17300 53.10200 26.24000
H  10.27100 52.96800 24.83800
H  11.18500 54.47700 25.31200
H  9.94700 53.32600 22.63600
H  10.44500 54.03000 21.18700
H  11.12600 54.69900 22.70100
H  16.88300 52.03200 19.86500
H  18.55200 49.79500 20.57000
H  15.23300 49.59900 20.18200
H  16.80500 49.12900 19.55600
H  16.03600 50.41100 18.74600
H  20.14700 52.07900 20.95200
H  19.06100 52.56700 19.86400
H  19.63800 51.50200 18.00900
H  19.81200 49.92400 18.81200
H  21.11500 51.11000 18.86400
H  21.46900 47.78400 25.33900
H  22.53900 49.36600 25.21000
H  21.62000 48.65200 23.84500
H  19.42100 50.67200 29.65600
H  19.62800 47.69400 32.55300
H  18.89400 46.74500 31.20600
H  17.87600 47.79900 32.17900

