158

Mg 40.83000 8.51500 30.26400
C  42.73900 9.63400 33.00700
C  38.61900 7.28300 32.51800
C  39.43100 6.81400 27.78100
C  43.48300 9.61100 28.13700
N  40.76100 8.61100 32.55300
C  41.63400 9.04100 33.47800
C  41.20700 8.62800 34.89500
C  40.00600 7.69700 34.58800
C  39.71600 7.94900 33.06700
C  40.17000 6.20900 34.94500
C  40.82800 9.89800 35.75000
C  41.29100 9.66900 37.19400
H  41.55600 10.98200 38.01100
N  39.10800 7.41700 30.14300
C  38.35800 7.03600 31.18900
C  37.24900 6.26600 30.66100
C  37.43600 6.16400 29.27800
C  38.72200 6.78300 28.99600
C  36.03600 5.77800 31.40100
C  36.51000 5.64400 28.16500
O  36.86700 5.40900 27.02800
C  35.07400 5.39900 28.48700
N  41.40800 8.21500 28.27100
C  40.62900 7.41800 27.45200
C  41.20900 7.46900 26.03800
C  42.31100 8.61400 26.10000
C  42.46900 8.80500 27.57000
C  41.75900 6.06600 25.63300
C  41.76000 9.89500 25.35200
C  42.56700 10.49200 24.23500
N  42.67800 9.46000 30.45200
C  43.64300 9.94400 29.48800
C  44.75000 10.60700 30.17700
C  44.44200 10.45600 31.56500
C  43.16700 9.78200 31.67000
C  46.01500 11.09100 29.50000
C  44.92600 10.76700 32.91900
O  45.92000 11.32900 33.28100
C  43.80200 10.36100 33.82500
C  44.47700 9.56900 34.87500
O  45.11500 8.56000 34.74800
O  44.25900 10.18000 36.06100
C  44.86600 9.55100 37.26500
H  38.02700 6.80300 33.30000
H  39.07000 6.26500 26.90800
H  44.25000 10.04900 27.49400
H  42.04900 8.13100 35.37600
H  39.21800 7.97900 35.28700
H  41.15800 5.96700 35.33800
H  40.00000 5.48700 34.14600
H  39.49100 6.01600 35.77500
H  39.74600 10.01600 35.70200
H  41.32500 10.79300 35.37600
H  42.17200 9.02700 37.22800
H  40.44300 9.20000 37.69200
H  36.20400 5.56000 32.45600
H  35.74400 4.76900 31.11100
H  35.11400 6.35600 31.34500
H  34.70800 6.33900 28.90000
H  34.88800 4.62100 29.22700
H  34.50400 5.14500 27.59300
H  40.43500 7.72900 25.31600
H  43.32600 8.39000 25.77200
H  41.51400 5.28300 26.35100
H  42.83700 6.10700 25.47700
H  41.31100 5.73500 24.69600
H  41.71800 10.70400 26.08100
H  40.74400 9.65700 25.03600
H  41.82900 10.54300 23.43500
H  43.46800 9.95500 23.93800
H  42.90700 11.46000 24.60400
H  45.98200 12.18000 29.53100
H  46.06000 10.72600 28.47400
H  46.84300 10.80500 30.15000
H  43.50800 11.34400 34.19300
H  45.95500 9.56200 37.21800
H  44.55700 8.52100 37.44000
H  44.66600 10.22600 38.09700
Mg -9.37400 39.70400 40.28400
C  -8.06400 36.57200 39.45600
C  -6.37400 41.04700 39.11000
C  -10.97500 42.58200 40.24100
C  -12.35900 38.01800 41.22600
N  -7.47900 38.89600 39.38700
C  -7.27700 37.58600 38.97000
C  -5.98000 37.49100 38.05700
C  -5.27200 38.84300 38.51000
C  -6.42800 39.67900 38.99300
C  -4.04600 38.81400 39.52600
C  -6.28900 37.42900 36.51100
C  -5.54100 36.45800 35.56000
H  -6.44200 35.75300 34.51900
N  -8.74500 41.59500 39.71800
C  -7.43900 41.96600 39.45300
C  -7.45900 43.42200 39.30600
C  -8.74200 43.94100 39.68300
C  -9.55600 42.68400 39.97400
C  -6.27300 44.19300 38.74500
C  -9.07500 45.43300 39.83000
O  -8.16500 46.25300 39.66800
C  -10.47600 45.90400 40.16400
N  -11.38000 40.20900 40.51600
C  -11.81800 41.49700 40.44800
C  -13.24200 41.63600 40.90900
C  -13.68300 40.11600 41.19300
C  -12.45000 39.32800 40.86300
C  -13.50200 42.57200 42.04100
C  -14.88800 39.72400 40.29700
C  -16.21400 39.59000 41.09400
N  -10.10400 37.71800 40.44900
C  -11.24500 37.21000 40.91800
C  -11.03300 35.74900 41.11800
C  -9.85900 35.41800 40.43500
C  -9.31700 36.72200 40.07900
C  -12.10800 34.78500 41.71700
C  -9.03700 34.31700 39.89600
O  -9.09800 33.11200 39.94200
C  -7.81800 35.08400 39.13800
C  -6.59100 34.49000 39.69600
O  -5.96900 34.90700 40.69300
O  -6.30300 33.39400 38.87700
C  -5.21800 32.49100 39.35900
H  -5.41700 41.47800 38.80900
H  -11.58200 43.47200 40.41900
H  -13.24400 37.61000 41.71800
H  -5.42100 36.59900 38.33900
H  -4.79800 39.33900 37.66300
H  -3.10700 39.00900 39.00800
H  -4.10900 37.81300 39.95100
H  -4.15700 39.38300 40.44900
H  -6.16100 38.43200 36.10400
H  -7.33100 37.11300 36.45500
H  -5.16500 35.67000 36.21200
H  -4.73100 36.91800 34.99300
H  -6.05800 45.11800 39.28100
H  -6.13700 44.37100 37.67900
H  -5.36800 43.63000 38.97300
H  -11.16600 45.40900 39.48100
H  -10.49800 46.98500 40.03100
H  -10.69300 45.70900 41.21400
H  -13.87400 41.93500 40.07300
H  -13.68800 39.98500 42.27500
H  -12.59300 42.66200 42.63700
H  -14.29700 42.12300 42.63600
H  -13.89600 43.55800 41.79700
H  -14.54200 38.78700 39.86200
H  -15.12900 40.44700 39.51700
H  -16.88800 40.43500 40.95200
H  -15.95500 39.52300 42.15100
H  -16.70400 38.68600 40.73300
H  -12.00000 34.89600 42.79600
H  -11.88200 33.77700 41.36900
H  -13.11600 35.04100 41.39300
H  -7.83600 34.96000 38.05500
H  -5.38200 31.52000 38.89200
H  -5.37900 32.38600 40.43100
H  -4.26800 32.90700 39.02200

