158

Mg 48.83000 16.24300 28.33200
C  46.69000 15.81300 31.12500
C  50.87800 18.20700 30.27300
C  50.90600 16.48400 25.76000
C  46.35500 14.52600 26.41600
N  48.78500 16.83400 30.47200
C  47.86900 16.53000 31.43500
C  48.18600 17.25200 32.72600
C  49.39200 18.15900 32.27400
C  49.71600 17.73900 30.95100
C  49.19200 19.72400 32.46600
C  48.52400 16.20100 33.82500
C  48.60100 16.67000 35.24300
H  48.44900 18.16700 35.57000
N  50.62100 17.24700 28.02300
C  51.34600 17.97500 28.94500
C  52.62300 18.41300 28.40700
C  52.64200 17.85700 27.06300
C  51.34400 17.22800 26.83600
C  53.61300 19.30300 29.15000
C  53.76800 17.77700 26.01900
O  53.74700 17.23500 24.93900
C  55.06100 18.46200 26.40500
N  48.64100 15.51400 26.42700
C  49.66000 15.75300 25.50900
C  49.34100 15.11700 24.17400
C  48.04100 14.19700 24.46500
C  47.59600 14.80900 25.78900
C  49.15700 16.19100 23.11400
C  48.38300 12.69400 24.55400
C  47.57400 11.77700 23.69700
N  46.84800 15.39700 28.63300
C  45.94900 14.72800 27.80500
C  44.85900 14.23100 28.54500
C  45.01900 14.64700 29.81500
C  46.31200 15.29800 29.85300
C  43.76900 13.36300 27.93500
C  44.51100 14.64800 31.15800
O  43.44600 14.19300 31.55100
C  45.56800 15.37500 32.12000
C  44.84300 16.42400 32.78600
O  44.54600 17.50800 32.33600
O  44.38700 15.85500 33.96500
C  43.46800 16.72200 34.71200
H  51.56700 18.89900 30.76300
H  51.51600 16.49700 24.85400
H  45.81200 13.79800 25.80900
H  47.31300 17.84800 32.99000
H  50.30200 17.94200 32.83300
H  49.25100 20.40400 31.61600
H  49.75300 20.08400 33.32800
H  48.13800 19.84100 32.71900
H  49.48400 15.80800 33.49000
H  47.98900 15.25500 33.74000
H  49.55300 16.31700 35.63900
H  47.80100 16.19800 35.81400
H  54.66900 19.13900 28.93100
H  53.52100 19.32000 30.23600
H  53.31400 20.32800 28.93100
H  54.84100 19.49900 26.65800
H  55.74000 18.37000 25.55800
H  55.57500 17.98500 27.23900
H  50.12900 14.42200 23.88600
H  47.19400 14.48500 23.84200
H  49.79300 16.00000 22.25100
H  49.45100 17.16900 23.49400
H  48.08800 16.24000 22.90700
H  48.30300 12.37200 25.59300
H  49.46200 12.58800 24.44300
H  48.19900 11.10600 23.10900
H  46.91900 12.30500 23.00400
H  46.93700 11.14700 24.31800
H  44.11500 12.90900 27.00700
H  42.90800 13.99100 27.70900
H  43.56600 12.57200 28.65800
H  45.89900 14.77100 32.96600
H  42.73300 16.10400 35.22900
H  42.93400 17.41000 34.05600
H  44.10800 17.22100 35.44000
Mg 16.52600 52.82400 26.73100
C  18.45600 51.20300 29.15500
C  14.44200 53.96500 29.13000
C  14.33700 53.84400 24.37600
C  18.50900 51.27800 24.32900
N  16.40900 52.53400 28.88900
C  17.38800 51.92300 29.65800
C  17.15400 52.28700 31.12200
C  15.71800 52.93300 31.10300
C  15.48500 53.14800 29.63400
C  14.56900 52.00900 31.75900
C  18.16200 53.27400 31.70000
C  18.54800 53.23400 33.20200
H  17.58400 52.39700 34.05800
N  14.65500 53.75200 26.75100
C  14.04600 54.21100 27.82000
C  12.91600 55.01400 27.53000
C  12.83400 54.98300 26.09400
C  14.00600 54.21000 25.64400
C  11.93200 55.69400 28.48700
C  11.83200 55.61800 25.14800
O  11.84200 55.46700 23.93700
C  10.79200 56.55800 25.67800
N  16.35200 52.44500 24.69800
C  15.39500 52.99200 23.89700
C  15.67400 52.81900 22.40600
C  17.06400 52.02900 22.34700
C  17.36800 51.96000 23.85300
C  14.49600 52.30800 21.53400
C  18.21500 52.73400 21.47200
C  18.85800 54.00800 22.02100
N  18.27200 51.58200 26.66100
C  18.91400 51.03200 25.60900
C  19.99600 50.27100 26.07900
C  19.87200 50.32900 27.45400
C  18.77900 51.08500 27.80000
C  21.12100 49.60800 25.31500
C  20.50400 49.87400 28.71400
O  21.47900 49.17600 28.95400
C  19.57200 50.42100 29.86700
C  19.12400 49.32900 30.71600
O  18.06600 48.69100 30.65900
O  19.98000 49.23000 31.78300
C  19.71700 48.21200 32.81000
H  13.82500 54.27100 29.97700
H  13.73600 54.26900 23.57000
H  19.28300 50.86000 23.68200
H  17.16200 51.33100 31.64700
H  15.55200 53.82600 31.70500
H  13.87800 52.64700 32.31000
H  15.07200 51.35300 32.47000
H  13.97500 51.46300 31.02600
H  17.79500 54.25400 31.39800
H  19.08600 53.26600 31.12100
H  18.56300 54.20500 33.69700
H  19.51300 52.74700 33.34500
H  12.01600 56.78000 28.53400
H  11.98700 55.36000 29.52300
H  10.89400 55.44000 28.27200
H  9.93400 56.02300 26.08600
H  10.47800 57.12000 24.79800
H  11.21300 57.31300 26.34300
H  15.88100 53.76800 21.91100
H  16.84700 51.03900 21.94600
H  14.60900 51.29500 21.14900
H  14.46500 52.92700 20.63700
H  13.56900 52.52200 22.06600
H  17.90000 53.08000 20.48700
H  18.93400 51.94800 21.24400
H  18.64500 54.04800 23.08900
H  18.48600 54.84900 21.43500
H  19.93500 53.87200 21.93100
H  20.77500 48.66300 24.89500
H  21.90500 49.41600 26.04800
H  21.40100 50.21900 24.45700
H  20.17700 51.08600 30.48200
H  19.16900 48.69800 33.61700
H  20.60300 47.82100 33.31000
H  19.23800 47.31300 32.42000

