158

Mg 1.15200 8.29500 25.57300
C  1.88800 10.28900 28.36000
C  1.84100 5.60900 27.49100
C  0.90100 6.45800 22.79400
C  1.22500 11.13800 23.67200
N  1.98800 8.03000 27.71800
C  1.86700 8.90500 28.71600
C  1.85400 8.28000 30.07400
C  2.08000 6.76100 29.68600
C  1.94700 6.79000 28.23200
C  3.37900 6.05600 30.16400
C  0.55800 8.56700 30.80000
C  0.64600 8.76000 32.28100
H  1.71600 7.91200 33.01200
N  1.17800 6.33500 25.21600
C  1.42800 5.34000 26.17600
C  1.26100 4.06400 25.50200
C  0.82300 4.34000 24.17900
C  0.99600 5.80600 24.00100
C  1.24000 2.76000 26.28400
C  0.23600 3.39000 23.15300
O  -0.27800 3.73400 22.09100
C  0.14300 1.84900 23.38600
N  0.86200 8.81400 23.45500
C  0.85700 7.81300 22.53300
C  0.78400 8.48500 21.11400
C  0.66600 9.99000 21.43900
C  0.83900 10.00400 22.93100
C  2.03400 8.09000 20.11900
C  -0.57800 10.67500 20.95600
C  -0.52900 12.17100 20.49200
N  1.62000 10.20100 25.85500
C  1.55300 11.28000 25.01300
C  1.71000 12.52100 25.72300
C  1.83200 12.20400 27.00800
C  1.88900 10.77900 27.07400
C  1.60100 13.93500 25.12600
C  2.02800 12.66800 28.44000
O  2.13700 13.80000 28.86600
C  1.95000 11.45800 29.33000
C  3.14300 11.59400 30.25600
O  4.33400 11.47500 29.97200
O  2.75500 11.80300 31.59000
C  3.91100 12.01800 32.46300
H  1.91600 4.71100 28.10700
H  0.84400 5.71100 21.99900
H  1.35100 12.02100 23.04200
H  2.72900 8.65500 30.60500
H  1.27800 6.10700 30.02800
H  4.01000 6.77300 30.68900
H  4.08400 5.81200 29.36900
H  3.04600 5.25200 30.82100
H  -0.16700 7.75600 30.74200
H  0.04200 9.44700 30.41500
H  -0.27500 8.48200 32.79400
H  0.92700 9.80700 32.39300
H  1.90100 2.00500 25.85800
H  0.24000 2.34100 26.17000
H  1.32000 2.84500 27.36800
H  1.11100 1.53100 23.77400
H  -0.22200 1.49200 22.42300
H  -0.57400 1.71100 24.19500
H  -0.13600 8.04000 20.73400
H  1.58100 10.45500 21.07400
H  2.75200 7.51100 20.69900
H  2.59900 9.00400 19.94000
H  1.65900 7.57400 19.23500
H  -1.34500 10.48100 21.70600
H  -0.86400 10.05100 20.11000
H  -1.19200 12.17100 19.62700
H  0.50000 12.49200 20.33200
H  -0.90500 12.72700 21.35100
H  1.18600 13.88300 24.11900
H  2.52800 14.50200 25.04100
H  0.96600 14.47200 25.83200
H  1.01700 11.57600 29.88000
H  4.64600 12.72900 32.08600
H  4.24000 10.99600 32.65100
H  3.53400 12.26900 33.45500
Mg 47.66700 15.45200 28.37200
C  45.51300 15.45300 31.10500
C  49.69200 17.58500 30.04300
C  49.53500 15.54000 25.64500
C  45.16900 13.62400 26.55700
N  47.51400 16.43200 30.24100
C  46.63800 16.16000 31.29900
C  47.21000 16.60100 32.67200
C  48.27100 17.65400 32.16200
C  48.51800 17.19900 30.71200
C  47.83800 19.21300 32.15100
C  47.73900 15.46000 33.55900
C  47.53800 15.71200 35.01300
H  48.72800 15.45600 35.97300
N  49.34300 16.46100 27.92200
C  50.03100 17.25900 28.76200
C  51.29600 17.68300 28.05600
C  51.19500 17.05800 26.73900
C  49.96900 16.30600 26.70500
C  52.40100 18.48700 28.77600
C  52.24500 17.16100 25.61400
O  52.27700 16.51700 24.60400
C  53.37500 18.22300 25.57500
N  47.36100 14.69600 26.39300
C  48.39100 14.75700 25.51300
C  48.03100 13.98800 24.20900
C  46.72200 13.25200 24.56900
C  46.35700 13.90500 25.92200
C  47.96100 14.90000 22.90200
C  46.82700 11.70000 24.54300
C  47.09400 11.09300 23.14100
N  45.74700 14.71000 28.72800
C  44.88400 14.03100 27.87800
C  43.68000 13.73200 28.62800
C  43.93400 14.20000 29.91600
C  45.18600 14.77500 29.93900
C  42.51800 12.86100 28.25500
C  43.37000 14.19300 31.24900
O  42.30600 13.74600 31.65100
C  44.51900 15.00800 32.12200
C  43.73200 16.15200 32.63600
O  43.07200 16.93600 31.94700
O  43.89000 16.14700 34.04500
C  42.91400 16.89100 34.76400
H  50.47300 18.11200 30.59600
H  50.28400 15.46700 24.85300
H  44.40500 13.05100 26.02800
H  46.39900 17.08100 33.22000
H  49.22900 17.60400 32.68100
H  48.73700 19.71100 32.51400
H  46.93000 19.28800 32.74900
H  47.46800 19.54300 31.18000
H  48.82900 15.48800 33.54900
H  47.38300 14.44100 33.40600
H  46.82400 15.06000 35.51600
H  47.32400 16.76700 35.18400
H  53.33400 18.42900 28.21500
H  52.54900 18.25200 29.83000
H  52.00100 19.50000 28.81800
H  54.12100 17.95300 26.32200
H  52.80200 19.13600 25.73600
H  53.96300 18.15000 24.65900
H  48.73000 13.18300 23.97800
H  45.96900 13.54700 23.83800
H  48.22200 14.31100 22.02300
H  48.71000 15.68900 22.97700
H  46.93300 15.25000 22.81400
H  45.81500 11.41100 24.82500
H  47.59500 11.27400 25.18800
H  47.61600 11.82600 22.52600
H  46.24100 10.72100 22.57400
H  47.75300 10.27900 23.44200
H  42.68600 11.78800 28.34300
H  42.14500 13.15200 27.27300
H  41.75200 13.14100 28.97900
H  44.95600 14.40800 32.92100
H  43.29800 17.07900 35.76600
H  42.09100 16.18900 34.89400
H  42.65600 17.87700 34.37900

