158

Mg 28.30300 56.76700 40.79500
C  26.20100 54.04100 39.79300
C  31.05100 54.79200 39.66000
C  30.28300 59.46000 41.01200
C  25.47400 58.69800 40.88500
N  28.50000 54.75600 39.49200
C  27.54900 53.80800 39.34000
C  28.11500 52.40200 38.96600
C  29.68500 52.63100 39.15200
C  29.80600 54.21300 39.33300
C  30.31900 51.82900 40.23800
C  27.52100 51.92700 37.59100
C  28.08300 52.60500 36.38000
H  27.08300 53.16300 35.38200
N  30.39400 57.07500 40.51800
C  31.34600 56.11800 40.11600
C  32.64800 56.61200 40.20800
C  32.53700 57.98700 40.68700
C  31.02400 58.24600 40.75700
C  33.90100 55.77700 39.95300
C  33.64700 58.93800 40.98000
O  34.80200 58.47500 40.82200
C  33.41600 60.38300 41.32600
N  27.92500 58.81200 40.82400
C  28.90800 59.72400 41.06200
C  28.37800 61.12600 41.33500
C  26.81800 60.85300 41.31400
C  26.70800 59.35600 41.01000
C  28.84700 61.84400 42.64700
C  26.10900 61.73700 40.15000
C  25.21700 62.86000 40.65500
N  26.15700 56.45700 40.55200
C  25.16100 57.33700 40.75500
C  23.84700 56.64400 40.70300
C  24.21200 55.31700 40.40900
C  25.61800 55.28900 40.21600
C  22.44900 57.14500 40.76400
C  23.71500 53.94400 40.23000
O  22.61700 53.41500 40.42700
C  25.00000 53.13000 39.75200
C  25.18100 51.93100 40.62400
O  25.14400 50.78700 40.19500
O  25.31000 52.23200 41.94500
C  25.32600 51.14700 42.93700
H  31.88900 54.09300 39.71100
H  30.81400 60.38700 41.23700
H  24.52400 59.23100 40.96400
H  27.77600 51.63100 39.65800
H  30.22800 52.38300 38.24000
H  29.55400 51.08300 40.45400
H  30.57800 52.34600 41.16200
H  31.20800 51.30200 39.89000
H  26.45500 52.15300 37.61400
H  27.63300 50.84600 37.51000
H  28.72700 51.88300 35.88000
H  28.74800 53.39700 36.72300
H  34.63600 56.35100 39.39000
H  33.74700 54.86300 39.37900
H  34.28900 55.55700 40.94800
H  33.04100 60.42000 42.34900
H  32.71100 60.80300 40.60900
H  34.32900 60.96700 41.21400
H  28.68900 61.83100 40.56400
H  26.40800 61.01300 42.31200
H  28.03200 62.29800 43.21100
H  29.66500 62.55100 42.51200
H  29.23600 61.13100 43.37400
H  25.42900 61.05100 39.64500
H  26.76200 61.96900 39.31000
H  25.59900 63.18600 41.62300
H  24.18600 62.51900 40.75000
H  25.42000 63.64500 39.92700
H  22.41100 57.94900 41.50000
H  21.69700 56.39900 41.02200
H  22.06600 57.63600 39.86900
H  24.82200 52.83700 38.71800
H  24.34300 50.99600 43.38400
H  25.98700 51.56900 43.69500
H  25.67500 50.24200 42.43900
Mg 35.96100 48.92100 26.21800
C  36.23800 46.79200 28.96500
C  34.61200 51.38100 28.44700
C  35.49500 50.91500 23.58400
C  37.01100 46.35300 24.21400
N  35.51400 49.03600 28.40900
C  35.82100 48.08100 29.30500
C  35.70400 48.63900 30.80600
C  34.95200 50.01300 30.57300
C  35.09000 50.16600 29.07200
C  33.34700 49.91300 30.96200
C  37.09700 48.81800 31.43600
C  37.27100 48.55500 32.95000
H  35.98900 48.46000 33.81800
N  35.24200 50.89600 26.04900
C  34.72400 51.72700 27.06900
C  34.31500 52.97000 26.40800
C  34.61200 52.88400 24.95800
C  35.14100 51.51700 24.80200
C  33.78200 54.19300 27.15600
C  34.32000 53.85400 23.94400
O  34.72300 53.73400 22.81000
C  33.37700 54.96300 24.13100
N  35.97400 48.53600 24.18700
C  35.84500 49.57900 23.32800
C  35.96300 49.01800 21.84600
C  36.75600 47.64900 22.09300
C  36.59800 47.48300 23.60100
C  34.58600 48.96600 21.15900
C  38.27500 47.49300 21.63000
C  39.18700 48.58700 22.11100
N  36.44700 47.03100 26.50600
C  36.98000 46.11000 25.56300
C  37.34900 44.86300 26.21500
C  37.05000 45.13200 27.55600
C  36.53800 46.42600 27.68400
C  38.03000 43.68600 25.57100
C  36.98800 44.61300 28.89700
O  37.34200 43.50900 29.23400
C  36.47300 45.63900 29.86600
C  35.25800 45.23500 30.55800
O  34.18500 44.90400 30.05400
O  35.46200 45.12500 31.91300
C  34.39200 44.70100 32.72800
H  34.10300 52.10600 29.08500
H  35.58000 51.47000 22.64800
H  37.35800 45.44100 23.72300
H  35.01900 48.04600 31.41200
H  35.31500 50.90600 31.08400
H  33.02800 48.95800 30.54400
H  32.80200 50.70700 30.45200
H  33.21800 49.99900 32.04100
H  37.35600 49.86100 31.25600
H  37.81700 48.14700 30.96600
H  37.83100 49.40100 33.34600
H  37.92000 47.68700 33.06800
H  32.69500 54.19200 27.07900
H  34.19400 55.06000 26.64100
H  34.23600 54.14100 28.14600
H  32.45900 54.65200 24.62900
H  33.05000 55.24200 23.12900
H  33.80500 55.88300 24.52800
H  36.61000 49.66500 21.25400
H  36.21600 46.83400 21.61100
H  34.54300 49.50600 20.21300
H  33.82400 49.37600 21.82200
H  34.26500 47.94700 20.94300
H  38.15200 47.60900 20.55300
H  38.48400 46.48300 21.98100
H  38.60700 49.48700 22.31700
H  39.99200 48.93000 21.46100
H  39.67500 48.25100 23.02600
H  38.75800 44.05100 24.84700
H  37.34900 42.97500 25.10400
H  38.47700 43.08400 26.36200
H  37.28300 45.79500 30.57900
H  34.79400 44.71200 33.74100
H  34.05500 43.68800 32.51000
H  33.67400 45.51900 32.78800

