158

Mg -1.10200 17.76700 26.85000
C  -1.66100 15.23600 29.40300
C  -1.74600 20.10800 29.30000
C  -0.50300 19.88000 24.47100
C  -1.27600 15.15500 24.52700
N  -1.75300 17.65000 29.11400
C  -1.69300 16.52400 29.94000
C  -2.18900 16.97300 31.38300
C  -2.23800 18.52700 31.27700
C  -1.91800 18.81500 29.80600
C  -3.57400 19.25600 31.63300
C  -1.18900 16.44400 32.53800
C  -1.20400 17.24800 33.89900
H  -0.72600 16.50200 35.11900
N  -1.02400 19.64400 26.87200
C  -1.31200 20.50900 27.96500
C  -1.16600 21.84200 27.58300
C  -0.81600 21.79600 26.18700
C  -0.72800 20.39500 25.79600
C  -1.32100 23.00600 28.59100
C  -0.56600 22.93300 25.29600
O  -0.07800 22.83700 24.21200
C  -0.91100 24.28800 25.68600
N  -1.09300 17.58400 24.74900
C  -0.63200 18.60000 24.02800
C  -0.50200 18.14000 22.53200
C  -0.53000 16.60500 22.65000
C  -1.00900 16.40700 24.04300
C  -1.60700 18.75300 21.62500
C  0.85400 15.96000 22.29700
C  1.99900 16.12000 23.30600
N  -1.39600 15.68800 26.89900
C  -1.46200 14.77300 25.87300
C  -1.70500 13.47100 26.35500
C  -1.64000 13.56900 27.74900
C  -1.57100 14.94400 28.05800
C  -1.89300 12.22400 25.52200
C  -1.82700 12.78500 28.96300
O  -2.07600 11.62100 29.19100
C  -1.79600 13.90800 30.13500
C  -0.62500 13.56400 30.91100
O  0.52000 13.69100 30.43500
O  -0.93600 13.03000 32.13300
C  0.21100 12.82200 33.07300
H  -1.78100 20.78900 30.15300
H  -0.24400 20.60400 23.69500
H  -1.37900 14.31200 23.84000
H  -3.15200 16.47100 31.47900
H  -1.47400 19.00900 31.88700
H  -4.15600 18.56100 32.23700
H  -4.08100 19.50500 30.70100
H  -3.22400 20.16500 32.12100
H  -0.18100 16.22500 32.18700
H  -1.60000 15.47800 32.83000
H  -2.11800 17.79400 34.13300
H  -0.46600 18.02700 33.70700
H  -0.52300 23.74100 28.48800
H  -1.28300 22.77100 29.65500
H  -2.27100 23.53500 28.50200
H  -1.92400 24.35000 26.08500
H  -0.84600 25.05800 24.91700
H  -0.15400 24.60900 26.40000
H  0.36400 18.38700 21.91800
H  -1.18500 16.05400 21.97500
H  -2.08500 17.92000 21.10900
H  -1.28400 19.53900 20.94200
H  -2.36800 19.19400 22.26900
H  1.15900 16.51700 21.41100
H  0.79600 14.88800 22.10700
H  1.74400 15.67100 24.26600
H  2.19100 17.16800 23.53600
H  2.95800 15.69000 23.01800
H  -0.95900 11.82700 25.12500
H  -2.56800 12.50000 24.71200
H  -2.38000 11.43300 26.09200
H  -2.72500 13.90800 30.70600
H  1.09500 13.41100 32.82800
H  0.44400 11.76600 33.20800
H  -0.13500 13.26800 34.00600
Mg 35.62200 2.17900 30.11300
C  33.22800 2.65900 32.72600
C  38.02800 2.69200 32.48500
C  37.92200 1.74300 27.77800
C  33.03400 1.73100 27.94600
N  35.65900 2.51100 32.44000
C  34.50000 2.64700 33.24400
C  34.95400 2.91800 34.71000
C  36.42700 3.28100 34.56300
C  36.74500 2.87200 33.06800
C  36.59300 4.80600 34.75200
C  34.60800 1.67100 35.65100
C  34.28200 1.96000 37.18300
H  35.02200 3.16300 37.82500
N  37.70000 2.15700 30.17500
C  38.51400 2.44200 31.24300
C  39.88600 2.23400 30.83700
C  39.89100 2.01200 29.43300
C  38.42000 1.99200 29.04000
C  41.04200 2.16700 31.84700
C  41.03500 1.78900 28.49700
O  40.96700 1.57100 27.32800
C  42.47000 2.00900 28.93800
N  35.51100 1.78200 28.22600
C  36.56900 1.69900 27.35300
C  36.17800 1.71400 25.94000
C  34.70200 1.31000 26.07300
C  34.36900 1.65300 27.53400
C  36.42700 3.02700 25.19600
C  34.38000 -0.21500 25.76100
C  33.47000 -0.42800 24.57500
N  33.58900 2.28200 30.17000
C  32.67800 2.10400 29.21100
C  31.35800 2.14800 29.73200
C  31.50200 2.37800 31.08900
C  32.87400 2.43800 31.33700
C  30.01700 2.11400 28.92000
C  30.74200 2.67600 32.33500
O  29.48600 2.69700 32.54100
C  31.88100 2.82000 33.46200
C  31.76500 4.17300 34.07600
O  31.55200 5.29200 33.62900
O  31.66800 3.95900 35.44000
C  31.52700 5.21700 36.28500
H  38.76300 2.92800 33.25700
H  38.57600 1.54400 26.92700
H  32.15100 1.65600 27.30700
H  34.46400 3.74400 35.22600
H  37.15200 2.68800 35.12000
H  35.65000 5.33600 34.61400
H  37.34100 5.19000 34.05900
H  36.98300 5.16100 35.70600
H  35.44400 0.99300 35.47600
H  33.70200 1.20700 35.26400
H  34.61500 1.10200 37.76700
H  33.19500 2.04400 37.19100
H  42.01500 2.54000 31.52600
H  41.09700 1.10400 32.08300
H  40.81000 2.61600 32.81200
H  42.72500 3.04300 29.16800
H  43.03400 1.75300 28.04100
H  42.70500 1.27100 29.70600
H  36.69300 0.98600 25.31400
H  33.97400 1.84200 25.46100
H  36.79100 2.73500 24.21100
H  37.16900 3.65800 25.68400
H  35.44700 3.50500 25.20500
H  33.89400 -0.83100 26.51800
H  35.30700 -0.73200 25.51400
H  33.07400 0.48800 24.13600
H  32.75000 -1.20500 24.83300
H  34.04700 -0.91000 23.78500
H  30.02200 3.05800 28.37500
H  29.05300 1.93900 29.39700
H  30.17800 1.23400 28.29700
H  31.80100 2.07000 34.24800
H  30.51900 5.63000 36.26800
H  32.24400 5.98300 35.99100
H  31.70800 5.03400 37.34500

