158

Mg 34.69200 49.56700 25.73400
C  34.54100 47.94800 28.98900
C  33.31000 52.36000 27.33700
C  34.11900 50.88000 22.74700
C  35.52300 46.56800 24.25900
N  33.99200 50.07800 27.87800
C  34.06500 49.33500 29.04300
C  33.76500 50.10400 30.33900
C  33.19100 51.45300 29.78800
C  33.38900 51.26200 28.22600
C  31.71700 51.73300 30.06300
C  35.00000 50.15300 31.28600
C  34.85800 49.46600 32.59900
H  33.55900 49.64600 33.38900
N  34.07100 51.43900 25.15900
C  33.57200 52.43900 25.96900
C  33.37600 53.57800 25.13800
C  33.57000 53.19000 23.79200
C  33.85500 51.76600 23.84900
C  32.98100 54.93100 25.63000
C  33.51900 54.05100 22.52000
O  33.59800 53.64700 21.40200
C  33.32600 55.51000 22.62700
N  34.60300 48.78500 23.79700
C  34.45400 49.54100 22.70300
C  34.96500 48.87500 21.40500
C  35.43800 47.51300 21.93200
C  35.24300 47.65600 23.42200
C  33.94200 48.91700 20.29200
C  36.80000 47.05400 21.35600
C  38.02300 47.63200 22.09100
N  34.90000 47.60400 26.45000
C  35.27600 46.49800 25.69400
C  35.53400 45.35000 26.61800
C  35.21100 45.91600 27.89200
C  34.90900 47.26100 27.75200
C  35.98200 43.93800 26.33400
C  35.12500 45.57000 29.29300
O  35.37300 44.51400 29.87400
C  34.64100 46.88200 30.03400
C  33.46800 46.68600 30.92400
O  32.36000 47.12100 30.70600
O  33.76300 45.81100 31.90200
C  32.67400 45.48400 32.88900
H  33.23100 53.30800 27.87400
H  34.14500 51.36900 21.77100
H  35.87900 45.73300 23.65100
H  32.98000 49.60400 30.90600
H  33.72700 52.27700 30.26000
H  31.34600 51.06200 30.83800
H  30.94900 51.68600 29.29100
H  31.63900 52.74800 30.45300
H  35.32500 51.18700 31.40700
H  35.76800 49.81200 30.59300
H  35.70200 49.75400 33.22600
H  34.92500 48.39000 32.43800
H  33.82100 55.61400 25.50400
H  32.84200 54.91300 26.71100
H  31.99500 55.15100 25.22100
H  32.29900 55.77000 22.88200
H  33.46700 55.93400 21.63300
H  34.14800 55.99800 23.15100
H  35.77100 49.42100 20.91500
H  34.73100 46.77500 21.55300
H  32.94900 49.27600 20.56500
H  33.82900 47.96900 19.76600
H  34.29800 49.53200 19.46600
H  36.80200 47.41100 20.32600
H  36.93500 45.97700 21.26000
H  38.63800 46.77400 22.36300
H  37.85900 48.21900 22.99500
H  38.63000 48.04600 21.28700
H  35.48000 43.41000 25.52400
H  35.93500 43.21800 27.15200
H  37.04000 43.93500 26.07200
H  35.48200 47.20400 30.64800
H  33.21700 45.24800 33.80400
H  32.15600 44.64200 32.43000
H  31.98700 46.25100 33.24700
Mg 25.25000 51.00400 26.94800
C  22.94300 51.93800 29.33900
C  27.51500 50.17100 29.45600
C  27.83200 50.57400 24.59400
C  23.21200 52.14500 24.43800
N  25.22900 51.18100 29.10400
C  24.13100 51.46800 29.93000
C  24.42000 51.33300 31.45900
C  25.94100 50.69400 31.37200
C  26.26700 50.70700 29.89500
C  26.98200 51.56500 32.17200
C  23.44000 50.43400 32.33800
C  23.96900 50.03700 33.68300
H  23.37700 50.71800 34.95600
N  27.30000 50.31800 27.00100
C  27.98500 49.95100 28.15200
C  29.27000 49.41200 27.78700
C  29.31100 49.39100 26.40500
C  28.09700 50.11600 25.90500
C  30.29800 48.91300 28.76300
C  30.41500 48.89600 25.50300
O  30.43000 49.12300 24.31800
C  31.63500 48.07100 26.04200
N  25.58000 51.41600 24.84700
C  26.65500 51.11600 24.10100
C  26.47200 51.60300 22.63900
C  24.95300 51.91200 22.61300
C  24.54700 51.79200 24.00400
C  27.31200 52.83800 22.18400
C  24.13000 51.06900 21.72300
C  24.19300 51.42200 20.25300
N  23.50000 51.90800 26.86200
C  22.74800 52.21100 25.76300
C  21.37600 52.49600 26.23100
C  21.46500 52.57200 27.58400
C  22.74600 52.09900 27.93800
C  20.21800 52.94100 25.39200
C  20.70000 52.81100 28.78800
O  19.58800 53.24600 28.96700
C  21.68300 52.50900 29.97100
C  21.92400 53.79100 30.70000
O  22.28400 54.80900 30.16500
O  21.45000 53.64500 31.99200
C  21.44700 54.93900 32.71300
H  28.10100 49.79400 30.29700
H  28.57900 50.44900 23.80700
H  22.49700 52.42000 23.66000
H  24.24800 52.36200 31.77300
H  25.97300 49.69600 31.80900
H  27.89800 51.63400 31.58500
H  27.23900 51.15800 33.15000
H  26.60100 52.57800 32.30200
H  23.31500 49.46600 31.85300
H  22.47400 50.93800 32.35200
H  24.96000 50.46900 33.81800
H  23.99300 48.95300 33.79400
H  30.10900 49.17500 29.80400
H  31.25600 49.39300 28.55900
H  30.35500 47.82500 28.74800
H  31.20200 47.32700 26.71100
H  32.27400 48.75600 26.59800
H  32.22700 47.43200 25.38600
H  26.72500 50.87100 21.87200
H  24.76000 52.93800 22.29900
H  27.76000 53.38900 23.01000
H  26.80100 53.48100 21.46700
H  28.25200 52.57100 21.70200
H  23.05900 51.04300 21.92400
H  24.60400 50.08700 21.72000
H  24.01200 50.47600 19.74200
H  25.05100 52.05400 20.02500
H  23.29200 51.98300 20.00400
H  20.31300 52.60900 24.35800
H  20.19200 54.02500 25.50100
H  19.31600 52.57600 25.88300
H  21.18800 51.84400 30.67900
H  22.13300 55.69800 32.33600
H  21.55700 54.80200 33.78800
H  20.43800 55.33800 32.61200

