158

Mg 49.51000 45.04400 42.04600
C  46.36600 46.00800 40.67100
C  48.96100 41.91200 40.49000
C  52.77000 44.50100 42.02300
C  49.94600 48.41200 42.82500
N  47.78700 44.08900 40.74000
C  46.68200 44.66800 40.32800
C  45.74800 43.76800 39.51200
C  46.49700 42.35800 39.71500
C  47.83500 42.76400 40.35900
C  45.60300 41.34200 40.54300
C  45.66500 44.32400 38.05000
C  44.29500 44.30900 37.38800
H  44.21000 44.00500 35.89800
N  50.60900 43.34200 41.43000
C  50.24100 42.24200 40.86600
C  51.35500 41.25700 41.08900
C  52.43600 41.95400 41.56200
C  51.98300 43.34400 41.60900
C  51.17500 39.76300 40.78400
C  53.74700 41.28900 41.84200
O  53.97700 40.08900 41.66800
C  54.94000 42.05700 42.29000
N  51.19300 46.35900 42.16200
C  52.44200 45.89000 42.19900
C  53.44700 46.95700 42.71900
C  52.47900 48.17200 43.05700
C  51.08900 47.59000 42.66400
C  54.32200 46.50800 43.88900
C  52.76400 49.58800 42.45400
C  53.11000 50.71300 43.46200
N  48.38300 46.83100 41.97600
C  48.68500 48.05600 42.45900
C  47.51200 48.92900 42.44200
C  46.51500 48.16700 41.70000
C  47.16500 46.92200 41.39600
C  47.39200 50.36900 42.86500
C  45.21300 48.22400 41.08400
O  44.43800 49.19700 41.03200
C  45.07300 46.81300 40.33900
C  43.80500 46.16500 40.81700
O  42.74100 45.94700 40.23100
O  43.96000 45.92000 42.17600
C  42.90600 45.35600 42.97900
H  48.86100 40.85800 40.22200
H  53.84800 44.43900 41.85600
H  50.02600 49.41400 43.25300
H  44.77700 43.74100 40.00500
H  46.65400 41.77100 38.81000
H  44.58400 41.72800 40.49700
H  46.00100 41.18500 41.54500
H  45.51900 40.33700 40.12800
H  46.29900 43.66500 37.45700
H  46.18900 45.27800 37.98500
H  43.85500 45.28100 37.60900
H  43.67200 43.61100 37.94800
H  52.03800 39.14400 41.03100
H  50.96500 39.73700 39.71500
H  50.27600 39.33900 41.23100
H  54.57300 42.76100 43.03800
H  55.18600 42.58300 41.36700
H  55.76100 41.45000 42.67000
H  54.02700 47.19300 41.82700
H  52.29100 48.12700 44.13000
H  53.93800 46.91300 44.82500
H  55.24900 47.06300 43.73800
H  54.33700 45.41900 43.92700
H  51.98400 50.05500 41.85200
H  53.58900 49.48300 41.74900
H  53.23700 50.32700 44.47400
H  52.29400 51.41800 43.62300
H  54.01400 51.19300 43.08800
H  48.13900 50.40200 43.65800
H  46.38300 50.61000 43.20000
H  47.60400 50.91600 41.94700
H  45.08800 47.01300 39.26700
H  42.73800 46.13100 43.72700
H  43.30000 44.48400 43.50100
H  41.98700 45.13700 42.43600
Mg 48.66200 35.04500 26.29200
C  46.85400 33.42400 28.83900
C  48.81600 37.80000 28.34700
C  50.51700 36.47400 24.04800
C  48.23500 32.29200 24.29900
N  47.88000 35.59900 28.31400
C  47.37400 34.71300 29.24300
C  47.33800 35.30100 30.68900
C  47.63400 36.83300 30.42400
C  48.16600 36.71100 28.94700
C  46.50100 37.87400 30.71900
C  48.49400 34.77000 31.58400
C  47.95200 34.37400 32.96500
H  46.77800 35.20100 33.59800
N  49.46000 36.95600 26.13800
C  49.41400 37.96200 27.03300
C  50.09800 39.12400 26.47300
C  50.63600 38.68300 25.22400
C  50.20500 37.33200 25.05200
C  50.22100 40.41500 27.24300
C  51.56200 39.45900 24.24700
O  52.04900 39.06800 23.17200
C  52.15100 40.66600 24.74300
N  49.13900 34.55400 24.35300
C  50.04300 35.25600 23.64100
C  50.29600 34.55900 22.32500
C  49.63900 33.15100 22.48700
C  49.00400 33.32500 23.81300
C  49.72100 35.44800 21.11700
C  50.55600 31.90900 22.28800
C  50.10300 30.77000 21.36400
N  47.61800 33.18900 26.44900
C  47.53900 32.19200 25.51600
C  46.79600 31.08300 26.12100
C  46.49600 31.52000 27.41500
C  47.04700 32.78700 27.54900
C  46.34900 29.78900 25.34500
C  45.81200 31.13200 28.64600
O  45.23000 30.06300 28.98100
C  45.97200 32.41900 29.61300
C  46.55700 31.82900 30.90000
O  47.73300 31.52700 31.03700
O  45.60100 31.57400 31.89100
C  46.09600 30.88800 33.09700
H  48.90600 38.67500 28.99400
H  51.31900 36.71500 23.34700
H  48.31100 31.40400 23.66800
H  46.33700 35.12700 31.08300
H  48.50800 37.26700 30.91200
H  46.35300 38.27900 29.71800
H  46.93400 38.58200 31.42600
H  45.62700 37.40000 31.16500
H  49.32100 35.47300 31.68900
H  48.97800 33.98300 31.00500
H  48.74100 34.31400 33.71400
H  47.52500 33.37700 33.07700
H  51.26200 40.71400 27.36100
H  49.75400 40.36000 28.22700
H  49.71500 41.25400 26.76400
H  51.34800 41.33600 25.04800
H  52.68100 41.25500 23.99400
H  52.75800 40.37200 25.59900
H  51.38300 34.58100 22.40300
H  48.83900 33.08400 21.74900
H  49.16400 36.30600 21.49300
H  48.94900 35.03400 20.46800
H  50.55600 35.96700 20.64600
H  50.62000 31.38100 23.23900
H  51.57300 32.10600 21.94800
H  50.85500 30.15000 20.87600
H  49.53000 31.26800 20.58200
H  49.33900 30.18600 21.87800
H  46.37400 29.82300 24.25600
H  45.33400 29.51100 25.62600
H  46.99300 28.96700 25.65700
H  44.95700 32.74300 29.84200
H  45.73200 29.86200 33.06100
H  45.51200 31.29400 33.92300
H  47.17600 30.89000 33.24900

