158

Mg 24.94400 -8.00300 46.11800
C  27.31400 -5.44300 44.82900
C  22.58600 -6.75400 43.90400
C  23.30500 -10.75000 46.68700
C  27.64500 -9.18400 47.95600
N  25.05800 -6.48700 44.41900
C  26.06900 -5.50400 44.24200
C  25.46900 -4.42800 43.28900
C  24.01300 -4.83200 43.09100
C  23.86200 -6.15000 43.84300
C  22.99200 -3.76700 43.70700
C  26.20300 -4.36100 41.92900
C  26.10600 -3.04000 41.21500
H  25.53100 -2.99700 39.82300
N  23.14300 -8.69300 45.46400
C  22.26100 -7.97300 44.59300
C  21.03800 -8.74800 44.46900
C  21.22100 -9.93800 45.25900
C  22.60300 -9.86800 45.81000
C  19.91000 -8.30800 43.64000
C  20.19200 -10.99400 45.41700
O  19.05300 -10.84900 44.93300
C  20.44100 -12.24500 46.12500
N  25.42700 -9.78800 47.11700
C  24.50600 -10.75400 47.34000
C  25.14400 -11.96200 48.05600
C  26.38900 -11.36700 48.72500
C  26.55700 -10.00300 47.90600
C  24.16200 -12.74000 49.02200
C  27.64700 -12.32900 48.68600
C  28.22500 -12.59900 50.11300
N  27.02900 -7.42700 46.38100
C  27.97900 -8.02600 47.18400
C  29.17900 -7.22100 47.27900
C  28.94000 -6.21400 46.36300
C  27.67100 -6.41200 45.73000
C  30.43100 -7.41800 48.07600
C  29.55200 -5.01700 45.81600
O  30.65900 -4.47600 45.97800
C  28.52300 -4.57000 44.71100
C  28.22200 -3.12400 44.78500
O  28.53600 -2.33400 43.89000
O  27.60300 -2.73400 45.97200
C  27.20600 -1.31900 46.03700
H  21.88400 -6.26900 43.22200
H  22.78400 -11.68700 46.89800
H  28.50700 -9.48400 48.55500
H  25.58500 -3.46600 43.78800
H  23.76700 -5.00500 42.04400
H  22.32400 -3.27100 43.00400
H  23.51400 -2.91600 44.14500
H  22.46100 -4.19400 44.55800
H  25.80000 -5.16000 41.30700
H  27.25700 -4.57800 42.10300
H  27.15400 -2.76900 41.08900
H  25.57800 -2.30600 41.82400
H  20.09800 -7.37900 43.10200
H  19.03000 -8.03700 44.22300
H  19.74500 -9.15200 42.97000
H  20.45800 -12.07000 47.20000
H  21.34100 -12.76000 45.79100
H  19.66700 -12.90100 45.72700
H  25.36800 -12.63600 47.22800
H  26.06400 -11.24000 49.75700
H  24.57300 -12.87900 50.02100
H  23.90400 -13.70500 48.58600
H  23.18600 -12.28200 49.18100
H  28.48700 -11.83700 48.19500
H  27.37800 -13.28200 48.23100
H  29.04700 -11.92500 50.35300
H  28.73500 -13.54500 49.93200
H  27.45500 -12.64900 50.88200
H  30.35700 -8.06000 48.95300
H  30.99500 -6.52100 48.32900
H  31.07000 -8.08700 47.49900
H  29.00600 -4.57200 43.73400
H  26.11800 -1.38400 46.01100
H  27.47300 -0.64300 45.22500
H  27.58300 -0.91700 46.97800
Mg 8.78700 47.86600 26.99100
C  7.28800 47.54500 30.16000
C  11.76400 48.41500 28.52700
C  9.89900 48.85200 24.09000
C  5.46800 47.64300 25.65900
N  9.43700 47.97700 29.16300
C  8.68600 47.68900 30.22800
C  9.55000 47.80200 31.52300
C  10.95900 48.35200 30.98900
C  10.72300 48.26100 29.47500
C  11.42800 49.82300 31.44300
C  9.68800 46.53100 32.43400
C  9.48300 46.90300 33.91300
H  9.64100 45.84300 34.94800
N  10.56700 48.33900 26.35400
C  11.69400 48.58600 27.16200
C  12.79700 48.75100 26.24600
C  12.32400 48.79100 24.95200
C  10.89600 48.76000 25.04400
C  14.23700 48.69000 26.74700
C  13.09700 48.82600 23.55200
O  12.51400 48.90300 22.45900
C  14.58700 48.83000 23.59100
N  7.86000 48.03200 25.10200
C  8.54700 48.60500 24.07300
C  7.63100 48.92000 22.86500
C  6.23100 48.44600 23.35300
C  6.52400 47.96400 24.79900
C  7.74700 50.39000 22.34400
C  5.63800 47.37200 22.36800
C  5.12000 47.83700 21.03700
N  6.78800 47.62900 27.68600
C  5.61300 47.53900 27.04000
C  4.55300 47.49800 28.04300
C  5.20200 47.52900 29.24100
C  6.56900 47.64400 28.97700
C  3.07800 47.33700 27.76100
C  4.90900 47.56300 30.63000
O  3.85600 47.48000 31.19800
C  6.29900 47.43900 31.27600
C  6.33400 46.11100 31.95100
O  6.64400 45.01800 31.46400
O  5.96000 46.32800 33.17900
C  6.14300 45.23100 34.12700
H  12.73700 48.60000 28.98500
H  10.27000 49.19900 23.12400
H  4.45700 47.76600 25.26500
H  9.14400 48.60200 32.14100
H  11.75300 47.61800 31.12600
H  12.48700 49.79900 31.69900
H  10.89200 50.13800 32.33700
H  11.18300 50.60600 30.72500
H  10.67600 46.08300 32.32800
H  8.91600 45.83000 32.11400
H  8.49000 47.33500 34.03800
H  10.26500 47.63100 34.12700
H  14.59800 49.64300 26.36000
H  14.83600 47.82500 26.46400
H  14.25100 48.65800 27.83600
H  14.99300 49.58000 24.27000
H  15.03500 48.98000 22.60800
H  14.86600 47.83300 23.93100
H  7.94200 48.29100 22.03100
H  5.59400 49.32600 23.45100
H  8.32100 51.06000 22.98500
H  6.76200 50.73200 22.02600
H  8.17000 50.39400 21.33900
H  4.76900 46.96900 22.88800
H  6.28600 46.51300 22.19700
H  5.39300 48.88700 20.92700
H  4.03100 47.79200 21.01100
H  5.63800 47.30000 20.24200
H  2.64300 46.71900 28.54600
H  2.90400 46.76300 26.85100
H  2.76000 48.38000 27.75600
H  6.42400 48.27800 31.96100
H  6.27500 45.64900 35.12500
H  7.02500 44.63100 33.90600
H  5.30600 44.55600 34.30800

