158

Mg 7.26500 3.13300 28.13200
C  8.55600 1.64400 31.03300
C  5.22500 5.09000 30.04900
C  5.66300 4.33500 25.27100
C  8.92700 0.81500 26.14300
N  6.96000 3.28000 30.24200
C  7.65700 2.70500 31.32400
C  7.51100 3.44200 32.64800
C  6.32700 4.44800 32.23300
C  6.12800 4.23500 30.73800
C  5.12800 4.19800 33.14600
C  8.85700 4.26200 33.01000
C  8.79300 4.92200 34.37900
H  9.58700 4.23700 35.49000
N  5.73100 4.62500 27.73800
C  4.94200 5.30600 28.66500
C  4.09300 6.23500 28.00100
C  4.30000 6.06600 26.61500
C  5.28300 4.93900 26.48800
C  3.21300 7.23500 28.74200
C  3.79900 6.84000 25.43600
O  4.23500 6.77300 24.29700
C  2.76100 7.83000 25.73900
N  7.07400 2.45100 26.07500
C  6.46000 3.18900 25.09300
C  6.64400 2.57900 23.76400
C  7.66500 1.39400 23.91300
C  7.91800 1.58500 25.46900
C  5.33100 2.15700 23.01200
C  8.99700 1.33400 23.19900
C  9.37000 -0.07600 22.67500
N  8.53600 1.52000 28.46300
C  9.06800 0.61900 27.57400
C  9.92900 -0.31000 28.33600
C  9.81400 0.11900 29.66300
C  8.90500 1.17000 29.67600
C  10.75100 -1.55100 27.79000
C  10.20900 -0.12700 31.00700
O  10.94600 -0.98000 31.52100
C  9.51300 0.95000 31.94900
C  8.84200 0.19700 32.98800
O  7.98500 -0.67900 32.84800
O  9.39100 0.56500 34.20300
C  8.60900 0.17700 35.35200
H  4.65800 5.72300 30.73500
H  5.05900 4.69400 24.43500
H  9.44200 0.17100 25.42700
H  7.24800 2.76600 33.46200
H  6.63600 5.46000 32.49400
H  5.37600 4.15700 34.20700
H  4.66800 3.24500 32.88500
H  4.46800 5.02900 32.89800
H  9.02800 4.92200 32.16000
H  9.64900 3.51400 32.98600
H  7.76500 5.05200 34.71800
H  9.37600 5.83500 34.25600
H  3.56200 8.26000 28.61600
H  3.09600 7.01900 29.80400
H  2.24000 7.11300 28.26500
H  3.16800 8.57500 26.42200
H  1.92900 7.29300 26.19400
H  2.39000 8.23600 24.79800
H  7.04400 3.40800 23.18000
H  7.13800 0.47600 23.65500
H  4.45800 2.63500 23.45700
H  5.06900 1.11100 22.85500
H  5.40600 2.63200 22.03400
H  9.81800 1.70300 23.81400
H  8.95000 1.94000 22.29400
H  9.37400 -0.01900 21.58700
H  8.71300 -0.82600 23.11600
H  10.29300 -0.45900 23.11100
H  10.34300 -1.58600 26.78000
H  10.37500 -2.38900 28.37600
H  11.83600 -1.44500 27.81900
H  10.33700 1.54100 32.34900
H  8.81800 -0.82900 35.71600
H  7.52600 0.18200 35.23500
H  8.92200 0.88100 36.12400
Mg 16.52400 -1.67100 28.04800
C  15.51100 0.22100 30.72700
C  18.60300 -3.36900 30.03400
C  17.59900 -3.34500 25.26500
C  14.44500 0.19800 25.93300
N  16.97800 -1.52500 30.14500
C  16.44300 -0.73800 31.02500
C  16.95700 -0.99700 32.44400
C  18.17300 -2.00100 32.15800
C  17.93800 -2.34300 30.68300
C  19.64200 -1.46000 32.41600
C  15.85900 -1.66600 33.35700
C  15.78500 -1.26100 34.90900
H  17.04700 -0.63000 35.46700
N  17.73600 -3.33100 27.69600
C  18.51600 -3.82700 28.70600
C  19.39100 -4.77200 28.04600
C  19.03800 -4.83200 26.57600
C  18.04800 -3.84800 26.46400
C  20.35700 -5.59800 28.74100
C  19.65100 -5.70300 25.50500
O  19.24800 -5.73700 24.35100
C  20.90500 -6.39800 25.71500
N  16.25400 -1.46700 25.93100
C  16.85700 -2.26300 25.02800
C  16.46000 -1.91000 23.53700
C  15.27200 -0.92200 23.73300
C  15.29700 -0.73900 25.29400
C  17.63600 -1.43000 22.59400
C  13.85900 -1.28000 23.23700
C  13.18900 -0.29100 22.34300
N  15.22300 -0.09300 28.23000
C  14.44500 0.52600 27.28300
C  13.61100 1.49200 28.06900
C  13.95300 1.36100 29.36200
C  15.00800 0.44300 29.42500
C  12.64500 2.44800 27.59000
C  13.79200 1.92500 30.66200
O  12.95800 2.74900 31.01900
C  14.72700 1.17300 31.64900
C  15.63200 2.16600 32.25400
O  16.45900 2.86900 31.65000
O  15.31800 2.19900 33.58900
C  16.12300 3.16000 34.30700
H  19.29800 -3.87600 30.70700
H  18.15800 -3.81400 24.45300
H  13.73100 0.78700 25.35400
H  17.33700 -0.02700 32.76500
H  18.11400 -2.94100 32.70600
H  20.16600 -1.30600 31.47300
H  20.22800 -2.11600 33.06000
H  19.47300 -0.46100 32.81800
H  16.05300 -2.73600 33.28500
H  14.89600 -1.52100 32.86700
H  15.57200 -2.14700 35.50700
H  14.98900 -0.62400 35.29300
H  21.35800 -5.17200 28.68100
H  20.47700 -6.67900 28.66800
H  19.98700 -5.55100 29.76600
H  21.32000 -6.57700 24.72300
H  20.75800 -7.36800 26.18900
H  21.55400 -5.75800 26.31300
H  16.10300 -2.86000 23.13800
H  15.51800 0.03200 23.26600
H  17.35500 -0.48900 22.12200
H  17.74400 -2.25100 21.88500
H  18.49900 -1.48600 23.25800
H  13.21600 -1.49100 24.09200
H  14.04500 -2.19800 22.68000
H  12.45800 -0.82200 21.73200
H  13.96400 -0.07200 21.60900
H  12.69600 0.56900 22.79700
H  12.08000 1.83100 26.89100
H  13.01200 3.23900 26.93600
H  12.03300 2.88400 28.38000
H  14.13500 0.47500 32.24200
H  15.55700 4.08600 34.19800
H  17.07000 3.38200 33.81600
H  16.23400 2.95000 35.37100

