158

Mg -11.63400 38.31000 41.46700
C  -9.39200 35.69600 40.65900
C  -9.66600 40.49500 39.72400
C  -14.10300 40.52000 41.73600
C  -13.88300 35.77000 42.73800
N  -9.73200 38.10300 40.38500
C  -9.04000 36.92700 40.09000
C  -7.81700 37.24800 39.19800
C  -7.87500 38.81500 39.01900
C  -9.08000 39.20600 39.83900
C  -6.57300 39.56500 39.33500
C  -7.98600 36.49300 37.83500
C  -7.00300 35.33100 37.59500
H  -6.16900 35.33100 36.30100
N  -11.90800 40.14900 40.79200
C  -10.89200 40.94200 40.14900
C  -11.25600 42.35100 40.17100
C  -12.62200 42.35700 40.70500
C  -12.93700 40.98800 41.06500
C  -10.34000 43.51400 39.52500
C  -13.41700 43.61800 40.72400
O  -12.89300 44.66600 40.38900
C  -14.87800 43.73400 41.31100
N  -13.74800 38.07900 42.01200
C  -14.45300 39.24100 42.18500
C  -15.87700 38.89700 42.71400
C  -15.81800 37.36100 42.80600
C  -14.37700 37.07500 42.56300
C  -16.09600 39.59500 44.09900
C  -16.78600 36.52900 41.92000
C  -18.02300 36.01100 42.64900
N  -11.59300 36.26700 41.83800
C  -12.52900 35.39500 42.41500
C  -11.86600 34.08600 42.63600
C  -10.59500 34.13200 41.92600
C  -10.58100 35.45500 41.39600
C  -12.39100 32.81500 43.29200
C  -9.41600 33.42700 41.54000
O  -9.02500 32.27900 41.77600
C  -8.62400 34.40400 40.65300
C  -7.19100 34.48800 41.21000
O  -6.34100 33.62800 41.10400
O  -7.04100 35.70600 41.96100
C  -5.63400 35.89500 42.56300
H  -8.97700 41.18000 39.22700
H  -14.84500 41.31300 41.84500
H  -14.49000 34.93800 43.10000
H  -6.82400 37.03300 39.59300
H  -8.05800 39.10700 37.98500
H  -6.41400 39.71700 40.40300
H  -6.61700 40.54700 38.86400
H  -5.73900 38.93200 39.03300
H  -7.79900 37.23700 37.06100
H  -8.98600 36.06000 37.80600
H  -7.41500 34.32200 37.55300
H  -6.31100 35.16400 38.42000
H  -10.66000 43.90500 38.55900
H  -9.30100 43.22000 39.67200
H  -10.48900 44.43800 40.08400
H  -15.54600 43.22900 40.61300
H  -15.15400 44.78700 41.36800
H  -14.92300 43.33600 42.32500
H  -16.65800 39.32100 42.08300
H  -16.03100 37.27400 43.87100
H  -16.49300 40.57800 43.84600
H  -15.11700 39.68200 44.56900
H  -16.71900 39.15000 44.87500
H  -16.26200 35.65400 41.53600
H  -17.26100 37.17600 41.18200
H  -17.97100 34.93800 42.83200
H  -18.91200 36.31600 42.09700
H  -18.08900 36.49200 43.62400
H  -11.99700 32.76500 44.30700
H  -12.11400 31.96000 42.67500
H  -13.46800 32.96800 43.35100
H  -8.64500 34.03800 39.62600
H  -4.99000 35.86400 41.68400
H  -5.25200 35.15400 43.26600
H  -5.54800 36.84700 43.08700
Mg -11.57600 16.85200 41.59400
C  -8.42100 15.35000 41.09600
C  -10.11500 19.80900 40.41000
C  -14.63900 18.05600 41.38700
C  -12.82100 13.64000 42.38200
N  -9.51700 17.47900 40.68000
C  -8.43800 16.70000 40.72600
C  -7.20800 17.43300 40.28300
C  -7.74100 18.91100 40.26600
C  -9.22300 18.73500 40.44400
C  -7.04400 19.88600 41.32400
C  -6.65800 17.01200 38.87100
C  -5.15300 16.96200 38.73100
H  -4.63800 17.19700 37.27900
N  -12.33200 18.68800 40.93000
C  -11.57800 19.78500 40.58000
C  -12.49200 20.87300 40.25600
C  -13.85600 20.44300 40.53000
C  -13.68900 19.03000 41.00500
C  -12.06600 22.25100 39.75700
C  -15.11400 21.23500 40.27800
O  -15.08800 22.38500 39.79900
C  -16.47500 20.66100 40.61000
N  -13.47100 15.96000 41.86100
C  -14.57700 16.67700 41.70600
C  -15.86300 15.87600 41.98000
C  -15.28300 14.48500 42.37200
C  -13.74200 14.66500 42.26700
C  -16.81900 16.50300 42.98700
C  -15.80200 13.28100 41.48900
C  -16.98600 12.54100 42.03900
N  -10.78500 14.86100 41.80100
C  -11.40300 13.69400 42.24300
C  -10.35400 12.66500 42.23900
C  -9.17700 13.24200 41.82000
C  -9.48700 14.55600 41.56300
C  -10.66700 11.24400 42.45900
C  -7.75800 12.98400 41.46700
O  -7.07800 11.99600 41.51800
C  -7.16200 14.45900 41.03500
C  -6.16200 14.86000 42.04700
O  -6.37200 15.14600 43.21200
O  -4.86800 14.83600 41.44400
C  -3.69000 15.03500 42.30600
H  -9.67500 20.80100 40.28700
H  -15.65100 18.46400 41.34400
H  -13.29000 12.66700 42.54300
H  -6.51800 17.28400 41.11300
H  -7.58500 19.43400 39.32200
H  -6.17800 19.41700 41.79100
H  -7.76800 19.90800 42.13900
H  -6.84800 20.90000 40.97500
H  -7.03100 17.61900 38.04600
H  -6.99300 15.98900 38.70100
H  -4.68300 16.01900 39.00800
H  -4.86200 17.80900 39.35200
H  -12.33800 22.56400 38.74900
H  -10.99100 22.41200 39.83000
H  -12.40200 23.01400 40.46000
H  -16.64700 19.84700 39.90600
H  -17.23600 21.43000 40.47400
H  -16.43100 20.25300 41.61900
H  -16.23700 16.01700 40.96600
H  -15.52700 14.34800 43.42500
H  -16.98800 15.92200 43.89400
H  -17.81400 16.66800 42.57400
H  -16.40700 17.46600 43.28700
H  -14.96600 12.61500 41.27700
H  -16.11600 13.66400 40.51800
H  -17.25100 13.01800 42.98300
H  -16.68900 11.52600 42.30300
H  -17.80400 12.48500 41.32000
H  -11.40700 11.25300 43.25900
H  -9.80400 10.62600 42.70500
H  -11.17000 10.79100 41.60400
H  -6.64000 14.43800 40.07900
H  -3.88200 15.05500 43.37900
H  -3.31600 16.04300 42.13200
H  -2.92100 14.32000 42.01300

