158

Mg -1.46000 18.13900 27.34900
C  -2.17800 15.86800 29.94600
C  -1.86300 20.68600 29.51400
C  -1.07200 20.12400 24.75700
C  -1.10700 15.31200 25.23400
N  -1.93100 18.20700 29.54400
C  -2.09500 17.21800 30.42100
C  -2.22800 17.80600 31.85800
C  -2.40800 19.32700 31.58500
C  -1.97100 19.41200 30.11800
C  -3.85000 19.72000 31.91100
C  -1.11500 17.38800 32.81800
C  -1.63600 16.87100 34.18900
H  -0.54800 16.53900 35.23200
N  -1.42800 20.10200 27.25000
C  -1.61800 20.98300 28.23500
C  -1.55600 22.36300 27.64500
C  -1.22400 22.19100 26.20500
C  -1.18600 20.72700 26.01200
C  -1.94900 23.57700 28.43200
C  -1.10900 23.32100 25.11700
O  -0.75200 23.10900 23.96700
C  -1.66500 24.67000 25.47800
N  -1.16700 17.75400 25.25900
C  -1.00100 18.77100 24.38200
C  -0.66500 18.22300 23.01100
C  -0.44600 16.70800 23.26200
C  -0.92400 16.57800 24.66400
C  -1.84000 18.49600 22.05800
C  1.03100 16.22600 23.10500
C  2.15400 16.83800 23.97600
N  -1.61000 16.06200 27.47900
C  -1.54800 15.04600 26.53600
C  -1.84100 13.73800 27.05000
C  -2.13800 14.04400 28.42500
C  -1.91900 15.46100 28.63500
C  -1.75800 12.45100 26.43700
C  -2.46400 13.42200 29.63300
O  -2.60000 12.22400 29.90700
C  -2.55900 14.57200 30.70400
C  -1.69400 14.10700 31.81900
O  -0.45000 14.15400 31.84900
O  -2.42600 13.55600 32.83700
C  -1.70500 12.90500 33.97900
H  -1.64300 21.53200 30.16800
H  -0.98100 20.79700 23.90200
H  -1.03600 14.47700 24.53400
H  -3.09300 17.37400 32.36000
H  -1.72200 19.89500 32.21300
H  -4.14700 20.60100 31.34100
H  -4.10800 20.06300 32.91300
H  -4.49800 18.92800 31.53400
H  -0.44700 18.21200 33.06700
H  -0.52300 16.60800 32.33800
H  -2.20500 15.96100 34.00100
H  -2.16800 17.69600 34.66400
H  -2.44600 23.28800 29.35800
H  -2.57000 24.25500 27.84600
H  -1.16800 24.16000 28.92100
H  -2.69000 24.42300 25.75700
H  -1.66000 25.45400 24.72100
H  -1.21900 25.06600 26.39000
H  0.26700 18.66700 22.66100
H  -1.13800 16.18900 22.59900
H  -1.58000 18.41000 21.00300
H  -2.23000 19.47400 22.33900
H  -2.56700 17.71400 22.27800
H  1.47900 16.49600 22.14900
H  1.00500 15.15600 23.31100
H  1.73600 17.51000 24.72600
H  2.69000 17.54300 23.34000
H  2.75800 16.01200 24.35200
H  -1.30100 11.75000 27.13700
H  -1.17800 12.52100 25.51700
H  -2.79600 12.20700 26.20900
H  -3.55300 14.74900 31.11400
H  -2.35200 13.09400 34.83600
H  -0.77100 13.40100 34.24100
H  -1.55100 11.83500 33.84100
Mg 49.19200 45.33200 42.71200
C  45.94400 45.86200 41.57600
C  49.07100 42.04300 41.28300
C  52.51600 45.27000 42.89300
C  49.27900 48.86200 43.66500
N  47.76800 44.19800 41.33000
C  46.49700 44.66200 41.10500
C  45.72900 43.53600 40.38000
C  46.55500 42.25900 40.65400
C  47.90400 42.84300 41.06000
C  46.00700 41.35100 41.81100
C  45.54600 43.78200 38.89500
C  44.15100 43.47900 38.39000
H  44.08000 42.29100 37.36900
N  50.54800 43.81200 42.23800
C  50.34100 42.49400 41.74300
C  51.60400 41.80700 41.77500
C  52.61600 42.71600 42.23800
C  51.90100 44.02700 42.49500
C  51.69200 40.39400 41.29100
C  54.02000 42.38200 42.41600
O  54.47700 41.23700 42.18700
C  54.99100 43.38800 42.91500
N  50.64400 46.88200 43.26500
C  51.98800 46.50800 43.28600
C  52.87100 47.71300 43.66000
C  51.75100 48.72300 44.19300
C  50.47300 48.12600 43.71200
C  53.97600 47.47900 44.73200
C  52.00400 50.23900 44.01600
C  53.54700 50.73000 43.91400
N  47.86100 47.03700 42.72900
C  48.02600 48.36700 43.14200
C  46.82500 49.11100 42.95500
C  45.90500 48.14100 42.36800
C  46.59700 46.92200 42.19800
C  46.53400 50.49500 43.50900
C  44.54300 47.85200 41.90400
O  43.55200 48.54000 42.00800
C  44.54700 46.36400 41.27700
C  43.45100 45.64100 41.90900
O  43.32600 45.48000 43.08700
O  42.46200 45.38500 40.96400
C  41.18900 44.87900 41.46800
H  49.02000 40.95900 41.15900
H  53.60700 45.30800 42.87400
H  49.39600 49.82200 44.17000
H  44.76200 43.30900 40.82700
H  46.71700 41.60600 39.79700
H  46.72200 41.26300 42.62900
H  45.64200 40.38000 41.47600
H  45.10300 41.86700 42.13300
H  46.35500 43.14600 38.53600
H  45.84000 44.80800 38.67300
H  43.85500 44.38900 37.86700
H  43.53900 43.29200 39.27200
H  51.86400 40.35300 40.21600
H  50.74900 39.95200 41.61300
H  52.45600 39.81700 41.81200
H  54.63400 43.84200 43.84000
H  55.16000 44.10600 42.11300
H  55.94800 42.96300 43.21700
H  53.30200 48.00600 42.70300
H  51.60600 48.44300 45.23600
H  54.88500 48.07500 44.81200
H  54.27700 46.44200 44.58300
H  53.53400 47.66800 45.71100
H  51.61400 50.72500 44.91000
H  51.38500 50.58400 43.18800
H  53.73400 51.34200 44.79600
H  53.69500 51.45000 43.10900
H  54.25900 49.92400 43.73400
H  47.20100 51.29500 43.18600
H  46.41400 50.31700 44.57700
H  45.58900 50.88400 43.13100
H  44.32500 46.46000 40.21400
H  41.24100 43.87500 41.88700
H  40.47800 44.80800 40.64500
H  40.67200 45.60600 42.09500

