158

Mg 52.88800 23.71600 44.15400
C  49.93000 25.60700 44.04100
C  51.06800 20.94500 43.71800
C  55.78100 21.89600 43.99600
C  54.77000 26.67800 44.12900
N  50.67700 23.38900 43.84200
C  49.66200 24.22400 43.88400
C  48.35800 23.48400 43.59400
C  48.77900 22.03200 43.81200
C  50.32200 22.13100 43.70300
C  48.26600 21.44500 45.17400
C  47.70900 23.83200 42.18400
C  48.65100 23.89700 40.97400
H  48.03200 24.25100 39.64800
N  53.38200 21.70900 43.90800
C  52.41900 20.77000 43.71900
C  52.99600 19.46700 43.79500
C  54.43200 19.66200 43.78400
C  54.63600 21.13800 43.97700
C  52.19800 18.22800 43.58000
C  55.45800 18.53500 43.45000
O  55.01300 17.41700 43.42800
C  56.92800 18.66000 43.25200
N  54.93100 24.22800 43.90500
C  55.96600 23.28800 43.88400
C  57.33600 23.91100 43.88900
C  56.95700 25.44800 44.14900
C  55.46900 25.45900 44.08600
C  58.26000 23.34500 45.05400
C  57.50700 26.32800 43.06800
C  57.97700 27.69500 43.57700
N  52.55800 25.77000 44.14500
C  53.36400 26.86700 44.15400
C  52.61300 28.04800 44.37800
C  51.29000 27.64600 44.30600
C  51.28200 26.22900 44.10600
C  53.16800 29.42400 44.55800
C  49.96400 28.08400 44.28100
O  49.52200 29.21900 44.58600
C  49.05800 26.83900 44.06800
C  48.30900 26.93700 42.84500
O  48.78400 26.92900 41.72200
O  47.04900 27.17900 43.23900
C  46.20700 27.76300 42.21200
H  50.48500 20.04600 43.50500
H  56.68600 21.34000 44.24800
H  55.23700 27.66500 44.13700
H  47.62000 23.77000 44.34500
H  48.31200 21.45700 43.01400
H  47.66200 22.19900 45.67800
H  49.12600 21.15000 45.77600
H  47.76000 20.50800 44.94400
H  47.04700 24.69000 42.29800
H  47.06900 22.96900 41.99800
H  49.20700 22.97800 40.78800
H  49.37200 24.68500 41.18900
H  52.62100 17.22800 43.67800
H  51.85200 18.16100 42.54800
H  51.33800 18.32000 44.24400
H  57.31500 17.91400 42.55800
H  57.47800 18.63600 44.19300
H  57.07800 19.61300 42.74300
H  57.82200 23.68700 42.94000
H  57.28400 25.86100 45.10300
H  58.85700 22.56300 44.58500
H  57.67700 22.97100 45.89600
H  58.93400 24.13100 45.39300
H  56.74700 26.54100 42.31500
H  58.31100 25.78700 42.57000
H  59.02200 27.67000 43.27000
H  57.83300 27.89200 44.63900
H  57.56900 28.51600 42.98700
H  54.01200 29.31400 45.23900
H  52.35100 30.00800 44.98300
H  53.50000 29.82500 43.60000
H  48.41800 26.88800 44.94900
H  45.48700 26.96700 42.02400
H  46.74800 28.00000 41.29600
H  45.62900 28.54600 42.70300
Mg -6.40000 24.72400 26.71300
C  -4.65600 26.33700 29.38900
C  -7.82000 22.68500 29.23200
C  -7.96100 23.14400 24.23700
C  -4.59600 26.59000 24.43600
N  -6.20600 24.46700 29.12300
C  -5.49100 25.34100 29.91100
C  -5.80400 25.09200 31.39300
C  -6.52100 23.69500 31.29200
C  -7.01600 23.65300 29.82700
C  -5.85600 22.36000 31.81000
C  -6.73500 26.23500 32.03400
C  -6.27600 26.77500 33.33000
H  -5.84700 25.81100 34.40800
N  -7.68600 23.10600 26.75000
C  -8.17500 22.46700 27.88000
C  -9.28600 21.55900 27.47500
C  -9.34400 21.66000 26.03700
C  -8.30700 22.63400 25.61000
C  -10.12800 20.63400 28.40800
C  -10.09000 20.84400 25.01000
O  -10.06200 21.06300 23.78900
C  -10.87400 19.66200 25.52400
N  -6.38100 24.85100 24.56400
C  -7.20200 24.18700 23.79000
C  -6.75100 24.45000 22.27600
C  -5.70500 25.54200 22.42100
C  -5.55200 25.67800 23.91200
C  -6.35600 23.21000 21.49600
C  -6.07300 26.92100 21.85100
C  -5.55900 27.20900 20.44300
N  -4.93700 26.13000 26.79200
C  -4.29700 26.86100 25.79700
C  -3.38100 27.84500 26.41500
C  -3.55300 27.69500 27.74200
C  -4.47000 26.65800 27.98200
C  -2.48900 28.81800 25.72600
C  -3.05500 28.25300 29.00100
O  -2.19400 29.06500 29.22500
C  -3.84200 27.38900 30.09600
C  -2.82000 26.85600 31.06900
O  -1.94900 26.02700 30.78800
O  -3.10800 27.16500 32.35700
C  -2.16800 26.50900 33.34100
H  -8.29800 22.22600 30.10000
H  -8.39500 22.60400 23.39300
H  -4.22200 27.15600 23.58000
H  -4.81100 24.86400 31.78000
H  -7.35500 23.88400 31.96700
H  -5.16500 22.47100 32.64600
H  -5.22800 22.00400 30.99300
H  -6.47600 21.49800 32.05500
H  -7.76600 25.89200 32.12800
H  -6.82900 27.11600 31.40000
H  -7.14900 27.32100 33.68600
H  -5.44700 27.46200 33.16400
H  -11.17600 20.65700 28.11100
H  -10.30100 21.09300 29.38200
H  -9.82400 19.58900 28.46800
H  -10.27900 19.11000 26.25200
H  -11.18100 19.02500 24.69500
H  -11.71300 20.15300 26.01600
H  -7.68100 24.81700 21.84300
H  -4.78800 25.18300 21.95300
H  -7.00200 23.02700 20.63700
H  -6.12000 22.28400 22.02200
H  -5.39100 23.43600 21.04100
H  -5.74800 27.76500 22.46100
H  -7.16100 26.89400 21.79700
H  -6.35000 27.29000 19.69700
H  -4.84900 26.45900 20.09300
H  -5.12400 28.20900 20.44100
H  -1.54600 28.78600 26.27200
H  -2.87300 29.82700 25.87400
H  -2.33000 28.56900 24.67700
H  -4.51400 28.06300 30.62600
H  -2.44900 25.45600 33.31600
H  -2.28600 26.84600 34.37100
H  -1.16000 26.70700 32.97500

