158

Mg 35.27900 3.71800 29.57200
C  32.85700 4.39800 31.96000
C  37.75100 3.68900 31.95400
C  37.49800 2.96900 27.13000
C  32.66100 3.85000 27.20900
N  35.31800 3.98500 31.76000
C  34.18600 4.25300 32.52200
C  34.66900 4.32800 33.93800
C  36.22200 4.46900 33.88700
C  36.51400 3.99800 32.46300
C  36.67200 5.94100 34.02200
C  34.09700 3.13500 34.75600
C  34.07100 3.15700 36.29100
H  34.69000 4.32700 36.97600
N  37.31000 3.39500 29.57000
C  38.11700 3.34000 30.59300
C  39.42500 2.84600 30.27300
C  39.46400 2.65000 28.89300
C  38.07200 3.01600 28.44000
C  40.48800 2.55600 31.33700
C  40.61900 2.12200 27.96300
O  40.48000 2.13600 26.76900
C  41.83500 1.53100 28.57600
N  35.08800 3.69500 27.51600
C  36.15100 3.28100 26.68400
C  35.62500 2.99400 25.23300
C  34.06800 3.25400 25.31600
C  33.90400 3.59000 26.81400
C  36.39600 3.75700 24.14600
C  33.14200 2.14500 24.65000
C  32.81200 1.01000 25.55100
N  33.21700 4.10700 29.52300
C  32.30000 4.21600 28.46600
C  30.98200 4.47400 28.93400
C  31.21200 4.63800 30.34700
C  32.56900 4.40300 30.63800
C  29.71900 4.57200 28.11800
C  30.51700 4.88200 31.61800
O  29.28600 4.89500 31.78300
C  31.59700 4.83000 32.67000
C  31.71100 6.18000 33.22900
O  32.51200 6.99600 32.91600
O  30.76200 6.30900 34.22700
C  30.82300 7.52500 35.04100
H  38.52600 3.66600 32.72400
H  38.26900 2.70200 26.40400
H  31.85900 3.86700 26.46800
H  34.18900 5.23600 34.30300
H  36.71400 3.82100 34.61200
H  35.79100 6.57900 33.94100
H  37.42900 6.13600 33.26300
H  37.18100 6.08400 34.97500
H  34.74000 2.30100 34.47400
H  33.09200 2.91000 34.39700
H  34.47300 2.20500 36.63500
H  33.00200 3.16300 36.50700
H  40.86500 1.54700 31.16700
H  40.01400 2.52900 32.31800
H  41.26300 3.32200 31.35100
H  42.20200 2.30300 29.25200
H  42.52700 1.32500 27.75900
H  41.63300 0.66700 29.20900
H  35.64700 1.92100 25.03900
H  33.76100 4.15100 24.77800
H  36.55200 3.14700 23.25600
H  37.33500 4.05400 24.61400
H  35.86100 4.65800 23.84800
H  33.76000 1.64700 23.90300
H  32.36100 2.56900 24.01900
H  32.51500 1.27300 26.56600
H  33.73500 0.45500 25.71900
H  32.07700 0.33600 25.11200
H  28.89300 4.26100 28.75800
H  29.76100 3.86700 27.28800
H  29.66600 5.58400 27.71900
H  31.34200 4.13000 33.46500
H  31.78600 7.97800 35.28000
H  30.51800 7.15900 36.02100
H  30.22000 8.36900 34.70700
Mg 43.69400 41.80100 26.48000
C  42.63500 44.08200 28.82800
C  44.87600 39.77000 28.92500
C  44.49300 39.58400 24.09700
C  42.60400 43.98000 23.97900
N  43.81200 41.97100 28.54200
C  43.11000 42.93800 29.36900
C  43.11600 42.56400 30.82800
C  44.13700 41.35600 30.86600
C  44.31200 41.01600 29.34900
C  45.49700 41.77400 31.56000
C  41.74400 42.24400 31.51100
C  41.31800 43.05100 32.78800
H  42.09200 42.98500 34.09200
N  44.52300 39.82300 26.50900
C  44.98700 39.20200 27.61800
C  45.28700 37.86600 27.27300
C  45.01100 37.73000 25.79400
C  44.67200 39.07900 25.40100
C  45.82600 36.83000 28.26300
C  45.11700 36.60500 24.88200
O  44.89200 36.69700 23.63900
C  45.50600 35.34600 25.41800
N  43.54200 41.71000 24.41000
C  43.99100 40.74900 23.63000
C  43.75700 40.99500 22.13500
C  42.88200 42.27300 22.11500
C  43.03800 42.70100 23.59400
C  45.05400 41.10900 21.35200
C  41.38700 42.08400 21.65200
C  40.51200 41.04300 22.39800
N  43.03100 43.74400 26.33600
C  42.56000 44.51300 25.31200
C  42.18700 45.81100 25.77900
C  42.05400 45.63000 27.11500
C  42.66300 44.41000 27.44900
C  41.81400 46.99900 24.99600
C  41.56500 46.23200 28.34100
O  41.04400 47.31400 28.64100
C  41.95200 45.22100 29.49800
C  42.67800 45.91100 30.55800
O  43.92300 45.99200 30.63600
O  41.82800 46.33500 31.55800
C  42.46200 46.87300 32.78100
H  45.36700 39.19400 29.71200
H  44.68100 38.88000 23.28400
H  42.29400 44.63900 23.16600
H  43.39200 43.37700 31.50000
H  43.69200 40.53000 31.42000
H  45.41200 42.84000 31.77500
H  46.33600 41.68600 30.87100
H  45.63000 41.28600 32.52600
H  41.67500 41.23900 31.92700
H  40.89500 42.40600 30.84600
H  40.27300 42.82800 33.00300
H  41.36600 44.11900 32.57800
H  46.72700 36.36100 27.86600
H  45.04700 36.08300 28.41700
H  46.15300 37.30800 29.18600
H  46.57300 35.37000 25.64200
H  45.33900 34.65500 24.59200
H  44.97800 34.96600 26.29300
H  43.35200 40.10800 21.64700
H  43.32000 43.05000 21.48800
H  45.15800 42.10000 20.90900
H  44.92900 40.38000 20.55100
H  45.95600 40.91900 21.93500
H  41.41700 41.63700 20.65800
H  40.85300 43.03100 21.57600
H  41.13600 40.39600 23.01400
H  39.91800 40.42700 21.72200
H  39.83100 41.62400 23.01900
H  40.87900 46.67000 24.54400
H  42.65300 47.27300 24.35600
H  41.48700 47.77500 25.68800
H  41.03400 44.76500 29.86700
H  43.24800 47.58000 32.51600
H  42.85300 46.01000 33.31900
H  41.69800 47.40200 33.35100

