158

Mg 53.38600 23.38000 44.91500
C  50.70800 25.65200 43.74500
C  51.35900 20.83800 43.77400
C  56.06900 21.53300 44.81500
C  55.18500 26.28700 45.57200
N  51.22000 23.36600 43.84900
C  50.34100 24.32900 43.46900
C  49.13300 23.69900 42.84000
C  49.18800 22.23200 43.38900
C  50.68600 22.10400 43.68500
C  48.24400 22.05500 44.57500
C  49.17900 23.93900 41.32400
C  47.88200 24.46900 40.55200
H  47.56700 23.65800 39.22000
N  53.63000 21.38300 44.48500
C  52.74000 20.54900 43.92600
C  53.37800 19.25000 43.77900
C  54.70200 19.41600 44.11000
C  54.83700 20.82900 44.46300
C  52.66200 17.95900 43.49600
C  55.70900 18.31400 44.08100
O  55.40100 17.35200 43.42700
C  57.12000 18.49800 44.74400
N  55.38400 23.86500 44.95800
C  56.25600 22.84800 45.16600
C  57.60500 23.44100 45.69500
C  57.27400 24.94900 45.97300
C  55.85200 25.05900 45.54300
C  58.33000 22.62200 46.79500
C  58.17500 26.02700 45.22300
C  58.53600 27.36400 45.90500
N  52.98500 25.52600 44.86600
C  53.83000 26.53300 45.29300
C  53.12100 27.79600 45.31000
C  51.89100 27.49400 44.73700
C  51.86700 26.09300 44.44600
C  53.78300 29.16600 45.51700
C  50.58200 28.04800 44.40000
O  50.14300 29.21100 44.51300
C  49.80700 26.94200 43.62400
C  49.51700 27.38500 42.23700
O  50.29800 27.48500 41.31000
O  48.09800 27.56000 42.07700
C  47.58200 28.18100 40.87200
H  50.60000 20.08400 43.55600
H  57.03200 21.01900 44.81400
H  55.76100 27.17600 45.84100
H  48.33300 24.28500 43.29100
H  48.97800 21.51200 42.59800
H  48.07000 22.98400 45.11800
H  48.75200 21.47600 45.34700
H  47.30100 21.55100 44.36500
H  49.38600 22.94900 40.91800
H  50.04100 24.53400 41.02300
H  47.98500 25.49500 40.20100
H  47.00100 24.36000 41.18500
H  51.59400 18.01200 43.70900
H  53.04100 17.07000 43.99900
H  52.74500 17.83300 42.41600
H  56.84900 19.00900 45.66800
H  57.78400 18.99100 44.03400
H  57.49700 17.47800 44.81600
H  58.40100 23.29600 44.96500
H  57.28200 25.16900 47.04000
H  58.72000 23.30100 47.55300
H  59.10500 21.95200 46.42400
H  57.70800 21.87500 47.28800
H  57.63600 26.38300 44.34500
H  59.10400 25.47900 45.06600
H  59.60200 27.33200 46.13100
H  58.04600 27.52400 46.86500
H  58.42300 28.21800 45.23700
H  53.40400 29.55900 46.46100
H  53.48500 29.86600 44.73600
H  54.85800 28.98400 45.51200
H  48.81600 26.81500 44.06100
H  47.70800 29.26200 40.92200
H  46.53600 27.89000 40.96500
H  48.00500 27.76400 39.95800
Mg -11.13200 16.24700 42.45000
C  -7.83200 17.31800 42.33300
C  -12.10200 19.65200 42.24100
C  -14.41600 15.42100 42.29900
C  -10.24500 12.95500 42.60600
N  -10.05800 18.23000 41.93800
C  -8.75900 18.37900 42.10400
C  -8.37800 19.90900 42.01100
C  -9.72300 20.52800 42.39000
C  -10.73200 19.44100 42.11200
C  -9.76900 21.31700 43.74400
C  -7.86700 20.28600 40.57500
C  -6.31700 20.57900 40.22800
H  -5.53500 19.54600 39.38300
N  -13.04200 17.34300 42.20800
C  -13.20600 18.73100 42.22900
C  -14.58300 19.01600 42.25400
C  -15.26500 17.83000 42.14000
C  -14.26200 16.74600 42.28600
C  -15.12400 20.44700 42.40500
C  -16.73800 17.70100 42.11000
O  -17.46900 18.70900 42.14400
C  -17.41400 16.34200 41.91800
N  -12.13400 14.45600 42.32100
C  -13.52900 14.39100 42.33400
C  -13.89600 12.91900 42.50100
C  -12.63100 12.16900 42.11900
C  -11.60100 13.23000 42.30200
C  -14.37100 12.65300 43.95300
C  -12.65100 11.54800 40.71600
C  -12.88600 10.02800 40.89100
N  -9.37200 15.31700 42.47500
C  -9.15900 13.96900 42.64300
C  -7.68800 13.72100 42.84700
C  -7.14100 15.03900 42.73600
C  -8.22300 15.94300 42.54900
C  -7.09500 12.37100 42.83500
C  -5.88300 15.85000 42.72500
O  -4.71900 15.55400 42.98100
C  -6.35300 17.29100 42.70400
C  -6.18900 17.81700 44.03700
O  -6.29000 17.20800 45.07900
O  -5.84600 19.12800 43.98600
C  -5.10500 19.62900 45.18700
H  -12.39300 20.67500 42.48600
H  -15.40200 14.96600 42.18400
H  -9.90300 11.95000 42.86500
H  -7.70900 20.13700 42.84100
H  -9.98900 21.35600 41.73200
H  -8.81600 21.47200 44.24900
H  -10.35100 20.71500 44.44200
H  -10.42900 22.18400 43.70700
H  -8.37900 21.21100 40.31000
H  -8.29000 19.53500 39.90900
H  -5.78700 20.53000 41.17900
H  -6.27500 21.50800 39.66000
H  -15.87200 20.63700 41.63500
H  -14.34900 21.19600 42.24600
H  -15.59500 20.53600 43.38400
H  -18.46300 16.38900 41.62700
H  -17.50800 15.78700 42.85100
H  -16.86100 15.85500 41.11500
H  -14.74400 12.72300 41.84500
H  -12.42200 11.43500 42.89800
H  -15.38300 12.24600 43.96700
H  -14.24200 13.53800 44.57500
H  -13.80200 11.84900 44.41800
H  -11.67900 11.67600 40.23900
H  -13.42000 12.07200 40.14900
H  -11.97000 9.56000 40.53100
H  -13.73900 9.68700 40.30300
H  -12.91400 9.61600 41.90000
H  -6.92200 12.09500 41.79500
H  -7.82300 11.71600 43.31300
H  -6.17200 12.53300 43.39100
H  -5.79500 17.90400 41.99600
H  -4.51900 18.78100 45.54000
H  -5.79800 19.93500 45.97100
H  -4.52600 20.52300 44.95300

