158

Mg 35.99200 48.82700 24.95800
C  36.16200 47.26900 28.16200
C  35.03800 51.66600 26.68200
C  35.79200 50.19900 22.03600
C  36.90200 45.78200 23.51300
N  35.64800 49.36800 27.24600
C  35.81000 48.60100 28.34300
C  35.68800 49.44400 29.63200
C  35.14100 50.83800 29.09900
C  35.28800 50.64900 27.60200
C  33.69300 51.28700 29.50600
C  36.94100 49.44400 30.46600
C  36.88700 49.22600 31.91400
H  35.52300 49.33200 32.67000
N  35.41600 50.61500 24.43500
C  35.09000 51.69700 25.26300
C  35.02300 52.86900 24.41900
C  35.17900 52.43200 23.10000
C  35.48300 50.99700 23.17500
C  34.80700 54.30200 24.97800
C  34.99100 53.31300 21.88400
O  35.07900 52.90700 20.71800
C  34.79000 54.82000 22.03800
N  36.20600 48.08200 23.00800
C  36.14700 48.86000 21.94400
C  36.44700 48.09200 20.60300
C  36.95500 46.69100 21.17300
C  36.58900 46.87100 22.65800
C  35.17500 47.84500 19.80700
C  38.51900 46.48300 20.95900
C  38.83000 46.00400 19.51100
N  36.41900 46.90700 25.66700
C  36.83500 45.77700 24.92100
C  37.13400 44.68500 25.81900
C  36.89800 45.22600 27.11300
C  36.39500 46.57400 26.90500
C  37.62400 43.36100 25.43200
C  37.00300 44.97500 28.51900
O  37.52600 43.99200 29.05800
C  36.51100 46.22600 29.31300
C  35.33400 45.86200 30.12500
O  34.25100 45.59400 29.66500
O  35.69500 45.83500 31.44400
C  34.67000 45.15200 32.24700
H  34.77200 52.65100 27.07200
H  35.67700 50.69300 21.06900
H  37.25400 44.87400 23.02000
H  34.84000 49.03300 30.17900
H  35.91200 51.57200 29.33600
H  33.79100 52.19500 30.10200
H  33.20500 50.59500 30.19100
H  33.06100 51.42100 28.62800
H  37.32200 50.45200 30.29800
H  37.72700 48.79100 30.08700
H  37.56400 49.97600 32.32200
H  37.28500 48.25300 32.20100
H  35.27000 55.10500 24.40500
H  35.39300 54.34100 25.89700
H  33.76400 54.49800 25.22700
H  34.52900 55.20800 21.05300
H  35.79100 55.16600 22.29400
H  33.98100 55.14800 22.69000
H  37.29000 48.48100 20.03200
H  36.49700 45.73900 20.90300
H  34.27300 47.77600 20.41400
H  35.36000 46.97200 19.18000
H  35.10400 48.71600 19.15700
H  38.96700 45.91200 21.77300
H  38.97600 47.46500 21.08200
H  39.43800 45.10100 19.56600
H  39.45800 46.79000 19.09300
H  37.91400 45.75600 18.97400
H  36.90200 42.69800 24.95400
H  37.86300 42.91100 26.39600
H  38.50600 43.48300 24.80300
H  37.41100 46.47600 29.87500
H  33.76200 45.74200 32.36700
H  35.12800 45.01000 33.22600
H  34.36800 44.19900 31.81000
Mg -4.94600 25.46000 26.00200
C  -3.42500 26.49400 28.98400
C  -6.91000 23.35400 27.78600
C  -5.64800 23.73100 23.15100
C  -2.46700 27.13300 24.19400
N  -5.04200 24.85000 28.11700
C  -4.46800 25.53100 29.17900
C  -5.13100 25.16300 30.51300
C  -6.00700 23.96400 30.08400
C  -5.98400 24.05300 28.58000
C  -5.38000 22.52000 30.34800
C  -6.00000 26.35800 31.04900
C  -5.94200 26.52600 32.58300
H  -5.38500 25.42300 33.47300
N  -6.24000 23.83600 25.51700
C  -7.03800 23.20600 26.43400
C  -7.79500 22.17400 25.71100
C  -7.49300 22.26000 24.34500
C  -6.35800 23.25600 24.32100
C  -8.84800 21.26400 26.35800
C  -8.09200 21.54800 23.09700
O  -7.79700 21.85900 21.96600
C  -9.14000 20.52200 23.25700
N  -4.12900 25.38000 24.01300
C  -4.63400 24.65500 23.00400
C  -3.95100 24.91700 21.59400
C  -3.25400 26.24300 21.96500
C  -3.30700 26.37600 23.49500
C  -3.09800 23.73100 21.26800
C  -3.76600 27.56600 21.23900
C  -2.72100 28.33100 20.44400
N  -3.32700 26.75800 26.49500
C  -2.40200 27.34700 25.67400
C  -1.54400 28.18400 26.46800
C  -1.92400 27.94700 27.77900
C  -3.00000 27.00900 27.73200
C  -0.49200 29.13100 25.85300
C  -1.66600 28.31300 29.14100
O  -0.79300 29.00700 29.61500
C  -2.76200 27.47300 29.99400
C  -1.93300 26.75900 31.00700
O  -1.03300 25.94400 30.76800
O  -2.21000 27.24800 32.24900
C  -1.32600 26.77900 33.32200
H  -7.63800 22.81400 28.39600
H  -5.82100 23.18200 22.22300
H  -1.72700 27.61600 23.55300
H  -4.40600 24.85100 31.26400
H  -6.98300 23.98600 30.56800
H  -6.12800 21.73800 30.48600
H  -4.70500 22.61100 31.19800
H  -4.83400 22.17700 29.46900
H  -6.98100 26.23600 30.59100
H  -5.64800 27.29700 30.62100
H  -6.97700 26.68100 32.88800
H  -5.47100 27.46400 32.87700
H  -9.80700 21.53900 25.92000
H  -8.75900 21.36000 27.44000
H  -8.74000 20.22900 26.03500
H  -9.47700 20.23700 22.26000
H  -9.97100 21.03400 23.74400
H  -8.86800 19.68300 23.89800
H  -4.67600 25.06800 20.79400
H  -2.20500 26.03300 21.75500
H  -3.37800 22.85600 21.85400
H  -2.05500 23.99100 21.45000
H  -3.18700 23.59300 20.19100
H  -4.20600 28.28900 21.92500
H  -4.48700 27.19400 20.51100
H  -2.56500 29.40400 20.55600
H  -2.83300 28.28300 19.36100
H  -1.70200 27.95300 20.51900
H  -0.15800 28.74600 24.88900
H  0.30400 29.23100 26.59100
H  -0.97300 30.09300 25.67700
H  -3.44900 28.16500 30.48200
H  -1.41300 27.52000 34.11700
H  -0.32000 26.83400 32.90700
H  -1.54600 25.77800 33.69300

