158

Mg 35.58100 2.37200 30.29300
C  33.31300 3.59900 32.75000
C  37.95700 2.54000 32.72800
C  37.62800 1.30100 28.02700
C  32.99100 2.65200 28.03600
N  35.54400 3.01400 32.50300
C  34.49700 3.37800 33.30100
C  34.89400 3.47500 34.80200
C  36.50500 3.35200 34.73500
C  36.70700 3.01600 33.25000
C  37.30200 4.59600 35.22500
C  34.13200 2.42400 35.57500
C  33.58500 2.75400 36.92800
H  34.38500 3.86200 37.62600
N  37.50600 2.03100 30.32300
C  38.27200 2.01000 31.47100
C  39.64100 1.54300 31.06500
C  39.59600 1.12900 29.68400
C  38.16700 1.39700 29.31000
C  40.82800 1.50500 32.00000
C  40.63200 0.54400 28.82600
O  40.29000 -0.03800 27.78900
C  42.07200 0.63200 29.18400
N  35.35000 2.21500 28.15800
C  36.40300 1.74000 27.46700
C  35.94400 1.29200 25.98100
C  34.42700 1.80500 26.07500
C  34.19400 2.24600 27.46400
C  36.80500 1.88600 24.90200
C  33.35400 0.85100 25.34900
C  32.56900 1.44500 24.15300
N  33.56500 2.97500 30.29100
C  32.61800 3.04900 29.30800
C  31.38200 3.43300 29.75600
C  31.63300 3.73100 31.07700
C  32.92200 3.40300 31.39600
C  30.19300 3.64300 28.99800
C  30.98400 4.20000 32.32600
O  29.88300 4.71100 32.43700
C  32.03700 4.16800 33.43300
C  32.18300 5.52900 34.18100
O  32.40500 6.63800 33.72200
O  31.89100 5.29100 35.51200
C  31.82500 6.58500 36.28700
H  38.77900 2.32100 33.41200
H  38.32800 0.97100 27.25600
H  32.13000 2.68500 27.36600
H  34.61900 4.46400 35.16800
H  36.80800 2.51200 35.36100
H  36.61800 5.43000 35.38800
H  37.96700 4.93300 34.43000
H  37.92700 4.35700 36.08600
H  34.71600 1.50700 35.64700
H  33.24400 2.11800 35.02400
H  33.44000 1.86600 37.54400
H  32.58300 3.14900 36.76400
H  41.41900 2.38200 31.73500
H  41.38300 0.58200 31.83300
H  40.65500 1.69500 33.06000
H  42.71800 0.42300 28.33100
H  42.19400 -0.16900 29.91300
H  42.32600 1.63300 29.53200
H  35.88800 0.20700 25.89000
H  34.30600 2.78100 25.60600
H  37.65700 2.49600 25.20100
H  36.22900 2.30700 24.07800
H  37.37200 1.08100 24.43400
H  32.69600 0.53700 26.16000
H  33.74500 -0.08700 24.95600
H  33.03700 2.33700 23.73800
H  31.52000 1.62000 24.39100
H  32.48200 0.63200 23.43200
H  29.78300 2.68700 28.67400
H  30.54300 4.20100 28.12900
H  29.38800 4.14800 29.53200
H  31.80500 3.40900 34.18000
H  30.93500 7.16300 36.03600
H  32.75300 7.15500 36.25300
H  31.70300 6.32900 37.34000
Mg 1.64300 41.94300 26.05800
C  3.53900 42.06100 28.97300
C  -1.09200 41.12300 27.89400
C  0.26200 41.12200 23.28400
C  4.73500 42.59400 24.25300
N  1.27300 41.60900 28.25100
C  2.17000 41.95900 29.21200
C  1.37100 41.92400 30.56700
C  -0.09800 41.49700 30.25100
C  -0.02400 41.46600 28.70200
C  -0.41100 40.06400 30.78600
C  1.49400 43.24800 31.37600
C  1.60500 43.16300 32.89300
H  1.23000 41.89600 33.63600
N  -0.24100 41.21600 25.64200
C  -1.23400 40.84500 26.51400
C  -2.30700 40.31500 25.71200
C  -1.90900 40.26100 24.36900
C  -0.59500 40.90200 24.36800
C  -3.66400 39.88900 26.29100
C  -2.65500 39.75800 23.15900
O  -2.15300 39.66800 22.04600
C  -4.08000 39.30200 23.19700
N  2.39200 41.89000 23.98900
C  1.53500 41.55400 23.06700
C  2.14700 41.79800 21.67100
C  3.44700 42.55200 21.99700
C  3.57800 42.37000 23.48800
C  2.36600 40.47800 20.80800
C  3.39600 44.05600 21.62300
C  4.23800 44.47900 20.44900
N  3.69000 42.28900 26.45900
C  4.77600 42.57600 25.68600
C  5.93200 42.66300 26.50600
C  5.53000 42.46800 27.79500
C  4.15700 42.19900 27.73700
C  7.40000 42.91900 26.00900
C  5.91700 42.37500 29.21000
O  6.97100 42.44100 29.81500
C  4.57700 42.20900 30.02900
C  4.73400 41.04100 30.91700
O  4.49100 39.90900 30.54600
O  5.00200 41.42200 32.24000
C  5.19700 40.39200 33.18800
H  -2.00800 41.16100 28.48600
H  -0.29200 40.88700 22.37300
H  5.62000 42.91700 23.70100
H  1.92800 41.12200 31.04900
H  -0.86300 42.19500 30.59000
H  0.25600 39.81400 31.61200
H  -0.18900 39.36900 29.97700
H  -1.43800 39.85400 31.08900
H  0.62000 43.83900 31.10100
H  2.32600 43.83500 30.98800
H  1.03700 43.95700 33.37900
H  2.68100 43.26600 33.03600
H  -3.70700 40.17600 27.34100
H  -3.79200 38.80600 26.26300
H  -4.42300 40.43400 25.73000
H  -4.76600 40.14700 23.26300
H  -4.25700 38.69800 24.08600
H  -4.24700 38.80100 22.24300
H  1.46200 42.44000 21.11700
H  4.35800 42.13300 21.57000
H  1.50700 39.84300 21.02500
H  3.28700 39.96300 21.08100
H  2.42300 40.82800 19.77700
H  3.68200 44.72300 22.43600
H  2.35900 44.37300 21.51000
H  4.98400 45.21300 20.75300
H  3.55000 44.90700 19.72000
H  4.76500 43.61800 20.03800
H  7.74200 43.87300 26.41100
H  7.42400 42.97800 24.92100
H  7.99300 42.15500 26.51100
H  4.49800 43.11800 30.62500
H  6.22700 40.03800 33.14200
H  4.58200 39.49700 33.09100
H  4.82000 40.74900 34.14600

