158

Mg 48.01300 24.84300 27.98200
C  48.74400 27.06700 30.49500
C  47.53400 22.33700 30.49400
C  47.37000 22.49300 25.56100
C  48.69600 27.16700 25.62200
N  48.25400 24.71900 30.25800
C  48.54800 25.82900 31.08700
C  48.40200 25.54500 32.58100
C  48.08000 23.92200 32.54700
C  47.96100 23.60700 30.98100
C  49.04600 22.89500 33.32700
C  47.17300 26.36700 33.18700
C  47.45400 27.19500 34.51400
H  46.36600 27.19300 35.54000
N  47.40600 22.77700 28.00600
C  47.24800 21.94900 29.13600
C  46.80500 20.64400 28.61000
C  46.79800 20.62200 27.17000
C  47.21500 21.95300 26.85600
C  46.47600 19.51300 29.60500
C  46.35400 19.52100 26.14300
O  46.44100 19.65800 24.96300
C  45.82700 18.21700 26.62300
N  48.21800 24.72200 25.85200
C  47.84100 23.71000 25.02800
C  47.90400 24.06600 23.52700
C  48.13000 25.59700 23.60800
C  48.32800 25.88400 25.16300
C  48.90600 23.15300 22.67400
C  46.96900 26.38100 22.91000
C  45.76200 26.75500 23.75600
N  48.69000 26.77400 27.96100
C  48.95500 27.61500 26.95200
C  49.47400 28.87500 27.46500
C  49.25700 28.77400 28.92100
C  48.83600 27.43900 29.15600
C  50.06500 30.02900 26.65600
C  49.46900 29.39900 30.20800
O  49.87200 30.51100 30.46800
C  49.13100 28.28600 31.26300
C  50.28000 28.32000 32.19500
O  51.36700 27.83100 31.99500
O  49.92000 29.07700 33.29000
C  50.90200 29.01200 34.42800
H  47.38900 21.59800 31.28400
H  47.30000 21.80500 24.71500
H  49.07200 27.80000 24.81500
H  49.25700 25.81900 33.19800
H  47.05800 23.83700 32.91400
H  49.13300 21.96500 32.76400
H  48.55800 22.55200 34.24000
H  50.01500 23.38600 33.41400
H  46.39400 25.67200 33.50100
H  46.89000 27.05000 32.38600
H  47.58400 28.25400 34.29100
H  48.33800 26.64600 34.83900
H  46.80600 18.56000 29.19100
H  45.42800 19.54100 29.90600
H  46.94000 19.64000 30.58300
H  46.56900 17.61300 27.14600
H  45.54600 17.67300 25.72100
H  44.92700 18.50700 27.16600
H  46.96000 23.78800 23.06000
H  48.97000 25.75800 22.93200
H  48.50700 22.57400 21.84100
H  49.21100 22.34800 23.34200
H  49.79000 23.71200 22.36500
H  46.46500 25.89600 22.07400
H  47.39500 27.30000 22.50800
H  44.88600 26.29700 23.29600
H  45.67500 27.84000 23.81000
H  45.82300 26.41100 24.78800
H  50.33100 29.73300 25.64100
H  50.96500 30.24500 27.23200
H  49.43000 30.91400 26.65000
H  48.20500 28.61900 31.73200
H  50.39800 28.84600 35.38000
H  51.57100 29.86800 34.51400
H  51.48500 28.10600 34.26300
Mg 0.45000 42.95200 26.24600
C  2.42400 42.71700 29.19700
C  -2.32500 42.57600 28.26400
C  -1.21500 42.26200 23.47600
C  3.44900 43.41200 24.43500
N  0.19500 42.36200 28.40200
C  1.05600 42.59500 29.43000
C  0.33600 42.63500 30.80500
C  -1.14100 42.25400 30.45300
C  -1.08200 42.48100 28.92200
C  -1.69700 40.86300 30.78400
C  0.54000 43.99000 31.61700
C  1.25100 43.81200 33.02500
H  0.85600 42.58000 33.83600
N  -1.55200 42.53400 25.92200
C  -2.58700 42.50400 26.85100
C  -3.80300 42.26000 26.16800
C  -3.50100 42.13500 24.76700
C  -2.02200 42.31100 24.66100
C  -5.03200 42.24500 27.00500
C  -4.41400 41.86800 23.64200
O  -4.01900 41.79400 22.47200
C  -5.89600 41.71700 23.86500
N  1.12000 42.75300 24.28800
C  0.17500 42.49500 23.34500
C  0.68300 42.58100 21.93000
C  1.99400 43.35700 22.20200
C  2.28700 43.13900 23.72200
C  0.77400 41.17200 21.21200
C  2.09800 44.87800 21.81800
C  2.76500 45.44100 20.60700
N  2.51800 43.18400 26.70200
C  3.58700 43.33500 25.82200
C  4.80800 43.34900 26.60000
C  4.43700 43.03100 27.91100
C  3.01800 42.97600 27.88200
C  6.18000 43.51600 26.12400
C  4.90400 42.84500 29.22700
O  6.05200 42.86200 29.66800
C  3.65000 42.76200 30.13200
C  3.67800 41.61300 31.05600
O  3.17600 40.59700 30.80000
O  4.49500 41.80100 32.10400
C  4.65300 40.71800 33.01700
H  -3.26200 42.56200 28.82400
H  -1.81700 42.33200 22.56700
H  4.31300 43.69900 23.83300
H  0.70600 41.82000 31.42800
H  -1.84800 42.97500 30.86400
H  -2.14700 40.33600 29.94200
H  -2.60400 41.00200 31.37200
H  -1.06700 40.23900 31.41700
H  -0.37500 44.54200 31.82900
H  1.17100 44.68100 31.05700
H  0.97100 44.73800 33.52800
H  2.34000 43.85900 33.01400
H  -5.09300 43.20100 27.52600
H  -4.97800 41.48500 27.78400
H  -5.99600 42.14200 26.50600
H  -6.09800 40.84600 24.48800
H  -6.34800 41.57400 22.88400
H  -6.26700 42.64900 24.29200
H  -0.05900 43.18500 21.40800
H  2.80000 42.81300 21.70900
H  1.37900 40.41200 21.70800
H  1.36300 41.51600 20.36200
H  -0.27400 40.96600 20.99600
H  2.56900 45.25900 22.72400
H  1.07000 45.23900 21.81400
H  2.20500 46.18500 20.04000
H  3.06800 44.65300 19.91700
H  3.67200 46.01600 20.79500
H  6.29800 43.88800 25.10700
H  6.67700 42.54600 26.08300
H  6.87300 44.12600 26.70400
H  3.69300 43.72700 30.63600
H  5.66200 40.40800 32.74600
H  3.99800 39.85900 32.87400
H  4.54300 40.93700 34.08000

