158

Mg -2.33500 17.42800 27.08800
C  -2.45800 15.27300 29.84300
C  -2.82100 20.07800 29.14300
C  -2.45900 19.43500 24.31600
C  -2.26200 14.73300 24.91400
N  -2.74600 17.65900 29.30700
C  -2.50700 16.63100 30.23400
C  -2.51500 17.17200 31.72700
C  -2.89500 18.65900 31.40100
C  -2.81800 18.79500 29.87900
C  -4.07800 19.36100 32.11200
C  -1.16200 16.98200 32.53700
C  -0.99300 17.80100 33.82800
H  -0.89700 17.08600 35.18500
N  -2.43400 19.44400 26.81500
C  -2.64500 20.42000 27.79800
C  -2.60100 21.73300 27.26100
C  -2.43200 21.54100 25.81600
C  -2.38300 20.08900 25.60100
C  -2.65500 22.93000 28.07800
C  -2.33200 22.64900 24.79400
O  -2.04100 22.40500 23.62700
C  -2.31500 24.18200 25.21500
N  -2.53700 17.10500 24.97000
C  -2.49000 18.11300 24.03800
C  -2.55300 17.51500 22.62500
C  -2.09900 16.02900 22.79900
C  -2.43900 15.94500 24.28600
C  -4.00200 17.68300 21.98700
C  -0.61200 15.87200 22.34700
C  0.51500 15.32400 23.30900
N  -2.52500 15.36200 27.25200
C  -2.40800 14.36500 26.27900
C  -2.42300 13.07700 26.91800
C  -2.54800 13.37200 28.32700
C  -2.48500 14.74000 28.44400
C  -2.45100 11.88200 26.28900
C  -2.63600 12.81600 29.59800
O  -2.68700 11.64200 30.00800
C  -2.66900 14.00300 30.69200
C  -1.73300 13.65100 31.74200
O  -0.50400 13.70300 31.69500
O  -2.45800 13.19500 32.87000
C  -1.62800 12.33300 33.75800
H  -2.83600 20.86400 29.90100
H  -2.52000 20.09300 23.44700
H  -2.01800 13.91300 24.23600
H  -3.39000 16.74200 32.21400
H  -2.00800 19.22400 31.68800
H  -3.70300 20.19700 32.70300
H  -4.61400 18.62200 32.70800
H  -4.86100 19.66100 31.41400
H  -0.41400 17.38600 31.85500
H  -0.91300 15.96700 32.84700
H  -1.92000 18.36800 33.91300
H  -0.19200 18.52400 33.66900
H  -2.04300 23.76700 27.74000
H  -2.21600 22.71400 29.05200
H  -3.67600 23.30900 28.12400
H  -3.18300 24.39200 25.84000
H  -2.26300 24.72700 24.27300
H  -1.35400 24.29000 25.71900
H  -1.77300 18.00200 22.04000
H  -2.71700 15.32900 22.23600
H  -4.65600 18.25500 22.64500
H  -4.39800 16.74000 21.61200
H  -3.79800 18.22800 21.06500
H  -0.20000 16.78100 21.90900
H  -0.70700 15.10000 21.58400
H  0.07000 15.24700 24.30100
H  1.34900 16.02500 23.33400
H  0.92000 14.35900 23.00600
H  -2.25100 11.05600 26.97300
H  -1.70600 11.67700 25.52100
H  -3.36900 11.78800 25.70900
H  -3.65400 14.02000 31.16000
H  -1.11100 12.99800 34.44900
H  -0.91000 11.69600 33.24200
H  -2.34200 11.74400 34.33400
Mg 42.21800 41.70800 26.36100
C  41.35000 43.86800 28.99000
C  43.06000 39.43500 28.62300
C  43.56600 39.99700 23.81300
C  41.62800 44.32700 24.02300
N  42.25200 41.65900 28.63400
C  41.78800 42.56800 29.51300
C  41.79300 42.07400 30.94900
C  42.45500 40.63800 30.77200
C  42.60300 40.56000 29.27800
C  43.68100 40.46100 31.63500
C  40.46500 42.02800 31.61100
C  40.38800 41.76600 33.20400
H  39.77000 42.80400 34.14300
N  43.04000 39.87700 26.26200
C  43.27400 39.04500 27.29800
C  43.87600 37.81000 26.86700
C  44.11600 37.96700 25.41800
C  43.51900 39.32500 25.08000
C  44.30100 36.76300 27.78200
C  44.83000 37.06000 24.44600
O  45.07300 37.37200 23.29000
C  45.21300 35.69200 24.87500
N  42.68900 42.25900 24.26300
C  43.19400 41.27000 23.42000
C  43.03100 41.62400 21.93100
C  42.09800 42.88500 22.02000
C  42.15500 43.22700 23.53200
C  44.48000 41.79000 21.28700
C  40.63800 42.55400 21.67500
C  39.92800 41.38100 22.44200
N  41.61700 43.72600 26.39400
C  41.50000 44.66300 25.38100
C  41.08900 45.90100 25.99100
C  41.01500 45.64600 27.42700
C  41.35600 44.28400 27.56600
C  40.78900 47.17600 25.36200
C  40.80700 46.21400 28.70400
O  40.56500 47.36300 29.02800
C  40.90900 45.14000 29.78000
C  42.03300 45.55900 30.70100
O  43.22800 45.37100 30.52100
O  41.54200 46.15700 31.80300
C  42.42500 46.69200 32.81400
H  43.25600 38.64800 29.35400
H  43.87100 39.37600 22.96800
H  41.35800 45.00400 23.21000
H  42.45400 42.73700 31.50600
H  41.68600 40.00400 31.21300
H  44.16300 41.35600 32.02700
H  44.36200 39.78400 31.11900
H  43.31300 39.89400 32.49000
H  39.79500 41.35000 31.08200
H  39.98800 43.00500 31.53200
H  41.39000 41.58400 33.59000
H  39.85400 40.81700 33.25600
H  43.82700 35.81700 27.52000
H  44.05900 36.88500 28.83800
H  45.37300 36.63900 27.62600
H  46.18800 35.84300 25.33800
H  45.39300 35.16600 23.93800
H  44.50400 35.09700 25.45000
H  42.63100 40.75000 21.41700
H  42.45100 43.71700 21.41000
H  45.14700 41.11800 21.82600
H  44.82800 42.76900 21.61800
H  44.59900 41.54100 20.23300
H  40.60500 42.28800 20.61800
H  39.97900 43.39600 21.88300
H  40.50200 40.91800 23.24500
H  39.56900 40.70300 21.66800
H  39.08800 41.85100 22.95400
H  39.75200 47.34100 25.65100
H  41.00600 47.03900 24.30200
H  41.30500 48.06500 25.72600
H  40.04300 44.99300 30.42500
H  42.77600 45.88000 33.45000
H  42.10500 47.61700 33.29500
H  43.22100 47.06700 32.17200

