158

Mg 1.44800 8.00200 26.48500
C  1.93700 10.22200 29.10900
C  2.18800 5.35700 28.65600
C  1.53200 6.08100 23.77900
C  1.28900 10.78500 24.36300
N  1.98700 7.77600 28.63100
C  2.02800 8.89000 29.52000
C  2.01500 8.39800 30.98000
C  2.29900 6.83600 30.75700
C  2.08500 6.63600 29.27600
C  3.62500 6.27600 31.20200
C  0.71800 8.76100 31.71900
C  0.57200 7.99500 33.09300
H  1.81600 7.61000 33.87200
N  1.82100 6.00900 26.30300
C  2.19200 5.08600 27.26200
C  2.29700 3.80900 26.63300
C  2.11700 3.98700 25.22200
C  1.82100 5.43900 25.04500
C  2.51600 2.49500 27.38500
C  2.34900 3.00400 24.10900
O  2.26600 3.32200 22.91400
C  2.68700 1.59700 24.41900
N  1.27400 8.35400 24.32000
C  1.28500 7.37900 23.45800
C  1.16900 7.91600 21.94900
C  1.15600 9.45000 22.17800
C  1.25500 9.53400 23.72200
C  2.33200 7.29600 21.02900
C  -0.10700 10.11900 21.62300
C  0.11700 11.13300 20.47600
N  1.53200 10.13500 26.61000
C  1.41300 11.08900 25.67700
C  1.57000 12.41400 26.25300
C  1.78200 12.12700 27.66600
C  1.76100 10.73200 27.82800
C  1.52200 13.79900 25.56300
C  1.93200 12.74400 28.93300
O  2.03300 13.92300 29.21900
C  1.91600 11.49300 29.92000
C  3.10300 11.66800 30.71100
O  4.28000 11.61400 30.22200
O  2.81400 11.61000 32.08400
C  3.90400 11.83400 33.07000
H  2.32100 4.52300 29.34900
H  1.60000 5.50000 22.85700
H  1.16500 11.67000 23.73500
H  2.81600 8.90100 31.52200
H  1.49500 6.32100 31.28300
H  4.23800 5.89700 30.38400
H  3.51000 5.45800 31.91200
H  4.17300 7.14300 31.57200
H  -0.09700 8.47300 31.05500
H  0.87000 9.83300 31.84800
H  0.01700 7.08400 32.87300
H  -0.05800 8.56700 33.77500
H  2.66200 2.61800 28.45800
H  3.37000 1.94900 26.98400
H  1.67100 1.80700 27.40500
H  2.59000 0.90200 23.58500
H  2.09800 1.18600 25.23900
H  3.75200 1.62100 24.64900
H  0.24600 7.52800 21.51800
H  2.02000 9.87000 21.66200
H  2.97900 8.15600 20.85900
H  2.09300 6.79200 20.09300
H  2.94200 6.61000 21.61800
H  -0.66400 10.70100 22.35700
H  -0.77900 9.31900 21.31300
H  -0.14800 10.55400 19.59200
H  1.15700 11.45700 20.46500
H  -0.50900 12.01100 20.63400
H  0.70300 13.93000 24.85700
H  2.49500 13.88600 25.07800
H  1.55700 14.76000 26.07600
H  1.01400 11.52200 30.53100
H  4.90700 11.99400 32.67400
H  3.98300 10.96300 33.72100
H  3.65300 12.67300 33.71900
Mg 7.32200 57.15200 42.09400
C  5.54000 54.10800 41.73400
C  10.00800 55.62700 40.71800
C  8.57400 60.30000 41.59500
C  4.21400 58.73100 43.06500
N  7.63400 55.10000 41.26400
C  6.79300 54.03600 41.14800
C  7.44500 52.84000 40.51900
C  9.02100 53.23600 40.71000
C  8.87800 54.73100 40.78600
C  9.72500 52.64200 41.99600
C  7.00200 52.74900 39.07100
C  7.38300 51.48900 38.32500
H  6.43000 50.94300 37.32300
N  8.99000 57.82900 41.30700
C  9.98700 57.06500 40.83900
C  11.15200 57.87100 40.43900
C  10.75600 59.26000 40.54600
C  9.38600 59.20700 41.16900
C  12.50700 57.33300 40.06500
C  11.64400 60.42100 40.24900
O  12.71500 60.20900 39.67300
C  11.20600 61.78200 40.55900
N  6.49600 59.27300 42.48600
C  7.25600 60.29700 42.11900
C  6.39100 61.59400 42.27500
C  5.01700 61.09000 42.75100
C  5.24200 59.60700 42.84200
C  7.06900 62.58700 43.20800
C  3.72100 61.44300 41.89800
C  2.80900 62.45700 42.52000
N  5.29000 56.59000 42.40600
C  4.19900 57.28800 42.85800
C  3.04600 56.37000 43.00600
C  3.54600 55.11900 42.61100
C  4.89300 55.29700 42.20400
C  1.64700 56.55900 43.58400
C  3.16300 53.70300 42.51100
O  2.19600 53.05800 42.81700
C  4.50100 53.01100 41.93800
C  3.98600 52.42000 40.65300
O  3.56200 53.06600 39.67000
O  4.01800 51.08900 40.72400
C  3.12900 50.40100 39.81400
H  10.93700 55.09800 40.49400
H  8.91800 61.28200 41.26300
H  3.28000 59.11600 43.47900
H  7.26100 51.90300 41.04500
H  9.61100 52.89800 39.85800
H  8.98300 52.08000 42.56300
H  10.14900 53.37300 42.68600
H  10.45900 51.89100 41.70400
H  7.57300 53.51100 38.54100
H  5.92100 52.87200 38.99600
H  7.64600 50.67700 39.00300
H  8.25400 51.68900 37.70100
H  12.66100 56.36100 40.53400
H  13.22000 58.04100 40.48700
H  12.60400 57.25900 38.98200
H  11.03500 61.78700 41.63600
H  10.32200 62.07600 39.99400
H  12.05700 62.42700 40.34000
H  6.25900 62.14100 41.34100
H  4.99600 61.40400 43.79400
H  8.04000 62.86400 42.79600
H  7.30700 62.05500 44.12900
H  6.49800 63.50700 43.33700
H  3.26100 60.49700 41.61300
H  4.15900 61.92600 41.02500
H  2.18900 61.90900 43.23000
H  2.34400 63.03200 41.71900
H  3.40100 63.16600 43.09800
H  0.86200 56.27100 42.88500
H  1.58000 57.56700 43.99500
H  1.48700 55.94100 44.46700
H  4.83100 52.22600 42.61800
H  2.09400 50.59600 40.09600
H  3.28100 49.32200 39.84800
H  3.27500 50.61000 38.75400

