158

Mg -1.84900 17.13600 27.80100
C  -2.29300 14.96300 30.53700
C  -2.25500 19.73100 30.04400
C  -1.78000 19.38100 25.22100
C  -2.06100 14.46000 25.71300
N  -2.00400 17.35400 30.05700
C  -2.25200 16.31900 30.97000
C  -2.45400 16.85000 32.43200
C  -2.37700 18.40400 32.16800
C  -2.21900 18.49000 30.65900
C  -3.57500 19.25300 32.74900
C  -1.38300 16.23500 33.44400
C  -0.69300 17.09400 34.47100
H  -0.29100 16.56200 35.82300
N  -1.97100 19.23600 27.67900
C  -2.02000 20.13100 28.71100
C  -1.90500 21.45900 28.22000
C  -1.68700 21.42300 26.84000
C  -1.88500 19.95700 26.49800
C  -1.98400 22.69200 29.12000
C  -1.46600 22.55600 25.83800
O  -1.36900 22.28000 24.67500
C  -1.30700 24.01000 26.21600
N  -1.89100 16.94300 25.79600
C  -1.88500 18.01800 24.90200
C  -2.08700 17.59500 23.42900
C  -2.16100 15.98700 23.63100
C  -2.04500 15.78200 25.15500
C  -3.33200 18.14700 22.62400
C  -1.18600 15.10700 22.79400
C  0.23500 14.86700 23.31900
N  -1.91600 15.15700 27.97800
C  -2.00500 14.18200 27.07600
C  -2.12000 12.85500 27.64600
C  -2.15000 13.08200 29.02400
C  -2.12400 14.52100 29.18600
C  -2.26200 11.55600 26.87200
C  -2.37100 12.41100 30.25000
O  -2.52300 11.26500 30.50300
C  -2.50700 13.68000 31.33100
C  -1.35800 13.22400 32.22600
O  -0.15400 13.40800 31.99100
O  -1.75600 12.58800 33.37100
C  -0.73200 12.52700 34.41200
H  -2.47400 20.51100 30.77700
H  -1.88300 20.09500 24.40200
H  -2.04700 13.60900 25.02900
H  -3.44200 16.47600 32.70300
H  -1.51200 18.89000 32.62000
H  -3.22500 19.93100 33.52800
H  -4.13200 18.45300 33.23600
H  -4.06300 19.77000 31.92300
H  -0.64400 15.79200 32.77600
H  -1.98300 15.44700 33.90000
H  -1.26300 17.99100 34.71100
H  0.16900 17.51300 33.95200
H  -2.88800 23.22700 28.83200
H  -1.02800 23.20700 29.02300
H  -2.14200 22.46800 30.17500
H  -0.95500 24.57200 25.35000
H  -0.64400 23.97400 27.08100
H  -2.30300 24.30100 26.54800
H  -1.19300 17.84500 22.85800
H  -3.16900 15.59500 23.49800
H  -4.15500 17.43400 22.56700
H  -2.94100 18.41900 21.64400
H  -3.61000 19.00200 23.24000
H  -0.96600 15.72700 21.92500
H  -1.68000 14.24200 22.35100
H  0.83400 15.67200 22.89300
H  0.47300 13.85000 23.00900
H  0.41100 14.97700 24.38900
H  -1.62700 11.48200 25.98900
H  -3.32300 11.48900 26.63100
H  -2.11400 10.73200 27.56900
H  -3.38500 13.64900 31.97600
H  -0.24100 11.56400 34.27400
H  -1.33600 12.60400 35.31600
H  0.07700 13.24900 34.52000
Mg 1.06800 -1.70700 45.05000
C  4.51900 -0.91300 44.17400
C  0.18400 1.15400 43.35500
C  -2.09200 -2.63000 45.21200
C  2.22500 -4.83200 46.12000
N  2.25100 -0.08100 44.04100
C  3.62700 0.05400 43.85500
C  3.92600 1.29700 43.06200
C  2.48800 2.09600 43.02300
C  1.55400 0.98700 43.57300
C  2.33900 3.41700 43.83100
C  4.51800 1.02300 41.63300
C  5.92700 1.66300 41.35500
H  6.81000 0.92100 40.31000
N  -0.74000 -0.82100 44.49900
C  -0.88600 0.36600 43.79500
C  -2.28800 0.64400 43.56800
C  -2.98900 -0.35500 44.30700
C  -1.94400 -1.35900 44.71300
C  -2.88800 1.81200 42.80200
C  -4.46600 -0.37400 44.75800
O  -5.26200 0.48000 44.29600
C  -5.00200 -1.40200 45.78700
N  0.14100 -3.47000 45.79800
C  -1.17900 -3.62800 45.67700
C  -1.62900 -5.03900 46.01200
C  -0.25100 -5.72100 46.45400
C  0.81100 -4.64400 46.05700
C  -2.86500 -5.06400 47.07800
C  -0.17800 -7.16000 45.73900
C  -0.48200 -8.40000 46.58500
N  2.99500 -2.69000 45.28900
C  3.18700 -3.92200 45.71000
C  4.70600 -4.07300 45.82100
C  5.21300 -2.88100 45.20100
C  4.13300 -2.14200 44.80800
C  5.38400 -5.28700 46.31600
C  6.39400 -2.24300 44.84400
O  7.55300 -2.61700 45.03700
C  6.04300 -1.00800 43.98000
C  6.71100 0.17100 44.69700
O  6.40000 0.52400 45.80700
O  7.80500 0.63200 43.92600
C  8.36100 1.72100 44.70700
H  0.03200 2.10400 42.83800
H  -3.11000 -3.02600 45.19300
H  2.60600 -5.78000 46.50600
H  4.55600 1.96700 43.64700
H  2.28800 2.37200 41.98700
H  1.91900 4.16600 43.16000
H  3.35300 3.65800 44.15000
H  1.72400 3.35200 44.72900
H  3.80700 1.17900 40.82200
H  4.66200 -0.05700 41.60100
H  6.43400 1.84100 42.30400
H  5.59600 2.61500 40.93900
H  -3.93600 1.53500 42.68300
H  -2.22100 2.02500 41.96600
H  -2.71500 2.59400 43.54100
H  -4.19000 -1.73000 46.43600
H  -5.47300 -2.20900 45.22500
H  -5.77500 -0.97900 46.42900
H  -2.09800 -5.46300 45.12400
H  -0.35100 -5.72200 47.53900
H  -2.52400 -5.51100 48.01300
H  -3.63700 -5.73900 46.70900
H  -3.29200 -4.11600 47.40400
H  0.87700 -7.22100 45.47300
H  -0.78000 -7.13900 44.83100
H  0.40500 -8.69800 47.14400
H  -0.88900 -9.22100 45.99500
H  -1.29000 -8.23700 47.29800
H  5.50200 -5.99300 45.49400
H  4.90400 -5.57400 47.25200
H  6.37600 -4.91300 46.56800
H  6.41700 -1.15700 42.96700
H  9.21600 2.11600 44.15800
H  8.87600 1.33300 45.58600
H  7.72800 2.56900 44.96800

