158

Mg 2.03300 -1.73300 44.23400
C  5.32400 -1.11000 43.38900
C  1.20200 1.03800 42.30900
C  -1.08300 -2.87100 43.92000
C  3.08300 -4.56700 45.92600
N  3.20900 -0.28100 42.82300
C  4.54400 -0.14500 42.79000
C  5.01800 1.03000 41.92000
C  3.67900 1.84100 41.77400
C  2.59800 0.85000 42.30500
C  3.69600 3.11000 42.66700
C  5.71800 0.60900 40.60700
C  6.81800 1.57600 40.06600
H  6.28900 2.50800 38.92200
N  0.24700 -0.90600 43.37500
C  0.14200 0.25900 42.72600
C  -1.28000 0.57800 42.49900
C  -1.98500 -0.65300 42.87800
C  -0.93900 -1.57900 43.34600
C  -1.73600 1.89200 42.10800
C  -3.52100 -0.75100 42.94100
O  -4.19800 0.18000 42.58500
C  -4.27700 -1.90200 43.56200
N  1.07500 -3.36500 44.93400
C  -0.19600 -3.71500 44.58200
C  -0.50600 -5.16300 44.98700
C  0.88700 -5.75400 45.37600
C  1.73000 -4.43500 45.52400
C  -1.59600 -5.29400 46.02800
C  1.27200 -6.98400 44.54100
C  1.53100 -8.22800 45.42400
N  3.76700 -2.59600 44.69000
C  4.08300 -3.70700 45.42900
C  5.53100 -3.90300 45.53900
C  6.02600 -2.85600 44.81100
C  4.91900 -2.15500 44.20900
C  6.22100 -5.02700 46.34200
C  7.26200 -2.17900 44.40200
O  8.41400 -2.42600 44.69800
C  6.86200 -1.00000 43.51100
C  7.37700 0.22000 44.11900
O  6.97500 0.61700 45.23100
O  8.25400 0.90600 43.28300
C  8.37000 2.32600 43.46200
H  0.83700 1.94900 41.82900
H  -2.03400 -3.36200 43.70500
H  3.31400 -5.56500 46.30300
H  5.73200 1.66300 42.44600
H  3.34300 1.95900 40.74400
H  3.02900 3.05800 43.52700
H  3.28700 3.86500 41.99600
H  4.64200 3.39700 43.12700
H  4.98000 0.54400 39.80800
H  6.19500 -0.36600 40.71200
H  7.69100 1.05700 39.67100
H  7.25800 2.30600 40.74600
H  -1.12300 2.21600 41.26700
H  -1.55200 2.55300 42.95500
H  -2.79600 1.92700 41.85400
H  -5.25400 -1.64800 43.97200
H  -3.79200 -2.26400 44.46900
H  -4.36400 -2.69400 42.81800
H  -0.86300 -5.63000 44.06900
H  0.73900 -6.05400 46.41300
H  -2.15100 -4.35500 46.04000
H  -1.10400 -5.39000 46.99600
H  -2.31800 -6.11000 46.00900
H  2.15800 -6.64700 44.00400
H  0.52300 -7.36700 43.84800
H  2.55200 -8.57800 45.26900
H  0.83500 -9.01900 45.14200
H  1.50700 -8.09100 46.50500
H  5.56400 -5.68500 46.91000
H  6.88100 -4.43400 46.97500
H  6.74700 -5.65400 45.62100
H  7.33600 -1.12700 42.53800
H  7.71400 2.85200 42.76800
H  9.37800 2.68200 43.24700
H  8.12000 2.57900 44.49300
Mg 48.50600 34.25500 26.25400
C  46.31300 33.22900 28.75200
C  49.21700 37.05200 28.22600
C  50.29900 35.59800 23.56700
C  47.27200 31.81600 24.08800
N  47.77100 35.09500 28.23700
C  47.03400 34.39200 29.11700
C  47.20300 35.01700 30.54300
C  47.63200 36.46400 30.20300
C  48.21200 36.23700 28.82000
C  46.52100 37.54600 30.31200
C  48.23700 34.26000 31.34300
C  47.74500 33.93600 32.78700
H  47.04800 35.05700 33.51500
N  49.75800 35.96500 26.05800
C  49.96800 36.94000 26.98900
C  51.02100 37.80200 26.52700
C  51.33200 37.47100 25.15000
C  50.47000 36.22500 24.87700
C  51.55100 38.94400 27.29000
C  52.24000 38.15700 24.06200
O  52.62500 37.64600 23.05800
C  52.70600 39.55100 24.36000
N  48.63100 33.89900 24.11500
C  49.50600 34.49500 23.23100
C  49.57900 33.78400 21.87200
C  48.80000 32.48600 22.20500
C  48.17300 32.75400 23.54700
C  48.94000 34.66900 20.68700
C  49.66900 31.23900 22.24000
C  49.00500 29.95100 21.61100
N  47.10200 32.79900 26.33300
C  46.67500 31.82100 25.35100
C  45.67900 30.88100 25.93700
C  45.56700 31.39800 27.28400
C  46.37900 32.56100 27.45700
C  45.00900 29.79200 25.22800
C  44.88200 31.20000 28.47400
O  44.05200 30.35000 28.76600
C  45.29300 32.37200 29.50900
C  45.62500 31.77300 30.81600
O  46.64100 31.08200 30.97200
O  44.67600 32.05100 31.76100
C  45.00500 31.58100 33.10000
H  49.45100 37.86000 28.92400
H  50.87300 36.12400 22.80100
H  47.11100 31.00200 23.37800
H  46.18700 34.94300 30.92900
H  48.36600 36.77100 30.94800
H  46.79200 38.13100 31.19100
H  45.49400 37.21600 30.46800
H  46.59900 38.25600 29.48800
H  49.21600 34.73900 31.34800
H  48.50800 33.37100 30.77300
H  48.61600 33.54900 33.31600
H  47.05100 33.10100 32.68600
H  51.41400 38.80200 28.36200
H  51.04700 39.86500 26.99600
H  52.62000 39.04100 27.10400
H  53.36400 39.91200 23.57000
H  53.34000 39.63700 25.24200
H  51.86300 40.24100 24.39400
H  50.59700 33.48900 21.61700
H  47.92400 32.29600 21.58400
H  48.08800 34.19200 20.20200
H  49.66600 34.95400 19.92600
H  48.56900 35.62000 21.07000
H  50.02500 30.94900 23.22900
H  50.47700 31.39300 21.52500
H  49.70600 29.27500 21.12200
H  48.19200 30.17900 20.92100
H  48.60400 29.42100 22.47500
H  44.35900 30.26300 24.49100
H  44.39200 29.11600 25.82000
H  45.76700 29.22500 24.68800
H  44.31000 32.82600 29.64200
H  44.62600 32.20200 33.91200
H  46.04700 31.30300 33.25900
H  44.48700 30.62300 33.14600

