158

Mg 2.37000 -1.73400 43.34300
C  5.82000 -0.93200 42.73800
C  1.47800 1.04300 41.66600
C  -0.71700 -2.85200 43.48800
C  3.53600 -4.87700 44.61900
N  3.56200 -0.21600 42.16800
C  4.92600 0.03600 42.24600
C  5.32200 1.37000 41.65000
C  3.87500 2.05600 41.44700
C  2.90000 0.89500 41.83500
C  3.69600 3.39700 42.34500
C  6.09700 1.24600 40.30800
C  7.43600 2.00200 40.21000
H  8.05600 2.32900 38.79700
N  0.58500 -1.04800 42.59000
C  0.40300 0.17900 42.04400
C  -0.98100 0.34300 41.66600
C  -1.66000 -0.68600 42.32300
C  -0.61100 -1.61800 42.82000
C  -1.56800 1.41200 40.80600
C  -3.21700 -0.82500 42.30800
O  -3.87000 0.08400 41.86300
C  -3.91100 -2.05100 42.89900
N  1.53000 -3.61000 44.04400
C  0.20200 -3.80200 43.97900
C  -0.16300 -5.19200 44.47300
C  1.21600 -5.81600 44.89800
C  2.11300 -4.70500 44.43400
C  -1.30700 -5.11800 45.60400
C  1.61800 -7.14300 44.27000
C  1.54400 -8.41200 45.15100
N  4.24600 -2.77100 43.62500
C  4.49300 -3.96900 44.24500
C  5.88100 -4.08900 44.49600
C  6.45800 -2.93400 43.92500
C  5.42400 -2.20600 43.31600
C  6.59700 -5.18900 45.24600
C  7.72900 -2.17500 43.73500
O  8.89000 -2.36600 44.09500
C  7.32700 -0.80200 43.04300
C  7.57100 0.38000 43.92000
O  6.82500 0.79400 44.82500
O  8.63400 1.04900 43.44400
C  8.86100 2.40300 43.96300
H  1.18500 2.01200 41.25500
H  -1.77500 -3.12000 43.51200
H  3.88600 -5.74400 45.18200
H  5.88900 1.86200 42.44000
H  3.63500 2.27800 40.40700
H  4.70400 3.68300 42.64400
H  3.16100 3.00900 43.21200
H  3.22400 4.21500 41.80200
H  5.53600 1.52600 39.41700
H  6.49700 0.25100 40.11400
H  8.29300 1.53100 40.69000
H  7.26200 2.94500 40.72800
H  -2.25700 0.94500 40.10200
H  -0.76400 1.86500 40.22500
H  -1.97600 2.20700 41.42900
H  -4.92400 -1.65600 42.81500
H  -3.62700 -1.98300 43.94900
H  -3.82100 -2.93000 42.26100
H  -0.53700 -5.75900 43.62000
H  1.27800 -5.81500 45.98600
H  -2.23500 -5.60600 45.30700
H  -1.67600 -4.11600 45.82400
H  -0.92800 -5.51400 46.54700
H  2.60600 -7.09600 43.81400
H  0.86500 -7.27600 43.49300
H  2.34000 -9.09700 44.85900
H  0.64300 -8.96200 44.88000
H  1.49900 -8.18200 46.21600
H  7.16800 -5.81600 44.56200
H  5.99000 -5.89000 45.81900
H  7.29500 -4.64900 45.88600
H  7.81600 -0.59200 42.09200
H  8.50400 3.23600 43.35800
H  9.94800 2.44500 44.03300
H  8.48400 2.53800 44.97800
Mg 6.89900 53.97800 41.13500
C  6.12100 50.60500 41.08100
C  10.09200 53.21100 39.96900
C  7.42100 57.31400 40.13600
C  3.65800 54.66400 42.00700
N  7.85200 52.14300 40.30200
C  7.36800 50.88300 40.47300
C  8.36100 49.86600 39.90500
C  9.68100 50.59200 40.03800
C  9.20500 52.08500 40.10800
C  10.60800 50.31500 41.30600
C  8.01500 49.27500 38.49000
C  8.21200 50.29200 37.33700
H  6.94000 50.59400 36.57000
N  8.55700 55.10000 40.22400
C  9.76700 54.60500 39.89600
C  10.60400 55.69300 39.48000
C  9.85100 56.85200 39.39600
C  8.50200 56.43900 39.97000
C  12.02200 55.40700 39.17400
C  10.26300 58.25900 38.88300
O  11.43400 58.37700 38.43600
C  9.37000 59.47700 39.03200
N  5.74100 55.75000 41.16700
C  6.17400 57.00200 40.87400
C  4.98500 58.02300 41.03900
C  3.89200 57.15500 41.68100
C  4.41700 55.75100 41.63900
C  5.26700 59.43200 41.64000
C  2.55200 57.30400 40.90400
C  1.38900 57.93700 41.66600
N  5.24700 52.86700 41.63100
C  3.94300 53.26300 41.98900
C  3.13400 52.14400 42.25200
C  4.01200 51.06800 41.97400
C  5.25500 51.56500 41.57800
C  1.68300 52.14800 42.51900
C  4.07500 49.59300 41.93600
O  3.23500 48.79100 42.32100
C  5.51900 49.24700 41.37300
C  5.17100 48.42700 40.15800
O  4.63700 48.87600 39.15900
O  5.53900 47.12100 40.33400
C  5.36000 46.11900 39.24300
H  11.08700 52.92800 39.62000
H  7.38700 58.35200 39.79900
H  2.58800 54.79600 42.18100
H  8.24400 48.95900 40.49700
H  10.32600 50.51900 39.16200
H  11.62700 50.29100 40.91900
H  10.29600 49.38000 41.77100
H  10.45500 51.14900 41.99200
H  7.05700 48.75600 38.52300
H  8.64700 48.43200 38.21200
H  9.05700 49.91300 36.76300
H  8.52500 51.25000 37.75300
H  12.16400 54.81400 38.27100
H  12.38200 54.93200 40.08700
H  12.70400 56.24200 39.01600
H  9.95900 60.28900 38.60500
H  9.13700 59.54100 40.09500
H  8.46600 59.32000 38.44400
H  4.68600 58.21000 40.00700
H  3.74500 57.43100 42.72500
H  4.62600 59.63700 42.49700
H  5.17900 60.13200 40.80900
H  6.28300 59.59900 41.99800
H  2.22100 56.34400 40.50600
H  2.73200 57.92000 40.02300
H  0.76400 57.13100 42.05100
H  0.80000 58.52100 40.95900
H  1.76200 58.50200 42.52000
H  1.24600 52.98600 41.97600
H  1.36500 52.18100 43.56100
H  1.13300 51.26600 42.18900
H  6.02200 48.80000 42.23000
H  6.32900 45.81500 38.84800
H  4.83100 46.52100 38.37900
H  4.86500 45.17300 39.46500

