158

Mg 1.91200 8.08600 26.36200
C  2.18000 10.16400 29.28800
C  2.37800 5.36300 28.63800
C  2.36900 5.98100 23.74500
C  2.10300 10.73000 24.29700
N  2.17600 7.85100 28.78900
C  2.12800 8.81100 29.69600
C  2.11000 8.21600 31.11300
C  2.46200 6.66100 30.84600
C  2.36400 6.58000 29.33800
C  3.80300 6.04800 31.53800
C  0.85900 8.41600 31.86000
C  0.67500 7.53400 33.12700
H  1.87500 7.30400 34.08700
N  2.17700 5.95500 26.24400
C  2.45300 5.06700 27.23700
C  2.77800 3.71000 26.72500
C  2.60900 3.80300 25.31400
C  2.34000 5.24700 25.02900
C  3.07800 2.56700 27.69400
C  2.71500 2.71000 24.27300
O  2.43600 2.94800 23.10100
C  3.19300 1.28600 24.64900
N  2.00300 8.27600 24.35600
C  2.09000 7.32200 23.38500
C  1.82600 7.87700 21.91000
C  1.59400 9.39800 22.20200
C  1.89200 9.44700 23.68200
C  3.00900 7.52000 21.00100
C  0.13900 9.92100 21.88000
C  0.17300 10.87800 20.67500
N  2.06500 10.01200 26.66200
C  2.14000 11.02100 25.71600
C  2.20700 12.36600 26.41100
C  2.28100 12.09500 27.75500
C  2.08400 10.62500 27.87700
C  2.08600 13.68400 25.83400
C  2.35500 12.67400 29.06800
O  2.51300 13.87600 29.41100
C  2.24400 11.43600 30.10400
C  3.40200 11.45900 31.09500
O  4.60700 11.23200 30.85400
O  2.99300 11.97000 32.24600
C  3.91700 11.92500 33.39800
H  2.62300 4.65600 29.43400
H  2.49900 5.32700 22.87900
H  2.15400 11.60300 23.64300
H  2.85800 8.63400 31.78700
H  1.57500 6.10000 31.14000
H  4.06900 6.71000 32.36200
H  4.59100 5.87400 30.80500
H  3.57100 5.07100 31.96100
H  0.01500 8.10800 31.24300
H  0.72200 9.45300 32.16800
H  0.24900 6.55300 32.91600
H  -0.01800 8.12600 33.72500
H  2.11400 2.07600 27.83100
H  3.54600 2.90100 28.62000
H  3.69500 1.83400 27.17400
H  2.77700 0.94000 25.59500
H  4.26900 1.45900 24.66600
H  3.00500 0.56500 23.85300
H  0.88300 7.40800 21.62900
H  2.40800 9.91400 21.69200
H  3.77200 7.07100 21.63600
H  3.41800 8.38300 20.47600
H  2.80100 6.69300 20.32100
H  -0.23100 10.45500 22.75500
H  -0.46100 9.02200 21.74200
H  1.19100 11.05700 20.32800
H  -0.23900 11.84400 20.96500
H  -0.33200 10.44200 19.81200
H  1.49400 13.41100 24.96000
H  3.03800 14.14700 25.57500
H  1.37500 14.31700 26.36400
H  1.32300 11.40600 30.68600
H  4.51000 11.01100 33.43000
H  3.30500 11.82200 34.29300
H  4.54300 12.81000 33.50600
Mg 34.88800 49.63600 25.58200
C  35.39800 47.63300 28.50800
C  33.28800 52.01300 27.53600
C  34.30400 51.06300 22.77800
C  36.01400 46.75400 23.79400
N  34.39400 49.75200 27.77000
C  34.71900 48.84200 28.79400
C  34.22700 49.42400 30.14500
C  33.39700 50.63200 29.73300
C  33.73800 50.89000 28.27300
C  31.84600 50.52000 30.03400
C  35.48700 49.75100 31.09700
C  35.41300 49.38200 32.54600
H  33.98100 49.51400 33.11900
N  33.96000 51.38200 25.20700
C  33.32200 52.25800 26.12800
C  32.81700 53.36800 25.38000
C  33.17700 53.10200 23.98400
C  33.80100 51.80700 23.92400
C  32.09600 54.51000 26.05600
C  32.98300 54.02400 22.80200
O  33.18000 53.74800 21.61900
C  32.37000 55.45400 22.94300
N  35.16700 49.06700 23.54300
C  34.95200 49.87800 22.57700
C  35.56600 49.51500 21.21600
C  35.93100 48.00200 21.48400
C  35.67900 47.89100 23.05300
C  34.49700 49.59600 20.05500
C  37.40700 47.62800 21.10500
C  38.50400 47.93100 22.08900
N  35.58300 47.63500 25.97300
C  36.03400 46.61800 25.14100
C  36.49600 45.47200 25.95200
C  36.24100 45.89100 27.27300
C  35.71700 47.13300 27.21400
C  37.14700 44.25600 25.45300
C  36.31200 45.44000 28.71800
O  36.69300 44.31900 29.17500
C  35.73700 46.53900 29.55400
C  34.58400 45.99700 30.34000
O  33.46500 45.69400 29.90000
O  34.96600 45.78600 31.63200
C  34.06700 45.01800 32.51200
H  32.93800 52.79500 28.21300
H  34.08400 51.56000 21.83100
H  36.43800 45.92400 23.22500
H  33.58800 48.79200 30.76200
H  33.80600 51.50100 30.24900
H  31.31600 50.80100 29.12400
H  31.66300 51.28600 30.78700
H  31.60900 49.55800 30.48800
H  35.66800 50.82600 31.12100
H  36.31700 49.30000 30.55400
H  36.07000 50.04100 33.11400
H  35.72700 48.33900 32.58300
H  32.41100 55.53300 25.85200
H  32.19600 54.59200 27.13800
H  31.05200 54.52600 25.74200
H  31.99900 55.69700 21.94700
H  33.06600 56.21800 23.28900
H  31.56000 55.32800 23.66100
H  36.44700 50.09200 20.93600
H  35.22200 47.30900 21.03100
H  34.31300 50.66000 19.90600
H  33.63600 49.00900 20.37500
H  34.72500 49.06300 19.13100
H  37.70500 48.17900 20.21300
H  37.55400 46.59000 20.80900
H  38.08500 48.43700 22.95900
H  39.22500 48.67900 21.75800
H  39.10600 47.11100 22.47900
H  37.40800 43.56700 26.25500
H  38.00100 44.49000 24.81800
H  36.40000 43.75000 24.84100
H  36.42400 46.96800 30.28400
H  33.28000 45.65700 32.91400
H  34.63700 44.80100 33.41500
H  33.70900 44.10900 32.02800

