158

Mg -2.12800 17.14900 26.93900
C  -2.69000 15.06600 29.72100
C  -2.28400 19.86900 29.09300
C  -1.90800 19.19800 24.13600
C  -2.63100 14.39200 24.80500
N  -2.54800 17.33200 29.19000
C  -2.52400 16.38900 30.18600
C  -2.63800 17.00000 31.54300
C  -2.52700 18.51300 31.20400
C  -2.43000 18.59900 29.73500
C  -3.75000 19.21300 31.81000
C  -1.59600 16.39600 32.60500
C  -1.20500 17.21900 33.85100
H  -0.95400 16.53800 35.21000
N  -1.88400 19.20700 26.70300
C  -1.97800 20.19300 27.70300
C  -1.74700 21.45400 27.07400
C  -1.55200 21.25100 25.68300
C  -1.66600 19.83900 25.41600
C  -1.78600 22.71600 27.87000
C  -1.25000 22.31300 24.56400
O  -1.13100 21.96300 23.40600
C  -1.21500 23.82900 24.87000
N  -2.34700 16.84100 24.78600
C  -2.25400 17.85700 23.84800
C  -2.62500 17.36200 22.48200
C  -2.61500 15.77400 22.62600
C  -2.56000 15.62900 24.14200
C  -3.85300 18.14800 21.85100
C  -1.46900 15.05400 21.79300
C  -0.11900 15.16400 22.37600
N  -2.43700 15.11500 27.17200
C  -2.65900 14.14700 26.20000
C  -3.01900 12.98000 26.85800
C  -3.08500 13.25300 28.24100
C  -2.66900 14.58800 28.38900
C  -3.29300 11.69900 26.20500
C  -3.28800 12.61200 29.52600
O  -3.56200 11.43800 29.81800
C  -2.92900 13.85400 30.55500
C  -1.73100 13.35800 31.31700
O  -0.57400 13.61800 31.02200
O  -2.01400 12.57900 32.39700
C  -0.85900 12.15500 33.20200
H  -2.23100 20.62500 29.88000
H  -1.96200 19.84200 23.25600
H  -2.84100 13.53100 24.16800
H  -3.66600 16.75100 31.80500
H  -1.67300 18.95600 31.71600
H  -4.66900 18.73100 31.47700
H  -3.72300 20.25200 31.47900
H  -3.59500 19.13200 32.88600
H  -0.71700 16.07700 32.04500
H  -1.86100 15.38700 32.92100
H  -2.13900 17.76200 33.99600
H  -0.34900 17.79400 33.49800
H  -1.87200 22.65600 28.95500
H  -2.70700 23.21600 27.57000
H  -0.98200 23.38100 27.55300
H  -0.21200 24.24300 24.96900
H  -1.87500 24.08600 25.69800
H  -1.62600 24.28300 23.96800
H  -1.72900 17.59300 21.90700
H  -3.59500 15.33200 22.44400
H  -4.14200 19.00900 22.45300
H  -4.73000 17.51700 21.71000
H  -3.62800 18.53900 20.85900
H  -1.44600 15.56000 20.82800
H  -1.80000 14.03400 21.59700
H  -0.04700 15.75400 23.29000
H  0.60400 15.59500 21.68300
H  0.27800 14.17700 22.61200
H  -2.30800 11.23100 26.20200
H  -3.64900 11.78800 25.17800
H  -4.06600 11.24000 26.82000
H  -3.74500 13.79500 31.27400
H  -0.60800 13.03900 33.78900
H  0.05700 11.77700 32.74800
H  -1.28800 11.52000 33.97700
Mg -5.44100 24.62800 25.82600
C  -4.02000 26.05900 28.66400
C  -7.18600 22.52500 27.75900
C  -6.04000 22.85800 23.05300
C  -3.23900 26.82400 23.85600
N  -5.44600 24.23400 28.01400
C  -4.93300 25.02100 28.98000
C  -5.51500 24.69500 30.38400
C  -6.43400 23.40800 30.05800
C  -6.35500 23.34500 28.52400
C  -6.00900 22.06000 30.59900
C  -6.29700 25.84900 31.02900
C  -6.00200 26.08300 32.54600
H  -5.17800 25.02300 33.35000
N  -6.72600 23.01500 25.45100
C  -7.42400 22.33500 26.41300
C  -8.23000 21.32900 25.71000
C  -7.86000 21.41800 24.26300
C  -6.77500 22.42400 24.17600
C  -9.19200 20.43200 26.43300
C  -8.33400 20.64300 23.13500
O  -7.86500 20.77400 22.01500
C  -9.35100 19.63700 23.33000
N  -4.82300 24.90200 23.67600
C  -5.15900 23.90100 22.80400
C  -4.42100 24.10500 21.45800
C  -3.49300 25.33700 21.76900
C  -3.88200 25.75400 23.15400
C  -3.47900 22.97700 20.98000
C  -3.56400 26.45500 20.62500
C  -2.20300 27.12500 20.35000
N  -3.98700 26.10900 26.15300
C  -3.33000 26.97800 25.23800
C  -2.68600 28.03800 25.98200
C  -2.93900 27.67500 27.27900
C  -3.67300 26.46400 27.35100
C  -1.87400 29.17500 25.51500
C  -2.59700 28.06800 28.59800
O  -1.88000 28.96400 29.06600
C  -3.36600 27.12100 29.63800
C  -2.29600 26.48800 30.51000
O  -1.59000 25.55400 30.25300
O  -2.20100 27.23900 31.61300
C  -1.00600 26.95200 32.48200
H  -7.87200 22.01400 28.43800
H  -6.14000 22.15800 22.22100
H  -2.64700 27.49800 23.23300
H  -4.69200 24.42500 31.04700
H  -7.41300 23.63300 30.48100
H  -5.51500 21.29200 30.00500
H  -6.95300 21.67600 30.98500
H  -5.41800 22.19500 31.50500
H  -7.37400 25.68300 30.99900
H  -6.12800 26.77300 30.47600
H  -6.89600 26.25700 33.14500
H  -5.59600 27.09000 32.64300
H  -10.13100 20.29300 25.89800
H  -9.43800 20.91400 27.38000
H  -8.73900 19.45800 26.61800
H  -9.31000 19.02000 22.43300
H  -10.29700 20.17700 23.28000
H  -9.27300 19.04300 24.24100
H  -5.18100 24.29900 20.70100
H  -2.42300 25.12700 21.79500
H  -3.44800 22.30600 21.83800
H  -2.44200 23.18700 20.71800
H  -3.83200 22.45900 20.08700
H  -4.18700 27.26200 21.01100
H  -4.12200 26.11200 19.75400
H  -1.94100 27.26600 19.30200
H  -1.29900 26.59200 20.64500
H  -2.05700 28.12500 20.75900
H  -0.85000 28.83200 25.37100
H  -1.88400 29.97300 26.25800
H  -2.29800 29.52100 24.57200
H  -4.01700 27.69800 30.29500
H  -0.12000 26.66800 31.91500
H  -1.19200 26.16700 33.21600
H  -0.68200 27.90500 32.90000

