158

Mg 1.03600 8.18300 26.33500
C  1.60300 9.96000 29.36200
C  0.94700 5.32800 28.33900
C  0.71900 6.30700 23.56200
C  1.31300 11.06300 24.60900
N  1.24800 7.75000 28.58900
C  1.31500 8.61900 29.64200
C  1.19200 7.95700 30.94800
C  1.39700 6.48700 30.57600
C  1.14400 6.50100 29.07800
C  2.69100 5.78000 30.90100
C  -0.09400 8.41100 31.69200
C  0.01700 8.51800 33.22800
H  1.25400 7.93600 33.95300
N  0.83900 6.07500 26.02400
C  0.85100 5.11900 26.94400
C  0.55300 3.84500 26.28500
C  0.68300 4.11900 24.92500
C  0.74800 5.53800 24.77800
C  0.35400 2.52600 26.99600
C  0.60200 3.12400 23.66900
O  0.60100 3.53000 22.51200
C  0.57200 1.60900 23.86500
N  0.94000 8.60400 24.43000
C  0.82300 7.71300 23.41600
C  0.76300 8.45100 22.01500
C  0.83400 9.96000 22.39500
C  0.99700 9.85900 23.92100
C  1.71400 7.97000 20.87300
C  -0.46500 10.77400 21.91300
C  -1.73400 10.51600 22.74700
N  1.37700 10.10400 26.78600
C  1.51000 11.17100 25.96400
C  1.81800 12.37600 26.77200
C  1.83100 11.89000 28.06100
C  1.55800 10.53600 28.05200
C  2.04400 13.81900 26.21300
C  2.20000 12.28800 29.39000
O  2.57200 13.39800 29.84200
C  1.93400 11.01300 30.31900
C  3.15600 10.67200 31.07900
O  4.09000 9.87100 30.83900
O  3.17900 11.52100 32.18300
C  4.40600 11.54600 33.08100
H  0.82600 4.38700 28.88000
H  0.66400 5.89700 22.55100
H  1.22200 11.95700 23.98800
H  2.11800 8.15800 31.48600
H  0.60200 5.87500 31.00200
H  2.48100 5.07300 31.70300
H  3.45000 6.39800 31.38100
H  3.09700 5.17400 30.09100
H  -0.91200 7.72200 31.47700
H  -0.42800 9.37800 31.31800
H  -0.88000 8.07900 33.66400
H  0.08700 9.59800 33.35700
H  1.34400 2.08400 26.88100
H  -0.43600 1.95200 26.51200
H  0.01800 2.67100 28.02300
H  1.56500 1.18800 24.02300
H  0.31300 1.15500 22.90900
H  -0.13100 1.24800 24.61600
H  -0.26000 8.16900 21.76500
H  1.77900 10.39400 22.06700
H  2.42300 7.22000 21.22700
H  2.27900 8.88100 20.67800
H  1.23000 7.44200 20.05200
H  -0.54800 10.57000 20.84500
H  -0.27700 11.84200 22.02000
H  -1.58400 9.99900 23.69500
H  -2.40200 9.80800 22.25700
H  -2.18500 11.48900 22.94100
H  2.47100 13.72900 25.21400
H  2.76700 14.29800 26.87200
H  1.14300 14.42200 26.09400
H  1.08000 11.19900 30.96900
H  5.29300 11.02000 32.72900
H  4.13100 11.15700 34.06200
H  4.75800 12.57000 33.20800
Mg 53.53400 24.66900 44.89500
C  50.88100 26.72500 43.85000
C  51.62900 21.94900 43.90300
C  56.32500 22.82500 45.00100
C  55.26400 27.60200 45.90700
N  51.60600 24.34400 43.89500
C  50.79200 25.37700 43.43800
C  49.64800 24.82700 42.61500
C  49.60000 23.32400 43.16800
C  51.02000 23.16700 43.83700
C  48.49700 23.04000 44.17800
C  50.00200 24.90000 41.14100
C  48.75100 25.07400 40.24300
H  49.14100 25.84900 38.92400
N  53.94100 22.67200 44.26700
C  52.99600 21.66900 44.10000
C  53.66100 20.43100 44.01200
C  55.02500 20.62100 44.31100
C  55.19400 22.13600 44.48600
C  52.92300 19.13800 43.66000
C  56.05300 19.51700 44.48200
O  55.73900 18.35600 44.21600
C  57.46700 19.83900 44.83400
N  55.52500 25.15500 45.47400
C  56.50100 24.20000 45.40300
C  57.86900 24.86700 45.80800
C  57.64400 26.37600 45.74400
C  56.06300 26.39900 45.72800
C  58.43800 24.35500 47.10500
C  58.27500 27.18500 44.49100
C  58.86200 28.56600 44.83600
N  53.00800 26.72100 45.13500
C  53.81300 27.75100 45.67300
C  53.08100 28.98400 45.58100
C  51.88700 28.61900 44.87200
C  52.00400 27.26000 44.51900
C  53.47300 30.31300 46.08700
C  50.62000 29.15000 44.32500
O  50.14300 30.23000 44.37000
C  50.00300 27.86500 43.50800
C  49.80400 28.26200 42.03600
O  50.71200 28.30300 41.25500
O  48.48900 28.64700 41.85400
C  48.23100 29.15100 40.49500
H  50.95300 21.09200 43.87100
H  57.26800 22.28700 45.12100
H  55.75600 28.56900 46.03000
H  48.64300 25.18400 42.84100
H  49.52100 22.59400 42.36400
H  47.95600 23.97300 44.33900
H  48.81100 22.73300 45.17600
H  47.83600 22.26100 43.79700
H  50.46900 23.95300 40.87100
H  50.74200 25.67600 40.94200
H  48.00600 25.62900 40.81400
H  48.23000 24.15200 39.98600
H  53.05200 18.89900 42.60400
H  51.84200 19.21800 43.77500
H  53.26400 18.21000 44.11900
H  58.17600 19.01300 44.77700
H  57.42900 20.13800 45.88100
H  57.98400 20.60100 44.24900
H  58.62600 24.63700 45.05800
H  58.02700 26.94100 46.59400
H  58.84200 25.23600 47.60400
H  59.13900 23.55500 46.86700
H  57.68000 23.81300 47.67100
H  57.48100 27.35600 43.76400
H  59.07200 26.61800 44.01200
H  59.02500 28.79700 45.88800
H  58.16000 29.35400 44.56000
H  59.80900 28.55000 44.29500
H  54.00700 30.84900 45.30200
H  54.10700 30.30300 46.97300
H  52.55100 30.82200 46.36800
H  49.02600 27.62200 43.92600
H  48.91900 29.05000 39.65600
H  48.01600 30.20900 40.64000
H  47.28800 28.71200 40.16600

