158

Mg 8.70200 4.00600 27.91900
C  9.89600 2.30800 30.90900
C  6.69000 5.81400 30.09700
C  7.39800 5.32300 25.32800
C  10.58800 1.63200 26.08100
N  8.19400 3.75400 30.26100
C  8.93300 3.21200 31.25500
C  8.53500 3.73500 32.70000
C  7.35200 4.70400 32.27400
C  7.46200 4.81800 30.73600
C  5.98900 4.24100 32.76100
C  9.73600 4.46700 33.40000
C  10.19400 3.80100 34.73800
H  10.67600 4.71100 35.83000
N  7.36300 5.49800 27.70900
C  6.61700 6.12200 28.72500
C  5.77600 7.18700 28.11800
C  6.19300 7.24700 26.72200
C  7.02800 5.99000 26.52000
C  4.89100 8.00200 28.93900
C  5.74200 8.21000 25.54600
O  5.95800 8.03700 24.32900
C  4.93200 9.37800 25.88900
N  8.85100 3.41600 25.98500
C  8.18900 4.19400 25.02300
C  8.46600 3.62500 23.65600
C  9.63700 2.57000 23.91200
C  9.76600 2.57100 25.42600
C  7.16600 3.19900 22.90900
C  11.00300 2.87400 23.16000
C  11.70800 1.59500 22.66600
N  10.05600 2.31500 28.34400
C  10.68800 1.45800 27.44500
C  11.51700 0.53800 28.20100
C  11.20100 0.87700 29.55200
C  10.31800 1.94200 29.59300
C  12.56200 -0.50400 27.80200
C  11.74500 0.63800 30.90800
O  12.75700 0.00800 31.26500
C  10.77500 1.48700 31.84900
C  9.90400 0.66400 32.61300
O  9.14300 -0.22600 32.16400
O  10.22700 0.86100 33.97100
C  9.07500 0.29900 34.84800
H  5.96900 6.34000 30.72600
H  6.96000 5.83400 24.46800
H  11.20400 0.94400 25.49900
H  8.23800 2.93800 33.38200
H  7.51300 5.75100 32.52800
H  5.95000 3.16100 32.90400
H  5.25900 4.44200 31.97700
H  5.78900 4.82200 33.66100
H  9.60900 5.53000 33.60500
H  10.65800 4.34600 32.83200
H  11.11400 3.24200 34.56800
H  9.44500 3.12700 35.15300
H  4.02200 7.37400 29.13700
H  4.63600 8.95600 28.47900
H  5.29900 8.32600 29.89700
H  5.58500 10.11700 26.35400
H  4.11200 8.96400 26.47400
H  4.44100 9.82100 25.02200
H  8.85500 4.39200 22.98600
H  9.29400 1.57000 23.64400
H  6.24200 3.56100 23.36100
H  7.10900 2.16100 22.58400
H  7.23000 3.67300 21.92900
H  11.71000 3.39500 23.80600
H  10.85200 3.54600 22.31500
H  12.14800 1.75200 21.68100
H  10.98900 0.77700 22.63000
H  12.38200 1.17100 23.41000
H  12.01300 -1.41900 27.58100
H  13.36100 -0.61000 28.53600
H  13.01500 -0.16500 26.86900
H  11.36600 2.11400 32.51700
H  9.39800 -0.70600 35.11900
H  8.08700 0.28700 34.38800
H  8.99600 0.75800 35.83300
Mg 47.45400 34.80000 25.96700
C  45.54400 33.47300 28.66400
C  48.01700 37.60200 28.03300
C  48.88600 36.25300 23.36700
C  46.46000 32.07000 24.03500
N  46.87200 35.37100 28.14200
C  46.18400 34.63400 29.03700
C  46.40100 35.27100 30.46900
C  46.74500 36.71500 30.15300
C  47.23100 36.58900 28.64400
C  45.71500 37.87100 30.31300
C  47.55500 34.47400 31.10400
C  47.71300 34.60900 32.65100
H  46.60200 35.36300 33.34700
N  48.25000 36.67800 25.74100
C  48.49800 37.62700 26.69500
C  49.46100 38.61600 26.20300
C  49.77600 38.17400 24.88700
C  48.92700 36.98900 24.61500
C  50.04700 39.78400 27.06300
C  50.79000 38.81500 23.83100
O  51.06200 38.17800 22.78000
C  51.30100 40.13300 24.13100
N  47.52500 34.23800 23.94000
C  48.24900 35.05800 23.07900
C  48.24700 34.38900 21.72000
C  47.52900 32.97300 21.91700
C  47.09500 33.08600 23.41700
C  47.64600 35.23600 20.61000
C  48.23100 31.68000 21.51900
C  47.59800 30.87400 20.35300
N  46.24400 33.03400 26.22000
C  45.99900 31.99500 25.35300
C  45.19600 31.07800 26.09800
C  44.93200 31.61600 27.30000
C  45.70500 32.82000 27.40900
C  44.65000 29.74900 25.61000
C  44.26100 31.36000 28.56700
O  43.54700 30.44700 28.96600
C  44.62500 32.60200 29.48500
C  45.25200 31.97000 30.66000
O  46.22500 31.28900 30.69100
O  44.36500 32.05300 31.77200
C  44.87900 31.31800 32.90600
H  48.25400 38.43000 28.70500
H  49.43400 36.76300 22.57200
H  46.08400 31.29700 23.36200
H  45.56900 35.09400 31.15000
H  47.66000 36.87800 30.72100
H  45.65000 38.37800 29.35000
H  46.06600 38.63900 31.00200
H  44.69600 37.66800 30.64500
H  48.49600 34.93900 30.81300
H  47.54100 33.40000 30.91900
H  48.73700 34.91000 32.87300
H  47.52300 33.66500 33.16400
H  49.52200 39.86600 28.01400
H  49.88100 40.71500 26.51900
H  51.12100 39.71200 27.23700
H  51.71500 40.69800 23.29500
H  51.97500 40.05200 24.98400
H  50.60100 40.89600 24.47100
H  49.29600 34.20000 21.49400
H  46.64200 32.95200 21.28300
H  46.83300 34.72200 20.09700
H  48.40200 35.43900 19.85100
H  47.33200 36.15400 21.10600
H  48.29700 30.92200 22.30000
H  49.25400 31.92100 21.22900
H  48.38300 30.54800 19.67100
H  47.03800 31.62100 19.79100
H  46.93700 30.12500 20.78800
H  44.76700 28.90500 26.29000
H  45.04500 29.61100 24.60400
H  43.59400 29.98800 25.48000
H  43.70100 33.14600 29.68000
H  45.74600 31.75700 33.40000
H  45.07000 30.26300 32.71200
H  44.02900 31.34200 33.58900

