158

Mg 1.77300 8.12400 25.29700
C  2.44700 9.93400 28.10800
C  1.66900 5.32300 27.05800
C  1.58800 6.48800 22.38600
C  1.75800 11.20300 23.37600
N  2.21900 7.66200 27.35400
C  2.25000 8.54500 28.38900
C  2.15000 7.90500 29.80200
C  2.08100 6.40800 29.34300
C  1.98000 6.43800 27.81600
C  3.22300 5.51100 29.83500
C  0.83200 8.36000 30.63100
C  0.93400 8.42500 32.21400
H  2.02400 7.59000 32.86800
N  1.63400 6.17800 24.77300
C  1.52800 5.17300 25.66900
C  1.26300 3.91700 24.92800
C  1.30800 4.22400 23.58600
C  1.58600 5.70000 23.54900
C  0.90400 2.60800 25.66300
C  1.00700 3.39600 22.41100
O  0.85700 3.80200 21.22200
C  0.94600 1.87200 22.55800
N  1.71300 8.75800 23.16100
C  1.65300 7.83500 22.18800
C  1.52400 8.49100 20.78600
C  1.36600 9.97900 21.15200
C  1.65900 10.00600 22.65400
C  2.74400 8.19000 19.86100
C  -0.05200 10.60500 20.81900
C  0.02300 11.50500 19.58400
N  1.97900 10.18900 25.59100
C  2.03400 11.31500 24.72400
C  2.22100 12.51600 25.57800
C  2.43100 11.99400 26.86100
C  2.32400 10.59300 26.85400
C  2.18500 13.94200 25.06900
C  2.73000 12.36600 28.27700
O  3.01800 13.44800 28.76000
C  2.72400 11.00700 29.10600
C  3.92500 10.91100 29.94500
O  4.99900 10.42500 29.54800
O  3.67500 11.32900 31.27000
C  4.86400 11.47500 32.15600
H  1.61900 4.40400 27.64600
H  1.64400 5.91800 21.45600
H  1.84300 12.15300 22.84400
H  3.04500 8.03100 30.41200
H  1.15900 5.96500 29.71900
H  2.98300 4.54500 30.28000
H  3.75300 6.02500 30.63600
H  3.93700 5.44000 29.01400
H  -0.00000 7.67900 30.45300
H  0.50300 9.29500 30.17800
H  -0.02500 8.07400 32.59400
H  1.15500 9.46700 32.44500
H  -0.14400 2.44300 25.41000
H  0.76300 2.63700 26.74400
H  1.54000 1.80700 25.28800
H  1.77400 1.37400 23.06400
H  0.91400 1.34200 21.60700
H  0.05400 1.53200 23.08400
H  0.64800 8.11400 20.25800
H  2.17900 10.55500 20.71100
H  2.58000 7.35400 19.18100
H  3.64700 8.03300 20.45100
H  2.88900 9.02000 19.16900
H  -0.29000 11.20500 21.69700
H  -0.87000 9.92700 20.57600
H  0.89700 11.42800 18.93700
H  0.02800 12.49500 20.03900
H  -0.88800 11.48000 18.98600
H  1.49700 13.97600 24.22500
H  3.16900 14.22200 24.69200
H  1.80400 14.64600 25.81000
H  1.78400 11.10900 29.64900
H  4.69200 12.32600 32.81400
H  5.81800 11.58000 31.63900
H  4.92900 10.55000 32.73000
Mg 47.78900 34.58700 27.00200
C  45.99900 32.98200 29.59500
C  47.95500 37.35400 29.06400
C  49.22100 35.97400 24.50600
C  46.99600 31.76600 24.99100
N  46.94700 35.08700 29.12200
C  46.48800 34.23400 30.01600
C  46.39600 34.88400 31.38600
C  46.68800 36.39300 31.09400
C  47.16600 36.35000 29.63400
C  45.49900 37.33500 31.27400
C  47.49400 34.25700 32.27500
C  47.04700 33.87100 33.71300
H  47.68700 34.76700 34.77000
N  48.40300 36.50700 26.70700
C  48.54500 37.45800 27.73300
C  49.28700 38.60100 27.15500
C  49.63600 38.23100 25.82200
C  49.07700 36.84000 25.61900
C  49.50600 39.84800 27.88700
C  50.45200 38.98700 24.80600
O  50.65900 38.57900 23.66800
C  51.00100 40.42600 25.10100
N  47.92900 33.91000 24.92500
C  48.69300 34.73000 24.09800
C  49.01300 33.96300 22.73000
C  48.32200 32.60300 22.99200
C  47.74800 32.73000 24.37500
C  48.47300 34.68300 21.45700
C  49.22400 31.29300 22.93100
C  48.61400 30.04900 22.21400
N  46.71700 32.78600 27.18700
C  46.44100 31.81800 26.26400
C  45.55800 30.81200 26.87800
C  45.47600 31.19800 28.20500
C  46.15100 32.41700 28.34200
C  45.04800 29.49500 26.23200
C  44.90200 30.80200 29.49000
O  44.19700 29.82200 29.79800
C  45.05700 32.08000 30.37000
C  45.58500 31.46900 31.59200
O  46.75300 31.12800 31.76300
O  44.54100 31.36000 32.52000
C  44.82400 30.97500 33.89000
H  48.02900 38.22100 29.72200
H  49.84800 36.30700 23.67600
H  46.87800 30.84400 24.41900
H  45.37800 34.78500 31.76300
H  47.39600 36.78700 31.82200
H  45.75300 38.31300 31.68200
H  44.69700 36.93000 31.89100
H  45.01900 37.50800 30.31100
H  48.36500 34.90900 32.34000
H  47.89700 33.31800 31.89500
H  47.54700 32.91700 33.88100
H  45.99000 33.67700 33.89200
H  49.26500 39.77100 28.94700
H  48.98600 40.69600 27.44100
H  50.55000 40.15000 27.80600
H  51.53500 40.77400 24.21700
H  51.73600 40.31500 25.89800
H  50.20100 41.07800 25.45300
H  50.07200 33.75400 22.57600
H  47.34600 32.56600 22.50800
H  48.11200 35.62700 21.86600
H  47.69500 34.10600 20.95600
H  49.32200 35.01400 20.85900
H  49.31700 30.85000 23.92300
H  50.17400 31.60100 22.49500
H  49.35500 29.48700 21.64400
H  47.76800 30.19500 21.54300
H  48.23900 29.33800 22.95000
H  44.05400 29.73400 25.85400
H  44.89300 28.75200 27.01400
H  45.84800 29.14000 25.58300
H  44.05800 32.48200 30.53700
H  45.91300 30.94500 33.94300
H  44.47100 30.04200 34.33000
H  44.43600 31.71900 34.58600

