158

Mg 26.69100 51.83500 25.70700
C  24.15900 52.46400 27.90700
C  28.78000 51.06200 28.37700
C  29.15200 51.43300 23.51100
C  24.52600 52.74300 23.08900
N  26.53800 51.91500 27.86700
C  25.37800 52.07200 28.52000
C  25.50300 51.66800 30.01700
C  27.01400 51.38500 30.12800
C  27.49300 51.46700 28.69000
C  27.77900 52.21100 31.25400
C  24.51600 50.50400 30.51800
C  24.84500 49.74700 31.85700
H  23.84400 49.79700 33.07100
N  28.70000 51.34700 25.87700
C  29.32600 51.10800 27.06300
C  30.71800 50.71200 26.68200
C  30.90200 50.93100 25.29400
C  29.55100 51.26100 24.81200
C  31.73500 50.19700 27.71200
C  32.14000 50.78800 24.39700
O  32.15300 51.04400 23.21400
C  33.28200 50.11800 24.94100
N  26.77800 51.96600 23.56300
C  27.91200 51.71500 22.90900
C  27.70500 51.74800 21.34900
C  26.21000 52.03300 21.14200
C  25.79300 52.28300 22.67100
C  28.62800 52.70900 20.46300
C  25.44000 50.77700 20.52600
C  24.33300 51.14400 19.45600
N  24.78200 52.57000 25.46200
C  23.98800 52.78100 24.38600
C  22.69900 53.23000 24.83300
C  22.64700 53.10000 26.23600
C  23.96000 52.74000 26.53200
C  21.65800 53.77100 23.93700
C  21.88600 53.24600 27.42600
O  20.76100 53.71900 27.64600
C  22.79600 52.78200 28.55300
C  22.90400 53.86300 29.49700
O  23.29400 54.99600 29.18500
O  22.44100 53.47800 30.69100
C  22.54600 54.31600 31.83600
H  29.39800 50.79000 29.23600
H  29.93100 51.23400 22.77300
H  23.73400 52.78500 22.33800
H  25.27900 52.59000 30.55300
H  27.13300 50.38200 30.53700
H  28.22400 53.07700 30.76300
H  28.60600 51.64000 31.67500
H  27.05300 52.48500 32.02000
H  24.45200 49.85500 29.64500
H  23.61200 51.05300 30.78100
H  25.66200 50.35500 32.24500
H  25.07200 48.69400 31.68900
H  32.70500 50.66200 27.53500
H  31.91400 49.12200 27.67700
H  31.43500 50.45800 28.72700
H  33.94100 49.66800 24.19800
H  32.85500 49.29200 25.51000
H  33.71300 50.79800 25.67600
H  27.91000 50.72900 21.02000
H  26.04000 52.97500 20.62000
H  28.08800 53.63000 20.24300
H  28.93800 52.14300 19.58400
H  29.47500 53.05300 21.05500
H  24.96400 50.20200 21.32000
H  26.12900 50.05600 20.08500
H  24.38700 50.56700 18.53300
H  24.28300 52.19100 19.15500
H  23.34300 50.99900 19.88900
H  20.76300 53.71200 24.55600
H  21.57700 53.25200 22.98100
H  21.97500 54.78200 23.68200
H  22.33600 51.88700 28.97100
H  23.36600 53.87000 32.39900
H  21.63400 54.21500 32.42500
H  22.62900 55.33400 31.45500
Mg 7.71100 53.85700 40.03300
C  7.25500 50.46600 40.15400
C  11.00500 53.50600 39.05400
C  7.84900 57.17600 39.36500
C  4.12800 54.19900 40.68300
N  8.97200 52.14400 39.60500
C  8.54700 50.82000 39.65800
C  9.76000 49.88700 39.36700
C  10.98700 50.85000 39.37700
C  10.29600 52.26100 39.34600
C  12.04100 50.61800 40.42000
C  9.54300 49.13600 37.99900
C  9.36000 49.99100 36.71300
H  8.31400 49.50200 35.66900
N  9.26400 55.19000 39.33600
C  10.49000 54.83400 38.91100
C  11.18000 55.98700 38.58500
C  10.35100 57.10000 38.66700
C  9.11400 56.54200 39.15700
C  12.66400 55.84800 38.15800
C  10.71100 58.51500 38.20400
O  11.85000 58.72100 37.78300
C  9.77600 59.66300 38.30900
N  6.20100 55.45100 40.06400
C  6.59000 56.73900 39.84000
C  5.37200 57.73200 40.00400
C  4.25500 56.71400 40.50700
C  4.87600 55.36200 40.36100
C  5.57800 59.08900 40.78600
C  2.79400 56.91300 39.92600
C  1.62200 56.98100 40.98500
N  5.96300 52.58500 40.44600
C  4.64700 52.85900 40.68400
C  3.99700 51.54300 40.95900
C  5.00200 50.63100 40.80500
C  6.15000 51.25600 40.38300
C  2.58400 51.39600 41.53100
C  5.26000 49.21700 40.95600
O  4.57000 48.28300 41.33200
C  6.73000 49.03600 40.48600
C  6.64100 48.14000 39.30600
O  6.12000 48.31300 38.22700
O  7.19900 46.94900 39.62300
C  6.77900 45.77200 38.84000
H  12.07300 53.37200 38.86700
H  8.00900 58.25600 39.31800
H  3.12600 54.49600 40.99800
H  9.78600 49.14900 40.16800
H  11.50300 50.81700 38.41700
H  12.91800 50.40500 39.80800
H  11.76200 49.68400 40.90700
H  12.26100 51.40200 41.14400
H  8.83900 48.31100 38.10600
H  10.48600 48.59900 37.89100
H  10.33200 49.95300 36.22200
H  9.10100 51.03500 36.89200
H  12.68800 56.06000 37.08900
H  13.12600 54.91500 38.48100
H  13.12700 56.64300 38.74200
H  9.60200 59.82500 39.37200
H  8.88200 59.51400 37.70300
H  10.29500 60.49500 37.83300
H  5.05700 58.03800 39.00700
H  4.28000 56.79400 41.59300
H  4.76300 59.22800 41.49700
H  5.49100 59.93700 40.10600
H  6.50900 59.09000 41.35400
H  2.60200 56.08400 39.24400
H  2.75500 57.80400 39.29900
H  1.03200 57.85600 40.71600
H  1.99700 57.11200 42.00000
H  0.91600 56.15300 41.05000
H  2.17100 52.38800 41.71800
H  2.78500 50.94600 42.50300
H  1.94300 50.77600 40.90500
H  7.31700 48.55900 41.27100
H  6.69300 44.95700 39.55800
H  7.57900 45.37500 38.21500
H  5.88400 45.95000 38.24400

