158

Mg 9.07000 3.78500 27.86600
C  10.42700 2.08300 30.75400
C  7.58200 6.04400 29.95200
C  7.20700 4.68600 25.23600
C  10.24500 0.97000 25.91600
N  8.83200 3.82500 30.11600
C  9.54300 3.15200 31.08500
C  9.45200 3.84700 32.45300
C  8.28700 4.92100 32.21300
C  8.25600 4.93200 30.66600
C  6.87700 4.59400 32.78800
C  10.81600 4.53700 32.94300
C  11.26200 4.02000 34.29500
H  10.21300 3.73100 35.38500
N  7.68900 5.18700 27.61800
C  7.32300 6.14300 28.53300
C  6.44500 7.16000 27.90600
C  6.26600 6.72100 26.56400
C  7.02700 5.45800 26.42200
C  5.89200 8.33400 28.63900
C  5.38100 7.35200 25.46600
O  5.19200 6.78900 24.37300
C  4.85300 8.64100 25.65900
N  8.66900 2.90500 25.93500
C  7.98900 3.60500 24.96500
C  8.08400 3.05800 23.58300
C  9.20100 1.91900 23.79800
C  9.38300 1.89400 25.31600
C  6.76100 2.53100 22.97300
C  10.60200 2.29400 23.12100
C  11.39700 3.35200 23.89100
N  10.28800 2.00500 28.16500
C  10.61800 0.90400 27.30600
C  11.38300 -0.08700 28.04300
C  11.39800 0.42900 29.35500
C  10.68100 1.63200 29.39700
C  11.80800 -1.35100 27.50400
C  11.84000 0.09300 30.71200
O  12.44200 -0.83300 31.25200
C  11.34700 1.28600 31.68200
C  10.59500 0.60200 32.79100
O  9.41400 0.27100 32.68900
O  11.30600 0.41200 34.00000
C  10.50700 -0.22200 35.13600
H  7.14100 6.75500 30.65300
H  6.82400 5.24500 24.37900
H  10.54600 0.19000 25.21400
H  9.16700 3.08400 33.17800
H  8.64100 5.85800 32.64400
H  6.40700 5.50900 33.14900
H  6.94000 3.84900 33.58100
H  6.23500 4.18400 32.00800
H  11.00200 5.61100 32.94300
H  11.59600 4.20000 32.26100
H  11.85100 4.76100 34.83600
H  11.93300 3.19700 34.04600
H  6.30000 8.45300 29.64300
H  4.82600 8.12900 28.73200
H  6.09500 9.24500 28.07700
H  5.80500 9.16900 25.72800
H  4.20000 8.79200 26.51800
H  4.26400 8.95100 24.79600
H  8.45100 3.68900 22.77300
H  8.95800 0.96800 23.32500
H  5.90200 2.57700 23.64200
H  6.87000 1.45400 22.85300
H  6.50900 3.04100 22.04300
H  10.45900 2.60600 22.08600
H  11.13400 1.34800 23.22500
H  10.71100 4.06400 24.35100
H  12.01400 3.94900 23.21900
H  11.92700 2.79800 24.66600
H  12.83900 -1.32200 27.15300
H  11.24500 -1.62200 26.61100
H  11.78200 -2.13300 28.26400
H  12.24200 1.78600 32.05300
H  11.22600 -0.35800 35.94300
H  10.09600 -1.17700 34.81000
H  9.71700 0.46100 35.45000
Mg 26.01800 -0.66500 29.64800
C  28.09100 -0.61700 32.49500
C  23.41900 0.32100 31.56700
C  24.04600 -0.77800 26.92100
C  28.76000 -1.77300 27.78000
N  25.77300 -0.26400 31.74100
C  26.74100 -0.29900 32.78000
C  26.17500 0.03000 34.16600
C  24.59200 0.20900 33.79400
C  24.56800 0.07800 32.25700
C  23.54900 -0.76500 34.46500
C  26.77800 1.22800 34.93500
C  25.94400 1.72800 36.15800
H  26.68800 2.19300 37.40600
N  23.99500 -0.20700 29.28300
C  23.07600 0.16400 30.21100
C  21.79400 0.35700 29.59500
C  21.89000 -0.03100 28.25100
C  23.33900 -0.40100 28.03800
C  20.57200 0.79900 30.38200
C  20.77200 -0.10800 27.10000
O  21.06300 -0.35300 25.93100
C  19.35600 0.15700 27.45400
N  26.34800 -1.30200 27.66300
C  25.40700 -1.10600 26.71000
C  25.96900 -1.40800 25.29100
C  27.49200 -1.60900 25.57100
C  27.54900 -1.50200 27.11400
C  25.45000 -2.67400 24.59100
C  28.35000 -0.40900 24.90800
C  29.72600 -0.62600 24.29100
N  28.03700 -1.12600 30.01900
C  29.00900 -1.65500 29.13500
C  30.25600 -1.75000 29.87700
C  29.88800 -1.27800 31.20600
C  28.51100 -1.05100 31.22300
C  31.58000 -2.21000 29.25400
C  30.51100 -0.93100 32.47200
O  31.67100 -0.98000 32.90800
C  29.29300 -0.57500 33.40500
C  29.23800 -1.51500 34.51100
O  28.77200 -2.61200 34.36100
O  29.78500 -0.97900 35.63700
C  29.51500 -1.65800 36.89700
H  22.64500 0.77700 32.18700
H  23.44200 -0.77000 26.01100
H  29.49000 -2.21600 27.10000
H  26.28900 -0.84400 34.80700
H  24.30200 1.23800 34.00600
H  23.78400 -1.03800 35.49300
H  23.44100 -1.66000 33.85300
H  22.55900 -0.31000 34.40700
H  26.84500 2.03300 34.20300
H  27.74600 0.95900 35.35600
H  25.28700 0.89600 36.41300
H  25.47300 2.62900 35.76300
H  20.89700 1.06400 31.38800
H  19.86400 -0.00800 30.57500
H  20.00200 1.59500 29.90200
H  19.03900 -0.61600 28.15300
H  18.68400 0.00400 26.60900
H  19.15700 1.17000 27.80200
H  25.77600 -0.57700 24.61100
H  27.92300 -2.56000 25.25700
H  24.56000 -3.09200 25.06300
H  26.15300 -3.50400 24.52400
H  25.10100 -2.49300 23.57400
H  28.37900 0.38000 25.66000
H  27.78200 0.05700 24.10300
H  30.41100 0.03900 24.81800
H  29.77800 -0.39500 23.22700
H  29.94500 -1.68700 24.40400
H  31.55700 -2.73000 28.29700
H  32.09100 -2.90800 29.91800
H  32.15400 -1.31100 29.02900
H  29.36200 0.39800 33.89200
H  30.47700 -2.02100 37.26100
H  28.87900 -2.54200 36.85400
H  29.09700 -0.89000 37.54700

