158

Mg 34.43600 3.58400 29.48300
C  32.27500 4.52700 32.10400
C  36.98300 3.37600 31.74700
C  36.59300 3.21000 26.99100
C  31.95800 4.26500 27.18500
N  34.58600 3.83000 31.65900
C  33.56900 4.24800 32.57100
C  34.05900 4.21200 34.03500
C  35.64800 4.05500 33.85300
C  35.73600 3.69400 32.35700
C  36.59400 5.26200 34.18900
C  33.34000 3.08800 34.85000
C  33.01700 3.31200 36.32700
H  34.07800 4.11500 37.05700
N  36.43100 3.14000 29.40100
C  37.31000 2.96000 30.46200
C  38.57800 2.49700 29.97900
C  38.52900 2.50100 28.56800
C  37.11900 2.94200 28.26300
C  39.64600 1.97400 30.88100
C  39.59500 2.28900 27.52900
O  39.43000 2.31300 26.30300
C  40.98200 1.98300 27.94100
N  34.30200 3.84000 27.30000
C  35.32200 3.61000 26.50100
C  34.91300 3.79900 25.04100
C  33.36100 3.92200 25.10500
C  33.16500 3.95200 26.61700
C  35.74500 4.82600 24.14800
C  32.60500 2.77600 24.44200
C  31.18900 3.14300 24.02800
N  32.46900 4.18900 29.61700
C  31.60200 4.37400 28.55700
C  30.33200 4.74400 29.12700
C  30.55300 4.88900 30.50400
C  31.84000 4.39500 30.76900
C  29.07900 5.12100 28.36800
C  29.96900 5.33200 31.79800
O  28.84800 5.78000 32.07800
C  31.05100 5.02800 32.86200
C  31.29200 6.34500 33.71000
O  31.87400 7.35100 33.34200
O  30.74500 6.16200 35.01100
C  30.66300 7.33900 35.86600
H  37.74700 3.12700 32.48700
H  37.22000 2.90100 26.15200
H  31.17800 4.65500 26.52900
H  33.80200 5.18100 34.46400
H  35.95400 3.17100 34.41200
H  37.28500 4.95900 34.97500
H  36.04500 6.09100 34.63400
H  37.10600 5.51400 33.26000
H  33.95300 2.18700 34.85100
H  32.40400 2.86400 34.33700
H  32.88000 2.34500 36.81000
H  32.00900 3.71600 36.41800
H  40.16800 1.12600 30.43800
H  39.15800 1.58000 31.77300
H  40.41600 2.72900 31.04100
H  41.70100 2.39100 27.23000
H  41.11300 0.91000 28.08100
H  41.32400 2.36600 28.90300
H  35.32800 2.88900 24.60700
H  33.06700 4.92100 24.78300
H  36.44100 4.31500 23.48300
H  36.32100 5.50600 24.77600
H  35.17900 5.41000 23.42400
H  32.50200 1.94000 25.13300
H  33.05300 2.33100 23.55400
H  30.98700 3.31400 22.97000
H  30.79600 3.96600 24.62500
H  30.60200 2.26600 24.30000
H  28.96900 4.58400 27.42600
H  28.91000 6.17300 28.14100
H  28.21200 4.72600 28.89800
H  30.71700 4.20600 33.49500
H  29.59500 7.37900 36.08000
H  31.06900 8.27700 35.48700
H  31.33200 7.10700 36.69500
Mg -12.80700 17.22100 40.46900
C  -9.85400 15.38200 39.96700
C  -11.01500 20.06800 39.40600
C  -15.77300 18.89200 39.99900
C  -14.54900 14.18100 40.70800
N  -10.68000 17.66200 39.66500
C  -9.65900 16.72900 39.61500
C  -8.26700 17.33500 39.14200
C  -8.59600 18.83300 39.22000
C  -10.14400 18.89100 39.45100
C  -7.79900 19.45100 40.39400
C  -7.80600 16.82000 37.75400
C  -6.35000 16.44900 37.70800
H  -5.67500 16.56300 36.37200
N  -13.28300 19.24400 39.77900
C  -12.43700 20.24200 39.44900
C  -13.21200 21.46700 39.14900
C  -14.58400 21.16500 39.19500
C  -14.59900 19.70000 39.72200
C  -12.56800 22.73400 38.75000
C  -15.81100 22.02200 38.80400
O  -15.58700 23.16900 38.36000
C  -17.17800 21.55500 38.86600
N  -14.87700 16.65400 40.53400
C  -15.90100 17.51000 40.31500
C  -17.18800 16.86100 40.56200
C  -16.78600 15.32400 40.70200
C  -15.31300 15.35200 40.57300
C  -17.91400 17.43200 41.79400
C  -17.47300 14.36500 39.74600
C  -18.04500 13.07400 40.43400
N  -12.34300 15.20500 40.43900
C  -13.16100 14.07500 40.63700
C  -12.27200 12.90300 40.73300
C  -11.02400 13.37800 40.42700
C  -11.06000 14.82000 40.31600
C  -12.72500 11.49500 41.14400
C  -9.64700 12.95100 40.33000
O  -9.10200 11.87900 40.53800
C  -8.85100 14.27400 40.01700
C  -7.90000 14.43600 41.18500
O  -8.01100 14.37600 42.42000
O  -6.68600 14.38200 40.56500
C  -5.51500 14.20800 41.43900
H  -10.46200 21.00200 39.28400
H  -16.77700 19.27200 39.79600
H  -15.08000 13.28800 41.04500
H  -7.53700 16.98000 39.86900
H  -8.26700 19.25500 38.27000
H  -8.47100 19.68300 41.22000
H  -7.30300 20.30900 39.94100
H  -6.93100 18.86100 40.68900
H  -8.13600 17.50600 36.97400
H  -8.33700 15.90600 37.48900
H  -6.29900 15.41100 38.03800
H  -5.78000 17.09800 38.37200
H  -11.59100 22.82900 39.22300
H  -13.13100 23.64300 38.95900
H  -12.52300 22.75600 37.66100
H  -17.39300 21.17600 39.86600
H  -17.17300 20.73900 38.14400
H  -17.88100 22.31100 38.51600
H  -17.80200 16.97200 39.66800
H  -16.87700 14.88400 41.69500
H  -17.51200 18.33200 42.26000
H  -18.01300 16.66400 42.56100
H  -18.88900 17.75500 41.43000
H  -16.73500 13.87800 39.10900
H  -18.29000 14.78900 39.16200
H  -19.11400 13.22100 40.59000
H  -17.57900 12.87700 41.40000
H  -17.90800 12.21900 39.77100
H  -13.75000 11.22800 40.88600
H  -12.77500 11.52100 42.23200
H  -12.04700 10.71700 40.79300
H  -8.29500 14.19000 39.08300
H  -5.67200 13.44700 42.20300
H  -5.20500 15.18800 41.80300
H  -4.69800 13.74900 40.88200

