158

Mg 8.72300 3.55600 27.07300
C  10.34100 2.16400 29.78500
C  6.90700 5.50400 29.33600
C  7.56600 5.14400 24.51400
C  10.39000 1.25100 25.03700
N  8.44900 3.60400 29.37800
C  9.32100 2.99900 30.21700
C  9.02700 3.51400 31.60600
C  7.84300 4.51800 31.46100
C  7.71800 4.56900 30.00400
C  6.46500 4.19800 32.08500
C  10.28500 4.18100 32.32400
C  9.86000 4.47300 33.83400
H  10.86600 4.17100 35.00200
N  7.33100 5.16600 26.93200
C  6.73800 5.85200 27.98300
C  5.86700 6.78100 27.37400
C  6.12400 6.83600 25.98000
C  7.07300 5.71400 25.74400
C  4.76400 7.47600 28.18800
C  5.50900 7.80400 24.92000
O  5.77600 7.73500 23.72700
C  4.61300 8.93100 25.46900
N  8.91500 3.25200 25.04700
C  8.38300 4.04200 24.16900
C  8.59700 3.63100 22.65700
C  9.59900 2.37900 22.87300
C  9.62700 2.28600 24.40100
C  7.31800 3.16900 21.85900
C  11.06900 2.61100 22.34900
C  11.75400 1.37700 21.71200
N  9.90000 1.84400 27.28300
C  10.54400 1.06400 26.42400
C  11.44400 0.10600 27.08500
C  11.40400 0.54600 28.36300
C  10.37400 1.60100 28.48400
C  12.21200 -1.01600 26.52400
C  11.95700 0.37600 29.68400
O  12.76300 -0.47500 30.02000
C  11.27800 1.38700 30.66600
C  10.66000 0.54800 31.66500
O  9.64500 -0.15600 31.44200
O  11.20400 0.83300 32.86900
C  10.47200 0.38000 34.06200
H  6.30300 6.10800 30.01700
H  7.11600 5.65100 23.65800
H  10.72800 0.40800 24.43000
H  8.65200 2.75900 32.29700
H  8.02500 5.51500 31.86200
H  5.79100 3.79600 31.32900
H  5.84100 5.00800 32.46200
H  6.58500 3.63100 33.00900
H  10.40500 5.12900 31.79900
H  11.19400 3.58700 32.22900
H  8.94200 3.96900 34.13800
H  9.64900 5.54100 33.88200
H  5.29500 8.40000 28.41800
H  4.58200 7.01900 29.16100
H  3.80700 7.65000 27.69600
H  3.54700 8.82100 25.66800
H  4.61800 9.69600 24.69200
H  5.21500 9.43300 26.22600
H  9.08200 4.53100 22.28000
H  9.14400 1.50800 22.40200
H  6.51700 3.28900 22.58900
H  7.30600 2.11300 21.59100
H  7.13000 3.78200 20.97700
H  11.70200 2.99400 23.14900
H  11.05700 3.43500 21.63500
H  12.72200 1.25800 22.20000
H  11.92700 1.55000 20.65000
H  11.15300 0.47000 21.78100
H  11.90800 -1.92100 27.05000
H  13.26700 -0.84000 26.73400
H  12.23400 -1.05400 25.43400
H  12.16300 1.89000 31.05600
H  11.04000 -0.24700 34.74900
H  9.64500 -0.26300 33.75900
H  10.08800 1.22000 34.64200
Mg 43.10100 3.69100 47.70600
C  41.58200 6.76100 47.78300
C  40.03500 2.11000 47.31100
C  44.71900 0.83000 47.00200
C  46.29500 5.53000 47.57600
N  41.04400 4.40500 47.47600
C  40.60900 5.65700 47.65800
C  39.03400 5.77900 47.74900
C  38.63500 4.27700 47.64300
C  39.95800 3.54200 47.47100
C  37.66500 3.81000 48.72700
C  38.36000 6.70400 46.67700
C  39.12300 6.73800 45.27000
H  38.25800 6.46700 44.02700
N  42.44700 1.77300 47.25700
C  41.18700 1.31500 47.22100
C  41.14400 -0.13300 46.96700
C  42.50600 -0.48500 46.86600
C  43.30700 0.71800 47.07100
C  39.84500 -1.00400 46.79000
C  43.01700 -1.90200 46.52300
O  42.20500 -2.81200 46.19500
C  44.43700 -2.29800 46.72400
N  45.16600 3.27500 47.33200
C  45.55500 1.95400 47.20700
C  47.12700 1.90300 47.13500
C  47.60200 3.35300 47.21900
C  46.28900 4.11700 47.53100
C  47.80200 0.82400 48.07000
C  48.40900 3.89000 46.03500
C  49.76000 4.45700 46.51100
N  43.81400 5.70100 47.65500
C  45.10500 6.29700 47.62400
C  44.96700 7.73100 47.78200
C  43.59200 7.99000 47.86200
C  42.94400 6.75400 47.77900
C  46.08100 8.69600 47.85400
C  42.58800 9.03000 48.12600
O  42.61600 10.21600 48.41800
C  41.25200 8.23900 47.94200
C  40.46200 8.41300 49.10600
O  40.46900 7.70800 50.15400
O  39.47900 9.33400 48.79600
C  38.39600 9.38300 49.78000
H  39.09000 1.56900 47.39700
H  45.39400 -0.00200 46.79200
H  47.22700 6.09800 47.55500
H  38.66900 6.23600 48.66900
H  38.16000 4.33200 46.66400
H  37.46900 4.61000 49.44100
H  38.14900 2.98700 49.25400
H  36.73700 3.60200 48.19400
H  38.21400 7.72200 47.03900
H  37.36000 6.42700 46.34300
H  39.84900 5.93600 45.14100
H  39.63500 7.69300 45.15600
H  39.41400 -0.92800 45.79200
H  39.09800 -0.69300 47.52000
H  39.97100 -2.07500 46.94600
H  45.00600 -1.88700 47.55800
H  44.96900 -2.12500 45.78800
H  44.36900 -3.38200 46.81400
H  47.34700 1.60900 46.10900
H  48.14500 3.39700 48.16300
H  48.70200 1.16700 48.58000
H  47.92700 -0.04900 47.43000
H  46.98800 0.61200 48.76300
H  47.92100 4.72700 45.53500
H  48.57300 3.07900 45.32500
H  50.46100 3.79000 46.00900
H  49.97500 4.46300 47.57900
H  49.79800 5.46400 46.09400
H  46.38200 8.88800 48.88400
H  45.70900 9.65200 47.48600
H  46.85100 8.47800 47.11400
H  40.78800 8.67900 47.06000
H  38.23500 8.42800 50.28100
H  37.53200 9.58400 49.14700
H  38.66100 10.20900 50.44000

