158

Mg 9.91400 47.36500 26.13500
C  7.85700 47.60000 29.02000
C  12.49100 48.87300 27.83400
C  11.77900 47.20000 23.35700
C  7.08000 46.52500 24.31200
N  10.15700 48.08600 28.26700
C  9.16400 48.09100 29.25400
C  9.86600 48.61000 30.60800
C  11.09800 49.43400 30.07100
C  11.29800 48.81200 28.61300
C  10.93200 50.98500 30.05300
C  10.32800 47.33900 31.43900
C  10.69400 47.52200 32.95000
H  10.39700 46.43800 34.01400
N  11.93700 47.75900 25.74500
C  12.81000 48.37500 26.60100
C  14.07200 48.56700 25.88200
C  13.83000 48.01000 24.58800
C  12.48400 47.61800 24.49900
C  15.31000 49.18400 26.53300
C  14.84700 47.81300 23.40500
O  14.60900 47.18600 22.32000
C  16.21500 48.30600 23.56000
N  9.52600 46.91700 24.08200
C  10.42200 46.95800 23.14000
C  9.82200 46.57500 21.70700
C  8.31200 46.40100 22.09900
C  8.31100 46.62100 23.58000
C  9.96000 47.69600 20.71900
C  7.58800 45.12300 21.56400
C  6.05700 45.22600 21.25100
N  7.81500 47.12200 26.51100
C  6.79500 46.71700 25.66300
C  5.62500 46.50100 26.45100
C  5.97600 46.82000 27.78800
C  7.28700 47.24100 27.73900
C  4.25100 46.16700 25.80500
C  5.45900 46.96800 29.15200
O  4.35600 46.73800 29.61600
C  6.69300 47.38200 30.05500
C  6.98100 46.21500 30.91500
O  7.36200 45.14600 30.48300
O  6.75000 46.52600 32.23700
C  6.97300 45.44800 33.20000
H  13.25600 49.42500 28.38400
H  12.18400 47.29100 22.34600
H  6.21100 46.20000 23.73500
H  9.21400 49.27100 31.17900
H  12.00700 49.25700 30.64500
H  11.16900 51.48700 29.11500
H  11.59900 51.44400 30.78200
H  10.00100 51.33100 30.50100
H  11.21500 46.99100 30.91000
H  9.65100 46.49400 31.31100
H  10.26900 48.47600 33.26300
H  11.77600 47.62900 33.03100
H  15.12500 49.69200 27.48000
H  15.91200 49.87400 25.94300
H  15.91100 48.32800 26.83900
H  16.28200 49.35000 23.87000
H  16.76100 48.29000 22.61700
H  16.64200 47.63500 24.30600
H  10.16200 45.57600 21.43500
H  7.74900 47.26900 21.75600
H  10.12300 48.62300 21.26900
H  9.07300 47.88100 20.11200
H  10.86100 47.50300 20.13700
H  7.64800 44.38100 22.36000
H  8.13800 44.66500 20.74100
H  5.50300 46.12800 21.51000
H  5.52600 44.44100 21.79000
H  5.91300 44.94800 20.20600
H  4.22300 45.41700 25.01500
H  3.88100 47.14300 25.48900
H  3.72000 45.81100 26.68700
H  6.47100 48.24900 30.67800
H  6.80500 44.42700 32.85800
H  6.28500 45.68600 34.01100
H  7.99100 45.45600 33.58900
Mg -2.07700 34.76500 27.22500
C  -3.55900 33.00400 30.00400
C  -0.57300 36.73500 29.24100
C  -0.75700 36.04300 24.44000
C  -3.98600 32.50500 25.17600
N  -2.21400 34.87700 29.29000
C  -2.81100 34.21700 30.28900
C  -2.50000 34.77100 31.70700
C  -1.72500 36.07700 31.38600
C  -1.51500 35.86100 29.88600
C  -2.30800 37.46200 31.74100
C  -1.64300 33.68700 32.49700
C  -2.35300 33.04800 33.68200
H  -1.77900 33.30100 35.13000
N  -0.88700 36.16600 26.90200
C  -0.21300 36.85300 27.88900
C  0.74100 37.75300 27.28400
C  0.74200 37.49900 25.92300
C  -0.34200 36.56200 25.68300
C  1.51800 38.69000 28.19200
C  1.55300 38.23800 24.78100
O  1.29800 38.17600 23.63600
C  2.58700 39.29200 25.22800
N  -2.49300 34.44100 25.05100
C  -1.69000 35.05300 24.13900
C  -2.21700 34.71100 22.74900
C  -2.98700 33.34500 23.02200
C  -3.17800 33.41000 24.53400
C  -3.08900 35.89500 22.23600
C  -2.38500 32.04600 22.50400
C  -1.02300 31.57900 23.08000
N  -3.48200 33.11100 27.45400
C  -4.15000 32.31800 26.53600
C  -4.94200 31.32300 27.13500
C  -4.68000 31.50500 28.48400
C  -3.83500 32.63500 28.68000
C  -5.74600 30.22200 26.46800
C  -4.84400 30.96800 29.83700
O  -5.40300 29.96400 30.19500
C  -4.23700 31.97500 30.84300
C  -5.36500 32.48300 31.67400
O  -6.05200 33.41800 31.31100
O  -5.55300 31.70600 32.75600
C  -6.52800 32.22600 33.68700
H  -0.07900 37.29700 30.03600
H  -0.40100 36.59900 23.57000
H  -4.33400 31.70500 24.52000
H  -3.41600 35.00200 32.24900
H  -0.75800 36.06700 31.88900
H  -2.75100 37.85700 30.82700
H  -1.50500 38.14600 32.01500
H  -3.03700 37.36600 32.54600
H  -0.69700 34.19200 32.69100
H  -1.49100 32.85200 31.81200
H  -2.49400 31.98000 33.52100
H  -3.35600 33.47100 33.62200
H  2.53500 38.47000 27.86500
H  1.36900 38.63300 29.27100
H  1.35300 39.70900 27.84200
H  3.40700 38.65000 25.55000
H  2.30100 39.92100 26.07200
H  2.98800 39.92200 24.43400
H  -1.37400 34.56900 22.07200
H  -4.01700 33.34700 22.66500
H  -2.86100 36.79100 22.81300
H  -4.15800 35.70500 22.32400
H  -2.75800 36.06800 21.21200
H  -2.18000 32.23500 21.45000
H  -3.10600 31.22800 22.51400
H  -0.89400 32.10100 24.02800
H  -0.29500 31.90500 22.33600
H  -1.05500 30.51000 23.29300
H  -5.33200 30.01200 25.48200
H  -6.77300 30.55800 26.32600
H  -5.70300 29.34700 27.11700
H  -3.61000 31.39900 31.52300
H  -6.25000 33.13800 34.21500
H  -6.80000 31.45000 34.40200
H  -7.45600 32.48500 33.17800

