158

Mg 2.13600 -1.01100 44.91400
C  5.49300 -0.18300 43.91400
C  1.18600 1.62900 43.03800
C  -0.94200 -2.11700 45.32200
C  3.41400 -3.96500 46.11400
N  3.31300 0.61100 43.68700
C  4.62900 0.78900 43.51200
C  4.96900 2.18500 42.91600
C  3.48900 2.76500 42.68000
C  2.57600 1.61900 43.15600
C  3.27100 4.16600 43.39500
C  5.75500 2.23900 41.61700
C  5.46400 1.23000 40.52600
H  5.11900 1.70500 39.04700
N  0.30900 -0.29500 44.28300
C  0.09100 0.80000 43.50200
C  -1.37500 0.91700 43.22000
C  -2.03600 -0.09300 43.94300
C  -0.87600 -0.84700 44.62000
C  -1.99400 2.03600 42.38900
C  -3.58400 -0.27200 44.08600
O  -4.36500 0.49400 43.50900
C  -4.19700 -1.50800 44.85700
N  1.33600 -2.76200 45.60400
C  0.05700 -2.93900 45.75900
C  -0.32600 -4.27100 46.48500
C  1.12000 -5.04000 46.43600
C  2.01400 -3.79700 46.18000
C  -0.94600 -4.10800 47.96200
C  1.30000 -6.11600 45.28900
C  1.78200 -7.57100 45.74300
N  4.07500 -1.84000 45.15700
C  4.40900 -3.09800 45.57100
C  5.88000 -3.28800 45.62500
C  6.30200 -2.20000 44.83000
C  5.22300 -1.33100 44.72200
C  6.53300 -4.49100 46.16600
C  7.38900 -1.64500 44.23200
O  8.48500 -2.15700 44.09600
C  6.99000 -0.25800 43.70600
C  7.66400 0.96000 44.31000
O  7.23300 1.60700 45.27400
O  8.67300 1.42800 43.48600
C  9.48500 2.40800 44.21000
H  0.74400 2.48800 42.53000
H  -1.91400 -2.56900 45.53400
H  3.75000 -4.80800 46.72100
H  5.42000 2.85500 43.64800
H  3.28200 2.83700 41.61200
H  4.28700 4.43400 43.68600
H  2.74800 4.15400 44.35100
H  2.86400 4.87900 42.67800
H  6.81400 2.26700 41.87500
H  5.52800 3.20300 41.16100
H  4.66900 0.53800 40.80300
H  6.31800 0.57700 40.35100
H  -2.99300 1.81900 42.01100
H  -1.34700 2.33800 41.56500
H  -2.14700 2.85900 43.08700
H  -3.59000 -2.38200 44.62000
H  -5.25800 -1.70200 44.69800
H  -4.18400 -1.32500 45.93100
H  -1.03500 -4.92900 45.98500
H  1.39100 -5.64200 47.30200
H  -0.22400 -4.51100 48.67200
H  -1.66600 -4.92700 47.97200
H  -1.37300 -3.12800 48.17400
H  1.99800 -5.68100 44.57300
H  0.32000 -6.30100 44.84900
H  1.12000 -8.28900 45.25900
H  1.83800 -7.68600 46.82500
H  2.78500 -7.71200 45.34000
H  5.92200 -5.38900 46.06900
H  6.81900 -4.15900 47.16400
H  7.40800 -4.64000 45.53300
H  7.29000 -0.14900 42.66400
H  9.72100 2.06200 45.21600
H  8.99600 3.37700 44.31400
H  10.36400 2.76500 43.67500
Mg -1.85000 34.41600 26.76700
C  -3.46200 32.72200 29.40400
C  -0.33600 36.38100 28.96400
C  -0.63400 35.97600 24.16200
C  -3.68800 32.26900 24.49500
N  -1.94700 34.50300 28.97100
C  -2.62900 33.77400 29.85800
C  -2.27700 34.22900 31.29000
C  -1.41600 35.51400 31.07800
C  -1.20400 35.46200 29.54300
C  -2.09800 36.84400 31.61200
C  -1.44500 33.14000 32.05900
C  -1.36600 33.36500 33.55100
H  -1.91800 32.34900 34.54700
N  -0.81100 36.09700 26.59700
C  -0.15700 36.69400 27.58300
C  0.72000 37.70200 27.04500
C  0.66400 37.60700 25.68700
C  -0.33500 36.53600 25.38700
C  1.56200 38.56400 27.88800
C  1.34100 38.49500 24.59600
O  0.98900 38.58400 23.43100
C  2.39400 39.51400 24.90400
N  -2.22500 34.28400 24.66400
C  -1.52300 34.98600 23.76300
C  -1.74600 34.55700 22.25700
C  -2.68200 33.29400 22.45000
C  -2.82400 33.22300 24.01900
C  -2.51300 35.73500 21.36500
C  -2.04300 31.89300 21.95100
C  -0.57400 31.63900 22.54200
N  -3.31800 32.70300 26.87500
C  -3.93000 31.97500 25.87800
C  -4.76400 30.99200 26.53600
C  -4.68300 31.28900 27.93000
C  -3.69400 32.24800 28.10100
C  -5.57700 29.90200 25.84000
C  -5.03900 30.87500 29.19100
O  -5.72100 29.94700 29.65600
C  -4.29400 31.77100 30.23200
C  -5.29200 32.27800 31.24000
O  -6.18200 33.09000 30.93200
O  -5.15400 31.67600 32.43400
C  -6.13000 31.97800 33.52600
H  0.21600 36.89000 29.75600
H  -0.03100 36.44200 23.38000
H  -4.09700 31.51100 23.82300
H  -3.17400 34.45700 31.86600
H  -0.44400 35.41100 31.56200
H  -2.17900 37.55700 30.79200
H  -1.58700 37.36900 32.42000
H  -3.14200 36.75700 31.91300
H  -0.45500 33.19500 31.60700
H  -1.94400 32.19400 31.84500
H  -1.65900 34.38300 33.80900
H  -0.29200 33.36900 33.73600
H  1.49800 38.24900 28.93000
H  1.28000 39.60400 27.72600
H  2.52400 38.36500 27.41600
H  3.31400 39.03200 25.23700
H  1.91400 40.08400 25.70000
H  2.63800 40.12700 24.03700
H  -0.73900 34.42600 21.86200
H  -3.68600 33.41700 22.04300
H  -3.27700 36.12300 22.03800
H  -2.77800 35.16800 20.47200
H  -1.84700 36.55700 21.10400
H  -2.11900 31.98100 20.86700
H  -2.68200 31.02800 22.13100
H  -0.56200 31.96200 23.58300
H  0.11500 32.23600 21.94300
H  -0.22000 30.61800 22.69100
H  -5.95200 29.15200 26.53800
H  -5.03400 29.52000 24.97600
H  -6.47600 30.39000 25.46400
H  -3.74300 30.93900 30.67100
H  -6.94200 31.25200 33.58600
H  -6.61500 32.93600 33.34400
H  -5.57800 32.02600 34.46400

