158

Mg 55.15800 23.79600 45.09600
C  52.36900 25.75400 43.95800
C  53.46300 21.04300 43.78600
C  57.91100 22.11000 45.23700
C  56.86800 26.78500 45.91700
N  53.16400 23.49500 43.82100
C  52.18800 24.45400 43.56800
C  50.96000 23.81700 42.95300
C  51.16700 22.32700 43.36500
C  52.70300 22.22100 43.66700
C  50.33700 21.80300 44.61000
C  50.95600 24.13900 41.37800
C  49.67100 24.11600 40.56600
H  49.80600 23.95100 39.00800
N  55.67900 21.79900 44.67800
C  54.81600 20.78900 44.20100
C  55.57300 19.47700 44.19100
C  56.90700 19.80200 44.49400
C  56.86900 21.24000 44.80600
C  54.92900 18.21200 43.74900
C  58.06600 18.85200 44.51800
O  57.96200 17.62500 44.32200
C  59.58000 19.24500 44.54100
N  57.08500 24.34300 45.58300
C  58.02500 23.43800 45.54700
C  59.41700 24.11900 45.86700
C  59.07200 25.58900 46.23300
C  57.61500 25.60200 45.88600
C  60.39000 23.36900 46.83700
C  59.92700 26.59300 45.34900
C  60.32300 27.87900 46.17100
N  54.68300 25.79600 45.15100
C  55.45500 26.87500 45.53000
C  54.58900 27.99800 45.67300
C  53.38000 27.60000 45.02400
C  53.50100 26.26600 44.65900
C  54.86400 29.25300 46.34800
C  52.04500 28.10500 44.68100
O  51.53800 29.22900 44.91300
C  51.35900 26.91200 43.81100
C  51.18400 27.43500 42.48200
O  52.07400 27.55800 41.56500
O  49.88200 27.89800 42.35400
C  49.29400 28.08700 41.00600
H  52.81800 20.21100 43.49500
H  58.85600 21.58500 45.39400
H  57.38600 27.68300 46.26000
H  50.04600 24.25700 43.35300
H  50.87200 21.66900 42.54700
H  49.87700 22.58500 45.21500
H  50.98800 21.22900 45.26800
H  49.60300 21.07500 44.26200
H  51.63300 23.35100 41.04900
H  51.42500 25.11500 41.25700
H  49.03900 24.98300 40.75700
H  49.16600 23.26400 41.02100
H  55.35900 17.99500 42.77200
H  53.83900 18.24500 43.76800
H  55.20800 17.32800 44.32200
H  59.59700 19.75700 43.57900
H  60.25300 18.40000 44.39400
H  59.96900 19.88400 45.33300
H  59.80800 24.10200 44.85000
H  59.20100 25.80300 47.29300
H  59.86100 22.54100 47.30900
H  60.75200 24.03200 47.62300
H  61.23900 22.96400 46.28600
H  59.37800 26.90300 44.46000
H  60.81700 26.06700 45.00300
H  60.40000 28.75200 45.52200
H  61.36600 27.72900 46.44800
H  59.69500 28.09300 47.03500
H  54.00700 29.84600 46.66900
H  55.58900 29.83300 45.77700
H  55.38300 29.02800 47.27900
H  50.37900 26.80400 44.27500
H  49.83500 27.63300 40.17600
H  49.24000 29.16700 40.87000
H  48.30000 27.65700 40.87600
Mg 0.01900 43.94100 26.19700
C  2.40900 43.43500 28.69300
C  -2.50600 43.42000 28.42900
C  -1.92900 43.49500 23.52900
C  2.87300 43.98200 23.94500
N  0.01300 43.33400 28.37700
C  1.06800 43.30700 29.18500
C  0.63200 43.22800 30.65100
C  -0.93100 42.94300 30.37700
C  -1.18200 43.27600 28.96500
C  -1.49100 41.53000 30.67900
C  0.85400 44.54800 31.45400
C  1.37400 44.45600 32.86800
H  0.97500 43.09800 33.65100
N  -2.00500 43.52900 25.98100
C  -2.92000 43.47000 27.08800
C  -4.27200 43.45200 26.54600
C  -4.17600 43.49400 25.14100
C  -2.68500 43.47600 24.78100
C  -5.44800 43.57100 27.52500
C  -5.26600 43.50000 24.13100
O  -5.05200 43.45000 22.92100
C  -6.61100 43.31600 24.59900
N  0.46200 43.88600 24.05400
C  -0.58100 43.70700 23.21200
C  -0.09300 43.59500 21.76800
C  1.33400 44.26200 21.87900
C  1.61500 44.08300 23.35300
C  0.00400 42.16600 21.19100
C  1.49800 45.77000 21.42400
C  2.54800 46.16700 20.45900
N  2.20500 43.97800 26.30300
C  3.20000 43.93700 25.30800
C  4.55500 43.83500 25.89000
C  4.27100 43.69900 27.24100
C  2.81500 43.73800 27.44200
C  5.85000 43.74800 25.12000
C  4.88600 43.41400 28.54300
O  6.08100 43.45400 28.89300
C  3.64500 43.43700 29.58100
C  3.82300 42.30800 30.47400
O  3.47100 41.15800 30.27100
O  4.55000 42.68900 31.56100
C  4.71600 41.75000 32.65600
H  -3.34000 43.30700 29.12400
H  -2.58400 43.32800 22.67100
H  3.58200 43.95600 23.11500
H  1.00100 42.33000 31.14700
H  -1.42400 43.64400 31.05000
H  -2.43800 41.72100 31.18300
H  -0.91200 41.08000 31.48600
H  -1.69200 40.85300 29.85000
H  -0.04000 45.16600 31.53100
H  1.53800 45.12400 30.83000
H  0.88100 45.32700 33.29900
H  2.46200 44.50600 32.82300
H  -6.20200 44.23800 27.10800
H  -5.17500 44.01100 28.48400
H  -5.91200 42.61800 27.77700
H  -6.62300 42.61700 25.43500
H  -7.19200 42.83100 23.81500
H  -7.07300 44.28800 24.77200
H  -0.62000 44.31700 21.14500
H  2.08200 43.68500 21.33500
H  -0.64800 41.50200 21.75800
H  0.99200 41.74400 21.37800
H  -0.19900 42.08300 20.12300
H  1.57900 46.36100 22.33600
H  0.59700 46.07500 20.89200
H  2.21500 46.79200 19.63000
H  3.01400 45.30600 19.98000
H  3.32200 46.73000 20.98100
H  6.56000 44.53200 25.38300
H  5.62500 43.84600 24.05800
H  6.34800 42.79600 25.30000
H  3.68300 44.30300 30.24100
H  3.93500 40.99200 32.61500
H  4.73400 42.20200 33.64800
H  5.70400 41.29700 32.56700

