158

Mg 0.64900 43.63700 26.60200
C  3.08000 43.88100 29.17500
C  -1.65100 42.68800 28.86600
C  -1.48700 43.36500 24.01900
C  3.28300 43.83900 24.35400
N  0.69400 43.44300 28.83800
C  1.77000 43.55700 29.67600
C  1.28100 43.50700 31.16700
C  -0.09300 42.75200 30.98400
C  -0.40800 42.95500 29.48800
C  0.11200 41.24100 31.25300
C  1.21700 44.89700 31.73900
C  1.27000 44.86400 33.33300
H  0.99500 43.61600 34.20200
N  -1.30700 43.26200 26.47300
C  -2.13600 42.91600 27.50300
C  -3.51900 42.81800 27.00900
C  -3.49400 43.18900 25.63000
C  -2.07700 43.30800 25.31400
C  -4.70700 42.67600 27.91100
C  -4.68600 43.43200 24.65600
O  -4.56200 43.74500 23.44700
C  -6.16000 43.16400 25.12800
N  0.89400 43.82800 24.42600
C  -0.13500 43.49900 23.64100
C  0.27200 43.57600 22.12800
C  1.76600 43.89900 22.23200
C  2.02900 43.89600 23.72300
C  -0.09400 42.34600 21.23700
C  2.31200 45.22400 21.55700
C  2.05300 46.54000 22.24400
N  2.75100 43.80100 26.71800
C  3.69900 43.79900 25.70200
C  4.96900 43.95400 26.23100
C  4.82700 44.05400 27.64700
C  3.42600 43.98500 27.86300
C  6.16500 44.06300 25.50000
C  5.50800 43.99600 28.90000
O  6.69000 43.94700 29.18100
C  4.38500 44.02700 29.94700
C  4.59500 42.83000 30.77300
O  4.47600 41.66800 30.37700
O  4.98900 43.23900 31.99300
C  5.20700 42.21800 33.02100
H  -2.38800 42.32000 29.58200
H  -2.22600 43.29400 23.21800
H  4.07400 43.96600 23.61100
H  2.06400 42.95100 31.68100
H  -0.95100 43.22000 31.46600
H  0.92000 41.07600 31.96600
H  0.21500 40.78200 30.27000
H  -0.72600 40.76100 31.75900
H  0.29400 45.39200 31.43800
H  2.11000 45.44700 31.43900
H  0.64700 45.71200 33.61300
H  2.23900 45.21300 33.69000
H  -5.31500 41.88400 27.47400
H  -5.32800 43.54500 28.12800
H  -4.45100 42.28200 28.89400
H  -6.33200 42.24800 25.69400
H  -6.79500 43.22500 24.24500
H  -6.60400 43.94700 25.74300
H  -0.24900 44.48600 21.82900
H  2.33500 43.09600 21.76400
H  0.72900 41.81400 20.76000
H  -0.64400 42.69100 20.36100
H  -0.65700 41.55100 21.72600
H  1.75800 45.22900 20.61800
H  3.38400 45.07900 21.42300
H  1.59600 46.62600 23.23000
H  1.41400 47.19000 21.64700
H  3.04700 46.98100 22.31900
H  6.12100 45.03300 25.00500
H  6.33800 43.21200 24.84000
H  6.98500 44.25900 26.19100
H  4.50200 44.98300 30.45700
H  5.81500 42.50700 33.87900
H  5.72300 41.38700 32.54000
H  4.26100 41.79200 33.35400
Mg -1.71900 35.11400 25.99200
C  -3.17700 33.35200 28.78300
C  -0.72100 37.56000 28.36200
C  -0.69300 36.90400 23.45300
C  -3.32100 32.90800 23.93100
N  -1.94700 35.38700 28.38100
C  -2.57100 34.51600 29.27600
C  -2.40200 35.04100 30.73100
C  -1.69800 36.42200 30.46600
C  -1.46400 36.51400 28.90800
C  -2.35300 37.57700 31.20000
C  -1.65000 34.02400 31.68200
C  -2.30800 33.41600 32.96700
H  -1.53400 33.29500 34.25600
N  -0.77800 36.90200 25.97600
C  -0.36300 37.69200 27.00800
C  0.26100 38.86000 26.39700
C  0.34400 38.64500 24.96600
C  -0.39300 37.43700 24.71200
C  0.93500 39.96700 27.19500
C  1.09400 39.50700 23.92500
O  1.23500 39.27300 22.71200
C  1.93900 40.68700 24.45300
N  -2.13600 34.97400 23.97200
C  -1.46400 35.80600 23.08200
C  -1.69800 35.38600 21.62200
C  -2.21000 33.92900 21.76700
C  -2.61000 33.88800 23.28300
C  -2.65800 36.24400 20.86200
C  -1.15800 32.84000 21.42800
C  0.20800 32.92000 22.10100
N  -2.93900 33.51300 26.28100
C  -3.55500 32.72700 25.27000
C  -4.28900 31.67400 25.86800
C  -4.16700 31.91600 27.23400
C  -3.34000 33.00800 27.44400
C  -5.11000 30.56900 25.21500
C  -4.57600 31.39700 28.51000
O  -5.24900 30.40500 28.86700
C  -3.97100 32.37000 29.61900
C  -5.09700 32.93500 30.37500
O  -5.78900 33.90300 30.00700
O  -5.32700 32.18400 31.51500
C  -6.36900 32.68500 32.43300
H  -0.31600 38.30100 29.05500
H  -0.26100 37.39900 22.58100
H  -3.89400 32.24100 23.28400
H  -3.43100 35.14900 31.07100
H  -0.70500 36.28100 30.89300
H  -2.57900 38.45400 30.59400
H  -1.55700 37.94100 31.85000
H  -3.16700 37.33200 31.88200
H  -0.67300 34.39700 31.99000
H  -1.33300 33.12900 31.14800
H  -2.67100 32.45100 32.61300
H  -3.22700 33.99500 33.06800
H  2.02100 39.90900 27.11800
H  0.74500 39.77200 28.25100
H  0.55800 40.93200 26.85700
H  2.37300 41.15700 23.57000
H  2.77600 40.42600 25.10000
H  1.28200 41.45700 24.85700
H  -0.72500 35.42900 21.13400
H  -3.09200 33.88300 21.12800
H  -2.06700 36.63100 20.03200
H  -2.95100 37.08900 21.48600
H  -3.55300 35.69400 20.57500
H  -1.10100 32.69000 20.34900
H  -1.60200 31.89500 21.73800
H  0.53500 32.17200 22.82300
H  0.38600 33.89600 22.55200
H  0.97400 32.78100 21.33800
H  -4.66800 30.22700 24.28000
H  -6.09700 30.97600 24.99300
H  -5.32500 29.69900 25.83500
H  -3.39800 31.66600 30.22100
H  -7.23800 33.11000 31.93100
H  -6.04900 33.21500 33.32900
H  -6.83900 31.80300 32.86700

