158

Mg 46.83000 24.32600 27.35800
C  47.82200 26.27800 30.02400
C  46.12800 21.87900 29.69500
C  46.26500 22.16900 24.78700
C  47.91800 26.67300 25.13000
N  46.96100 24.09900 29.60200
C  47.32800 25.07700 30.49400
C  46.93900 24.68100 31.94000
C  46.64000 23.14600 31.81600
C  46.53800 23.03500 30.26800
C  47.68900 22.33300 32.40700
C  45.89400 25.52300 32.65200
C  45.48900 25.01600 34.06000
H  46.02300 25.76200 35.29500
N  46.23800 22.30100 27.29800
C  46.02400 21.42300 28.35500
C  45.87900 20.14100 27.79700
C  45.90400 20.20300 26.39800
C  46.03900 21.60500 26.09400
C  45.64500 18.88500 28.78200
C  45.99100 19.05500 25.46600
O  46.05500 19.18900 24.24100
C  45.99400 17.57100 26.03200
N  46.97000 24.40900 25.26500
C  46.69800 23.39200 24.45000
C  46.95100 23.82300 22.96100
C  47.36200 25.23600 23.04100
C  47.37500 25.49300 24.53800
C  48.00100 22.89200 22.24900
C  46.31400 26.12000 22.29900
C  44.93200 26.21800 22.90700
N  47.67100 26.16800 27.47300
C  48.06000 27.05500 26.44600
C  48.64100 28.20700 27.05700
C  48.53500 27.98000 28.47800
C  47.96300 26.70000 28.67800
C  49.31200 29.32700 26.43300
C  48.83000 28.51400 29.78200
O  49.38000 29.52300 30.10700
C  48.22400 27.47900 30.81000
C  49.25100 27.15300 31.74900
O  50.05600 26.25100 31.79200
O  49.08400 27.95700 32.84400
C  49.79100 27.55500 34.09200
H  45.83800 21.12600 30.43000
H  46.14100 21.45100 23.97400
H  48.17600 27.40400 24.36000
H  47.89000 24.78400 32.46200
H  45.71700 22.80600 32.28600
H  48.10700 22.78400 33.30700
H  48.51300 22.16100 31.71400
H  47.25900 21.36000 32.64200
H  45.02200 25.64000 32.00800
H  46.32000 26.52400 32.72200
H  45.78800 23.97900 34.21300
H  44.41200 25.17100 34.12500
H  46.44300 18.14300 28.73700
H  44.69600 18.43200 28.49300
H  45.43100 19.13400 29.82100
H  45.04100 17.48700 26.55400
H  46.88400 17.33500 26.61400
H  45.93100 16.93500 25.14900
H  46.02500 23.79700 22.38700
H  48.34700 25.45000 22.62700
H  47.57500 22.51300 21.32000
H  48.34300 22.01800 22.80200
H  48.83700 23.52000 21.93900
H  46.29700 25.85100 21.24300
H  46.71900 27.12700 22.20100
H  44.23200 25.99900 22.10100
H  44.69500 27.25400 23.14900
H  44.75400 25.50400 23.71200
H  49.18600 30.20500 27.06600
H  48.76100 29.45700 25.50200
H  50.38200 29.18900 26.28000
H  47.41800 28.07900 31.23200
H  49.71800 26.46900 34.14800
H  49.19300 27.99800 34.89000
H  50.83700 27.86100 34.11200
Mg 41.97100 41.15000 26.63300
C  41.04000 43.46000 28.91300
C  42.92600 39.09100 29.07700
C  42.86700 38.81000 24.26400
C  41.74400 43.50700 24.10000
N  41.90400 41.23000 28.73800
C  41.48400 42.27400 29.47300
C  41.59700 42.02600 30.91900
C  42.39100 40.66500 30.97200
C  42.50400 40.32500 29.48100
C  43.71100 40.51000 31.69900
C  40.21100 42.13600 31.65800
C  40.24800 41.48700 33.09000
H  39.70900 42.36700 34.29300
N  42.56700 39.16600 26.65500
C  42.91900 38.51600 27.79700
C  43.39700 37.10300 27.50200
C  43.27900 36.99700 26.05900
C  42.87200 38.35800 25.61700
C  43.64500 36.03300 28.59500
C  43.49100 35.67500 25.23700
O  43.61100 35.71300 24.00100
C  43.52400 34.29700 25.83000
N  42.46800 41.17600 24.42300
C  42.66000 40.05000 23.68300
C  42.49200 40.34200 22.11100
C  42.02600 41.83800 22.14900
C  42.10100 42.22900 23.62200
C  43.76700 39.98700 21.32100
C  40.58000 41.95500 21.60200
C  39.55000 41.25900 22.46000
N  41.45200 43.12400 26.48600
C  41.39200 43.95500 25.38200
C  40.76400 45.19600 25.87400
C  40.66900 45.08500 27.25200
C  41.11000 43.75900 27.58100
C  40.53900 46.45100 25.11900
C  40.42800 45.78600 28.43900
O  40.07000 47.01800 28.46600
C  40.54500 44.81200 29.59800
C  41.59200 45.29600 30.62500
O  42.69200 45.76200 30.43800
O  40.93200 45.41700 31.87900
C  41.74400 45.85100 33.03600
H  43.42300 38.56300 29.89400
H  43.02200 38.07500 23.47100
H  41.47300 44.14800 23.25900
H  42.23600 42.83600 31.26900
H  41.79700 39.87800 31.43800
H  43.96700 39.47700 31.93500
H  43.55800 41.00100 32.66000
H  44.49000 40.98800 31.10500
H  39.42900 41.73400 31.01500
H  39.93600 43.17100 31.86500
H  41.28200 41.23700 33.32500
H  39.71700 40.53500 33.13300
H  43.62200 36.48100 29.58900
H  44.69300 35.74500 28.51100
H  43.13900 35.08300 28.42200
H  44.39500 34.15200 26.46900
H  43.62300 33.51800 25.07300
H  42.50300 34.27200 26.21200
H  41.65200 39.79000 21.68900
H  42.77600 42.52600 21.75900
H  44.47600 39.62300 22.06500
H  44.08600 40.90800 20.83300
H  43.57000 39.29100 20.50600
H  40.52700 41.44100 20.64200
H  40.33900 43.00100 21.41300
H  39.32200 41.93400 23.28600
H  39.86300 40.29800 22.86800
H  38.65800 40.97400 21.90300
H  41.41700 47.08400 24.99200
H  39.88700 46.96600 25.82500
H  40.08000 46.23800 24.15400
H  39.63100 44.72700 30.18600
H  42.79500 45.60400 32.88600
H  41.31400 45.39000 33.92500
H  41.70200 46.93800 33.10900

