158

Mg 17.15400 -2.25800 28.13500
C  16.13700 -0.05400 30.80700
C  18.99800 -3.88200 30.42800
C  18.74100 -3.62900 25.50600
C  15.80400 0.17800 25.91900
N  17.47700 -1.93500 30.43700
C  16.87300 -1.14400 31.28700
C  17.30600 -1.45000 32.68200
C  18.30400 -2.61300 32.53000
C  18.26500 -2.81000 31.01100
C  19.74200 -2.31300 32.99400
C  16.13700 -1.62900 33.66900
C  16.59500 -2.19700 35.01300
H  17.85800 -1.66800 35.75200
N  18.52200 -3.72100 28.04300
C  19.15000 -4.31900 29.08800
C  19.97000 -5.37600 28.51100
C  19.97000 -5.31800 27.06700
C  18.99900 -4.19400 26.78200
C  20.64600 -6.41100 29.40900
C  20.67200 -6.19400 26.02800
O  20.45300 -6.05400 24.83300
C  21.61200 -7.30100 26.41000
N  17.08500 -1.87900 25.96600
C  17.90800 -2.52700 25.15900
C  17.80100 -2.02900 23.74000
C  16.75200 -0.87000 23.81200
C  16.57400 -0.83200 25.28200
C  19.19300 -1.68700 23.04100
C  15.54100 -1.11000 22.96000
C  14.26200 -1.67900 23.70300
N  15.99600 -0.46000 28.23800
C  15.54400 0.39300 27.22900
C  14.99300 1.56000 27.81100
C  15.16500 1.39600 29.18200
C  15.85800 0.19700 29.41800
C  14.43800 2.64300 27.07200
C  14.81100 2.00700 30.39900
O  14.27100 3.05900 30.65400
C  15.40200 1.03000 31.52100
C  16.35000 1.79500 32.49500
O  17.49900 2.07500 32.18900
O  15.70800 2.23400 33.62400
C  16.44000 3.14600 34.40500
H  19.58800 -4.50500 31.10300
H  19.31700 -4.07400 24.69100
H  15.38200 0.94600 25.26800
H  17.91100 -0.55300 32.81700
H  17.89500 -3.48700 33.03500
H  19.85400 -1.36200 33.51500
H  20.37200 -2.24500 32.10700
H  20.06600 -3.14900 33.61400
H  15.44200 -2.33400 33.21200
H  15.78300 -0.61700 33.87000
H  16.59400 -3.27400 34.84600
H  15.76200 -2.01700 35.69400
H  20.54200 -7.36300 28.88900
H  20.48300 -6.40300 30.48700
H  21.68800 -6.10300 29.32100
H  22.24500 -7.06000 27.26500
H  22.32500 -7.56900 25.63000
H  21.03800 -8.21300 26.57200
H  17.39200 -2.93000 23.28400
H  17.31400 -0.03200 23.39800
H  19.31300 -0.64900 22.72800
H  19.48900 -2.34800 22.22700
H  19.96300 -1.80800 23.80300
H  15.70300 -1.77600 22.11300
H  15.14200 -0.15600 22.61400
H  13.70800 -0.80800 24.05300
H  14.57700 -2.39200 24.46500
H  13.68200 -2.27700 23.00000
H  13.87400 3.31600 27.71700
H  13.64600 2.29300 26.41000
H  15.25600 3.12000 26.53000
H  14.60800 0.66100 32.17000
H  15.93800 3.47700 35.31400
H  16.70100 4.03500 33.83000
H  17.36600 2.68700 34.75100
Mg -4.65500 25.28700 26.34600
C  -3.07200 26.73800 28.85900
C  -6.32700 23.19700 28.40300
C  -6.07600 23.64000 23.48700
C  -2.91400 27.27200 23.97600
N  -4.67100 25.08000 28.41500
C  -3.98500 25.82400 29.32400
C  -4.50100 25.62800 30.76600
C  -5.32700 24.29100 30.56600
C  -5.55800 24.17100 29.05300
C  -4.64400 23.07300 31.21800
C  -5.38900 26.81900 31.06900
C  -5.45900 27.21100 32.56900
H  -4.98700 26.20200 33.65000
N  -6.10300 23.65300 26.00800
C  -6.66100 22.97200 27.06500
C  -7.58200 21.96600 26.47900
C  -7.37500 21.97400 25.05500
C  -6.51000 23.15400 24.78500
C  -8.32000 20.93800 27.24100
C  -8.03500 21.14300 23.96800
O  -7.76700 21.23000 22.77300
C  -8.91100 20.00400 24.32300
N  -4.42200 25.38900 24.03000
C  -5.16200 24.65600 23.16700
C  -4.74200 24.92700 21.72000
C  -3.83300 26.13300 21.85900
C  -3.63100 26.26600 23.33000
C  -4.10800 23.73200 21.02100
C  -4.34300 27.47200 21.23300
C  -5.12800 27.30000 19.88000
N  -3.15300 26.66500 26.33100
C  -2.55900 27.46000 25.37400
C  -1.61600 28.41600 26.01500
C  -1.84400 28.23100 27.37800
C  -2.70900 27.08100 27.53400
C  -0.78600 29.45800 25.25000
C  -1.43000 28.60900 28.66400
O  -0.68200 29.53800 29.06100
C  -2.26900 27.71200 29.69000
C  -1.31000 26.95900 30.42100
O  -0.35700 26.37100 29.86600
O  -1.59800 26.86600 31.77100
C  -0.70500 25.87400 32.52800
H  -6.94900 22.54200 29.01700
H  -6.43000 23.06200 22.63100
H  -2.38800 27.82000 23.19100
H  -3.64200 25.50700 31.42600
H  -6.21100 24.42300 31.19000
H  -4.48200 22.34300 30.42500
H  -5.31500 22.63300 31.95600
H  -3.69700 23.27000 31.72000
H  -6.41300 26.58300 30.77700
H  -4.98300 27.68900 30.55300
H  -6.43300 27.58800 32.88200
H  -4.70500 27.99500 32.64100
H  -9.36600 21.03800 26.94900
H  -8.28900 21.09500 28.31900
H  -7.96300 19.92700 27.04300
H  -8.37600 19.27000 24.92400
H  -9.06400 19.52400 23.35600
H  -9.91300 20.28800 24.64500
H  -5.70300 25.06400 21.22400
H  -2.84000 25.92000 21.46200
H  -4.32200 22.73100 21.39600
H  -3.02500 23.83000 20.94200
H  -4.57300 23.80300 20.03800
H  -3.46600 28.08700 21.03300
H  -5.01400 27.90500 21.97500
H  -5.17200 26.31100 19.42300
H  -4.64600 27.95200 19.15200
H  -6.10400 27.76900 20.00400
H  0.01800 28.94200 24.72600
H  -0.48800 30.28700 25.89300
H  -1.37800 29.83800 24.41800
H  -2.96100 28.28500 30.30700
H  -1.24200 25.47100 33.38600
H  0.26800 26.29600 32.77800
H  -0.63100 24.96400 31.93200

