158

Mg 50.40600 45.13100 41.52600
C  47.11800 45.71500 40.36000
C  50.03400 41.81700 40.62500
C  53.72100 44.69800 41.96900
C  50.80100 48.62000 42.02600
N  48.73300 43.93600 40.62400
C  47.42800 44.35200 40.38800
C  46.53800 43.18400 39.89000
C  47.44600 41.93400 40.15600
C  48.82400 42.57600 40.51400
C  46.78300 41.04200 41.29200
C  46.09600 43.29000 38.40600
C  44.57400 43.11500 38.12800
H  43.94400 43.82300 36.96900
N  51.77100 43.47900 41.14300
C  51.38400 42.20000 40.85400
C  52.61900 41.38500 40.87100
C  53.71400 42.27700 41.21900
C  53.06800 43.54500 41.51900
C  52.67900 39.97200 40.49100
C  55.22900 41.92600 41.27200
O  55.55200 40.75400 41.12300
C  56.32800 42.83500 41.57700
N  52.02500 46.52200 41.85600
C  53.29100 46.03100 42.11800
C  54.20600 47.18000 42.51600
C  53.34700 48.48500 42.42800
C  51.95400 47.83300 42.09600
C  54.93500 47.14500 43.89500
C  53.84200 49.53900 41.44400
C  54.21000 50.94100 41.96200
N  49.21100 46.83700 41.50100
C  49.56400 48.15400 41.57800
C  48.40800 48.99800 41.29200
C  47.43400 48.03600 40.81500
C  47.97900 46.76400 40.93100
C  48.27000 50.48400 41.46500
C  46.10300 47.95100 40.31700
O  45.31600 48.87400 40.06400
C  45.81100 46.38800 40.15100
C  44.70000 46.02300 41.05600
O  44.80200 45.65800 42.24700
O  43.49300 46.08300 40.40700
C  42.25800 45.82900 41.22900
H  50.03900 40.76100 40.34400
H  54.76900 44.52800 42.22500
H  50.85200 49.71100 42.04100
H  45.65300 43.13800 40.52400
H  47.52500 41.31800 39.26100
H  47.11800 40.01400 41.15500
H  45.71100 41.11900 41.11000
H  47.04200 41.43400 42.27500
H  46.56100 42.45100 37.88800
H  46.44400 44.26200 38.05700
H  44.06100 43.37000 39.05600
H  44.39400 42.04700 38.00300
H  53.48400 39.91600 39.75800
H  51.74400 39.49000 40.20700
H  52.99100 39.40400 41.36700
H  56.26200 42.81600 42.66500
H  56.20200 43.80600 41.09700
H  57.33400 42.54200 41.27500
H  54.90000 47.15600 41.67500
H  53.24100 48.91500 43.42400
H  55.96000 47.49700 44.00300
H  54.84900 46.11400 44.23800
H  54.48800 47.83000 44.61500
H  53.13300 49.43600 40.62300
H  54.78500 49.17100 41.04100
H  53.44100 51.70100 41.82500
H  55.18600 51.30600 41.64100
H  54.27000 50.86300 43.04700
H  47.26100 50.89500 41.43800
H  48.84300 51.05300 40.73300
H  48.63400 50.62300 42.48300
H  45.50600 46.16300 39.12900
H  42.34600 44.87800 41.75500
H  41.50800 45.82000 40.43900
H  41.97200 46.58100 41.96500
Mg -10.23400 16.51200 40.95900
C  -6.63600 16.61000 40.92000
C  -10.16200 19.69800 40.00800
C  -13.53700 16.31400 40.43400
C  -10.14900 13.09500 41.32500
N  -8.55100 17.94100 40.64600
C  -7.22400 17.82500 40.68300
C  -6.58200 19.09200 40.16200
C  -7.65400 20.15400 40.34100
C  -8.92100 19.22400 40.33500
C  -7.55500 20.95900 41.65500
C  -5.97500 18.83400 38.71400
C  -4.49000 19.11800 38.45000
H  -3.81100 18.27500 37.38000
N  -11.66500 17.89500 40.47600
C  -11.41600 19.17000 40.10700
C  -12.65400 19.82300 39.75900
C  -13.67600 18.89900 39.91100
C  -12.99600 17.62800 40.27800
C  -12.79300 21.32900 39.42100
C  -15.14800 19.22800 39.77800
O  -15.61800 20.35600 39.49700
C  -16.16900 18.14800 39.92200
N  -11.64600 14.88800 40.75000
C  -13.00500 15.10800 40.58500
C  -13.78600 13.81300 40.81200
C  -12.72400 12.76500 41.11200
C  -11.41400 13.60500 41.12600
C  -14.89600 13.78300 41.90600
C  -12.70200 11.41600 40.27400
C  -12.36600 11.59700 38.80000
N  -8.77700 15.10600 41.11000
C  -8.85400 13.76300 41.36300
C  -7.51200 13.23500 41.65600
C  -6.63900 14.34100 41.43000
C  -7.41900 15.46600 41.12800
C  -7.12700 11.76200 41.90800
C  -5.25800 14.60500 41.26500
O  -4.26900 13.88400 41.35700
C  -5.17400 16.15400 40.92000
C  -4.35700 16.97400 41.88100
O  -3.28400 17.53800 41.65800
O  -5.10400 16.94900 43.10500
C  -4.54600 17.72400 44.20600
H  -10.17400 20.76500 39.77700
H  -14.55900 16.21600 40.06400
H  -10.02800 12.02300 41.49400
H  -5.78300 19.51500 40.77100
H  -7.63700 20.97000 39.61900
H  -7.27400 20.24700 42.43100
H  -8.52200 21.29500 42.02700
H  -6.79200 21.73100 41.55600
H  -6.47800 19.59000 38.11300
H  -6.18400 17.85600 38.28000
H  -3.92500 18.76800 39.31400
H  -4.29900 20.17500 38.27100
H  -13.14300 21.38900 38.39100
H  -11.79600 21.76400 39.50100
H  -13.59600 21.81400 39.97700
H  -17.18000 18.55100 39.97100
H  -16.00000 17.63300 40.86800
H  -16.05600 17.52400 39.03500
H  -14.30100 13.51900 39.89700
H  -12.82200 12.41600 42.14000
H  -14.91500 12.80000 42.37800
H  -15.87400 13.90100 41.43900
H  -14.70600 14.60500 42.59500
H  -13.68300 10.94300 40.31800
H  -12.03500 10.73400 40.80100
H  -13.26800 11.60600 38.18800
H  -11.68000 10.86900 38.36700
H  -11.88100 12.52600 38.49900
H  -7.38700 11.17900 41.02400
H  -7.52600 11.34500 42.83200
H  -6.03700 11.77800 41.89900
H  -4.70900 16.24400 39.93800
H  -4.51200 17.09700 45.09700
H  -5.30900 18.48200 44.38600
H  -3.60100 18.18000 43.90800

