158

Mg 23.08600 -6.06000 44.89800
C  25.48800 -4.08500 43.41800
C  20.73900 -4.42500 42.93600
C  20.73900 -8.67400 45.36200
C  25.41300 -8.00200 46.35700
N  23.08000 -4.52800 43.42900
C  24.25000 -3.78300 43.09400
C  23.93900 -2.59800 42.20200
C  22.40000 -2.60800 42.25300
C  22.03000 -3.91900 42.89700
C  21.63800 -1.39900 42.85800
C  24.48100 -2.88400 40.74900
C  25.07500 -1.69300 39.98800
H  26.19900 -2.06000 39.01500
N  21.03100 -6.46400 44.32100
C  20.25200 -5.58300 43.62300
C  18.89300 -6.13400 43.42400
C  18.86000 -7.38700 44.14500
C  20.26100 -7.54400 44.64400
C  17.81400 -5.50700 42.49900
C  17.68600 -8.36800 44.17900
O  16.53600 -7.96400 43.92000
C  17.71500 -9.84600 44.55500
N  23.04200 -8.11200 45.70800
C  21.99500 -8.88300 45.89400
C  22.38700 -10.18900 46.61400
C  23.77800 -9.83700 47.12300
C  24.10100 -8.60300 46.39100
C  21.35100 -10.67500 47.66300
C  24.84600 -10.93400 46.96000
C  25.88600 -11.05300 48.07500
N  25.04000 -6.15900 44.86800
C  25.94500 -6.91700 45.68600
C  27.29300 -6.34800 45.59800
C  27.15100 -5.26700 44.72200
C  25.76300 -5.20000 44.25300
C  28.53800 -6.90600 46.15600
C  27.93100 -4.19800 44.03400
O  29.15200 -3.92000 44.14100
C  26.86000 -3.44400 43.12400
C  26.97200 -2.00300 43.52400
O  26.44300 -1.42500 44.47700
O  27.77700 -1.41500 42.55300
C  27.99200 0.01500 42.69000
H  20.10500 -3.80700 42.29700
H  19.99900 -9.47700 45.39000
H  26.19400 -8.53900 46.90100
H  24.44700 -1.72000 42.60100
H  22.14800 -2.75400 41.20200
H  21.06500 -1.63700 43.75500
H  20.91300 -0.98400 42.15800
H  22.40800 -0.65400 43.05800
H  23.69500 -3.40200 40.20000
H  25.25000 -3.65600 40.72200
H  25.35000 -0.94100 40.72700
H  24.23600 -1.23700 39.46200
H  17.44200 -6.35000 41.91700
H  18.07300 -4.74200 41.76700
H  16.99800 -5.06500 43.07100
H  16.70900 -10.19800 44.32700
H  17.98200 -10.03600 45.59500
H  18.30000 -10.41300 43.83100
H  22.51100 -10.99200 45.88800
H  23.61500 -9.47400 48.13700
H  20.52000 -9.97000 47.69700
H  21.78700 -10.97800 48.61500
H  20.99200 -11.61000 47.23400
H  25.37300 -10.78800 46.01700
H  24.29700 -11.87500 46.93800
H  26.82100 -11.50800 47.74700
H  25.55800 -11.82700 48.76900
H  26.06700 -10.11600 48.60200
H  28.91000 -6.09500 46.78300
H  29.33000 -7.07900 45.42700
H  28.43600 -7.81400 46.75000
H  27.27300 -3.53100 42.12000
H  29.01000 0.26300 42.38900
H  27.77000 0.50000 43.64000
H  27.46200 0.54900 41.90100
Mg -1.25500 34.37400 27.13600
C  -3.17300 32.74700 29.69800
C  -0.18000 36.63500 29.50400
C  0.00600 36.11200 24.59400
C  -2.81000 32.17900 24.93800
N  -1.59300 34.60200 29.34100
C  -2.34700 33.79900 30.15200
C  -2.24300 34.26900 31.57400
C  -1.56700 35.66400 31.42900
C  -1.02300 35.63500 30.03100
C  -2.49100 36.88000 31.61400
C  -1.38200 33.38000 32.55400
C  -2.14500 32.74700 33.75400
H  -1.50400 33.03300 35.13200
N  -0.08200 36.05600 27.03700
C  0.28500 36.77300 28.12300
C  1.28800 37.73000 27.69100
C  1.39300 37.59600 26.23400
C  0.41400 36.54100 25.89500
C  1.88900 38.66800 28.76400
C  2.11700 38.50100 25.10700
O  2.01200 38.27900 23.90400
C  3.08700 39.56600 25.50800
N  -1.49300 34.29100 25.07800
C  -0.87300 35.12000 24.17200
C  -1.11800 34.70600 22.70400
C  -1.76800 33.29000 22.93800
C  -1.94800 33.14900 24.41800
C  -2.10800 35.66700 22.02100
C  -1.04700 32.05300 22.31400
C  0.21200 31.62700 23.00200
N  -2.64700 32.64300 27.26400
C  -3.17300 31.88700 26.27300
C  -4.13700 30.98000 26.83300
C  -4.08000 31.15400 28.22400
C  -3.29000 32.28000 28.38500
C  -5.09000 30.17600 26.01900
C  -4.53100 30.77100 29.52300
O  -5.21800 29.88400 29.91400
C  -3.94300 31.81400 30.55700
C  -5.16200 32.19000 31.32800
O  -5.91400 33.08600 31.02000
O  -5.31400 31.45200 32.48300
C  -6.38900 31.88300 33.38200
H  0.25200 37.26900 30.28000
H  0.33100 36.75500 23.77300
H  -3.13000 31.42300 24.21800
H  -3.23600 34.46300 31.97900
H  -0.74200 35.83000 32.12100
H  -3.42300 36.68900 32.14700
H  -2.85300 37.25500 30.65700
H  -1.97100 37.64900 32.18500
H  -0.58500 33.94500 33.03800
H  -0.92800 32.59300 31.95100
H  -2.16700 31.65800 33.77200
H  -3.16300 33.12900 33.83500
H  2.44800 39.41600 28.20200
H  2.64100 38.19700 29.39700
H  1.13100 39.21000 29.33000
H  3.66700 39.86600 24.63600
H  3.83700 39.10400 26.15000
H  2.74700 40.45100 26.04600
H  -0.13600 34.78000 22.23700
H  -2.83500 33.21400 22.72700
H  -2.31900 36.47400 22.72300
H  -3.03900 35.24200 21.64600
H  -1.73200 36.17300 21.13200
H  -0.76200 32.28800 21.28800
H  -1.63400 31.13600 22.36700
H  0.06900 30.60500 23.35100
H  0.47700 32.34200 23.78100
H  0.95200 31.53000 22.20800
H  -6.08000 30.55700 26.27000
H  -5.06600 29.12100 26.29000
H  -4.88600 30.20600 24.94800
H  -3.26300 31.37100 31.28500
H  -6.00200 32.49600 34.19600
H  -6.93600 31.06200 33.84500
H  -7.12400 32.57400 32.97100

