158

Mg 17.12700 -2.60700 27.30200
C  16.03100 -0.51500 29.91000
C  18.83400 -4.59000 29.48400
C  18.52200 -4.02100 24.62900
C  15.43000 -0.38400 25.07900
N  17.37700 -2.53800 29.52700
C  16.85500 -1.56800 30.34500
C  17.43500 -1.87300 31.76800
C  18.22900 -3.19800 31.65200
C  18.17600 -3.47200 30.10500
C  19.66300 -3.09800 32.23600
C  16.28200 -1.96100 32.79600
C  16.44100 -1.09600 34.06200
H  17.78500 -0.43200 34.45800
N  18.39200 -4.12000 27.03800
C  18.91400 -4.96500 28.03700
C  19.49600 -6.19500 27.48500
C  19.44300 -5.99800 26.08400
C  18.82300 -4.62900 25.86400
C  19.92900 -7.35300 28.37400
C  19.85700 -6.89400 24.96700
O  19.79700 -6.63500 23.76800
C  20.46000 -8.27000 25.32800
N  17.06600 -2.15800 25.16200
C  17.74000 -2.89200 24.25200
C  17.62500 -2.33500 22.80400
C  16.51800 -1.24900 22.98800
C  16.38500 -1.22100 24.46500
C  18.93600 -1.70600 22.31300
C  15.19700 -1.39800 22.15400
C  14.64000 -0.13400 21.34600
N  15.88500 -0.94100 27.36400
C  15.27300 -0.12800 26.43300
C  14.51300 0.93400 26.97500
C  14.83300 0.89400 28.30400
C  15.57400 -0.30300 28.53200
C  13.68500 1.97500 26.25700
C  14.68500 1.53800 29.54500
O  14.15700 2.59200 29.90900
C  15.49800 0.71000 30.62000
C  16.55400 1.57700 31.26800
O  17.75200 1.59300 30.95100
O  16.02600 2.28900 32.30400
C  16.87600 3.18600 33.14700
H  19.35600 -5.21400 30.21200
H  19.14600 -4.46800 23.85300
H  14.80600 0.31800 24.52200
H  18.09900 -1.03900 31.99500
H  17.82400 -3.98300 32.29100
H  19.76600 -2.43100 33.09200
H  20.40300 -2.78000 31.50100
H  19.92700 -4.07300 32.64700
H  16.11300 -2.96700 33.18000
H  15.37700 -1.67300 32.26100
H  16.20600 -1.77600 34.88100
H  15.68400 -0.32100 34.18700
H  19.83800 -8.34000 27.91900
H  19.33400 -7.31900 29.28600
H  20.96500 -7.16100 28.65300
H  21.39400 -8.09900 25.86300
H  20.75500 -8.80100 24.42300
H  19.71800 -8.90700 25.80800
H  17.27500 -3.19900 22.23900
H  16.87600 -0.28200 22.63500
H  19.02200 -2.15500 21.32300
H  19.71400 -1.94200 23.03900
H  19.01500 -0.64500 22.07600
H  14.40400 -1.85900 22.74200
H  15.45200 -2.13100 21.38800
H  13.59700 0.08100 21.57700
H  14.81000 -0.27500 20.27800
H  15.17700 0.75800 21.66900
H  13.06600 1.52700 25.48000
H  14.41100 2.59100 25.72600
H  13.12700 2.56200 26.98600
H  14.80100 0.36100 31.38200
H  16.78100 2.94800 34.20600
H  16.32000 4.12200 33.09700
H  17.94100 3.28400 32.93700
Mg 47.45000 45.69200 43.18100
C  44.25400 44.36100 42.78800
C  48.76700 42.42900 43.28700
C  50.51500 46.95100 43.22900
C  46.13600 48.97900 42.73000
N  46.67800 43.69000 42.94600
C  45.25800 43.37800 42.90800
C  45.00900 41.73400 42.99200
C  46.48900 41.21300 43.26200
C  47.38000 42.55000 43.19500
C  46.73300 40.23500 44.41100
C  44.21300 40.89900 41.84200
C  44.60700 41.38700 40.42400
H  44.94000 40.35800 39.34100
N  49.38200 44.79000 43.16400
C  49.65900 43.44600 43.28000
C  51.06600 43.29100 43.13300
C  51.65900 44.61000 43.25400
C  50.54000 45.54900 43.27600
C  51.79800 42.00300 43.05300
C  53.18700 44.93300 43.36000
O  54.03600 44.02500 43.36300
C  53.66100 46.31500 43.58300
N  48.16900 47.62900 43.05300
C  49.46500 47.87000 43.17000
C  49.80700 49.38600 42.92300
C  48.47900 49.96900 42.45800
C  47.51600 48.75400 42.76000
C  50.37300 49.90600 44.28100
C  48.38800 50.58900 40.98700
C  48.52900 52.09000 40.95300
N  45.51300 46.55000 42.77000
C  45.15500 47.93000 42.71200
C  43.66300 47.96000 42.53100
C  43.27200 46.53700 42.47700
C  44.42000 45.79700 42.75100
C  42.76300 49.10700 42.36400
C  42.22800 45.57500 42.18700
O  41.09600 45.74000 41.74600
C  42.81600 44.20500 42.45700
C  42.07100 43.47500 43.48400
O  41.41900 42.46100 43.24700
O  42.30200 43.88000 44.75100
C  41.84200 42.90800 45.78100
H  49.21900 41.44300 43.41400
H  51.47300 47.47200 43.17000
H  45.77900 49.97600 42.46200
H  44.38200 41.53600 43.86200
H  46.92400 40.80300 42.35100
H  47.15600 40.89700 45.16700
H  47.38500 39.40900 44.12600
H  45.72500 39.96100 44.72000
H  43.15400 41.10100 42.00300
H  44.26100 39.82100 42.00100
H  45.43000 42.09900 40.47800
H  43.68900 41.80600 40.01400
H  52.08400 41.71800 44.06500
H  52.58800 42.05700 42.30400
H  51.15400 41.20000 42.69300
H  53.34900 46.88300 42.70600
H  54.74800 46.36000 43.64800
H  53.23700 46.68800 44.51500
H  50.58500 49.55100 42.17700
H  48.26700 50.65400 43.27900
H  51.16800 49.19000 44.48800
H  49.70400 49.91500 45.14100
H  50.89700 50.82400 44.01700
H  47.45500 50.34400 40.48000
H  49.15400 49.99900 40.48200
H  48.11400 52.27100 39.96200
H  49.59200 52.32800 40.98900
H  47.96100 52.48800 41.79300
H  41.99000 48.94800 43.11600
H  42.24700 49.11100 41.40400
H  43.30100 50.05400 42.31700
H  42.85300 43.63700 41.52800
H  40.77000 42.71500 45.73500
H  42.17400 43.38500 46.70300
H  42.30900 41.94600 45.57000

