158

Mg 2.18400 8.20200 27.10800
C  2.30500 10.02200 30.09900
C  2.03100 5.31700 29.16700
C  2.27700 6.34000 24.29500
C  2.96200 11.14700 25.36100
N  2.19900 7.74300 29.42400
C  2.09800 8.67600 30.36500
C  1.71200 8.06200 31.70900
C  1.90800 6.51000 31.38700
C  2.07000 6.44900 29.93100
C  3.13300 5.81900 32.05300
C  0.32500 8.36900 32.30800
C  0.06300 8.04000 33.79700
H  1.22800 7.55500 34.74500
N  2.06400 6.07900 26.89000
C  2.05400 5.09400 27.80100
C  2.03400 3.86400 27.05700
C  2.09800 4.10300 25.66000
C  2.13900 5.54100 25.53100
C  1.93700 2.46900 27.75900
C  2.15200 3.15000 24.47500
O  2.30700 3.44800 23.31400
C  1.91800 1.68300 24.72100
N  2.49000 8.71100 25.11700
C  2.44100 7.70700 24.15600
C  2.79700 8.42500 22.79100
C  2.85300 9.96000 23.16000
C  2.80400 9.97000 24.63700
C  4.03300 7.87800 22.05100
C  1.87600 10.89400 22.49200
C  0.38500 10.88900 22.83100
N  2.47900 10.26000 27.57600
C  2.84300 11.34500 26.72000
C  2.86400 12.53100 27.56100
C  2.72400 12.07200 28.91200
C  2.50400 10.66000 28.84100
C  3.12500 13.87900 27.19300
C  2.71300 12.45400 30.27200
O  2.90000 13.58800 30.73000
C  2.41500 11.20100 31.08000
C  3.40900 11.01900 32.15200
O  4.52300 10.50900 32.07900
O  2.91300 11.50800 33.30300
C  3.71400 11.44300 34.50800
H  1.91100 4.41200 29.76600
H  2.17400 5.73300 23.39400
H  3.16100 12.05600 24.79000
H  2.53700 8.34600 32.36200
H  1.04200 5.89600 31.63500
H  3.66200 6.46500 32.75400
H  3.80900 5.42700 31.29300
H  2.76700 4.96200 32.61700
H  -0.30000 7.61900 31.82200
H  -0.05000 9.36900 32.09100
H  -0.74800 7.31800 33.88400
H  -0.41000 8.96000 34.13900
H  2.73700 1.74300 27.61200
H  0.98900 1.98400 27.52600
H  1.93100 2.71700 28.82000
H  2.66500 1.20600 25.35500
H  1.67700 1.10300 23.83000
H  0.95600 1.55200 25.21700
H  1.89900 8.43000 22.17300
H  3.82400 10.25500 22.76200
H  4.62400 7.39300 22.82700
H  4.61700 8.66400 21.57100
H  3.77600 7.13200 21.29900
H  1.87200 10.68800 21.42200
H  2.18600 11.93500 22.58800
H  -0.16900 10.64600 21.92500
H  0.11200 11.86900 23.22300
H  0.15600 10.15900 23.60700
H  3.21500 14.52800 28.06400
H  2.39000 14.28800 26.49900
H  4.01500 13.89400 26.56400
H  1.44600 11.19500 31.58000
H  4.27800 10.51300 34.57600
H  3.03700 11.59800 35.34800
H  4.44300 12.24800 34.41100
Mg 47.88200 34.78700 26.63900
C  45.70600 33.25000 29.04000
C  48.19300 37.59800 28.75000
C  49.71100 36.30600 24.32500
C  47.21300 32.19300 24.51400
N  46.93500 35.28800 28.63800
C  46.26200 34.46600 29.47400
C  46.42200 34.99400 30.95000
C  46.86400 36.55400 30.64500
C  47.40500 36.53900 29.22800
C  45.62700 37.53100 30.89700
C  47.52400 34.32100 31.84700
C  47.30000 34.45900 33.43000
H  46.11500 35.26900 33.92400
N  48.79900 36.70200 26.56500
C  48.77900 37.69800 27.46700
C  49.40000 38.89100 26.97300
C  49.80700 38.52600 25.65200
C  49.43600 37.12000 25.45000
C  49.40700 40.22200 27.79100
C  50.42500 39.43900 24.58200
O  50.65800 39.14100 23.43200
C  50.86500 40.78000 25.03700
N  48.21800 34.42700 24.61300
C  49.14200 35.10400 23.95200
C  49.63200 34.32600 22.72400
C  48.80200 33.04400 22.65900
C  48.03800 33.19800 24.02800
C  49.56900 35.09300 21.42900
C  49.66500 31.67100 22.57800
C  49.64300 31.03100 21.16900
N  46.65300 33.14300 26.66400
C  46.57300 32.11500 25.75000
C  45.64600 31.06800 26.24900
C  45.27800 31.49200 27.46400
C  45.93100 32.74000 27.73200
C  45.18100 29.94700 25.46200
C  44.45400 31.18300 28.63100
O  43.77300 30.19800 28.81400
C  44.71400 32.22300 29.70000
C  45.09700 31.66100 30.95300
O  46.08900 31.04100 31.13600
O  44.13400 31.90800 31.92000
C  44.40000 31.32400 33.25800
H  48.14800 38.40900 29.48000
H  50.43100 36.65700 23.58200
H  46.99500 31.37400 23.82500
H  45.52700 34.94100 31.56900
H  47.68200 36.79000 31.32600
H  44.73100 36.97000 31.16200
H  45.45300 38.09100 29.97800
H  45.87700 38.13500 31.76900
H  48.52600 34.57400 31.50000
H  47.45100 33.24700 31.67500
H  48.20300 34.91700 33.83500
H  47.32300 33.41800 33.75100
H  48.91200 40.96500 27.16600
H  50.44600 40.51500 27.94200
H  48.75900 40.15200 28.66400
H  50.00800 41.43600 25.18400
H  51.64500 41.10100 24.34700
H  51.36100 40.73500 26.00700
H  50.68800 34.13700 22.91900
H  48.00400 33.10700 21.91900
H  49.01300 34.57800 20.64500
H  50.54300 35.38400 21.03600
H  49.06000 36.02900 21.65700
H  49.07200 31.03500 23.23500
H  50.69700 31.65000 22.92900
H  49.26300 31.68300 20.38300
H  49.06200 30.10900 21.19400
H  50.65500 30.88600 20.79000
H  45.90000 29.12700 25.48600
H  44.99200 30.33000 24.45900
H  44.20800 29.62000 25.83000
H  43.67400 32.54500 29.65700
H  43.64500 30.56600 33.46800
H  44.15600 32.00200 34.07500
H  45.45900 31.13700 33.43300

