158

Mg 30.13700 58.25800 39.18600
C  27.29200 56.52100 38.26800
C  32.03700 55.45900 38.10300
C  32.98500 60.14500 38.90000
C  28.18000 61.21300 39.19500
N  29.72000 56.32700 38.19400
C  28.41800 55.78900 38.11100
C  28.50500 54.40700 37.41400
C  29.98400 53.94000 37.92200
C  30.61800 55.32300 38.11000
C  30.03400 53.10600 39.19900
C  28.36100 54.43200 35.86500
C  27.30200 53.53700 35.24700
H  26.27400 54.29400 34.32500
N  32.34400 57.84500 38.86200
C  32.84900 56.63800 38.39800
C  34.27000 56.76900 38.19700
C  34.63900 58.10900 38.42200
C  33.36600 58.74900 38.78400
C  35.08800 55.52000 37.73900
C  36.01000 58.66100 38.27400
O  36.87500 57.95200 37.86400
C  36.35600 60.07500 38.64200
N  30.51800 60.34900 38.89600
C  31.77000 60.84900 39.04400
C  31.73900 62.37300 39.09500
C  30.21700 62.69200 39.19200
C  29.56600 61.30500 39.02900
C  32.70300 63.01600 40.12800
C  29.65200 63.68600 38.07300
C  29.61000 65.18700 38.57800
N  28.08600 58.77500 39.07700
C  27.41800 59.99300 39.16100
C  26.00500 59.76800 39.08900
C  25.90700 58.41500 38.63200
C  27.17700 57.84500 38.68800
C  24.96100 60.82900 39.12400
C  25.01400 57.43600 38.12000
O  23.83400 57.57000 37.97500
C  25.80800 56.15300 37.85000
C  25.36400 55.13200 38.82000
O  25.82200 54.94900 39.94800
O  24.40000 54.35900 38.24600
C  23.85000 53.11000 38.87400
H  32.58200 54.53600 37.89100
H  33.78500 60.88500 38.83900
H  27.60500 62.13800 39.12100
H  27.72700 53.77500 37.84100
H  30.41100 53.32700 37.12900
H  29.02800 52.99100 39.60300
H  30.61000 53.58500 39.99100
H  30.36300 52.10900 38.90600
H  29.34300 54.25300 35.42800
H  28.24000 55.45500 35.50800
H  26.58800 53.11800 35.95600
H  27.70200 52.78200 34.57000
H  34.61000 54.59400 38.05900
H  36.04100 55.43400 38.26000
H  35.21300 55.49000 36.65700
H  37.41400 60.25800 38.45700
H  36.03400 60.36300 39.64300
H  35.75000 60.71600 38.00200
H  32.07400 62.75300 38.13000
H  29.93500 63.01700 40.19300
H  33.15900 62.27500 40.78400
H  32.05500 63.71400 40.65800
H  33.43100 63.58000 39.54500
H  28.68900 63.31400 37.72200
H  30.30900 63.78600 37.20900
H  30.38500 65.80600 38.12500
H  29.72200 65.25100 39.66000
H  28.63600 65.67000 38.50700
H  24.28500 60.36800 39.84400
H  24.47200 60.93800 38.15700
H  25.38500 61.74400 39.54000
H  25.71100 55.77000 36.83400
H  24.08500 52.31700 38.16400
H  22.77400 53.16500 39.04100
H  24.36600 52.83400 39.79300
Mg -0.73000 44.25900 26.33900
C  1.77400 43.64400 28.75300
C  -3.07000 43.81300 28.91100
C  -3.20300 44.64600 24.06300
C  1.69000 44.28700 23.81100
N  -0.64200 43.67900 28.49600
C  0.49500 43.64900 29.30300
C  0.10100 43.51600 30.80000
C  -1.43500 43.30200 30.72900
C  -1.76700 43.59800 29.30600
C  -1.92800 42.05100 31.35600
C  0.50900 44.73900 31.77200
C  0.44600 44.52000 33.27900
H  0.39800 43.12200 33.95700
N  -2.89500 44.23700 26.44800
C  -3.64300 44.07800 27.61200
C  -5.03300 44.35200 27.28800
C  -5.09600 44.64000 25.87700
C  -3.68300 44.43300 25.38900
C  -6.11500 44.32800 28.29500
C  -6.32600 45.03500 25.00400
O  -6.28100 45.02600 23.78400
C  -7.54500 45.57300 25.70000
N  -0.76900 44.28100 24.21700
C  -1.90600 44.60300 23.53300
C  -1.62800 44.81000 22.03100
C  -0.12400 44.90600 22.03300
C  0.32700 44.35000 23.40600
C  -2.20900 43.67600 21.11300
C  0.43400 46.29200 21.78800
C  1.57700 46.32100 20.71200
N  1.37900 44.00300 26.25200
C  2.18700 44.02700 25.13400
C  3.55600 43.80200 25.55800
C  3.45800 43.71700 26.96900
C  2.10500 43.76100 27.34900
C  4.75200 43.97200 24.56300
C  4.20200 43.52800 28.20200
O  5.37200 43.39400 28.35900
C  3.14000 43.46200 29.42800
C  3.29600 42.25900 30.20200
O  3.09400 41.10200 29.79100
O  3.85300 42.51900 31.45900
C  4.18900 41.43700 32.34200
H  -3.85300 43.80800 29.67200
H  -3.88300 44.82800 23.22900
H  2.40400 44.36100 22.98700
H  0.73000 42.66800 31.06800
H  -1.92600 44.10200 31.28400
H  -1.22100 41.63400 32.07300
H  -1.93300 41.30200 30.56400
H  -2.96900 42.10200 31.67700
H  -0.02400 45.63300 31.44900
H  1.53400 44.89800 31.43700
H  -0.31000 45.18800 33.69200
H  1.40200 44.97400 33.54100
H  -7.03700 44.14300 27.74400
H  -6.09200 45.22700 28.91000
H  -5.94400 43.37400 28.79400
H  -8.14300 46.06500 24.93300
H  -7.14500 46.40600 26.27800
H  -8.20000 44.90100 26.25400
H  -1.99100 45.77100 21.66700
H  0.19200 44.11200 21.35600
H  -2.41600 44.00400 20.09400
H  -3.07500 43.12600 21.47900
H  -1.49500 42.85500 21.04600
H  0.92200 46.68700 22.67800
H  -0.28200 47.10600 21.68000
H  1.30900 46.83600 19.79000
H  1.81500 45.28900 20.45700
H  2.46800 46.78000 21.14000
H  4.75300 43.22400 23.77000
H  5.63100 43.85700 25.19800
H  4.74100 44.97300 24.13200
H  3.44600 44.33200 30.00800
H  5.27800 41.43000 32.29400
H  3.79500 40.45300 32.08700
H  3.80900 41.63700 33.34400

