158

Mg 16.29800 -1.70700 27.74300
C  15.46500 0.48700 30.40300
C  18.26200 -3.44600 29.97000
C  17.66200 -3.37500 25.15000
C  14.36400 0.40200 25.59600
N  16.83400 -1.44500 29.96100
C  16.30600 -0.52700 30.84400
C  16.69100 -0.89700 32.34300
C  17.82500 -2.06700 32.14900
C  17.62500 -2.38400 30.59000
C  19.30200 -1.67600 32.42300
C  15.40000 -1.32200 33.19100
C  15.25600 -0.77500 34.58900
H  16.45700 -0.31600 35.42300
N  17.63300 -3.31200 27.62500
C  18.29300 -3.89200 28.66500
C  19.06500 -4.96100 28.16300
C  18.87800 -4.97600 26.67300
C  18.05100 -3.83100 26.43600
C  20.04600 -5.60900 28.94400
C  19.51400 -5.93800 25.65200
O  19.23100 -5.83700 24.46500
C  20.38900 -7.06900 26.15800
N  16.26900 -1.37000 25.68800
C  16.79100 -2.33300 24.85000
C  16.46400 -1.99100 23.39800
C  15.39200 -0.87400 23.56700
C  15.25800 -0.58000 25.05400
C  17.77500 -1.54200 22.61600
C  14.05300 -1.13500 22.79100
C  14.06500 -0.43300 21.43300
N  15.09900 -0.05200 27.89100
C  14.35300 0.71100 26.96000
C  13.57400 1.70400 27.59900
C  14.02900 1.66600 28.91700
C  14.94100 0.60900 29.04500
C  12.67700 2.64700 26.84000
C  13.85500 2.36100 30.18300
O  13.17300 3.32000 30.50300
C  14.64100 1.51500 31.28100
C  15.51500 2.46500 32.18800
O  16.67600 2.76800 31.99300
O  14.81100 2.94700 33.17300
C  15.45300 3.97500 34.01500
H  18.78400 -4.01000 30.74600
H  18.17700 -3.70200 24.24400
H  13.84400 1.07000 24.90500
H  17.06300 -0.07900 32.96100
H  17.58400 -2.98700 32.68100
H  19.68800 -2.32400 33.21000
H  19.16000 -0.66300 32.79700
H  19.92800 -1.68300 31.53000
H  15.24400 -2.39800 33.26800
H  14.59900 -0.82000 32.64800
H  14.75600 -1.47200 35.26200
H  14.52600 0.02500 34.46200
H  20.00300 -5.41700 30.01700
H  21.01700 -5.33700 28.53000
H  19.82500 -6.67200 28.85700
H  20.60800 -7.65500 25.26600
H  19.72500 -7.66900 26.77900
H  21.29900 -6.78300 26.68500
H  16.16600 -2.94500 22.96500
H  15.97300 -0.00600 23.25400
H  18.69400 -1.77600 23.15300
H  17.81800 -0.50100 22.29400
H  17.86300 -2.11700 21.69400
H  13.25400 -0.74900 23.42400
H  14.04700 -2.20200 22.56900
H  13.09400 0.04700 21.30300
H  14.06300 -1.19100 20.65000
H  14.86200 0.30700 21.36100
H  12.41800 3.51400 27.44700
H  11.86500 2.14600 26.31300
H  13.15600 3.06700 25.95600
H  13.95100 0.91700 31.87600
H  15.61000 4.88100 33.42900
H  16.36500 3.57400 34.45700
H  14.83400 4.19400 34.88500
Mg 0.74000 43.03200 25.37700
C  2.80700 43.08700 28.23900
C  -1.79900 41.92400 27.51000
C  -1.19400 41.97300 22.70700
C  3.58000 42.95900 23.45600
N  0.60100 42.50900 27.62800
C  1.51500 42.75600 28.61900
C  0.92600 42.64100 30.02200
C  -0.53300 42.11600 29.75700
C  -0.62200 42.15700 28.18700
C  -0.86300 40.66400 30.25700
C  0.82500 44.08200 30.73000
C  1.27800 43.99800 32.20200
H  0.08200 43.90200 33.20600
N  -1.25600 42.30200 25.16000
C  -2.11700 41.89600 26.12500
C  -3.37300 41.46300 25.51000
C  -3.20600 41.50400 24.14200
C  -1.86400 42.02900 23.89500
C  -4.57600 41.02700 26.37700
C  -4.19300 41.08900 23.02000
O  -3.98800 41.16900 21.79700
C  -5.54400 40.56000 23.41000
N  1.07400 42.63700 23.40800
C  0.15900 42.24900 22.47600
C  0.80700 42.07900 21.05400
C  2.25900 42.67600 21.23400
C  2.34600 42.72000 22.79700
C  0.84500 40.61200 20.50700
C  2.69200 43.95700 20.46100
C  2.45400 45.28600 21.24600
N  2.75900 43.16100 25.72700
C  3.82700 43.17600 24.86100
C  5.10300 43.39600 25.55000
C  4.72700 43.34200 26.89500
C  3.29600 43.23800 26.93700
C  6.46200 43.37000 24.91600
C  5.25600 43.20100 28.19600
O  6.43100 43.01000 28.65100
C  4.04900 43.22200 29.12100
C  4.15900 42.08700 30.02600
O  3.88700 40.88600 29.85900
O  4.60200 42.52600 31.33000
C  4.73600 41.47800 32.44100
H  -2.58700 41.49000 28.12900
H  -1.66000 41.63600 21.77900
H  4.46000 43.05600 22.81700
H  1.55500 41.92500 30.55100
H  -1.29300 42.76500 30.19200
H  -1.15000 39.95800 29.47800
H  -1.74200 40.72100 30.90000
H  -0.01100 40.19800 30.75200
H  -0.18800 44.44400 30.90500
H  1.43000 44.76100 30.12800
H  1.84300 44.89700 32.45000
H  1.99500 43.19900 32.39200
H  -5.06100 41.88700 26.83900
H  -4.32600 40.39000 27.22600
H  -5.24700 40.38800 25.80400
H  -5.34200 39.56700 23.81000
H  -6.23000 40.70000 22.57500
H  -5.90100 41.27500 24.15100
H  0.38500 42.72700 20.28500
H  2.95400 41.92800 20.85400
H  0.16100 40.04200 21.13500
H  1.79900 40.09800 20.62200
H  0.61900 40.56900 19.44100
H  2.13000 43.96900 19.52700
H  3.72100 43.89000 20.11000
H  2.53600 46.14100 20.57500
H  3.25500 45.36900 21.98000
H  1.51800 45.24900 21.80400
H  6.49100 42.95100 23.91000
H  7.03600 42.77600 25.62800
H  6.91000 44.35900 24.82600
H  4.03000 44.17300 29.65300
H  5.57300 40.80700 32.24500
H  3.83100 40.87600 32.35700
H  4.85100 41.98400 33.39900

