158

Mg -1.14300 18.00700 27.55000
C  -1.85300 15.80700 30.18200
C  -2.05700 20.67900 29.67000
C  -1.14300 20.02600 24.84800
C  -0.90500 15.28100 25.40100
N  -1.80200 18.18700 29.62200
C  -2.01700 17.14400 30.51000
C  -2.44200 17.72300 31.89900
C  -2.63200 19.23700 31.57000
C  -2.13100 19.35900 30.18900
C  -4.10100 19.77500 31.85100
C  -1.44600 17.44200 33.09900
C  -2.10900 17.09800 34.49300
H  -1.06300 17.07200 35.58900
N  -1.34100 20.08900 27.30700
C  -1.68300 20.96900 28.29200
C  -1.59900 22.31200 27.67700
C  -1.29600 22.23500 26.27900
C  -1.17300 20.72600 26.06600
C  -2.05100 23.55800 28.40300
C  -1.26100 23.26500 25.23700
O  -1.12000 22.90700 24.07100
C  -1.49300 24.69700 25.55500
N  -1.19200 17.66600 25.44200
C  -1.17900 18.64400 24.56700
C  -0.95500 18.19000 23.11800
C  -0.57200 16.72200 23.40700
C  -0.97500 16.51900 24.82000
C  -2.19500 18.46800 22.11300
C  0.95700 16.31900 23.11200
C  2.07800 17.15800 23.74400
N  -1.23000 15.91600 27.74000
C  -1.13800 14.96900 26.75000
C  -1.35500 13.67800 27.37000
C  -1.60500 13.94400 28.72800
C  -1.50300 15.33600 28.90600
C  -1.51100 12.45300 26.58800
C  -1.97800 13.37100 30.05700
O  -2.26500 12.23700 30.46200
C  -1.97300 14.52100 31.05400
C  -0.70200 14.34200 31.81000
O  0.40600 14.38900 31.32200
O  -0.87400 14.19500 33.12800
C  0.28400 13.84500 33.98800
H  -2.38100 21.44600 30.37600
H  -0.81400 20.69000 24.04500
H  -0.77500 14.47400 24.67700
H  -3.36100 17.31300 32.31800
H  -2.11600 19.93300 32.23200
H  -4.76900 19.00700 32.24100
H  -4.45100 20.01700 30.84800
H  -4.06100 20.63500 32.52100
H  -0.82800 18.33500 33.19600
H  -0.75200 16.61100 32.97300
H  -2.64500 16.15900 34.36000
H  -2.89200 17.85100 34.57900
H  -1.44600 24.42200 28.13000
H  -1.97500 23.35600 29.47100
H  -3.11400 23.77300 28.29100
H  -2.46600 24.93700 25.98400
H  -1.46200 25.31500 24.65700
H  -0.66600 25.14100 26.10800
H  -0.01100 18.58500 22.74400
H  -1.24500 16.13700 22.78100
H  -2.75700 19.30300 22.53100
H  -2.76400 17.55200 21.95400
H  -1.77300 18.66900 21.12800
H  1.16900 16.29200 22.04400
H  0.99900 15.25400 23.34100
H  1.54200 17.81700 24.42700
H  2.69200 17.80000 23.11200
H  2.80600 16.54200 24.27100
H  -2.01600 12.81000 25.69000
H  -2.07300 11.70600 27.14800
H  -0.58000 11.96200 26.30500
H  -2.87000 14.49900 31.67100
H  0.30300 12.77300 34.18600
H  0.29900 14.25200 34.99900
H  1.25400 14.09100 33.55700
Mg 47.65000 24.11400 27.67700
C  48.56500 26.10500 30.44400
C  47.09500 21.55500 30.12100
C  47.00100 22.00300 25.32400
C  48.81100 26.51100 25.54400
N  47.65400 23.87900 30.04700
C  48.05500 24.90000 30.94500
C  47.94100 24.46500 32.43500
C  47.43400 22.96400 32.33200
C  47.44600 22.73400 30.73500
C  48.42100 21.96600 33.01200
C  47.03400 25.36100 33.30900
C  47.65500 25.90400 34.64300
H  46.58700 26.31900 35.64800
N  47.04400 22.06200 27.69300
C  46.87100 21.22500 28.76600
C  46.32500 19.91900 28.27900
C  46.30600 20.02300 26.87600
C  46.83600 21.37100 26.55700
C  45.92600 18.73700 29.08400
C  45.73100 19.02600 25.88500
O  45.93900 19.21600 24.69000
C  45.20600 17.65900 26.29900
N  47.76800 24.34600 25.72700
C  47.38900 23.29100 24.88600
C  47.14600 23.78100 23.42600
C  47.77400 25.29500 23.54900
C  48.25300 25.36500 24.97100
C  47.91000 22.92200 22.40700
C  46.77200 26.37800 23.15000
C  46.73600 26.57700 21.71400
N  48.39900 25.99600 27.91100
C  48.80800 26.85100 26.91700
C  49.35100 28.05700 27.53500
C  49.28000 27.81600 28.91000
C  48.67300 26.55800 29.08000
C  49.87800 29.19900 26.84000
C  49.49800 28.38400 30.23700
O  49.85600 29.50800 30.54100
C  49.13700 27.29500 31.22400
C  50.37400 26.92300 31.90600
O  51.14500 26.05200 31.52800
O  50.46900 27.67100 33.02500
C  51.53000 27.06600 33.89800
H  46.84200 20.75500 30.82000
H  46.75100 21.40000 24.44800
H  49.14300 27.35800 24.94000
H  48.94500 24.56100 32.84700
H  46.41400 22.86200 32.70400
H  49.02000 22.63200 33.63200
H  49.05000 21.37300 32.34900
H  47.91100 21.37600 33.77300
H  46.14500 24.83500 33.65700
H  46.67100 26.16300 32.66700
H  48.27100 26.75100 34.34100
H  48.39200 25.15000 34.92200
H  46.75700 18.04000 28.98200
H  44.92000 18.41500 28.81200
H  45.77700 18.96800 30.13900
H  45.86500 17.15000 27.00300
H  45.18700 17.04900 25.39600
H  44.21000 17.70200 26.73800
H  46.05600 23.78700 23.42900
H  48.65000 25.41000 22.91100
H  48.22500 22.07200 23.01200
H  48.74700 23.41100 21.90900
H  47.34300 22.54500 21.55500
H  47.07200 27.33600 23.57600
H  45.74100 26.16200 23.43000
H  47.68300 26.39000 21.21000
H  46.49600 27.61200 21.46900
H  46.01900 25.94300 21.19300
H  49.61200 29.22000 25.78300
H  50.95100 29.37000 26.93100
H  49.40700 30.06700 27.30200
H  48.56900 27.81600 31.99400
H  51.53700 27.76900 34.73100
H  52.53500 27.04300 33.47500
H  51.36800 26.02500 34.17800

