158

Mg 49.89100 44.61400 41.46600
C  46.66700 45.09500 40.17200
C  49.92700 41.48200 40.01400
C  53.26000 44.40800 41.82100
C  50.06900 48.05500 42.14300
N  48.44800 43.42800 40.31600
C  47.20000 43.78900 39.96500
C  46.50000 42.72500 39.07000
C  47.49500 41.44200 39.35500
C  48.68600 42.13600 39.88700
C  46.91600 40.39000 40.32900
C  46.47200 43.14900 37.57000
C  45.16200 43.15500 36.69900
H  45.34000 42.55500 35.34600
N  51.38400 43.04500 41.17700
C  51.20000 41.87100 40.54000
C  52.42500 41.09800 40.66500
C  53.44400 42.00000 41.09100
C  52.67600 43.22600 41.39600
C  52.40600 39.66100 40.15700
C  54.87800 41.64100 41.28300
O  55.22400 40.49100 41.03400
C  55.93000 42.56400 41.77800
N  51.38000 46.08000 41.94900
C  52.65200 45.66100 42.08000
C  53.54400 46.83300 42.55000
C  52.60700 48.08500 42.40000
C  51.27800 47.38100 42.21700
C  54.30000 46.62400 43.87600
C  52.95400 49.05700 41.17400
C  53.17800 50.53600 41.53600
N  48.56900 46.20500 41.42800
C  48.77200 47.57000 41.74400
C  47.57300 48.35400 41.41100
C  46.77100 47.37100 40.73900
C  47.38200 46.16500 40.80600
C  47.39600 49.86200 41.50800
C  45.54800 47.24400 39.94700
O  44.79600 48.11100 39.51200
C  45.39300 45.75500 39.52700
C  44.19600 45.23700 40.08600
O  44.10500 44.59500 41.13200
O  43.18600 45.51800 39.19600
C  41.90800 45.00900 39.51300
H  49.93600 40.44000 39.69000
H  54.33800 44.48900 41.97900
H  50.15000 49.12800 42.32800
H  45.50200 42.61100 39.49500
H  47.68600 40.88300 38.43900
H  47.31300 39.40500 40.08100
H  45.84200 40.56800 40.28400
H  47.21400 40.54400 41.36600
H  47.29000 42.60700 37.09500
H  46.93700 44.13300 37.51800
H  44.84500 44.17400 36.47900
H  44.33500 42.67500 37.22300
H  53.30500 39.12800 40.46800
H  52.61000 39.63600 39.08600
H  51.45700 39.17000 40.37200
H  55.62700 43.13300 42.65700
H  56.00800 43.21600 40.90900
H  56.89400 42.08100 41.93900
H  54.36200 46.73800 41.83600
H  52.51800 48.61800 43.34600
H  55.34800 46.78400 43.62200
H  54.00300 45.65800 44.28300
H  53.86500 47.32800 44.58500
H  52.12100 48.93900 40.48000
H  53.86300 48.62400 40.75500
H  54.11200 50.93700 41.14100
H  53.12900 50.69500 42.61300
H  52.33100 51.11700 41.17000
H  47.03300 49.99800 42.52600
H  46.76900 50.32000 40.74200
H  48.35400 50.37300 41.40600
H  45.42400 45.65000 38.44300
H  41.83700 44.77600 40.57600
H  41.59600 44.04400 39.11600
H  41.22100 45.80500 39.22800
Mg 26.68300 49.32500 25.98600
C  24.65200 50.36300 28.47600
C  28.99500 48.25600 28.35900
C  28.93900 48.68400 23.47000
C  24.71800 51.13900 23.62600
N  26.75700 49.35200 28.15300
C  25.74300 49.64400 28.98500
C  26.14200 49.44300 30.43600
C  27.60600 48.99200 30.33400
C  27.86000 48.91400 28.84500
C  28.57900 49.88400 31.23000
C  25.36400 48.47200 31.20700
C  24.85000 48.91100 32.64800
H  25.68600 49.62300 33.75500
N  28.51700 48.40800 25.90400
C  29.29000 47.94900 26.97600
C  30.45300 47.28400 26.49200
C  30.40800 47.30000 25.08100
C  29.24600 48.15300 24.71000
C  31.47500 46.61900 27.41500
C  31.47900 46.64700 24.15100
O  31.33900 46.68700 22.94500
C  32.63500 46.02300 24.65800
N  26.84400 49.94200 23.80500
C  27.82500 49.46000 23.01000
C  27.60500 49.72800 21.53000
C  26.29900 50.54400 21.57400
C  25.90700 50.55200 23.08800
C  28.74800 50.53100 20.82200
C  25.04700 50.08000 20.80200
C  24.40100 48.85400 21.28700
N  25.05200 50.57500 26.00400
C  24.38300 51.10300 24.96400
C  23.19300 51.69700 25.55600
C  23.18800 51.46400 26.92400
C  24.40800 50.75200 27.15600
C  22.16600 52.36800 24.74800
C  22.49200 51.58000 28.18400
O  21.41300 52.06600 28.40800
C  23.40600 50.84600 29.22500
C  23.62600 51.81500 30.43000
O  24.47500 52.68500 30.53600
O  22.59800 51.59500 31.29200
C  22.61300 52.36300 32.57500
H  29.72900 48.08700 29.15100
H  29.62900 48.23000 22.75500
H  24.16500 51.66100 22.84200
H  26.13000 50.40300 30.95400
H  27.74900 47.96400 30.66600
H  29.56700 49.43100 31.13900
H  28.35000 50.04200 32.28300
H  28.62200 50.86000 30.74600
H  25.84800 47.54700 31.52200
H  24.54100 48.17700 30.55600
H  24.63600 47.93300 33.07900
H  23.94500 49.49500 32.48000
H  32.51000 46.84700 27.16000
H  31.30400 45.54300 27.38100
H  31.23300 47.00100 28.40600
H  33.24000 45.69100 23.81400
H  32.29400 45.16500 25.23800
H  33.30600 46.63300 25.26200
H  27.41500 48.79700 20.99500
H  26.52400 51.51300 21.12800
H  29.54200 50.48100 21.56700
H  28.48300 51.58400 20.73000
H  28.87400 50.01000 19.87200
H  25.31200 49.81400 19.77900
H  24.46800 51.00300 20.78600
H  25.06200 48.34300 21.98700
H  24.13700 48.25400 20.41700
H  23.60900 49.06100 22.00700
H  21.76900 53.20100 25.32900
H  21.24800 51.81100 24.93800
H  22.32300 52.57200 23.68900
H  22.94400 50.02300 29.77100
H  22.66300 53.44200 32.42500
H  23.48900 52.06600 33.15200
H  21.67000 52.19500 33.09500

