158

Mg 48.21100 15.92900 28.13000
C  46.06500 15.81800 30.95900
C  50.50400 17.68400 30.15100
C  50.13400 15.92600 25.51100
C  45.46800 14.45800 26.28200
N  48.22600 16.59900 30.34300
C  47.27900 16.44300 31.26600
C  47.71300 16.85100 32.65400
C  49.02600 17.71300 32.31100
C  49.26000 17.35700 30.84100
C  48.85200 19.18500 32.47700
C  48.06200 15.56800 33.50500
C  48.81300 15.72800 34.87400
H  48.78300 17.08800 35.53400
N  50.02900 16.79100 27.81200
C  50.81700 17.44000 28.76500
C  52.08400 17.75800 28.08200
C  52.05900 17.31200 26.74900
C  50.73000 16.59500 26.63100
C  53.14800 18.63800 28.69600
C  53.16800 17.37400 25.70100
O  53.04200 16.81700 24.61000
C  54.48800 18.04500 25.96600
N  47.76000 15.57700 26.14800
C  48.89300 15.47800 25.33700
C  48.44700 14.88600 23.96600
C  47.08100 14.19000 24.28700
C  46.70100 14.76200 25.64700
C  48.38100 15.93700 22.82800
C  46.99200 12.64400 24.11500
C  46.23100 11.96900 22.87400
N  46.12300 15.28900 28.49000
C  45.20900 14.68400 27.66100
C  43.94300 14.41400 28.35700
C  44.23400 14.76500 29.63800
C  45.56400 15.26000 29.67600
C  42.62300 13.94000 27.78500
C  43.67300 14.96900 30.92700
O  42.53000 14.73100 31.34500
C  44.82100 15.58000 31.80700
C  44.31100 16.75500 32.51000
O  44.15700 17.91800 32.20600
O  43.74200 16.21600 33.62200
C  43.23500 17.15600 34.65800
H  51.12600 18.29100 30.81100
H  50.88700 15.77300 24.73500
H  44.77500 13.89100 25.65700
H  46.90000 17.43400 33.08600
H  49.86400 17.34800 32.90400
H  48.14900 19.45300 33.26600
H  48.64700 19.58200 31.48300
H  49.85000 19.51000 32.77100
H  48.76700 14.98800 32.91000
H  47.13000 15.02100 33.65000
H  49.86500 15.49000 34.71600
H  48.45300 14.98500 35.58600
H  53.29800 19.50100 28.04700
H  54.08000 18.07600 28.65000
H  53.00000 18.81200 29.76200
H  55.19200 18.04900 25.13400
H  54.98300 17.43800 26.72300
H  54.35900 19.11600 26.12200
H  49.19100 14.10400 23.81500
H  46.30300 14.64500 23.67400
H  48.91700 16.78600 23.25000
H  47.39100 16.38600 22.75100
H  48.72900 15.68600 21.82600
H  46.48200 12.25400 24.99600
H  47.95000 12.12400 24.14400
H  46.80100 11.45000 22.10300
H  45.66000 12.61500 22.20800
H  45.52400 11.22700 23.24300
H  42.57500 12.85300 27.84400
H  42.50800 14.15400 26.72200
H  41.82800 14.33700 28.41500
H  45.04600 14.73100 32.45200
H  42.14900 17.12500 34.57100
H  43.56600 18.18700 34.53100
H  43.69500 16.91000 35.61600
Mg -9.93100 39.09600 39.47700
C  -9.16900 35.84100 38.84600
C  -6.72300 40.04100 38.35400
C  -11.02400 42.25800 39.44800
C  -13.30700 38.11800 40.30300
N  -8.20000 38.08000 38.67100
C  -8.08400 36.68300 38.54700
C  -6.60800 36.29800 38.12000
C  -5.82700 37.65800 38.22900
C  -7.00000 38.66300 38.44300
C  -4.67700 37.69900 39.27900
C  -6.58500 35.63900 36.73000
C  -7.12300 36.47700 35.52100
H  -8.21100 35.84000 34.61900
N  -9.03800 40.83900 38.89000
C  -7.71500 41.05700 38.53100
C  -7.58000 42.50700 38.27100
C  -8.80100 43.17500 38.42800
C  -9.68500 42.07000 38.97600
C  -6.21700 43.10700 37.89300
C  -9.00600 44.70600 38.15300
O  -8.24300 45.31800 37.45300
C  -10.43000 45.35200 38.50100
N  -11.94200 40.07600 40.02200
C  -12.04600 41.39800 39.94900
C  -13.49900 41.88500 40.31300
C  -14.18200 40.54400 40.72700
C  -13.12200 39.49000 40.35000
C  -13.65300 42.96500 41.44200
C  -15.55000 40.21500 40.09100
C  -16.81900 40.86300 40.66400
N  -11.06800 37.41200 39.52100
C  -12.44100 37.12000 39.83800
C  -12.66600 35.69100 39.82500
C  -11.40300 35.18700 39.38300
C  -10.46800 36.23600 39.17400
C  -13.81400 34.89100 40.16400
C  -10.75000 33.93300 38.92900
O  -11.18300 32.82100 38.74500
C  -9.26800 34.29700 38.58100
C  -8.40900 33.48800 39.46900
O  -8.55200 33.30600 40.68100
O  -7.35800 32.93400 38.72800
C  -6.50900 32.06300 39.49800
H  -5.70100 40.39800 38.21800
H  -11.25700 43.31300 39.61000
H  -14.27000 37.73000 40.64200
H  -6.23300 35.67900 38.93400
H  -5.39300 37.78000 37.23700
H  -3.82900 38.22100 38.83500
H  -4.38200 36.70700 39.62000
H  -4.94000 38.35800 40.10700
H  -7.16100 34.71400 36.69500
H  -5.55500 35.31500 36.58500
H  -6.26400 36.71100 34.89200
H  -7.61300 37.38900 35.86000
H  -6.16200 44.06100 38.41600
H  -6.06300 43.22300 36.82000
H  -5.41100 42.47000 38.25600
H  -10.51000 45.48500 39.58000
H  -11.10100 44.65900 37.99300
H  -10.53600 46.31900 38.00900
H  -13.98200 42.21900 39.39500
H  -14.35300 40.57000 41.80300
H  -14.17900 43.88200 41.17700
H  -12.58900 43.07300 41.65100
H  -14.08500 42.60500 42.37600
H  -15.68100 39.13400 40.11100
H  -15.36200 40.38000 39.03000
H  -16.63000 41.44400 41.56700
H  -17.46100 40.05300 41.01200
H  -17.33100 41.34900 39.83500
H  -13.75700 33.94500 39.62400
H  -14.67700 35.49400 39.88100
H  -13.83400 34.61500 41.21800
H  -9.23600 34.01800 37.52800
H  -5.86400 32.73200 40.06700
H  -5.95700 31.40100 38.83000
H  -7.16900 31.47600 40.13800

