158

Mg 16.61700 -1.48700 28.51100
C  15.32500 0.60500 30.79900
C  18.47100 -3.08800 31.00700
C  18.17500 -3.13400 26.10900
C  15.03800 0.56200 25.98200
N  16.91000 -1.23600 30.62600
C  16.25400 -0.33100 31.38800
C  16.49500 -0.47300 32.90500
C  17.67200 -1.53200 32.89400
C  17.67200 -2.00800 31.39700
C  18.98200 -0.93000 33.46700
C  15.18700 -0.87100 33.72100
C  15.07800 -0.30600 35.15700
H  16.32300 0.06000 36.00900
N  18.02600 -3.00100 28.56000
C  18.70900 -3.54100 29.67700
C  19.60500 -4.54400 29.19400
C  19.48500 -4.57400 27.75900
C  18.49200 -3.53800 27.41500
C  20.41700 -5.29100 30.22200
C  20.39400 -5.26800 26.71900
O  20.10000 -5.37500 25.53400
C  21.60400 -6.04000 27.18500
N  16.78900 -1.18100 26.38200
C  17.44900 -2.03500 25.61600
C  17.30000 -1.71300 24.12600
C  16.11900 -0.64200 24.12100
C  15.94800 -0.39700 25.61100
C  18.65000 -1.34100 23.37200
C  14.89300 -1.02000 23.26900
C  13.83800 -1.80500 24.05100
N  15.22600 0.06700 28.36800
C  14.65100 0.79900 27.33700
C  13.67500 1.70300 27.88600
C  13.93900 1.75500 29.22800
C  14.82600 0.71600 29.48400
C  12.95600 2.67200 27.11300
C  13.66500 2.42900 30.53300
O  13.01500 3.44300 30.81500
C  14.52200 1.65100 31.53400
C  15.49300 2.62500 32.20500
O  16.63100 2.98100 31.82300
O  14.94600 3.08700 33.32000
C  15.67200 3.95600 34.24100
H  19.07900 -3.38200 31.86500
H  18.66000 -3.73200 25.33400
H  14.50900 1.18100 25.25500
H  16.63300 0.54000 33.28200
H  17.50200 -2.42600 33.49300
H  19.26500 -1.56700 34.30500
H  18.79000 0.06800 33.86200
H  19.74800 -0.96100 32.69300
H  15.14500 -1.93700 33.94500
H  14.25200 -0.71500 33.18200
H  14.57300 -1.10400 35.70200
H  14.39700 0.54500 35.13600
H  20.13300 -6.33900 30.13100
H  20.19700 -5.00600 31.25100
H  21.45900 -5.01100 30.06500
H  22.12500 -5.53100 27.99500
H  22.29400 -6.22400 26.36100
H  21.27000 -7.01200 27.54800
H  16.91000 -2.64500 23.71600
H  16.57700 0.21100 23.62000
H  19.36600 -1.24800 24.18900
H  18.40700 -0.50900 22.71100
H  18.91700 -2.10200 22.63900
H  15.01200 -1.34700 22.23600
H  14.42900 -0.03600 23.19400
H  13.08200 -1.07800 24.34700
H  14.28900 -2.17900 24.97000
H  13.44400 -2.58500 23.40000
H  12.54200 2.19400 26.22500
H  13.63700 3.40900 26.68800
H  12.11500 3.13800 27.62800
H  13.79500 1.28800 32.26000
H  15.63700 4.97200 33.84900
H  16.71300 3.64600 34.33800
H  15.21200 3.99300 35.22900
Mg 43.96800 42.36800 26.36700
C  42.93200 44.74500 28.82300
C  44.72800 40.20400 28.81600
C  45.02500 40.42400 24.04000
C  43.48000 44.98000 23.88800
N  43.62800 42.48200 28.65800
C  43.36500 43.54700 29.39200
C  43.28800 43.11300 30.87600
C  44.14700 41.76200 30.80500
C  44.17400 41.42400 29.30200
C  45.63400 41.81700 31.35100
C  41.80400 42.93900 31.31500
C  41.23400 43.83800 32.48100
H  42.08400 44.24300 33.69100
N  44.69400 40.50900 26.43000
C  44.99000 39.79300 27.51900
C  45.52200 38.52200 27.17300
C  45.62700 38.54600 25.76900
C  45.11600 39.89200 25.34100
C  45.93000 37.54800 28.23000
C  46.07300 37.45000 24.79200
O  46.13400 37.61700 23.58400
C  46.41500 36.15600 25.29900
N  44.28100 42.68000 24.25900
C  44.66100 41.66800 23.47500
C  44.68100 41.99500 21.98100
C  43.99200 43.38800 21.99200
C  43.92500 43.76600 23.48200
C  46.03800 41.80700 21.37200
C  42.59800 43.47800 21.22600
C  41.43200 42.75300 21.78800
N  43.29400 44.37500 26.31500
C  43.18800 45.30400 25.24700
C  42.74200 46.53500 25.77700
C  42.60900 46.35900 27.12000
C  42.91300 45.04200 27.43900
C  42.61400 47.81700 25.07400
C  42.37300 47.00600 28.34200
O  41.95800 48.14300 28.46900
C  42.49900 46.01000 29.47900
C  43.53600 46.66600 30.43800
O  44.70000 46.88600 30.29300
O  43.03900 46.87600 31.69800
C  43.97700 47.41900 32.73900
H  44.87600 39.58800 29.70500
H  45.34700 39.71600 23.27400
H  43.42200 45.81700 23.18900
H  43.94200 43.82200 31.38200
H  43.59300 41.04800 31.41500
H  46.34800 41.61900 30.55000
H  45.78000 41.09400 32.15300
H  45.83900 42.83400 31.68500
H  41.70600 41.91800 31.68500
H  41.08800 43.10500 30.51000
H  40.32800 43.27300 32.70100
H  40.84900 44.77100 32.07000
H  46.61300 36.78600 27.85400
H  45.14100 36.95300 28.69100
H  46.23000 38.10100 29.12000
H  45.81000 35.89700 26.16800
H  47.42800 36.29200 25.67800
H  46.26300 35.36200 24.56700
H  44.13800 41.20800 21.45800
H  44.65800 44.12000 21.53500
H  46.47500 42.80600 21.36200
H  45.94100 41.48100 20.33600
H  46.73700 41.27600 22.01800
H  42.81500 43.18500 20.19800
H  42.36700 44.54300 21.22000
H  40.55400 43.39600 21.74300
H  41.63100 42.47400 22.82300
H  40.93400 41.91100 21.30700
H  43.48100 48.02000 24.44500
H  42.52300 48.59200 25.83500
H  41.69900 47.81400 24.48100
H  41.58700 45.90600 30.06700
H  44.87700 46.84300 32.95300
H  43.51400 47.36700 33.72400
H  44.28800 48.44600 32.54500

