158

Mg 43.78100 4.03300 47.68900
C  41.52300 6.74000 47.05300
C  41.22300 1.90600 47.75900
C  45.99300 1.51200 47.15600
C  46.37200 6.46000 46.81300
N  41.64300 4.31300 47.15600
C  40.89000 5.44900 47.05600
C  39.38700 5.19500 47.00300
C  39.33000 3.76800 47.70100
C  40.85400 3.27900 47.68500
C  38.75600 3.79500 49.19200
C  38.88200 5.29300 45.47900
C  37.67600 6.28200 45.25000
H  37.08400 6.50900 43.90300
N  43.71000 2.04000 47.58100
C  42.48200 1.39100 47.57300
C  42.75400 -0.06300 47.54500
C  44.13400 -0.24500 47.21600
C  44.69800 1.08500 47.33000
C  41.77100 -1.21800 47.58500
C  44.74200 -1.58700 46.82100
O  44.15000 -2.65900 46.79600
C  46.18900 -1.61900 46.21300
N  45.84700 3.97300 47.15500
C  46.56500 2.79600 47.12300
C  48.02800 3.05200 46.77900
C  48.16400 4.61900 46.72600
C  46.72300 5.08300 46.87300
C  49.03500 2.34500 47.72700
C  48.83300 5.17700 45.55000
C  49.71900 6.40600 45.76400
N  43.96800 6.15900 47.34700
C  45.06900 6.96300 47.02000
C  44.65300 8.36100 46.99800
C  43.26200 8.28200 47.05000
C  42.87100 6.93900 47.16200
C  45.49600 9.49900 46.88500
C  42.04600 9.11600 47.04000
O  41.85700 10.27400 46.75100
C  40.90900 8.11800 47.02800
C  40.04500 8.32300 48.20000
O  40.13600 8.08700 49.40300
O  38.86900 8.83200 47.61700
C  37.61500 8.94600 48.47700
H  40.36100 1.23600 47.77700
H  46.77800 0.75400 47.13600
H  47.22000 7.10700 46.57600
H  38.90200 5.99800 47.55800
H  38.67600 3.25700 46.99500
H  38.62700 4.82700 49.52000
H  39.49600 3.39200 49.88300
H  37.79600 3.29200 49.07400
H  38.52500 4.36600 45.03000
H  39.68400 5.75200 44.90200
H  38.10600 7.23800 45.55100
H  37.01800 5.93200 46.04500
H  41.83400 -1.64500 46.58400
H  40.76700 -0.93800 47.90300
H  42.02800 -1.95300 48.34800
H  46.87800 -1.34300 47.01100
H  46.33100 -0.78900 45.52100
H  46.44000 -2.55600 45.71600
H  48.06400 2.68800 45.75200
H  48.60600 4.96700 47.66000
H  48.67600 1.83900 48.62300
H  49.67800 3.04600 48.25700
H  49.74200 1.70500 47.20000
H  48.08100 5.52200 44.84100
H  49.37600 4.34300 45.10500
H  50.69700 6.10300 45.38900
H  49.77000 6.70700 46.81000
H  49.39700 7.24400 45.14700
H  45.24200 10.12100 47.74300
H  45.33400 10.09400 45.98600
H  46.53700 9.17600 46.86900
H  40.27200 8.09900 46.14400
H  36.73100 8.77800 47.86200
H  37.54100 9.95700 48.87900
H  37.62600 8.19900 49.27100
Mg 17.03600 52.81600 27.10400
C  18.86500 50.85800 29.46000
C  14.63800 53.34900 29.58900
C  14.85800 53.74100 24.70100
C  19.19800 51.49100 24.64000
N  16.70200 52.04200 29.20200
C  17.68900 51.45300 29.96100
C  17.48700 51.68600 31.46300
C  15.93900 52.18700 31.51800
C  15.65200 52.51100 29.99400
C  14.88100 51.16600 31.92900
C  18.53200 52.81700 31.98000
C  19.33000 52.38200 33.22600
H  18.51900 51.56200 34.23500
N  15.12400 53.66600 27.16900
C  14.29200 53.75900 28.30100
C  13.06600 54.46900 27.87500
C  13.11500 54.61700 26.45900
C  14.38400 53.93400 26.06400
C  11.95100 54.78100 28.85900
C  12.07600 55.26600 25.53700
O  12.20800 55.14700 24.32800
C  10.97500 55.99000 26.10700
N  16.94400 52.44300 24.97700
C  15.97600 53.10000 24.18200
C  16.33400 53.15700 22.71400
C  17.81700 52.61200 22.73900
C  18.07900 52.25200 24.21900
C  15.16100 52.30400 22.05000
C  18.82800 53.68300 22.32100
C  19.66300 53.34200 21.11900
N  18.78000 51.54900 27.05300
C  19.50600 51.09600 25.97900
C  20.56300 50.26600 26.36400
C  20.45500 50.20800 27.73900
C  19.25800 50.92300 28.06900
C  21.68400 49.56000 25.61400
C  21.04200 49.64800 28.98900
O  22.01300 48.92600 29.18800
C  20.10400 50.22300 30.12100
C  19.79900 49.10800 31.09300
O  18.86300 48.30600 31.00300
O  20.71400 49.21400 32.11900
C  20.56600 48.22500 33.20600
H  13.87100 53.51700 30.34800
H  14.30600 54.09700 23.82900
H  19.92700 51.01900 23.97700
H  17.72300 50.78700 32.03200
H  15.86100 53.07500 32.14500
H  14.30300 51.42900 32.81500
H  15.20900 50.14200 32.10800
H  14.08800 51.01700 31.19600
H  18.04700 53.76200 32.22500
H  19.22300 52.84700 31.13700
H  19.77200 53.12200 33.89300
H  20.13000 51.71700 32.90200
H  11.78700 55.83000 28.61100
H  12.17000 54.68000 29.92200
H  10.97800 54.32600 28.67300
H  10.42300 55.41000 26.84700
H  10.28100 56.19100 25.29200
H  11.40700 56.86200 26.59800
H  16.18900 54.20100 22.43400
H  17.97700 51.67700 22.20300
H  14.79000 51.56100 22.75600
H  15.48400 51.81800 21.13000
H  14.27900 52.91700 21.86400
H  19.66300 53.77600 23.01600
H  18.40800 54.67300 22.14700
H  20.71400 53.25100 21.39200
H  19.65800 54.02300 20.26700
H  19.33700 52.40800 20.66000
H  21.48800 49.41300 24.55200
H  22.03300 48.75600 26.26100
H  22.46400 50.31400 25.72100
H  20.68800 51.00600 30.60500
H  19.55900 48.28100 33.61800
H  21.30700 48.50100 33.95600
H  20.60600 47.19200 32.86000

