158

Mg 36.13200 49.89200 24.89800
C  36.56600 48.09800 27.83800
C  34.51300 52.28500 26.79400
C  35.37100 51.51600 22.03400
C  37.30100 47.13700 23.13900
N  35.64900 50.10500 27.08300
C  36.09400 49.36000 28.09000
C  35.71900 49.91900 29.50800
C  34.98100 51.27300 29.10500
C  35.04200 51.27700 27.53200
C  33.61600 51.48400 29.74100
C  36.98100 50.22200 30.46500
C  36.88300 49.77300 31.93600
H  35.62000 50.11700 32.75200
N  35.31200 51.72500 24.48200
C  34.61900 52.54100 25.40600
C  34.18700 53.77100 24.76000
C  34.42000 53.61000 23.35700
C  35.06100 52.18800 23.23700
C  33.72900 54.91500 25.52300
C  34.26600 54.53100 22.14400
O  34.62700 54.23500 21.02700
C  33.54800 55.84400 22.43400
N  36.27100 49.35900 22.88500
C  35.93400 50.23200 21.84600
C  36.07100 49.55500 20.47300
C  36.97900 48.23700 20.81700
C  36.82200 48.20500 22.33600
C  34.76400 49.40400 19.72700
C  38.50700 48.28200 20.48200
C  39.31300 49.49000 20.99800
N  36.80200 47.94400 25.33600
C  37.22500 46.95400 24.51100
C  37.64000 45.80200 25.31800
C  37.37400 46.21100 26.65300
C  36.86900 47.55100 26.60800
C  37.95800 44.39000 24.74300
C  37.37000 45.79600 28.02000
O  37.72000 44.74700 28.54600
C  36.92300 46.96400 28.84000
C  35.78400 46.58600 29.64900
O  34.66000 46.31500 29.28900
O  36.27600 46.56000 30.97200
C  35.18000 46.25900 31.92500
H  33.95600 53.04500 27.34600
H  35.01500 51.89900 21.07600
H  37.86000 46.39400 22.56500
H  34.97000 49.28300 29.98100
H  35.56000 52.14700 29.40400
H  32.85600 51.82200 29.03700
H  33.82900 52.29900 30.43200
H  33.24900 50.59000 30.24600
H  37.23000 51.27700 30.34700
H  37.79100 49.68500 29.97200
H  37.68000 50.25200 32.50600
H  37.03600 48.69500 31.89600
H  33.46600 54.73300 26.56500
H  32.82100 55.34700 25.10100
H  34.56600 55.61200 25.54000
H  33.66400 56.45800 21.54100
H  33.91700 56.51800 23.20700
H  32.49900 55.54800 22.45400
H  36.67700 50.17500 19.81100
H  36.57700 47.29900 20.43300
H  33.98800 49.68900 20.43800
H  34.62700 48.36000 19.44500
H  34.64700 50.03900 18.84900
H  38.57000 48.36600 19.39700
H  39.12200 47.44800 20.82000
H  38.72600 50.08300 21.70000
H  39.42000 50.18700 20.16700
H  40.24800 49.22900 21.49400
H  38.97000 44.04500 24.95400
H  37.83900 44.40300 23.66000
H  37.22600 43.67600 25.11800
H  37.81200 47.32500 29.35800
H  34.91500 45.20400 31.85200
H  34.29100 46.83200 31.66200
H  35.46900 46.50900 32.94500
Mg 26.55400 50.39700 27.16700
C  24.44300 51.68700 29.65600
C  28.81100 49.58600 29.69300
C  28.57200 49.62700 24.82300
C  24.20200 51.53900 24.85000
N  26.61300 50.59700 29.40700
C  25.58600 51.07100 30.24200
C  25.90000 50.75400 31.70300
C  27.34500 50.23000 31.71600
C  27.66200 50.11600 30.18500
C  28.40400 51.23100 32.26300
C  24.86100 49.55400 32.05500
C  23.82700 49.92100 33.19300
H  24.01100 48.98100 34.44100
N  28.46900 49.85500 27.20700
C  29.22000 49.46400 28.32200
C  30.50500 48.97600 27.87700
C  30.49400 49.07700 26.46300
C  29.17000 49.55900 26.09600
C  31.55800 48.52900 28.88400
C  31.64600 48.63600 25.50300
O  31.58800 48.79100 24.31800
C  32.88000 48.02500 26.11000
N  26.42500 50.56100 25.06300
C  27.32900 50.07000 24.34400
C  27.01400 49.97700 22.85900
C  25.57100 50.72100 22.83300
C  25.33600 50.96400 24.32400
C  28.09500 50.67400 21.83900
C  24.44100 49.87600 22.13800
C  23.85600 50.52000 20.89100
N  24.67400 51.37400 27.21500
C  23.91300 51.80200 26.17300
C  22.77400 52.51700 26.68200
C  22.91800 52.51800 28.12100
C  24.14800 51.83800 28.32500
C  21.67100 53.13900 25.91700
C  22.40500 52.96800 29.38100
O  21.40000 53.63800 29.59300
C  23.31800 52.34800 30.47500
C  23.73500 53.52400 31.34900
O  24.48700 54.44100 31.08400
O  23.06300 53.41500 32.55100
C  23.17700 54.51600 33.60200
H  29.45400 49.19500 30.48400
H  29.14500 49.10800 24.05200
H  23.49100 51.92800 24.11800
H  25.68300 51.65300 32.28000
H  27.47000 49.29800 32.26700
H  27.96800 51.82600 33.06500
H  28.82900 51.92400 31.53600
H  29.19100 50.55900 32.60400
H  25.49900 48.73100 32.37600
H  24.23200 49.17900 31.24800
H  22.86200 49.94000 32.68800
H  24.10800 50.96400 33.33900
H  31.37900 49.08500 29.80500
H  32.60600 48.68600 28.63200
H  31.44100 47.47900 29.15000
H  32.47100 47.13900 26.59700
H  33.36400 48.61900 26.88500
H  33.60000 47.63600 25.39100
H  26.78500 48.94200 22.60400
H  25.69000 51.73400 22.44800
H  28.70800 51.41900 22.34700
H  27.56200 51.06600 20.97400
H  28.59900 49.76500 21.50900
H  23.62500 49.81800 22.85900
H  24.72500 48.85400 21.88600
H  23.92700 49.97400 19.95000
H  24.24100 51.53700 20.80900
H  22.81000 50.73400 21.11100
H  21.95500 54.17200 25.71700
H  20.78100 53.14200 26.54700
H  21.37800 52.59100 25.02100
H  22.70600 51.72600 31.12800
H  23.58000 55.43500 33.17800
H  23.81900 54.18200 34.41800
H  22.20600 54.68600 34.06700

