158

Mg 35.66600 48.02300 25.50700
C  36.20400 46.20600 28.47700
C  34.08600 50.47700 27.22700
C  35.31800 49.63800 22.62000
C  37.32100 45.47700 23.78700
N  35.25400 48.31200 27.56900
C  35.59600 47.48400 28.63200
C  35.42300 48.13500 29.98600
C  34.49100 49.34300 29.56600
C  34.59200 49.43500 27.99800
C  32.97000 49.35500 29.98000
C  36.72000 48.64900 30.72400
C  36.64800 48.66100 32.27200
H  35.27600 48.52600 32.91200
N  34.99000 49.88400 24.99300
C  34.31900 50.77200 25.84600
C  33.87800 51.92600 25.12900
C  34.17100 51.72600 23.74700
C  34.78500 50.33200 23.67800
C  33.21000 53.08000 25.82800
C  33.87900 52.70500 22.58700
O  34.24500 52.39200 21.49500
C  33.24800 53.96800 22.84500
N  36.25600 47.58300 23.45500
C  36.02900 48.49200 22.49100
C  36.74900 48.08600 21.15600
C  37.57400 46.88400 21.61700
C  37.06200 46.64600 23.02200
C  35.63100 47.88800 20.06600
C  39.13800 47.12800 21.41800
C  39.90900 46.25900 20.45600
N  36.45000 46.17000 25.91100
C  37.04100 45.21700 25.14100
C  37.33100 44.05400 25.85400
C  37.05300 44.39800 27.22600
C  36.52400 45.71200 27.20200
C  38.03000 42.80000 25.36200
C  37.13800 43.94300 28.61500
O  37.58400 42.91400 29.11100
C  36.57900 45.14000 29.46500
C  35.37200 44.72600 30.25800
O  34.22800 44.67000 29.86900
O  35.79400 44.49900 31.57000
C  34.62300 43.96600 32.38600
H  33.39400 51.05000 27.84800
H  35.14600 50.20600 21.70400
H  37.96300 44.77100 23.25500
H  34.85300 47.46300 30.62800
H  34.76700 50.27900 30.05100
H  32.39500 49.07800 29.09700
H  32.59900 50.32500 30.30900
H  32.70800 48.71000 30.81900
H  36.95500 49.65800 30.38600
H  37.56400 47.99300 30.50800
H  37.13600 49.55600 32.65800
H  37.38400 47.91300 32.56400
H  32.29900 53.41200 25.33000
H  33.78200 54.00700 25.82400
H  32.92400 52.82400 26.84800
H  33.13900 54.42200 21.86100
H  33.89100 54.58400 23.47500
H  32.25200 53.84700 23.27000
H  37.35400 48.94300 20.85900
H  37.28900 45.99700 21.05000
H  34.70100 48.38500 20.34000
H  35.51500 46.80600 20.00500
H  35.91500 48.27300 19.08600
H  39.60900 47.01000 22.39400
H  39.36100 48.16700 21.17400
H  40.61300 45.66700 21.04200
H  40.53900 46.89600 19.83400
H  39.24900 45.59100 19.90400
H  37.26800 42.02600 25.26300
H  38.75200 42.50100 26.12100
H  38.53700 43.04200 24.42800
H  37.38700 45.34000 30.16800
H  34.93100 44.16100 33.41300
H  34.42000 42.89700 32.31400
H  33.70800 44.54900 32.28300
Mg 16.80500 51.93600 26.57900
C  18.66700 50.19700 29.19900
C  14.33000 52.52000 28.81800
C  15.08600 53.15700 24.09400
C  19.32000 50.69200 24.34000
N  16.59600 51.53000 28.73400
C  17.43300 50.82000 29.61400
C  17.04300 51.09500 31.04800
C  15.59800 51.59100 30.90900
C  15.45600 51.86500 29.38000
C  14.42600 50.62200 31.23900
C  18.01100 52.14400 31.69400
C  18.50600 51.91300 33.15000
H  17.62700 51.03600 34.05100
N  15.06000 52.90900 26.54400
C  14.11700 52.95200 27.51300
C  12.91700 53.53800 27.04100
C  13.16800 53.87000 25.68400
C  14.51200 53.32800 25.37400
C  11.72200 53.83700 27.87600
C  12.24300 54.52000 24.66100
O  12.49700 54.49600 23.49300
C  11.06500 55.29800 25.15700
N  17.14100 51.81900 24.48900
C  16.19700 52.38800 23.74400
C  16.54400 52.19400 22.21300
C  17.96000 51.46200 22.31700
C  18.17600 51.23800 23.77700
C  15.66400 51.32000 21.27000
C  19.16700 52.06300 21.64600
C  19.55800 53.54900 22.03800
N  18.62800 50.70900 26.73500
C  19.49100 50.30700 25.71700
C  20.62700 49.64500 26.29800
C  20.31500 49.53700 27.67900
C  19.11400 50.15100 27.91200
C  21.76600 49.09400 25.53000
C  20.76900 48.98500 28.91600
O  21.80600 48.39800 29.20300
C  19.73500 49.47800 30.00000
C  19.38100 48.38700 30.86700
O  18.80200 47.37200 30.59800
O  19.80600 48.69200 32.12200
C  19.60600 47.61200 33.13100
H  13.48100 52.49100 29.50500
H  14.50300 53.25900 23.17700
H  20.16800 50.29200 23.78000
H  17.12000 50.15200 31.59000
H  15.44400 52.56500 31.37500
H  13.64400 51.09000 31.83700
H  14.94100 49.85700 31.82000
H  14.06000 50.14300 30.33100
H  17.57500 53.13600 31.81600
H  18.95100 52.21000 31.14700
H  18.70400 52.90800 33.54900
H  19.46300 51.39400 33.09600
H  11.51400 54.90700 27.86200
H  11.78000 53.50300 28.91200
H  10.88500 53.28300 27.45100
H  10.56600 55.83500 24.35000
H  11.53800 56.02300 25.81900
H  10.37000 54.52600 25.48600
H  16.65700 53.14000 21.68200
H  17.84700 50.41100 22.05300
H  14.69300 51.07000 21.69600
H  16.13200 50.41800 20.87500
H  15.48500 51.96100 20.40700
H  18.82500 52.04500 20.61100
H  20.14700 51.58600 21.67400
H  19.24000 53.78200 23.05500
H  19.11700 54.32200 21.40800
H  20.63900 53.68800 22.05600
H  21.87700 49.31900 24.46900
H  21.67800 48.01200 25.61900
H  22.66600 49.21900 26.13200
H  20.33700 50.14900 30.61300
H  20.09800 46.65000 32.98800
H  18.56300 47.35400 33.31100
H  20.06500 48.07100 34.00800

