158

Mg 28.38800 56.41400 40.56100
C  26.07900 53.62200 39.95200
C  30.89200 54.56900 39.45100
C  30.16000 59.21300 40.50900
C  25.42600 58.37300 40.69900
N  28.41200 54.36200 39.86500
C  27.44700 53.39800 39.72300
C  28.08400 52.16900 39.10300
C  29.62600 52.36800 39.41700
C  29.63500 53.86100 39.57800
C  30.21000 51.67000 40.69600
C  27.66300 51.82000 37.68300
C  27.20300 52.97100 36.78200
H  27.34400 52.74900 35.22600
N  30.25800 56.81000 40.08000
C  31.15600 55.88900 39.62800
C  32.49200 56.56500 39.43600
C  32.34300 57.92200 39.76200
C  30.90200 58.01400 40.18600
C  33.76100 55.83000 39.13100
C  33.41100 58.95700 39.72700
O  34.43200 58.65100 39.11700
C  33.24900 60.35000 40.33900
N  27.83800 58.47800 40.45300
C  28.80700 59.38500 40.68600
C  28.26000 60.76100 40.81900
C  26.69900 60.58300 40.88600
C  26.66100 59.04200 40.61100
C  28.93800 61.49500 42.03100
C  25.88000 61.47300 39.86200
C  25.38900 62.77000 40.41000
N  26.20000 56.14000 40.57700
C  25.16100 56.99800 40.62900
C  23.86400 56.25400 40.65000
C  24.20500 54.96800 40.48900
C  25.58400 54.96300 40.34400
C  22.56300 56.94800 40.86400
C  23.63500 53.68200 40.30900
O  22.50100 53.23300 40.43700
C  24.80700 52.71900 39.86700
C  24.82400 51.51700 40.78200
O  24.50200 50.36900 40.51400
O  25.31700 51.93800 42.01200
C  25.81700 50.79900 42.72600
H  31.72700 53.91500 39.19100
H  30.68400 60.16000 40.64900
H  24.57100 59.04100 40.81800
H  27.83100 51.31700 39.73400
H  30.35500 52.11000 38.64800
H  29.84200 50.64400 40.67900
H  29.79800 52.16500 41.57600
H  31.29800 51.64300 40.74600
H  26.80400 51.15100 37.74100
H  28.41100 51.28400 37.09900
H  27.78900 53.85800 37.02100
H  26.13100 53.07900 36.95200
H  33.86600 55.94800 38.05200
H  33.68600 54.75000 39.25500
H  34.67600 56.14800 39.63000
H  32.70500 60.31500 41.28300
H  32.65900 60.84100 39.56600
H  34.20100 60.85300 40.50900
H  28.47700 61.28600 39.88900
H  26.22800 60.74600 41.85500
H  28.22700 62.00500 42.68200
H  29.64800 62.16700 41.55000
H  29.59100 60.78000 42.53100
H  25.05300 60.93800 39.39400
H  26.58600 61.81500 39.10600
H  25.75900 62.91500 41.42500
H  24.30500 62.85100 40.49400
H  25.81100 63.56200 39.79100
H  22.40000 57.62400 40.02500
H  22.57000 57.51100 41.79800
H  21.87200 56.10700 40.80100
H  24.63800 52.35800 38.85300
H  26.52700 51.11100 43.49200
H  26.42500 50.08800 42.16700
H  25.05000 50.26000 43.28300
Mg 1.02600 43.83200 26.04500
C  2.73800 43.75100 29.10900
C  -1.83000 42.94300 27.84900
C  -0.43100 43.17300 23.22800
C  4.08900 44.04500 24.47700
N  0.42100 43.53800 28.33900
C  1.30900 43.58900 29.36500
C  0.65100 43.30000 30.75900
C  -0.78300 42.90100 30.29600
C  -0.80400 43.20900 28.72900
C  -1.22200 41.42200 30.64000
C  0.68000 44.55200 31.68300
C  1.25800 44.22700 33.05000
H  0.75000 43.07600 33.82900
N  -0.87200 43.15700 25.61800
C  -1.93900 42.98400 26.44100
C  -3.16900 42.74900 25.69700
C  -2.80400 42.81900 24.35200
C  -1.35000 42.99000 24.35600
C  -4.57700 42.65100 26.38500
C  -3.79100 42.66600 23.13700
O  -3.37900 42.51700 22.00700
C  -5.29200 42.58000 23.36300
N  1.73300 43.60800 24.16500
C  0.92600 43.36200 23.14400
C  1.79800 43.22600 21.82300
C  3.14100 43.82400 22.18500
C  2.97700 43.81200 23.75800
C  1.72500 41.74600 21.42100
C  3.43400 45.19000 21.58900
C  3.06800 46.45800 22.34200
N  3.03800 44.01900 26.58200
C  4.18700 44.08800 25.83100
C  5.35100 43.96500 26.68100
C  4.78500 43.89400 27.97600
C  3.40300 43.91300 27.83400
C  6.82600 44.06800 26.19300
C  5.17000 43.81700 29.38000
O  6.27100 43.86300 29.94600
C  3.89300 43.66700 30.17900
C  3.95000 42.38800 30.83400
O  3.61200 41.32800 30.27700
O  4.61700 42.49100 32.08200
C  4.78900 41.08200 32.67200
H  -2.64300 42.49400 28.42400
H  -0.96600 43.02000 22.28800
H  5.00900 44.12300 23.89400
H  1.20300 42.46400 31.18900
H  -1.58400 43.49500 30.73600
H  -1.44800 40.95800 29.68000
H  -2.00800 41.43800 31.39500
H  -0.33100 40.92400 31.02300
H  -0.36900 44.81400 31.81800
H  1.24400 45.34900 31.19900
H  1.23000 45.16300 33.60800
H  2.29100 44.01700 32.77300
H  -4.27400 42.60700 27.43100
H  -5.05700 41.71300 26.10600
H  -5.13900 43.53400 26.08100
H  -5.74000 42.51200 22.37100
H  -5.68300 43.47900 23.84000
H  -5.50600 41.62200 23.83500
H  1.35200 43.68800 20.94300
H  3.90900 43.20600 21.72100
H  1.07700 41.48700 20.58300
H  1.31800 41.02900 22.13400
H  2.75400 41.46000 21.19900
H  3.09200 45.27900 20.55800
H  4.50200 45.18800 21.37500
H  3.77500 46.67600 23.14300
H  2.19200 46.31500 22.97600
H  2.97000 47.31900 21.68100
H  6.97000 44.95500 25.57700
H  7.01300 43.15000 25.63500
H  7.52600 44.17900 27.02100
H  3.82700 44.41400 30.97000
H  5.38500 41.21800 33.57400
H  5.45100 40.59900 31.95400
H  3.84600 40.63600 32.99100

