158

Mg 24.72500 -5.88100 45.41500
C  26.95600 -3.62700 43.90500
C  22.39200 -4.85400 43.03100
C  22.74800 -8.39100 46.23500
C  27.38600 -7.27300 47.12700
N  24.73400 -4.47000 43.64400
C  25.76500 -3.62500 43.23400
C  25.33800 -2.70900 42.11800
C  23.78000 -2.96100 42.03500
C  23.61200 -4.18700 42.93600
C  22.82700 -1.80600 42.46800
C  25.98200 -2.99200 40.77500
C  26.35100 -1.79300 39.81700
H  25.61300 -1.80400 38.51500
N  22.76900 -6.44600 44.85200
C  22.00000 -5.89900 43.89900
C  20.72700 -6.55300 43.89700
C  20.72200 -7.57900 44.88000
C  22.06000 -7.53600 45.42800
C  19.49300 -6.15400 43.01500
C  19.52400 -8.39200 45.20600
O  18.49600 -8.18200 44.58200
C  19.52600 -9.37500 46.28600
N  24.96900 -7.52100 46.64000
C  24.02400 -8.49800 46.70600
C  24.44500 -9.70600 47.49600
C  26.01900 -9.44200 47.67500
C  26.18300 -7.96900 47.11500
C  23.61800 -10.14300 48.71100
C  26.83700 -10.36400 46.72500
C  26.82900 -11.84300 47.05000
N  26.68500 -5.47600 45.62400
C  27.63600 -6.10100 46.46500
C  28.86100 -5.29000 46.38000
C  28.61600 -4.26300 45.45300
C  27.30800 -4.50700 44.97100
C  30.11800 -5.48400 47.15600
C  29.12400 -3.12600 44.78600
O  30.21900 -2.55100 44.84900
C  28.13100 -2.75100 43.61400
C  27.73200 -1.34500 43.59400
O  26.92300 -0.79600 44.29500
O  28.64300 -0.68200 42.86300
C  28.57000 0.72800 42.74000
H  21.58400 -4.43900 42.42500
H  22.15900 -9.27300 46.49500
H  28.27800 -7.68900 47.60000
H  25.29600 -1.66500 42.43000
H  23.40500 -3.01200 41.01300
H  22.06300 -2.27000 43.09300
H  22.28300 -1.41900 41.60600
H  23.42100 -1.05600 42.99000
H  25.34300 -3.61800 40.15300
H  26.82600 -3.65500 40.96500
H  27.42500 -1.97300 39.75900
H  26.15100 -0.82600 40.27700
H  19.24800 -6.85700 42.21900
H  19.71000 -5.24600 42.45200
H  18.69100 -6.00300 43.73800
H  20.00500 -8.92900 47.15800
H  20.13300 -10.21100 45.93800
H  18.53100 -9.81800 46.34900
H  24.25900 -10.46400 46.73500
H  26.34600 -9.56100 48.70800
H  24.20800 -10.46300 49.57100
H  22.95400 -10.94500 48.38800
H  22.95900 -9.32600 49.00400
H  27.88000 -10.05200 46.79400
H  26.51000 -10.33000 45.68600
H  26.40800 -12.36100 46.18800
H  26.21300 -11.96300 47.94100
H  27.83200 -12.17700 47.31500
H  29.85000 -5.24400 48.18500
H  30.95400 -4.83900 46.88700
H  30.47100 -6.51500 47.15600
H  28.61200 -2.96900 42.66000
H  27.60700 1.06000 42.35400
H  29.30700 1.16300 42.06300
H  28.53200 1.31000 43.66000
Mg 42.18800 40.96800 26.79700
C  41.45000 43.48000 29.13400
C  43.13300 38.97500 29.41600
C  43.03800 38.58300 24.46900
C  41.38700 43.21500 24.23400
N  42.35100 41.27500 29.04800
C  41.87500 42.35000 29.78300
C  42.02200 42.07400 31.26400
C  42.76200 40.73200 31.28100
C  42.73000 40.28400 29.84300
C  44.19500 40.81900 31.93000
C  40.59700 41.96100 31.91200
C  40.48900 42.70300 33.21300
H  39.85000 41.91800 34.41900
N  42.74600 38.96900 26.93900
C  43.19600 38.38000 28.14200
C  43.53400 37.00100 27.81000
C  43.48700 36.81500 26.39600
C  43.00600 38.10800 25.81100
C  43.86900 35.92000 28.87200
C  43.85600 35.57500 25.57800
O  43.55800 35.51100 24.38100
C  44.42700 34.37100 26.21500
N  42.36900 40.95700 24.62600
C  42.63800 39.82200 23.87500
C  42.44100 40.17400 22.33800
C  41.68400 41.53400 22.32300
C  41.82300 41.92500 23.85700
C  43.87100 40.28400 21.74000
C  40.13600 41.40800 21.96400
C  39.38400 40.20100 22.57700
N  41.74300 42.99800 26.61700
C  41.31800 43.71300 25.53100
C  40.93900 45.03400 25.98900
C  40.94200 45.03800 27.41700
C  41.37500 43.72600 27.74500
C  40.53100 46.19400 25.21100
C  40.76400 45.84000 28.66000
O  40.46900 46.99600 28.81800
C  40.88500 44.73500 29.73200
C  41.73600 45.35000 30.81600
O  42.90800 45.49400 30.81100
O  40.88900 45.89200 31.74100
C  41.59800 46.34000 33.02600
H  43.38700 38.31700 30.25000
H  43.09700 37.89900 23.62000
H  41.21700 43.95000 23.44600
H  42.59200 42.87000 31.74300
H  42.09400 40.06900 31.83000
H  44.33800 40.08500 32.72300
H  44.54300 41.82600 32.15900
H  44.93900 40.48100 31.20800
H  40.33300 40.92700 32.13200
H  39.89400 42.41300 31.21200
H  39.91100 43.60500 33.01000
H  41.48900 43.03100 33.49700
H  44.93100 35.73900 28.70500
H  43.34300 34.96600 28.86400
H  43.75900 36.36000 29.86300
H  43.94300 34.05800 27.14000
H  45.49600 34.51600 26.36900
H  44.42600 33.50800 25.54900
H  41.97400 39.38000 21.75400
H  42.11200 42.32700 21.70800
H  43.94600 39.46400 21.02600
H  44.65700 40.30800 22.49400
H  44.05300 41.18200 21.15100
H  40.16000 41.44800 20.87500
H  39.61400 42.35300 22.11300
H  38.86800 39.66000 21.78400
H  38.54700 40.55700 23.17900
H  39.96300 39.69100 23.34600
H  39.79600 46.69100 25.84400
H  40.03600 45.88300 24.29100
H  41.39600 46.83000 25.02300
H  39.90800 44.52500 30.16700
H  41.91600 45.61900 33.77900
H  40.97200 46.98400 33.64400
H  42.43800 46.97900 32.75300

