158

Mg 16.87600 -1.19300 27.84200
C  16.11200 0.79100 30.62400
C  19.22500 -2.93200 29.70300
C  17.90100 -2.94200 25.05900
C  14.75900 0.76500 25.86500
N  17.59200 -1.05500 29.86700
C  17.10300 -0.19000 30.84600
C  17.68200 -0.57700 32.20900
C  18.90000 -1.56600 31.90500
C  18.61000 -1.86100 30.38100
C  20.39300 -0.98700 32.12100
C  16.70200 -1.18000 33.25100
C  16.50200 -0.46800 34.53900
H  17.81100 0.25200 35.06400
N  18.17200 -2.86800 27.49300
C  19.11300 -3.39600 28.35100
C  19.79300 -4.59600 27.72800
C  19.32200 -4.58800 26.37600
C  18.38200 -3.44200 26.24100
C  20.81000 -5.50700 28.32600
C  19.72200 -5.52200 25.19300
O  19.33400 -5.43800 24.04900
C  20.59200 -6.75700 25.27400
N  16.34400 -1.21500 25.75200
C  17.10100 -1.81700 24.81900
C  16.74100 -1.37200 23.35900
C  15.60700 -0.27100 23.69300
C  15.52100 -0.18200 25.20200
C  17.95300 -0.77900 22.64200
C  14.20700 -0.65400 23.07800
C  13.65100 0.41100 22.08300
N  15.69500 0.45000 28.17100
C  14.80500 1.05400 27.29400
C  14.06100 2.08700 27.94700
C  14.49000 1.99800 29.31100
C  15.50900 1.05400 29.38300
C  13.09500 2.99900 27.38900
C  14.35600 2.60800 30.57400
O  13.55300 3.43000 30.99700
C  15.39900 1.75900 31.59100
C  16.19100 2.72300 32.31000
O  17.18700 3.22400 31.90400
O  15.66100 3.01400 33.58900
C  16.44400 3.99800 34.38400
H  19.99600 -3.50500 30.22300
H  18.36200 -3.34400 24.15400
H  14.20000 1.51500 25.30100
H  17.99600 0.43700 32.45700
H  18.75200 -2.45500 32.51900
H  20.90800 -1.49800 32.93500
H  20.32300 0.04500 32.46700
H  20.98700 -1.09600 31.21400
H  16.82900 -2.22700 33.52800
H  15.72200 -1.13700 32.77400
H  16.18500 -1.23200 35.24900
H  15.64900 0.18400 34.34700
H  20.65900 -6.56700 28.12000
H  20.97200 -5.24700 29.37200
H  21.75000 -5.32700 27.80500
H  20.41300 -7.29800 26.20300
H  21.60200 -6.35900 25.36000
H  20.51600 -7.39400 24.39200
H  16.45200 -2.20100 22.71400
H  15.90300 0.75300 23.46200
H  17.83700 0.19500 22.16500
H  18.30400 -1.51600 21.92000
H  18.78800 -0.71600 23.34000
H  13.42600 -0.70300 23.83700
H  14.36200 -1.61200 22.58100
H  14.39000 1.18500 21.87400
H  12.87100 0.94600 22.62400
H  13.29700 -0.20400 21.25600
H  13.14000 3.05900 26.30100
H  13.29000 4.01800 27.72500
H  12.10400 2.72900 27.75400
H  14.78600 1.21500 32.30900
H  15.89500 4.89900 34.10900
H  17.48000 4.20800 34.12000
H  16.23100 3.76700 35.42800
Mg 25.46300 1.83000 29.58800
C  27.90000 1.40000 32.39400
C  23.15700 1.95900 32.00000
C  23.29100 2.04100 27.15800
C  28.14800 1.16700 27.44300
N  25.51500 1.60000 31.96300
C  26.58600 1.57900 32.86500
C  26.04400 1.79200 34.32600
C  24.48300 1.70900 34.14700
C  24.34200 1.74000 32.60400
C  23.98000 0.39800 34.90600
C  26.62700 3.07400 35.07700
C  26.91300 2.96500 36.52000
H  26.26900 4.15500 37.43000
N  23.51200 2.06500 29.50000
C  22.75300 2.19100 30.64800
C  21.37300 2.50200 30.24700
C  21.34000 2.44900 28.82700
C  22.71100 2.13500 28.44000
C  20.21500 2.68200 31.21000
C  20.04800 2.44500 27.91700
O  20.15100 2.38200 26.70100
C  18.81300 2.69400 28.44000
N  25.68600 1.43800 27.59400
C  24.66100 1.81800 26.72900
C  25.15300 1.80100 25.29300
C  26.73900 1.71400 25.44400
C  26.89000 1.37900 26.90100
C  24.44400 0.65300 24.40900
C  27.61600 2.96000 24.98800
C  27.23300 4.30100 25.64400
N  27.52900 1.24500 29.78800
C  28.42700 0.99700 28.79700
C  29.72000 0.82800 29.34800
C  29.54100 0.86800 30.71000
C  28.18300 1.21300 30.93900
C  30.98300 0.56300 28.56000
C  30.24000 0.80100 31.99600
O  31.35200 0.53200 32.23200
C  29.19300 1.17900 33.10900
C  29.05600 0.15800 34.17100
O  28.27900 -0.79900 34.19100
O  29.93200 0.42300 35.22300
C  29.79600 -0.52700 36.35700
H  22.30700 2.08600 32.67300
H  22.69100 2.37200 26.30700
H  28.93200 1.15800 26.68300
H  26.44700 0.89100 34.78900
H  24.00900 2.60000 34.55800
H  24.61400 0.29700 35.78700
H  23.85200 -0.43200 34.21200
H  22.97100 0.72400 35.15700
H  25.90200 3.87100 34.91200
H  27.47200 3.51200 34.54600
H  27.98400 2.77400 36.59900
H  26.42900 2.08500 36.94300
H  19.82300 3.66800 30.96100
H  20.44200 2.63700 32.27600
H  19.54600 1.87300 30.91600
H  18.26400 1.87400 28.90200
H  18.16400 2.97900 27.61100
H  18.86700 3.49600 29.17600
H  25.04900 2.77600 24.81500
H  27.06700 0.89900 24.79900
H  23.58100 0.24600 24.93600
H  25.24200 -0.02100 24.09900
H  24.06500 1.06800 23.47500
H  27.54400 3.08600 23.90700
H  28.65800 2.73400 25.21400
H  28.02100 4.70700 26.27900
H  26.37500 4.26600 26.31600
H  27.01500 5.04400 24.87600
H  31.79400 0.83700 29.23500
H  31.06900 1.14900 27.64400
H  31.07300 -0.51300 28.40900
H  29.67200 2.01600 33.61700
H  28.90600 -0.15500 36.86500
H  30.68400 -0.51500 36.98800
H  29.55900 -1.54900 36.06000

