158

Mg -2.67100 17.03600 27.06300
C  -3.01300 14.98300 29.86700
C  -2.79400 19.71700 29.12300
C  -2.16800 19.01300 24.44200
C  -2.65000 14.13900 25.00200
N  -2.81400 17.25500 29.31800
C  -2.81800 16.32100 30.31000
C  -2.94500 16.93200 31.69600
C  -2.87700 18.53300 31.36300
C  -2.86200 18.54500 29.82700
C  -4.08100 19.27100 32.04100
C  -1.89300 16.43400 32.78400
C  -1.53600 17.33500 33.96100
H  -1.02500 16.67600 35.25700
N  -2.57800 19.09000 26.74900
C  -2.72400 20.04500 27.78000
C  -2.58300 21.42500 27.25700
C  -2.44400 21.22200 25.84700
C  -2.36000 19.73800 25.62900
C  -2.74600 22.71700 28.09900
C  -2.38500 22.22000 24.69900
O  -2.20600 21.89100 23.54200
C  -2.18600 23.67600 25.02000
N  -2.48700 16.65400 25.02500
C  -2.24000 17.64200 24.16200
C  -2.07000 17.05800 22.70700
C  -1.96900 15.52400 22.91300
C  -2.39800 15.39500 24.39300
C  -3.36100 17.49300 21.87700
C  -0.52800 14.84200 22.62600
C  0.64100 15.63100 23.20000
N  -2.84900 14.99300 27.42200
C  -2.81700 13.92000 26.39200
C  -3.07200 12.74300 27.15900
C  -3.07600 13.10400 28.55000
C  -2.91200 14.42300 28.61900
C  -3.41700 11.41700 26.57100
C  -3.28100 12.56400 29.96800
O  -3.59900 11.51100 30.49500
C  -3.12600 13.88000 30.82600
C  -1.84400 13.60700 31.54700
O  -0.75700 13.89400 31.17200
O  -2.11500 13.04200 32.78000
C  -1.04200 12.76900 33.75500
H  -2.78200 20.61800 29.74000
H  -1.89800 19.59400 23.55800
H  -2.58500 13.30700 24.29700
H  -3.90000 16.69800 32.16500
H  -1.95100 18.84500 31.84700
H  -4.47800 18.68500 32.87000
H  -4.90800 19.60900 31.41700
H  -3.71500 20.18500 32.51100
H  -1.00900 16.14900 32.21400
H  -2.27600 15.53000 33.25800
H  -2.23300 18.10300 34.29600
H  -0.55600 17.79600 33.83700
H  -2.58900 22.67400 29.17700
H  -3.73200 23.10900 27.84900
H  -2.03300 23.49600 27.83300
H  -1.41000 23.86600 25.76100
H  -3.08200 24.06600 25.50400
H  -1.94400 24.34400 24.19400
H  -1.14300 17.48800 22.32500
H  -2.72200 15.02800 22.29900
H  -3.93800 18.23800 22.42500
H  -3.98400 16.65800 21.55600
H  -3.10000 17.97700 20.93500
H  -0.41400 14.81200 21.54300
H  -0.48900 13.78600 22.89500
H  1.22100 16.06500 22.38600
H  1.41400 15.01900 23.66500
H  0.38700 16.25100 24.06000
H  -3.86900 10.79600 27.34500
H  -2.50500 10.93600 26.21800
H  -4.14800 11.56700 25.77700
H  -3.95400 14.04500 31.51500
H  -1.39500 12.67400 34.78200
H  -0.18000 13.43700 33.73000
H  -0.74000 11.73900 33.56900
Mg 24.16000 -4.70500 45.79100
C  26.09900 -2.39300 44.15000
C  21.49700 -3.79000 43.75700
C  22.54600 -7.36700 46.82100
C  27.09100 -5.94500 47.45900
N  23.86200 -3.23000 44.16600
C  24.77400 -2.36100 43.69700
C  24.10400 -1.29100 42.70400
C  22.59500 -1.63100 42.91500
C  22.61300 -2.96900 43.65200
C  21.82000 -0.54300 43.60700
C  24.70200 -1.54700 41.26000
C  25.08400 -0.27900 40.52600
H  24.69200 -0.09500 39.05100
N  22.27400 -5.46900 45.39000
C  21.34200 -4.95700 44.50700
C  20.15300 -5.73900 44.68300
C  20.32600 -6.81300 45.59100
C  21.74100 -6.61400 45.95900
C  18.93400 -5.24300 43.95400
C  19.32300 -7.87600 45.97100
O  18.16200 -7.96200 45.50300
C  19.61500 -8.81400 47.23000
N  24.81900 -6.55100 46.92100
C  23.83700 -7.38200 47.29700
C  24.41800 -8.52700 48.22000
C  25.88200 -8.02600 48.43300
C  25.96200 -6.73800 47.64500
C  23.41700 -8.93100 49.30600
C  26.98200 -9.03600 48.24800
C  27.53000 -9.26700 46.86100
N  26.18500 -4.26600 45.84000
C  27.23800 -4.81000 46.62400
C  28.40400 -4.04400 46.43100
C  28.04000 -3.13800 45.46700
C  26.66900 -3.26100 45.15800
C  29.75500 -4.27300 47.09700
C  28.47900 -2.07000 44.68100
O  29.59600 -1.57300 44.72100
C  27.27400 -1.52500 43.77400
C  27.07700 -0.07700 44.06200
O  26.33200 0.38800 44.94000
O  27.93400 0.67800 43.28000
C  27.83900 2.07700 43.46700
H  20.68100 -3.54800 43.07300
H  22.03000 -8.25900 47.18200
H  27.91200 -6.34500 48.05700
H  24.43400 -0.30600 43.03400
H  22.08800 -1.74700 41.95700
H  21.70000 -0.71700 44.67600
H  20.80100 -0.47700 43.22400
H  22.28600 0.43800 43.51000
H  23.96400 -2.01300 40.60700
H  25.48600 -2.30400 41.28900
H  26.15600 -0.16600 40.68400
H  24.77400 0.60000 41.09100
H  19.13000 -5.33400 42.88600
H  18.65500 -4.22200 44.21300
H  18.08700 -5.80800 44.34500
H  18.72000 -9.17500 47.73700
H  20.14400 -8.19000 47.95000
H  20.26800 -9.65400 46.99400
H  24.37000 -9.30600 47.46000
H  25.92800 -7.83300 49.50500
H  23.91600 -8.69700 50.24700
H  23.21200 -9.99000 49.14900
H  22.48900 -8.35900 49.28800
H  26.41200 -9.93300 48.49100
H  27.75300 -8.91700 49.00900
H  28.46300 -8.70500 46.89400
H  27.01100 -8.83000 46.00800
H  27.60900 -10.35400 46.85200
H  29.91700 -5.35000 47.07300
H  29.77500 -4.06600 48.16700
H  30.54100 -3.77200 46.53100
H  27.57400 -1.52300 42.72600
H  28.81600 2.48000 43.20100
H  27.57800 2.49900 44.43700
H  27.06100 2.41500 42.78200

