158

Mg 16.96700 -2.85900 27.04200
C  16.07200 -0.94500 30.00800
C  18.76000 -4.86300 28.97800
C  18.33400 -4.04400 24.23500
C  15.29200 -0.33700 25.19400
N  17.24300 -2.92600 29.29400
C  16.84200 -2.12500 30.31500
C  17.56400 -2.50500 31.64400
C  18.61500 -3.63400 31.21700
C  18.20500 -3.79400 29.75600
C  20.06900 -3.24800 31.31500
C  16.58100 -2.84700 32.75200
C  16.78700 -2.35300 34.19900
H  18.10000 -1.59800 34.62300
N  18.17400 -4.37200 26.62900
C  18.77400 -5.10700 27.57400
C  19.47300 -6.20500 26.96400
C  19.38000 -6.04800 25.57000
C  18.62700 -4.81800 25.41500
C  20.45900 -7.16100 27.72100
C  19.90000 -6.85700 24.39100
O  19.83700 -6.47300 23.19700
C  20.33000 -8.27300 24.64000
N  16.89300 -2.17000 25.02600
C  17.57700 -2.91300 24.08600
C  17.43500 -2.12700 22.70900
C  16.30900 -1.02400 23.01900
C  16.03900 -1.27300 24.47100
C  18.63600 -1.57600 21.92300
C  15.00000 -1.07400 22.07700
C  14.85300 0.11800 21.11700
N  15.88800 -0.99000 27.41900
C  15.18200 -0.15100 26.54500
C  14.47900 0.81500 27.34300
C  14.81800 0.55800 28.67600
C  15.70500 -0.55700 28.70400
C  13.51800 1.85700 26.72500
C  14.59100 0.98200 30.04400
O  14.01700 2.00600 30.41800
C  15.43600 -0.02500 30.95800
C  16.53400 0.80800 31.62600
O  17.62800 1.05000 31.14600
O  16.04400 1.40600 32.77500
C  16.87200 2.53200 33.25500
H  19.38700 -5.51800 29.58600
H  18.79900 -4.34800 23.29400
H  14.76600 0.46100 24.66500
H  18.00500 -1.61000 32.08200
H  18.41000 -4.55700 31.75900
H  20.41400 -2.80100 30.38300
H  20.65100 -4.14300 31.54000
H  20.14900 -2.51100 32.11400
H  16.63800 -3.93400 32.69800
H  15.56100 -2.62600 32.43700
H  16.85900 -3.26100 34.79800
H  15.95100 -1.67600 34.37100
H  20.35300 -8.15600 27.28900
H  20.41900 -7.25400 28.80700
H  21.42800 -6.73900 27.45500
H  21.33300 -8.30000 25.06600
H  20.39300 -8.70900 23.64300
H  19.62400 -8.81000 25.27300
H  16.89900 -2.81200 22.05100
H  16.86700 -0.08800 22.97200
H  19.57800 -2.06800 22.16700
H  18.94300 -0.65200 22.41300
H  18.40700 -1.42900 20.86800
H  14.04200 -1.23600 22.57100
H  15.13500 -1.92300 21.40800
H  15.76300 0.71600 21.11800
H  14.04200 0.77000 21.44200
H  14.61100 -0.23500 20.11400
H  13.04200 1.42400 25.84500
H  14.12500 2.73500 26.50600
H  12.77800 1.99000 27.51400
H  14.83900 -0.57600 31.68600
H  17.89900 2.23900 33.47600
H  16.37800 2.86800 34.16600
H  16.87100 3.27800 32.46000
Mg 41.51600 41.61100 27.18400
C  40.65100 44.09200 29.54500
C  42.10200 39.40000 29.81500
C  42.37800 39.39300 25.00100
C  40.96600 44.02800 24.68200
N  41.58000 41.81500 29.41300
C  40.92700 42.82400 30.13000
C  40.91600 42.53300 31.62300
C  41.33500 41.00100 31.60300
C  41.74500 40.69600 30.18800
C  42.36400 40.55600 32.64100
C  39.55700 42.89500 32.28500
C  38.89600 42.15000 33.49000
H  38.00700 42.88100 34.57600
N  42.11700 39.62900 27.42800
C  42.28100 38.87300 28.53900
C  42.58200 37.52400 28.20200
C  42.60200 37.46600 26.82400
C  42.35100 38.90900 26.36700
C  42.86600 36.37500 29.17000
C  42.85400 36.31800 25.91400
O  42.89100 36.36800 24.69100
C  43.12000 34.93400 26.46100
N  41.87600 41.79400 25.10800
C  42.08000 40.61300 24.43800
C  41.93000 40.87700 22.88900
C  41.24000 42.25300 22.88200
C  41.33300 42.71800 24.33600
C  43.32800 40.78500 22.26800
C  39.63800 42.24300 22.56300
C  38.80400 41.20300 23.39100
N  40.94800 43.63000 27.15400
C  40.93400 44.53900 26.04500
C  40.57000 45.82000 26.49500
C  40.47900 45.73000 27.87700
C  40.77600 44.34300 28.21200
C  40.35700 47.01800 25.68300
C  40.09000 46.48800 29.07700
O  39.67200 47.60300 29.28800
C  40.19400 45.42500 30.18000
C  41.12200 45.94300 31.20800
O  42.33100 45.97200 31.06200
O  40.43300 46.37000 32.28400
C  41.15000 46.90400 33.44100
H  42.16300 38.65800 30.61300
H  42.77100 38.74800 24.21200
H  40.95900 44.71700 23.83500
H  41.63600 43.22300 32.06300
H  40.44200 40.41100 31.81000
H  41.87600 39.88400 33.34800
H  42.68900 41.43100 33.20300
H  43.21200 40.03500 32.19600
H  38.77800 42.95100 31.52500
H  39.73900 43.87000 32.73600
H  39.63500 41.47100 33.91600
H  38.14000 41.47400 33.09100
H  42.20200 35.51100 29.18900
H  42.97400 36.55700 30.24000
H  43.83300 36.00600 28.83000
H  42.23400 34.72000 27.05900
H  44.04000 35.06300 27.03100
H  43.22300 34.10500 25.76000
H  41.16400 40.22100 22.47600
H  41.80300 42.99500 22.31600
H  43.66900 41.69100 21.76800
H  43.20900 39.93400 21.59600
H  44.19400 40.63300 22.91200
H  39.45700 41.88700 21.54900
H  39.13200 43.20500 22.64100
H  38.12400 41.71000 24.07600
H  39.33900 40.37100 23.84800
H  38.22200 40.73800 22.59600
H  39.89700 47.75200 26.34600
H  39.69900 46.86300 24.82800
H  41.33600 47.34900 25.33800
H  39.22000 45.35800 30.66500
H  41.35000 46.16800 34.22000
H  40.53600 47.63000 33.97300
H  42.14400 47.27300 33.18900

