158

Mg 44.72800 4.09100 46.51900
C  42.69000 7.06100 46.29900
C  41.60200 2.47400 45.66000
C  46.39700 1.30600 45.97800
C  47.55300 6.11400 46.52900
N  42.41300 4.69200 46.06900
C  41.89400 5.96900 46.04200
C  40.40900 5.96500 45.82400
C  40.03800 4.45800 45.78200
C  41.42100 3.80700 45.84900
C  38.99500 3.97000 46.86900
C  39.96200 6.70900 44.53100
C  40.99700 6.89300 43.36600
H  40.52300 7.21300 41.93100
N  44.11100 2.13900 46.07700
C  42.79300 1.67600 45.76000
C  42.88000 0.23500 45.47600
C  44.28600 -0.17700 45.53800
C  44.98800 1.11600 45.84600
C  41.62300 -0.57300 45.15200
C  44.83000 -1.59400 45.22300
O  44.05900 -2.49200 44.85700
C  46.32700 -1.88400 45.41500
N  46.69300 3.79700 46.47100
C  47.13700 2.49600 46.20300
C  48.68500 2.50300 46.18100
C  49.03700 4.02700 46.34000
C  47.70900 4.70600 46.41200
C  49.31600 1.55600 47.18500
C  49.92100 4.68800 45.15800
C  51.20900 5.44600 45.58300
N  45.16300 6.13300 46.57600
C  46.37200 6.79800 46.55400
C  46.12000 8.24600 46.65700
C  44.72200 8.40200 46.60000
C  44.12400 7.07500 46.49100
C  47.02200 9.44600 46.70600
C  43.66500 9.33900 46.73400
O  43.68700 10.54000 46.93700
C  42.34700 8.58100 46.48900
C  41.51100 8.71600 47.65400
O  41.68900 8.17700 48.75500
O  40.46500 9.56100 47.40600
C  39.55900 9.74800 48.52800
H  40.78900 1.83500 45.30800
H  47.13800 0.51600 45.83800
H  48.42800 6.76300 46.46400
H  40.02800 6.42500 46.73600
H  39.55600 4.22500 44.83300
H  38.55900 4.77900 47.45600
H  39.54200 3.22600 47.44900
H  38.15200 3.53500 46.33200
H  39.78900 7.69300 44.96700
H  39.07000 6.23900 44.11700
H  41.61400 5.99500 43.32500
H  41.71200 7.69100 43.56600
H  40.77700 -0.18700 45.72100
H  41.73100 -1.65200 45.25800
H  41.50800 -0.52000 44.06900
H  46.24200 -2.93500 45.69000
H  46.80600 -1.35500 46.24000
H  46.88600 -1.68900 44.50000
H  48.87000 2.27600 45.13100
H  49.53700 4.24400 47.28500
H  50.27400 2.01500 47.42900
H  49.44100 0.55400 46.77300
H  48.68000 1.50100 48.06800
H  49.31400 5.20100 44.41100
H  50.26300 3.80600 44.61700
H  51.95400 4.81900 45.09500
H  51.58500 5.43200 46.60600
H  51.07800 6.47300 45.24300
H  46.56500 10.25700 46.13800
H  47.94200 9.18800 46.18100
H  47.31400 9.81000 47.69100
H  41.83200 8.90300 45.58500
H  39.71100 10.75700 48.91200
H  39.62400 8.97500 49.29400
H  38.59500 9.56500 48.05300
Mg 33.87800 2.50700 29.35900
C  31.82400 3.34500 32.13100
C  36.44000 2.11500 31.64200
C  35.89100 2.30500 26.77300
C  31.16600 3.29500 27.35700
N  34.05900 2.88100 31.67400
C  33.07600 3.05200 32.55600
C  33.66500 3.03300 33.98100
C  35.23000 2.69600 33.81500
C  35.24700 2.46900 32.26400
C  36.19600 3.83300 34.20700
C  32.80800 2.05300 34.90200
C  32.78400 2.40200 36.43600
H  33.93900 3.15500 37.10700
N  35.86000 2.20900 29.22700
C  36.81000 2.07100 30.26500
C  38.13100 1.92700 29.72800
C  38.04100 2.07200 28.29100
C  36.52800 2.21300 28.06600
C  39.41400 1.73700 30.60600
C  39.11400 1.97800 27.17300
O  38.81500 2.09200 25.99200
C  40.54200 1.61400 27.56900
N  33.56500 2.78100 27.41700
C  34.53500 2.45800 26.50700
C  34.09200 2.61100 25.02900
C  32.50500 2.73500 25.25600
C  32.37700 2.90400 26.76400
C  34.69100 3.85600 24.22200
C  31.66300 1.53300 24.63900
C  30.60500 1.72000 23.55900
N  31.91000 3.22500 29.59500
C  30.93900 3.50300 28.67700
C  29.71100 3.93400 29.28000
C  30.00900 3.94700 30.63300
C  31.37100 3.44700 30.75700
C  28.37700 4.23200 28.59800
C  29.54200 4.23700 31.95300
O  28.44800 4.58800 32.29700
C  30.69300 3.96800 32.92500
C  31.09200 5.22300 33.54800
O  31.55100 6.17600 32.96000
O  30.91900 5.07700 34.89100
C  31.31600 6.10100 35.76500
H  37.29200 2.04600 32.32200
H  36.51000 2.05300 25.91000
H  30.33100 3.48500 26.67900
H  33.60100 4.07400 34.29700
H  35.49600 1.78200 34.34700
H  36.70200 3.37000 35.05500
H  35.61100 4.68400 34.55600
H  36.84000 4.11600 33.37400
H  33.39900 1.13900 34.86200
H  31.78600 1.93300 34.54400
H  32.63500 1.52400 37.06500
H  31.89600 3.03200 36.48000
H  40.36800 2.18600 30.33000
H  39.60100 0.66600 30.68200
H  39.41500 2.11200 31.62900
H  40.62600 0.85700 28.34900
H  40.84500 2.58700 27.95600
H  41.15900 1.44400 26.68600
H  34.38800 1.68300 24.54000
H  32.16800 3.69300 24.86000
H  35.35400 4.35200 24.93200
H  34.01800 4.68900 24.01500
H  35.17700 3.47700 23.32400
H  31.27300 0.90800 25.44200
H  32.34300 0.87700 24.09400
H  29.56600 1.65300 23.88300
H  30.76800 1.00500 22.75300
H  30.77700 2.73200 23.19300
H  28.38700 4.56900 27.56200
H  27.81700 5.03100 29.08500
H  27.79700 3.31300 28.52100
H  30.31700 3.27600 33.67800
H  31.44400 5.69700 36.76900
H  30.44700 6.75900 35.80200
H  32.20500 6.71000 35.60000

