158

Mg 47.46200 14.53800 27.61700
C  45.52800 14.87100 30.45100
C  49.81500 16.55000 28.93800
C  48.95600 14.68800 24.47500
C  44.57900 13.29600 25.85200
N  47.64800 15.59400 29.50800
C  46.75800 15.56800 30.58000
C  47.41200 16.29400 31.76700
C  48.62300 17.04500 31.17800
C  48.75900 16.38000 29.80900
C  48.38100 18.54500 30.86700
C  47.72700 15.29400 32.97900
C  46.95500 15.56000 34.31100
H  47.69400 15.39400 35.63600
N  49.18800 15.33500 26.88400
C  50.00100 16.13800 27.61000
C  51.18400 16.44000 26.82700
C  51.02100 15.82700 25.53800
C  49.66800 15.24700 25.56900
C  52.36700 17.19000 27.41300
C  51.91100 15.87100 24.35500
O  51.64700 15.31300 23.33400
C  53.19300 16.75000 24.29500
N  46.86200 14.04000 25.45500
C  47.69900 14.17500 24.34000
C  47.07200 13.58500 23.00600
C  45.75700 12.98600 23.63200
C  45.69800 13.49400 25.04900
C  46.90000 14.54000 21.79600
C  45.66500 11.44200 23.39700
C  46.32900 10.65500 24.52300
N  45.48500 14.01700 28.07100
C  44.45600 13.61500 27.21800
C  43.26800 13.43600 28.11900
C  43.65900 13.84300 29.40200
C  45.04200 14.23700 29.30100
C  41.85800 13.03300 27.74400
C  43.33500 14.00900 30.80500
O  42.30700 13.56600 31.34100
C  44.49900 14.67000 31.55200
C  43.96500 15.87200 32.22500
O  44.26700 17.04400 31.85600
O  43.31300 15.55600 33.37000
C  42.80100 16.72800 34.11700
H  50.68200 17.06800 29.35400
H  49.53000 14.61100 23.55000
H  43.70900 12.82500 25.39000
H  46.76800 17.11100 32.09400
H  49.53700 16.99100 31.76900
H  48.64100 18.73000 29.82500
H  49.08700 19.14200 31.44400
H  47.35300 18.81900 31.10600
H  48.79800 15.11800 33.07400
H  47.31200 14.33700 32.66300
H  46.13600 14.84400 34.36900
H  46.58500 16.58100 34.21800
H  52.64500 16.90600 28.42800
H  52.32100 18.25500 27.18600
H  53.30800 16.83800 26.99100
H  54.07700 16.25000 24.68900
H  52.89700 17.69100 24.76000
H  53.33200 17.07600 23.26400
H  47.63400 12.68000 22.77700
H  44.85400 13.45400 23.24100
H  47.42700 14.24100 20.89000
H  47.37500 15.45700 22.14800
H  45.86300 14.58700 21.46400
H  46.03500 11.06100 22.44500
H  44.59600 11.23200 23.42700
H  46.81800 9.80700 24.04400
H  45.62500 10.30700 25.27900
H  47.15300 11.23100 24.94500
H  41.61100 13.73100 26.94400
H  41.19500 13.03300 28.61000
H  41.91600 11.98900 27.43600
H  44.94900 14.02100 32.30400
H  42.16300 17.39700 33.53800
H  43.61200 17.30200 34.56400
H  42.11100 16.31900 34.85500
Mg -0.08100 43.58500 26.20600
C  2.13500 43.41100 28.98700
C  -2.53600 42.55100 28.41700
C  -2.17100 43.56000 23.64300
C  2.57900 44.20300 24.12100
N  -0.09400 42.95400 28.56600
C  0.87900 43.08600 29.47200
C  0.31900 42.94200 30.90400
C  -1.16100 42.46700 30.59900
C  -1.32200 42.76700 29.09300
C  -1.55000 41.00100 31.02400
C  0.40600 44.24700 31.75200
C  0.84500 44.19600 33.24500
H  0.73000 42.91300 33.99600
N  -2.07200 43.12000 26.04700
C  -2.91900 42.77500 27.09600
C  -4.32600 42.67100 26.59400
C  -4.26200 43.07100 25.20100
C  -2.80900 43.33700 24.94100
C  -5.48400 42.21800 27.45100
C  -5.35100 43.17300 24.13300
O  -5.10400 43.43800 22.99000
C  -6.78200 42.87500 24.50500
N  0.19100 43.80700 24.10800
C  -0.84400 43.86700 23.24800
C  -0.40100 44.26300 21.87000
C  1.09200 44.64300 22.13000
C  1.30300 44.23900 23.52700
C  -0.56400 43.08600 20.93100
C  1.44600 46.13700 21.75800
C  1.31600 47.10800 22.98600
N  1.94200 43.66600 26.47000
C  2.89200 43.89000 25.48800
C  4.26800 43.81800 26.13200
C  4.02900 43.67300 27.53100
C  2.56100 43.61300 27.66400
C  5.49200 44.01200 25.32700
C  4.63600 43.47400 28.84400
O  5.77200 43.52100 29.21800
C  3.39300 43.43700 29.77600
C  3.57200 42.24300 30.54100
O  3.28400 41.10900 30.25600
O  4.08800 42.53600 31.77000
C  4.36200 41.36700 32.65700
H  -3.30300 42.21300 29.11700
H  -2.81200 43.62900 22.76200
H  3.36800 44.27600 23.36900
H  0.98300 42.20800 31.36100
H  -1.91100 43.10400 31.06800
H  -2.47200 41.02400 31.60500
H  -0.78900 40.40900 31.53300
H  -1.73000 40.38900 30.14000
H  -0.57600 44.72100 31.74800
H  1.03100 45.00700 31.28500
H  0.12900 44.82700 33.77200
H  1.82200 44.66500 33.35600
H  -6.44000 42.41700 26.96600
H  -5.48100 42.90300 28.29900
H  -5.44800 41.27200 27.99100
H  -7.45800 43.01100 23.66100
H  -7.10500 43.50100 25.33700
H  -6.89600 41.83500 24.80800
H  -1.02300 45.12200 21.61700
H  1.77800 43.98900 21.59200
H  -0.56000 43.38300 19.88300
H  -1.54100 42.64800 21.13600
H  0.14400 42.26800 21.06700
H  0.77700 46.35700 20.92600
H  2.45700 46.28300 21.37700
H  0.92100 48.05900 22.62900
H  2.37300 47.24900 23.21000
H  0.72000 46.73300 23.81900
H  5.46500 44.79700 24.57100
H  5.70400 43.08300 24.79700
H  6.27700 44.31200 26.02100
H  3.51200 44.23100 30.51300
H  4.86800 40.58800 32.08700
H  3.44200 40.97700 33.09300
H  4.91600 41.65000 33.55200

