158

Mg 1.82200 -1.78400 43.55300
C  5.34000 -1.07100 43.01000
C  1.05100 0.97000 42.05800
C  -1.39100 -2.92000 43.51700
C  2.93600 -4.86900 44.93100
N  3.12900 -0.32200 42.51600
C  4.52400 -0.08200 42.49100
C  4.84900 1.26600 41.90400
C  3.43800 1.95200 41.60500
C  2.44700 0.83400 42.19100
C  3.28100 3.36600 42.21000
C  5.65900 1.26300 40.60400
C  5.49800 0.05300 39.70600
H  5.41400 0.31800 38.12800
N  0.03900 -1.03800 42.91400
C  -0.10700 0.15300 42.38700
C  -1.50500 0.43900 42.10000
C  -2.21100 -0.70900 42.56500
C  -1.19800 -1.63000 43.02800
C  -1.95300 1.83400 41.61600
C  -3.66500 -0.82600 42.70200
O  -4.35600 0.00500 42.15500
C  -4.33500 -1.83600 43.59200
N  0.91400 -3.67700 43.96200
C  -0.47300 -3.88700 43.96700
C  -0.82400 -5.24100 44.36200
C  0.53100 -5.72600 45.06700
C  1.56900 -4.65300 44.74300
C  -1.94700 -5.45700 45.37900
C  0.94400 -7.12400 44.57100
C  1.79400 -8.09500 45.48500
N  3.74700 -2.85600 43.96600
C  4.02300 -4.02900 44.57000
C  5.41000 -4.34800 44.68000
C  5.96500 -3.16500 44.06400
C  4.89500 -2.27900 43.68100
C  6.14000 -5.54700 45.22900
C  7.25400 -2.49100 43.70600
O  8.39200 -2.93500 43.80200
C  6.86900 -1.10900 43.02900
C  7.42900 0.12500 43.74400
O  6.81700 0.66600 44.66600
O  8.54500 0.65500 43.20400
C  9.01100 1.93600 43.59100
H  0.80300 2.00500 41.81400
H  -2.39900 -3.31100 43.36000
H  3.35000 -5.77000 45.38900
H  5.39800 1.71300 42.73300
H  3.23800 1.98200 40.53400
H  3.61900 4.14200 41.52400
H  3.84600 3.36300 43.14200
H  2.22100 3.41900 42.46000
H  6.68700 1.46400 40.90700
H  5.32200 2.10300 39.99600
H  4.79300 -0.71300 40.02900
H  6.39500 -0.56600 39.73400
H  -3.03400 1.94400 41.53000
H  -1.37100 2.09300 40.73200
H  -1.66300 2.59500 42.34100
H  -4.49100 -2.67300 42.91000
H  -5.28700 -1.44900 43.95500
H  -3.72400 -2.08900 44.45800
H  -1.06900 -5.83400 43.48000
H  0.48600 -5.82400 46.15200
H  -2.29400 -4.53600 45.84700
H  -1.74000 -6.21100 46.13800
H  -2.76300 -5.84500 44.76900
H  1.56900 -7.09600 43.67900
H  0.08600 -7.78300 44.43900
H  1.98200 -7.70200 46.48400
H  2.76400 -8.27500 45.02100
H  1.40100 -9.10600 45.59100
H  6.94900 -5.84300 44.56100
H  5.45600 -6.39200 45.30900
H  6.54800 -5.33000 46.21600
H  7.28000 -1.03800 42.02200
H  8.21500 2.66400 43.74900
H  9.72000 2.31600 42.85600
H  9.47400 2.00100 44.57500
Mg 46.94900 15.47900 28.01100
C  45.17400 15.61200 30.94100
C  49.40900 17.39900 29.38500
C  48.51500 15.37000 25.04000
C  44.09100 13.82700 26.41200
N  47.37400 16.16300 30.08300
C  46.41800 16.23100 31.06000
C  47.13800 16.82400 32.30200
C  48.25400 17.58900 31.64300
C  48.33300 17.04800 30.25800
C  48.00900 19.17400 31.68700
C  47.62400 15.79000 33.32900
C  46.90100 15.81400 34.72100
H  47.79300 15.50600 35.97700
N  48.82000 16.15400 27.37000
C  49.68600 16.89000 28.08800
C  50.91200 17.04800 27.38400
C  50.75300 16.43400 26.09200
C  49.31300 15.96500 26.09300
C  52.08500 17.70800 27.97800
C  51.65100 16.38000 24.93500
O  51.34300 15.77800 23.90300
C  52.97600 16.93400 25.03800
N  46.31700 14.78100 26.06500
C  47.18800 14.79400 24.98200
C  46.50400 14.24300 23.62600
C  45.37800 13.37100 24.26200
C  45.22000 14.10400 25.63200
C  45.97100 15.33600 22.63500
C  45.54800 11.82200 24.28700
C  46.96000 11.29700 24.69500
N  44.99600 14.88400 28.53500
C  44.03200 14.18600 27.79100
C  42.96500 13.86600 28.64800
C  43.30400 14.42900 29.92600
C  44.60700 14.98500 29.79400
C  41.78800 13.04000 28.38600
C  42.94000 14.56000 31.28800
O  41.90900 14.24800 31.85800
C  44.20600 15.25900 32.01900
C  43.63300 16.46300 32.66700
O  43.55300 17.57600 32.13700
O  43.18000 16.16900 33.97600
C  42.40400 17.07200 34.79300
H  50.15700 18.07800 29.79800
H  49.00800 15.24900 24.07300
H  43.22800 13.36900 25.92500
H  46.41800 17.56100 32.65800
H  49.19900 17.52900 32.18100
H  48.92800 19.55400 32.13200
H  47.15700 19.38000 32.33600
H  47.96400 19.64200 30.70400
H  48.70200 15.89900 33.44600
H  47.60500 14.77200 32.93900
H  46.21400 14.96800 34.74400
H  46.32600 16.72300 34.89500
H  51.96400 17.87400 29.04800
H  52.30500 18.65300 27.48000
H  52.96500 17.07100 27.89100
H  53.47700 17.08100 24.08100
H  53.45100 16.18200 25.66700
H  52.94900 17.92600 25.48900
H  47.23000 13.71900 23.00500
H  44.38900 13.45300 23.81200
H  46.61800 15.40200 21.76000
H  46.04500 16.30000 23.13900
H  44.95800 15.08900 22.31800
H  45.20400 11.20100 23.46000
H  44.90000 11.49800 25.10100
H  47.63000 12.15300 24.77700
H  47.26600 10.60300 23.91200
H  46.95700 10.72300 25.62200
H  42.03900 12.09000 27.91400
H  41.11400 13.59100 27.73100
H  41.43700 12.69700 29.35900
H  44.61100 14.57300 32.76200
H  42.42600 18.02100 34.25800
H  42.80200 17.10400 35.80800
H  41.37800 16.70300 34.77200

