158

Mg 41.30600 9.57600 29.94900
C  42.66400 10.66800 33.01300
C  38.89500 7.86800 31.72200
C  40.38500 8.20100 27.00900
C  44.25000 10.76800 28.35600
N  40.96900 9.19000 32.16200
C  41.52200 9.88200 33.22700
C  40.68700 9.76600 34.46200
C  39.53700 8.78000 33.99800
C  39.77800 8.59200 32.50600
C  39.33900 7.41800 34.78600
C  40.19800 11.03800 35.18100
C  40.31300 10.99800 36.71300
H  40.73700 12.20800 37.62400
N  39.74200 8.27600 29.44400
C  38.79700 7.67400 30.32400
C  37.86200 6.91800 29.49500
C  38.23100 7.06600 28.09600
C  39.52300 7.82500 28.10300
C  36.60000 6.30700 30.01400
C  37.39600 6.78500 26.85300
O  37.72400 7.18900 25.76900
C  36.26300 5.89600 27.05000
N  42.15900 9.55500 27.93600
C  41.56400 8.92200 26.90800
C  42.43000 9.07900 25.58800
C  43.44300 10.21800 26.02900
C  43.30800 10.21500 27.54900
C  42.98900 7.67700 25.20200
C  43.06700 11.69600 25.47400
C  41.59000 12.13600 25.53400
N  42.97900 10.59900 30.49800
C  44.05400 11.01900 29.70200
C  44.81200 11.97000 30.54100
C  44.37000 11.76500 31.83900
C  43.23600 10.90600 31.76100
C  46.01500 12.75900 30.02100
C  44.72700 11.95900 33.19600
O  45.74800 12.47400 33.71900
C  43.50900 11.46900 34.02300
C  43.97800 10.55500 35.09800
O  44.77800 9.64000 34.93500
O  43.55500 11.04500 36.33900
C  44.09100 10.42700 37.53700
H  38.11200 7.41000 32.33000
H  40.04500 7.97500 25.99700
H  45.04300 11.31100 27.83900
H  41.33900 9.19000 35.11900
H  38.55600 9.25600 34.00900
H  38.32400 7.09200 35.01000
H  39.88800 7.45300 35.72700
H  39.94500 6.69800 34.23500
H  39.13800 11.15400 34.95700
H  40.76600 11.86800 34.76200
H  40.64700 10.01900 37.05600
H  39.24600 10.96600 36.93400
H  36.71600 5.23900 29.83000
H  35.68400 6.63800 29.52600
H  36.60000 6.40900 31.09900
H  35.76900 5.53000 26.15000
H  35.50200 6.41000 27.63700
H  36.57600 4.94300 27.47700
H  41.72700 9.42900 24.83300
H  44.49400 10.05700 25.79200
H  43.00400 6.93900 26.00400
H  43.98200 7.84700 24.78500
H  42.33200 7.22500 24.46000
H  43.24100 11.64200 24.39900
H  43.67300 12.45100 25.97700
H  41.54400 13.20400 25.74500
H  41.14200 11.63900 26.39400
H  41.10000 11.86000 24.60000
H  46.00100 12.66400 28.93500
H  46.98300 12.38800 30.36000
H  45.91300 13.78500 30.37300
H  42.92200 12.33100 34.33900
H  43.31400 10.57700 38.28700
H  45.01000 10.84700 37.94500
H  44.14000 9.36600 37.29100
Mg 29.42800 57.89000 41.48000
C  26.57800 56.30600 40.07100
C  31.43400 55.61300 39.94800
C  31.97800 60.08100 41.79300
C  27.21200 60.42600 42.45800
N  29.06700 56.27200 40.03000
C  27.81700 55.74600 39.66200
C  27.98100 54.53900 38.77100
C  29.42200 54.08800 39.20700
C  30.03600 55.40300 39.75800
C  29.48600 52.92100 40.23900
C  27.92500 55.00500 37.25400
C  27.08700 54.09400 36.35900
H  26.97300 54.28600 34.83800
N  31.48000 57.86000 40.94000
C  32.10000 56.79700 40.41200
C  33.53200 57.12500 40.29200
C  33.66300 58.38700 40.89000
C  32.34100 58.82000 41.29900
C  34.52800 56.05900 39.90800
C  35.03400 59.08000 40.99200
O  35.96500 58.58200 40.47300
C  35.25300 60.44200 41.68100
N  29.59100 60.00000 41.91600
C  30.76400 60.64900 42.18700
C  30.57000 62.07900 42.84600
C  29.03800 61.99200 43.18900
C  28.52200 60.73700 42.43300
C  31.53700 62.22700 43.99100
C  28.26400 63.31100 42.66400
C  27.18000 63.89200 43.66500
N  27.24400 58.25500 41.48800
C  26.54500 59.30700 41.95400
C  25.17500 59.15600 41.71300
C  25.05900 57.89000 41.09700
C  26.39600 57.45500 40.82600
C  24.09400 60.10300 42.02800
C  24.12500 56.90500 40.57100
O  22.95400 56.90300 40.62100
C  25.09000 55.85200 39.83500
C  24.79700 54.52000 40.42400
O  25.44400 53.95700 41.34700
O  23.64000 54.08200 39.94100
C  23.09600 52.88600 40.57000
H  31.98400 54.72900 39.61900
H  32.76400 60.80000 42.03300
H  26.50900 61.12200 42.91900
H  27.25100 53.80200 39.10500
H  29.95800 53.72000 38.33200
H  30.02800 53.25300 41.12500
H  29.95500 52.14000 39.64100
H  28.46100 52.63300 40.47000
H  28.94000 55.10100 36.86700
H  27.52500 56.01900 37.24000
H  26.08500 54.21400 36.77100
H  27.46900 53.08100 36.48200
H  35.55400 56.26000 40.21400
H  34.47500 56.11300 38.82100
H  34.20700 55.09500 40.30300
H  34.81900 61.05700 40.89200
H  36.31300 60.66600 41.80100
H  34.67500 60.37500 42.60300
H  30.82000 62.69000 41.97900
H  28.90300 61.95800 44.27000
H  32.26900 62.98600 43.71400
H  32.06600 61.28100 44.10100
H  31.07000 62.55900 44.91800
H  27.98700 63.18900 41.61700
H  28.98800 64.10700 42.48800
H  27.69200 64.50600 44.40700
H  26.66900 63.09100 44.20000
H  26.42900 64.45500 43.11200
H  24.46700 60.94200 41.44100
H  24.06100 60.47700 43.05100
H  23.11100 59.81500 41.65600
H  24.90000 55.88300 38.76300
H  23.80900 52.22200 41.05800
H  22.42300 52.35400 39.89800
H  22.49900 53.21400 41.42200

