158

Mg 26.13100 1.02000 29.01700
C  28.08500 0.45500 31.85100
C  23.31000 0.94700 30.95000
C  24.25900 1.28900 26.25600
C  28.88000 0.16700 27.00600
N  25.79800 0.67600 31.15800
C  26.71800 0.64500 32.17300
C  26.05400 0.98900 33.51100
C  24.54800 0.84100 33.20200
C  24.53100 0.88200 31.64900
C  23.67200 -0.33100 33.73900
C  26.54200 2.39400 33.88200
C  27.50900 2.42200 35.10600
H  27.46800 3.31200 36.31400
N  24.00600 1.10400 28.63100
C  23.07200 1.00500 29.58600
C  21.80300 1.08000 28.87300
C  21.98000 1.23700 27.50900
C  23.43700 1.27100 27.42100
C  20.51200 0.99800 29.56300
C  20.95500 1.29000 26.29600
O  21.39700 1.56400 25.12700
C  19.50600 0.98200 26.45100
N  26.50400 0.71900 26.92400
C  25.60000 1.15100 26.00700
C  26.26900 1.15500 24.60900
C  27.76700 0.93500 24.90400
C  27.71200 0.59800 26.38300
C  25.68700 0.09100 23.67100
C  28.65300 2.24800 24.60400
C  28.32700 3.46400 25.37000
N  28.02900 0.41100 29.25300
C  29.05100 0.09700 28.38300
C  30.26800 -0.24800 29.03600
C  29.90600 -0.06500 30.39900
C  28.57200 0.32000 30.50100
C  31.45400 -0.83700 28.36800
C  30.44800 -0.10400 31.73300
O  31.61100 -0.30100 32.10600
C  29.31800 0.25900 32.69200
C  29.20800 -0.71600 33.83100
O  28.73100 -1.84500 33.76600
O  29.49000 -0.10700 35.00800
C  29.39200 -0.84600 36.28800
H  22.48800 1.07300 31.65900
H  23.71000 1.48500 25.33200
H  29.80400 -0.04500 26.46500
H  26.30600 0.15200 34.16200
H  23.99000 1.69100 33.59300
H  22.98600 0.11100 34.46100
H  24.27600 -0.95900 34.39400
H  23.25600 -0.87900 32.89300
H  25.73300 3.10300 34.05900
H  27.16600 2.83100 33.10100
H  28.49800 2.62500 34.69600
H  27.52500 1.39200 35.46200
H  19.89200 0.17200 29.21400
H  20.02300 1.94500 29.33800
H  20.57800 0.93100 30.64900
H  19.38200 0.19300 27.19300
H  18.98300 0.89400 25.49800
H  18.94300 1.82900 26.84200
H  26.02800 2.13800 24.20500
H  28.11000 0.03800 24.38800
H  24.78700 -0.39600 24.04700
H  26.31300 -0.71200 23.28200
H  25.27600 0.70900 22.87200
H  28.42100 2.43000 23.55400
H  29.72800 2.07100 24.61100
H  27.63800 3.15500 26.15600
H  27.82700 4.16900 24.70600
H  29.25800 3.93100 25.69100
H  31.94300 -0.01600 27.84400
H  31.14900 -1.68800 27.75800
H  32.09600 -1.15600 29.18800
H  29.60700 1.26300 33.00200
H  29.31100 -1.93100 36.20900
H  28.48300 -0.39000 36.67900
H  30.21900 -0.67600 36.97700
Mg -1.26300 35.28700 27.33300
C  -3.05900 33.51800 29.69300
C  -0.29600 37.45500 29.89900
C  0.64800 36.85700 25.08600
C  -2.39700 32.98200 24.91400
N  -1.55000 35.35800 29.51000
C  -2.22600 34.48600 30.25900
C  -2.03800 34.77400 31.76700
C  -1.46000 36.18300 31.76700
C  -1.12000 36.33400 30.26900
C  -2.45700 37.31100 32.23600
C  -1.22900 33.70500 32.58700
C  -2.05500 32.78800 33.44300
H  -1.69300 32.34000 34.87600
N  -0.08600 36.96500 27.48400
C  0.21000 37.71800 28.58400
C  1.19000 38.73100 28.20600
C  1.27900 38.64900 26.80000
C  0.55100 37.49000 26.40400
C  1.72300 39.68300 29.25500
C  2.09500 39.57700 25.86800
O  2.01000 39.44100 24.65100
C  2.91200 40.69500 26.37400
N  -1.10500 35.13200 25.23800
C  -0.08600 35.80400 24.60700
C  0.23500 35.20100 23.21500
C  -0.81500 34.01300 23.08500
C  -1.50500 34.03900 24.48600
C  0.18700 36.28200 22.08800
C  -0.21200 32.56700 22.82600
C  -0.96900 31.67900 21.83900
N  -2.61400 33.65500 27.23800
C  -3.03500 32.86900 26.15800
C  -4.02900 31.92800 26.65900
C  -4.08600 32.19400 28.00100
C  -3.16000 33.19200 28.30900
C  -4.82100 31.02800 25.89600
C  -4.75700 31.82100 29.26500
O  -5.62800 31.01100 29.54300
C  -4.08200 32.68600 30.35100
C  -5.12100 33.38900 31.11300
O  -5.67000 34.46500 30.94300
O  -5.42600 32.54800 32.18800
C  -6.40800 33.08000 33.16400
H  -0.04800 38.17000 30.68600
H  1.46300 37.22200 24.45800
H  -2.58200 32.20500 24.17000
H  -3.05700 34.71300 32.14900
H  -0.51600 36.22900 32.30900
H  -3.48100 37.00900 32.45700
H  -2.55800 38.10000 31.49000
H  -2.03900 37.67400 33.17500
H  -0.51600 34.22300 33.22900
H  -0.70800 33.09500 31.85000
H  -2.12600 31.91500 32.79400
H  -3.06700 33.18500 33.52400
H  1.60200 39.39200 30.29900
H  1.35100 40.67600 29.00100
H  2.75500 39.78000 28.91900
H  3.84200 40.29700 26.77900
H  2.33900 41.32200 27.05600
H  3.15100 41.37300 25.55400
H  1.28700 34.92300 23.28200
H  -1.55700 34.15300 22.29800
H  -0.49800 37.09200 22.34100
H  -0.29500 35.85000 21.21100
H  1.18700 36.64000 21.84400
H  -0.18000 31.99300 23.75200
H  0.83100 32.69500 22.53700
H  -1.12500 30.79900 22.46300
H  -0.48200 31.42100 20.89900
H  -1.90800 32.20500 21.67200
H  -4.16100 30.34400 25.36200
H  -5.42100 31.65200 25.23500
H  -5.35900 30.50100 26.68300
H  -3.76900 32.00400 31.14200
H  -6.54900 32.31000 33.92200
H  -7.30600 33.48100 32.69300
H  -5.79000 33.82800 33.66200

