158

Mg 10.03600 47.86700 25.78100
C  8.00800 48.27800 28.70200
C  12.58300 49.41800 27.55500
C  11.97700 47.77200 23.02100
C  7.28400 47.07500 23.92500
N  10.17000 48.87200 27.90600
C  9.31800 48.67300 28.93000
C  9.99400 49.15200 30.23800
C  11.37500 49.77900 29.79400
C  11.40400 49.29400 28.32700
C  11.55800 51.31600 29.81700
C  10.17900 48.03400 31.34700
C  9.62000 48.24800 32.76400
H  9.41700 46.93500 33.57500
N  12.02800 48.53900 25.36700
C  12.91900 49.11200 26.19800
C  14.21800 49.17400 25.55600
C  14.02600 48.85600 24.15800
C  12.67300 48.33700 24.15600
C  15.48900 49.55800 26.30800
C  14.95900 48.86000 22.90100
O  14.61200 48.60800 21.76900
C  16.41600 49.20200 23.14300
N  9.71300 47.48900 23.74400
C  10.65500 47.35600 22.85300
C  10.13500 46.86900 21.49200
C  8.56200 47.12200 21.68900
C  8.53800 47.13700 23.20300
C  10.62000 47.59700 20.20400
C  7.56400 46.04600 21.11600
C  6.33700 46.55000 20.46000
N  8.04900 47.58700 26.18000
C  6.98900 47.32300 25.29500
C  5.74200 47.46400 26.00100
C  6.10400 47.76200 27.34000
C  7.53300 47.87400 27.36500
C  4.34900 47.20500 25.51400
C  5.52900 47.95700 28.65300
O  4.40300 47.86700 29.02400
C  6.76100 48.13200 29.62600
C  6.86400 47.00800 30.59400
O  7.45200 45.95500 30.49600
O  5.89600 47.18000 31.55500
C  5.61100 46.09900 32.44600
H  13.46300 49.79600 28.08100
H  12.58900 47.66600 22.12200
H  6.38500 46.87300 23.33900
H  9.44300 49.95800 30.72200
H  12.26500 49.33400 30.23900
H  11.49400 51.57200 30.87400
H  10.80200 51.74100 29.15700
H  12.62100 51.46700 29.62600
H  11.22000 47.87900 31.63100
H  9.94400 47.08500 30.86600
H  8.66200 48.76200 32.68800
H  10.26600 49.00400 33.21000
H  15.32400 50.03600 27.27400
H  16.19400 50.20500 25.78700
H  15.89500 48.57300 26.54000
H  16.36700 50.11100 23.74200
H  16.96100 49.46000 22.23500
H  16.86000 48.35600 23.66800
H  10.25100 45.78700 21.42100
H  8.14900 48.09600 21.42500
H  11.07500 48.56300 20.42300
H  9.84800 47.86900 19.48400
H  11.36000 47.05000 19.62100
H  7.31300 45.39900 21.95600
H  8.19200 45.51000 20.40500
H  5.55700 45.96900 20.95200
H  6.44200 46.22600 19.42500
H  6.04900 47.59500 20.57800
H  4.22900 46.13300 25.35700
H  4.29400 47.79800 24.60200
H  3.60800 47.60000 26.20900
H  6.58100 49.08200 30.13000
H  5.45600 46.45500 33.46400
H  6.46200 45.45200 32.65900
H  4.68700 45.56100 32.23100
Mg 1.47900 42.89700 26.09400
C  3.53400 43.11600 28.91900
C  -0.99100 41.63400 28.39500
C  -0.46600 41.67600 23.54700
C  4.20200 43.09700 23.94900
N  1.29400 42.39900 28.45600
C  2.25700 42.66000 29.34500
C  1.70500 42.50100 30.79900
C  0.23400 41.87100 30.64800
C  0.15200 42.00300 29.08300
C  -0.10900 40.47600 31.30800
C  1.72700 43.84500 31.49100
C  1.84800 43.97000 33.04100
H  1.88400 42.58700 33.80100
N  -0.51900 42.01200 25.96100
C  -1.32500 41.61100 27.02600
C  -2.58800 41.17100 26.48000
C  -2.51600 41.13800 25.04800
C  -1.12500 41.62000 24.74300
C  -3.79900 40.86200 27.30500
C  -3.47200 40.63100 24.02100
O  -3.30100 40.62900 22.81300
C  -4.65600 39.99600 24.52800
N  1.77200 42.57600 24.07100
C  0.81500 42.11500 23.25100
C  1.31000 42.13200 21.77800
C  2.74000 42.82200 21.83100
C  2.96800 42.76600 23.35400
C  1.18500 40.71800 21.02800
C  2.77700 44.35500 21.24200
C  2.51500 45.62200 22.08800
N  3.46500 43.19400 26.31900
C  4.42500 43.33000 25.36700
C  5.68800 43.76800 25.99000
C  5.41200 43.62500 27.37200
C  4.02300 43.25800 27.54100
C  6.99100 43.83300 25.32200
C  6.04300 43.62500 28.61400
O  7.21300 43.71400 28.90700
C  4.89200 43.36300 29.69600
C  5.31500 42.26200 30.55200
O  5.26600 41.06400 30.32400
O  5.65100 42.81300 31.73600
C  6.09900 41.94600 32.83000
H  -1.74300 41.35800 29.13700
H  -0.98000 41.42200 22.61800
H  4.94100 43.39500 23.20300
H  2.36500 41.81600 31.33100
H  -0.53000 42.49000 31.11700
H  0.87500 40.15900 31.65300
H  -0.55300 39.72600 30.65300
H  -0.71500 40.54700 32.21100
H  0.82100 44.42800 31.32400
H  2.57000 44.41500 31.10100
H  1.00200 44.51500 33.45800
H  2.76900 44.52300 33.22300
H  -4.71300 41.30000 26.90600
H  -3.65500 41.36000 28.26400
H  -3.82400 39.78200 27.45300
H  -4.94600 39.34900 23.70100
H  -5.42200 40.76000 24.66000
H  -4.57800 39.35900 25.40900
H  0.60100 42.73200 21.20700
H  3.49400 42.16100 21.40300
H  2.09100 40.11100 21.02900
H  0.91900 40.93400 19.99400
H  0.35200 40.14500 21.43500
H  1.94900 44.40700 20.53600
H  3.74300 44.49900 20.75900
H  1.95000 46.36500 21.52600
H  3.44200 46.04900 22.47200
H  1.87000 45.45000 22.95000
H  6.91300 44.38500 24.38500
H  7.36600 42.82500 25.14600
H  7.72900 44.28400 25.98500
H  4.76400 44.23600 30.33600
H  5.36500 42.10800 33.61900
H  7.03900 42.38200 33.17000
H  6.13900 40.89800 32.53100

