158

Mg 17.99900 -2.48100 27.14600
C  17.03400 -0.69100 29.91800
C  20.09500 -4.31100 29.23900
C  19.23500 -3.94800 24.35700
C  16.06600 -0.29300 25.16700
N  18.50100 -2.49700 29.32100
C  17.98100 -1.65000 30.20100
C  18.40600 -2.09000 31.60200
C  19.63400 -3.07900 31.39400
C  19.46900 -3.29800 29.89400
C  21.06500 -2.54700 31.77600
C  17.21300 -2.72300 32.38300
C  16.89000 -2.15500 33.74900
H  18.15900 -1.77400 34.51500
N  19.52400 -3.95400 26.89400
C  20.25000 -4.53900 27.86800
C  21.04400 -5.60000 27.22800
C  20.86500 -5.51200 25.79300
C  19.87400 -4.40800 25.61600
C  21.76000 -6.70800 28.02700
C  21.41000 -6.38500 24.58000
O  21.31400 -6.10300 23.39400
C  22.15000 -7.57600 24.95900
N  17.67600 -2.22700 25.08200
C  18.24900 -3.02700 24.13600
C  17.96200 -2.54900 22.67500
C  16.80100 -1.46500 22.99200
C  16.86100 -1.27700 24.48900
C  19.24900 -1.98000 21.97600
C  15.39300 -1.98800 22.44200
C  14.92500 -1.36900 21.08400
N  16.83800 -0.87400 27.45700
C  16.15200 -0.11200 26.55800
C  15.22500 0.75700 27.27700
C  15.59300 0.60000 28.60000
C  16.52500 -0.41200 28.65600
C  14.12300 1.74100 26.68400
C  15.25100 0.97300 29.96400
O  14.38900 1.71500 30.41500
C  16.23500 0.14200 30.88900
C  16.98800 1.15800 31.58500
O  18.02700 1.62300 31.22200
O  16.31100 1.49800 32.77700
C  17.10300 2.42700 33.59500
H  20.71600 -4.92100 29.89900
H  19.59300 -4.47700 23.47100
H  15.36500 0.30800 24.58600
H  18.80500 -1.19900 32.08800
H  19.44900 -4.00500 31.93800
H  21.05100 -1.45900 31.84100
H  21.68400 -2.81000 30.91900
H  21.51900 -2.84100 32.72200
H  17.34100 -3.80400 32.43700
H  16.41800 -2.76600 31.63800
H  16.24500 -2.86800 34.26200
H  16.36800 -1.21900 33.54800
H  21.84800 -7.66100 27.50600
H  21.25000 -6.84900 28.98000
H  22.74000 -6.26800 28.21200
H  22.24500 -8.11200 24.01500
H  21.41600 -8.15100 25.52300
H  23.05900 -7.24900 25.46500
H  17.48900 -3.35400 22.11200
H  16.97000 -0.45900 22.60800
H  19.18900 -0.89400 22.03900
H  19.20400 -2.14500 20.89900
H  20.25500 -2.25800 22.29100
H  14.65700 -1.78300 23.21900
H  15.49800 -3.04600 22.20300
H  15.74300 -0.80100 20.64000
H  14.06700 -0.70300 21.17600
H  14.54900 -2.17100 20.44900
H  13.77500 1.50900 25.67700
H  14.59600 2.72300 26.68800
H  13.32200 1.81700 27.41900
H  15.55500 -0.37200 31.56800
H  16.75500 3.41900 33.30700
H  18.18400 2.28800 33.59700
H  16.87200 2.21600 34.64000
Mg 46.58100 45.10000 44.43600
C  43.17800 44.68300 43.28100
C  47.22600 41.91500 43.09000
C  49.84100 45.81000 44.40200
C  45.75500 48.35900 44.98300
N  45.30000 43.54900 43.36400
C  43.97100 43.56500 43.05800
C  43.59600 42.36500 42.18800
C  44.75700 41.33900 42.49400
C  45.89600 42.33500 43.00500
C  44.44600 40.22700 43.62200
C  43.47100 42.87700 40.73700
C  42.25800 42.27500 39.90000
H  42.56200 41.56900 38.63900
N  48.32100 43.90200 44.11600
C  48.39500 42.60700 43.54200
C  49.75000 42.11800 43.69400
C  50.55900 43.28000 44.05500
C  49.61800 44.39800 44.18300
C  50.16300 40.63400 43.35100
C  52.07800 43.31900 44.22700
O  52.65800 42.27700 43.99000
C  52.82300 44.52100 44.66000
N  47.60200 46.79100 44.64800
C  48.96500 46.89200 44.67300
C  49.51300 48.31200 45.03200
C  48.18200 49.06600 45.25200
C  47.07400 48.02900 44.92700
C  50.50000 48.44700 46.26000
C  47.98300 50.36200 44.38600
C  47.81700 51.68800 45.13300
N  44.79900 46.31600 44.27300
C  44.56900 47.61500 44.67200
C  43.20500 48.00100 44.49100
C  42.60900 46.90800 43.89900
C  43.58700 45.92100 43.83000
C  42.70300 49.45200 44.63300
C  41.37200 46.32600 43.36300
O  40.28600 46.86000 43.20000
C  41.67200 44.82800 43.14500
C  40.99200 43.99800 44.15300
O  40.50500 42.93500 43.93500
O  41.27600 44.52100 45.36000
C  40.94700 43.64500 46.47900
H  47.27500 40.89800 42.69600
H  50.92000 45.96900 44.34200
H  45.39300 49.32700 45.33400
H  42.64500 41.91400 42.47400
H  45.05600 40.91000 41.53700
H  44.22500 39.37200 42.98300
H  43.55800 40.42300 44.22200
H  45.29000 40.09900 44.29900
H  44.35500 42.67100 40.13500
H  43.28400 43.94200 40.59700
H  41.72100 43.18000 39.61400
H  41.65600 41.54500 40.44100
H  50.86900 40.16700 44.03900
H  50.54000 40.59000 42.32900
H  49.34400 39.92500 43.46800
H  52.95600 45.16800 43.79300
H  53.75400 44.09500 45.03500
H  52.31400 44.98300 45.50500
H  50.02000 48.58600 44.10600
H  48.06400 49.37800 46.29000
H  51.02400 47.49300 46.31200
H  49.96700 48.50400 47.20900
H  51.25800 49.22200 46.14200
H  47.13400 50.24700 43.71300
H  48.78400 50.37800 43.64700
H  48.62200 52.37100 44.86500
H  47.86000 51.51200 46.20800
H  46.87100 52.17900 44.90400
H  43.07000 50.06500 45.45600
H  41.61600 49.41200 44.70900
H  42.99900 49.84000 43.65900
H  41.25200 44.57700 42.17100
H  41.48500 43.99200 47.36100
H  41.36600 42.63900 46.44200
H  39.87800 43.55400 46.67400

