158

Mg 5.57200 54.12200 40.98300
C  4.61800 50.71500 40.32100
C  8.60300 53.46600 39.60500
C  6.13400 57.48600 41.16300
C  2.31900 54.51100 42.35700
N  6.30900 52.41600 39.81100
C  5.83700 51.14600 39.75600
C  6.78200 50.30400 38.93200
C  8.17900 51.01000 39.21200
C  7.67200 52.37500 39.60600
C  9.12000 50.42800 40.27600
C  6.33700 50.28800 37.42800
C  7.24600 49.39100 36.47300
H  6.30900 48.56600 35.50500
N  7.17900 55.34900 40.36400
C  8.34800 54.84300 39.94400
C  9.29400 55.97400 39.85100
C  8.51800 57.16500 40.09800
C  7.19800 56.72400 40.52900
C  10.65300 55.77900 39.39600
C  9.04100 58.50800 40.06500
O  10.18900 58.74700 39.63100
C  8.25500 59.73700 40.42200
N  4.34000 55.70100 41.48200
C  4.88200 56.95800 41.60000
C  3.93800 57.97100 42.31300
C  2.75600 57.02000 42.79900
C  3.16100 55.63200 42.21100
C  4.61600 58.86000 43.47800
C  1.30100 57.53300 42.33200
C  0.54100 58.30800 43.34500
N  3.72500 52.83300 41.25900
C  2.57800 53.18100 41.98300
C  1.77700 51.94200 42.12200
C  2.60400 50.99700 41.53400
C  3.68600 51.54900 40.96700
C  0.42900 51.81000 42.79600
C  2.51300 49.63100 41.27700
O  1.71500 48.78800 41.64700
C  3.93000 49.37000 40.43500
C  3.50500 48.62200 39.15600
O  2.45300 48.59200 38.50400
O  4.63200 47.87600 38.83200
C  4.70600 46.64000 38.10200
H  9.62200 53.25600 39.27300
H  6.33900 58.54200 41.35200
H  1.40500 54.73000 42.91400
H  6.95700 49.31500 39.35600
H  8.63600 51.11000 38.22800
H  10.12800 50.24600 39.90300
H  8.75000 49.47900 40.66400
H  9.15900 51.10100 41.13300
H  6.44400 51.29200 37.01700
H  5.29400 50.02300 37.25800
H  7.95400 48.62700 36.79100
H  7.82000 50.10900 35.88800
H  11.33000 56.24000 40.11600
H  10.66000 55.98100 38.32500
H  10.87600 54.72700 39.57100
H  8.91200 60.54600 40.10200
H  8.05600 59.74900 41.49400
H  7.37200 59.75300 39.78400
H  3.50700 58.60800 41.54100
H  2.63500 56.83400 43.86600
H  4.19100 58.71000 44.47000
H  4.26100 59.88200 43.34500
H  5.69700 58.73200 43.52600
H  0.72600 56.67400 41.98600
H  1.45000 58.15500 41.45000
H  -0.15200 58.98600 42.84700
H  1.23700 58.88700 43.95200
H  -0.02200 57.56600 43.91100
H  0.01100 50.88200 42.40600
H  -0.19900 52.66200 42.53800
H  0.64000 51.73700 43.86300
H  4.39000 48.65000 41.11100
H  4.15400 45.86000 38.62500
H  5.73800 46.35200 37.90300
H  4.32000 46.90400 37.11700
Mg -4.85700 25.32300 26.17400
C  -3.68500 26.62500 29.03200
C  -6.93000 23.26000 28.17500
C  -5.70100 23.73500 23.43600
C  -2.38700 27.08300 24.27800
N  -5.06500 24.78000 28.37200
C  -4.56700 25.63300 29.35000
C  -5.19500 25.36100 30.69400
C  -5.94200 23.94900 30.44500
C  -5.98100 23.91400 28.93300
C  -5.27200 22.67200 30.98800
C  -6.17800 26.48800 31.24300
C  -6.20400 26.69600 32.78400
H  -5.72800 25.61700 33.75400
N  -6.15000 23.79900 25.84300
C  -7.02500 23.09900 26.74600
C  -7.91900 22.19000 25.99300
C  -7.56300 22.30900 24.61200
C  -6.42300 23.35400 24.60200
C  -8.86300 21.38100 26.68000
C  -8.16000 21.54900 23.42100
O  -7.81700 21.82400 22.21900
C  -9.25700 20.49000 23.69200
N  -4.20700 25.46900 24.15400
C  -4.76400 24.69000 23.20900
C  -4.15900 25.01800 21.77300
C  -3.16700 26.13600 22.07800
C  -3.26000 26.24400 23.58800
C  -3.56900 23.74800 21.04900
C  -3.47200 27.44500 21.28000
C  -2.50000 27.79600 20.16800
N  -3.38100 26.62300 26.49300
C  -2.53000 27.37100 25.66500
C  -1.71500 28.29600 26.47600
C  -2.17000 28.10500 27.72100
C  -3.06800 26.97500 27.77000
C  -0.63400 29.21100 25.98600
C  -2.06300 28.50000 29.06700
O  -1.36200 29.34100 29.53800
C  -2.89600 27.49000 29.95300
C  -1.95900 26.67400 30.77400
O  -1.21500 25.75400 30.30300
O  -1.83700 27.27200 32.04200
C  -0.91900 26.77000 33.04200
H  -7.50900 22.58900 28.81100
H  -6.00800 23.22600 22.52000
H  -1.70200 27.64200 23.63700
H  -4.36400 25.22700 31.38600
H  -6.98400 23.94400 30.76500
H  -4.70600 22.18300 30.19500
H  -6.11100 22.05800 31.31300
H  -4.58800 22.92300 31.79800
H  -7.22300 26.33000 30.97500
H  -5.81700 27.45700 30.89800
H  -7.23800 26.98100 32.97800
H  -5.69800 27.64400 32.96800
H  -8.43900 20.37900 26.73100
H  -9.81700 21.50300 26.16700
H  -8.98200 21.66600 27.72500
H  -9.03600 19.74800 24.46000
H  -9.51500 19.95900 22.77600
H  -10.15600 21.01200 24.02200
H  -4.96100 25.30300 21.09200
H  -2.16700 25.84600 21.75500
H  -2.53700 23.89900 20.73200
H  -4.11300 23.41100 20.16600
H  -3.67200 22.94900 21.78300
H  -3.55700 28.23900 22.02200
H  -4.39600 27.42400 20.70200
H  -1.81700 28.54800 20.56300
H  -3.09000 28.17300 19.33300
H  -1.92600 26.96600 19.75400
H  -0.92100 29.34300 24.94300
H  0.36400 28.77300 26.01500
H  -0.70300 30.11500 26.59000
H  -3.56500 27.94600 30.68200
H  0.09800 27.13300 32.88800
H  -0.96200 25.68700 32.92600
H  -1.24700 27.05000 34.04300

