158

Mg 1.90900 -2.91200 44.70000
C  5.13000 -1.76300 43.93000
C  0.75400 -0.54100 42.38200
C  -1.28600 -4.19900 44.96000
C  3.15500 -5.53100 46.44800
N  2.91400 -1.36300 43.23200
C  4.21300 -1.13100 43.15100
C  4.48600 0.01100 42.15000
C  3.05400 0.62900 42.04800
C  2.17500 -0.53100 42.52800
C  2.72300 1.83600 42.93700
C  5.19900 -0.54300 40.90700
C  6.53100 0.12400 40.56600
H  6.64200 1.07600 39.34100
N  -0.04300 -2.38700 43.83800
C  -0.25800 -1.35200 42.91400
C  -1.70800 -1.21400 42.70200
C  -2.30400 -2.26300 43.47300
C  -1.21300 -2.99700 44.21600
C  -2.32700 -0.11700 41.87200
C  -3.85700 -2.49600 43.56700
O  -4.65000 -1.78700 42.99800
C  -4.38700 -3.64900 44.21400
N  1.09100 -4.68300 45.43600
C  -0.31300 -4.95400 45.52800
C  -0.53400 -6.31000 46.23500
C  0.92300 -6.67300 46.77500
C  1.79100 -5.55200 46.14900
C  -1.76800 -6.32500 47.21600
C  1.37600 -8.13800 46.38300
C  2.04600 -9.00300 47.44000
N  3.76300 -3.54100 45.14200
C  4.12300 -4.60800 45.94300
C  5.61800 -4.63600 46.04900
C  6.04100 -3.50600 45.28500
C  4.89000 -2.79400 44.80000
C  6.47500 -5.71600 46.61400
C  7.18400 -2.71400 44.88100
O  8.38100 -2.85300 45.13400
C  6.62600 -1.55400 43.96700
C  6.92700 -0.28800 44.57200
O  6.26400 0.24200 45.46500
O  8.00700 0.26400 43.93000
C  8.33400 1.66400 44.30700
H  0.38400 0.38100 41.92700
H  -2.21700 -4.75800 45.07300
H  3.52300 -6.39400 47.00500
H  5.14800 0.70100 42.67300
H  2.85900 0.79300 40.98800
H  3.64800 2.38500 43.10700
H  2.19300 1.46000 43.81200
H  2.11600 2.51700 42.33900
H  4.48100 -0.43400 40.09500
H  5.53800 -1.56500 41.07400
H  7.23200 -0.68000 40.33900
H  6.83500 0.66800 41.46100
H  -1.68900 0.76500 41.92400
H  -3.31500 0.22700 42.18100
H  -2.43000 -0.56800 40.88500
H  -4.25500 -3.63100 45.29500
H  -3.83000 -4.51400 43.85300
H  -5.43300 -3.79800 43.94400
H  -0.72100 -7.00900 45.42000
H  0.98000 -6.40300 47.82900
H  -1.44300 -6.30000 48.25600
H  -2.42000 -7.16900 46.99300
H  -2.41800 -5.49200 46.94600
H  2.20000 -8.02700 45.67800
H  0.58800 -8.69600 45.87700
H  1.77700 -10.05900 47.44100
H  1.83400 -8.63600 48.44500
H  3.12400 -8.88900 47.33100
H  6.34400 -5.65300 47.69400
H  7.50300 -5.58800 46.27400
H  6.26100 -6.70500 46.21000
H  6.96700 -1.65000 42.93600
H  7.51000 2.37700 44.26600
H  9.15800 2.13300 43.76900
H  8.72300 1.71000 45.32400
Mg 30.53200 57.67100 40.09700
C  27.57600 55.77400 39.26100
C  32.40300 54.99100 38.92000
C  33.15900 59.63000 40.18400
C  28.43800 60.52200 40.52700
N  30.03600 55.59900 39.20600
C  28.79000 55.09200 39.01800
C  28.85500 53.72600 38.30400
C  30.41200 53.32500 38.47600
C  31.02600 54.67600 38.96500
C  30.67900 52.25100 39.58500
C  28.15600 53.57400 36.83000
C  29.12700 53.49100 35.64200
H  28.62100 53.92200 34.24100
N  32.52200 57.31100 39.61800
C  33.08300 56.18800 39.22700
C  34.51100 56.44400 39.04100
C  34.75800 57.80200 39.34800
C  33.43200 58.28500 39.80400
C  35.47400 55.40300 38.50700
C  36.15900 58.63100 39.18000
O  37.14800 58.01100 38.77900
C  36.39500 59.95800 39.66800
N  30.77700 59.79700 40.25100
C  31.97800 60.34200 40.41900
C  31.98200 61.84300 40.58600
C  30.45900 62.11700 40.85000
C  29.82600 60.75500 40.49400
C  33.04500 62.46900 41.51800
C  29.85900 63.33500 40.15100
C  29.28300 64.41800 41.03500
N  28.45800 58.07200 39.97200
C  27.77900 59.25700 40.23300
C  26.29400 58.97700 40.23300
C  26.22300 57.66300 39.80400
C  27.50300 57.13400 39.66400
C  25.21500 59.90700 40.53000
C  25.30100 56.61500 39.43000
O  24.07100 56.59700 39.35400
C  26.14500 55.35300 39.11000
C  25.77900 54.18200 39.99800
O  26.33700 53.75400 40.98600
O  24.67400 53.56100 39.43900
C  24.19200 52.39600 40.22500
H  33.00800 54.16300 38.54600
H  34.04800 60.24000 40.35600
H  27.66800 61.26600 40.74200
H  28.35600 52.95600 38.89300
H  30.83400 52.94600 37.54500
H  31.06400 52.67700 40.51100
H  31.35400 51.52400 39.13300
H  29.76500 51.69900 39.80400
H  27.70800 54.55000 36.64800
H  27.55600 52.66700 36.89900
H  29.23700 52.40900 35.56700
H  30.10600 53.92400 35.84700
H  35.33600 55.23500 37.43900
H  35.15400 54.48900 39.00800
H  36.50700 55.57900 38.80900
H  36.14100 59.95300 40.72800
H  35.84700 60.64800 39.02700
H  37.45900 60.18200 39.59000
H  32.14700 62.33800 39.62900
H  30.50000 62.38000 41.90700
H  32.69000 63.08500 42.34400
H  33.65100 63.17100 40.94500
H  33.72500 61.75500 41.98200
H  29.02800 63.01400 39.52200
H  30.56700 63.78100 39.45200
H  29.87800 65.33100 40.99800
H  29.14600 64.14200 42.08000
H  28.24700 64.50900 40.70800
H  25.28000 60.13700 41.59300
H  24.23100 59.54200 40.23400
H  25.50500 60.82800 40.02400
H  26.11000 55.08200 38.05500
H  24.25800 52.48000 41.31000
H  24.70800 51.48900 39.91100
H  23.12900 52.18800 40.10100

