158

Mg 7.18800 2.72800 27.65500
C  8.75100 1.40400 30.50800
C  5.05000 4.52400 29.69900
C  5.45600 3.78300 24.89900
C  8.92400 0.39900 25.67900
N  6.87200 2.84000 29.84700
C  7.71000 2.29800 30.85100
C  7.29000 2.77500 32.28600
C  6.05700 3.67700 31.92600
C  5.99900 3.70000 30.33800
C  4.69100 3.41200 32.59200
C  8.50800 3.37700 33.09000
C  8.22300 4.39300 34.21900
H  8.94300 4.04600 35.54300
N  5.58200 4.15300 27.31800
C  4.92200 4.79600 28.30700
C  3.98200 5.71300 27.68500
C  4.13900 5.54700 26.25900
C  5.11900 4.51000 26.06400
C  3.10900 6.65900 28.47800
C  3.55800 6.33600 25.17900
O  3.84400 6.07100 24.05500
C  2.46800 7.49800 25.44600
N  7.00200 2.01000 25.62700
C  6.24700 2.57000 24.73700
C  6.42300 2.02800 23.30400
C  7.74300 1.15100 23.55300
C  7.89400 1.16900 25.04300
C  5.22500 1.15900 22.69800
C  9.00100 1.78100 22.89400
C  9.81900 2.74900 23.72900
N  8.56300 1.20400 27.96500
C  9.22000 0.38700 27.06900
C  10.10400 -0.46800 27.75800
C  10.01000 -0.04500 29.13600
C  9.04100 0.92200 29.15600
C  11.01900 -1.50400 27.10700
C  10.62200 -0.19300 30.42800
O  11.58300 -0.88200 30.79300
C  9.72200 0.66700 31.45400
C  9.11000 -0.46700 32.27500
O  8.14000 -1.10100 31.93300
O  9.81000 -0.51000 33.43000
C  9.26500 -1.38600 34.44100
H  4.47800 5.06600 30.45400
H  5.11900 4.22900 23.96000
H  9.65900 -0.14500 25.08300
H  6.98700 1.90500 32.86700
H  6.33400 4.67000 32.28000
H  4.21100 4.34900 32.87300
H  4.74600 2.72400 33.43600
H  3.91500 3.07700 31.90500
H  9.25000 3.83400 32.43600
H  9.02600 2.59700 33.64900
H  7.14100 4.38900 34.35000
H  8.39300 5.41700 33.88700
H  3.38800 7.71300 28.46100
H  3.07400 6.41100 29.53900
H  2.08200 6.55800 28.12700
H  1.51000 7.04300 25.69900
H  2.38300 7.99700 24.48100
H  2.84000 8.23300 26.15900
H  6.61000 2.87200 22.63900
H  7.54000 0.11800 23.27300
H  4.30600 1.44700 23.20900
H  5.32400 0.07900 22.80600
H  5.19800 1.27900 21.61500
H  8.54500 2.38500 22.11000
H  9.55200 0.95400 22.44500
H  9.24800 3.07700 24.59800
H  9.91000 3.70500 23.21400
H  10.86100 2.45300 23.84900
H  10.70200 -1.79300 26.10400
H  10.90300 -2.41400 27.69500
H  12.07800 -1.24700 27.13800
H  10.35600 1.36100 32.00500
H  8.94700 -2.34900 34.04100
H  8.42400 -0.96200 34.98900
H  10.13300 -1.58200 35.07000
Mg 42.87000 41.93800 26.36800
C  42.04800 44.28500 28.82100
C  44.15500 39.93900 28.75400
C  44.09700 39.84400 23.98600
C  42.47900 44.39800 23.96600
N  43.13300 42.21900 28.61900
C  42.60600 43.15000 29.43400
C  42.61500 42.68600 30.87900
C  43.45200 41.35600 30.81200
C  43.64100 41.20900 29.28900
C  44.84000 41.42400 31.49600
C  41.24200 42.61700 31.65200
C  41.42900 41.81000 32.97200
H  40.59700 42.12800 34.15100
N  43.92500 40.16500 26.41400
C  44.36000 39.53500 27.47800
C  44.99600 38.31000 27.07900
C  44.80500 38.14200 25.67600
C  44.23100 39.41400 25.26800
C  45.58700 37.32200 28.09100
C  45.11200 36.97300 24.77400
O  45.01400 37.07900 23.54600
C  45.62500 35.68100 25.30800
N  43.12900 42.05700 24.31400
C  43.62900 41.07600 23.52400
C  43.62700 41.48900 22.05400
C  42.96700 42.82600 22.11100
C  42.79800 43.11300 23.52000
C  45.00400 41.35700 21.34300
C  41.66200 42.89300 21.31800
C  40.37600 42.32700 22.04100
N  42.21200 43.85500 26.32200
C  42.11700 44.73500 25.24900
C  41.55000 45.98200 25.75900
C  41.45500 45.78700 27.16200
C  41.93600 44.55800 27.43800
C  41.28500 47.20400 24.84600
C  41.02000 46.35200 28.44800
O  40.51100 47.41700 28.67300
C  41.40600 45.47400 29.55700
C  42.32400 46.21900 30.34800
O  43.50000 46.54600 30.05400
O  41.82400 46.18700 31.63800
C  42.77800 46.16900 32.77600
H  44.36300 39.14500 29.47300
H  44.39100 39.20900 23.14800
H  42.13800 45.09400 23.19600
H  43.12600 43.49800 31.39500
H  43.02600 40.41900 31.17000
H  45.58800 41.10800 30.76900
H  44.85100 40.79800 32.38900
H  45.05200 42.38600 31.96200
H  40.52600 42.11000 31.00400
H  40.96600 43.62400 31.96200
H  42.40800 41.90900 33.44200
H  41.27200 40.74700 32.79000
H  45.02900 36.39300 28.21100
H  45.79700 37.73600 29.07800
H  46.50900 36.95300 27.64300
H  45.77700 35.02400 24.45100
H  44.95700 35.41900 26.12800
H  46.62900 35.97700 25.61200
H  42.96700 40.79400 21.53500
H  43.60500 43.57100 21.63600
H  45.08900 40.60000 20.56300
H  45.80900 41.26400 22.07200
H  45.21500 42.27900 20.80100
H  41.79600 42.37800 20.36700
H  41.50300 43.93600 21.04500
H  40.49700 41.70100 22.92500
H  39.88600 41.56100 21.43900
H  39.67000 43.11500 22.30500
H  41.32200 48.10500 25.45900
H  40.37100 47.02100 24.28100
H  42.08300 47.08100 24.11400
H  40.50500 45.24000 30.12600
H  43.75000 45.79300 32.45800
H  42.51600 45.45000 33.55200
H  42.80600 47.11500 33.31800

