158

Mg 7.03300 53.72200 40.55600
C  6.80400 50.19200 40.06700
C  10.26700 53.52600 39.31700
C  7.24600 57.08600 40.53500
C  3.78900 53.74700 41.37100
N  8.31700 52.09700 39.61600
C  8.05000 50.75500 39.73800
C  9.35500 50.00000 39.50500
C  10.46400 51.08200 39.55100
C  9.63200 52.30200 39.37600
C  11.27700 51.09400 40.91000
C  9.38300 49.09300 38.19500
C  9.02400 49.70100 36.84200
H  8.02200 48.99600 35.94500
N  8.63100 55.11100 40.07800
C  9.86700 54.81000 39.61900
C  10.61700 55.95100 39.48100
C  9.82600 57.05000 39.94300
C  8.52100 56.46100 40.29500
C  12.06300 55.99000 39.07300
C  10.22500 58.47600 40.09900
O  11.40900 58.71800 39.80300
C  9.32200 59.63800 40.47800
N  5.56600 55.21700 40.65500
C  6.00200 56.54000 40.86800
C  4.82000 57.43000 41.25000
C  3.75700 56.37000 41.64500
C  4.38500 55.00200 41.13200
C  4.93800 58.57600 42.20400
C  2.27400 56.63500 41.06900
C  1.12100 57.05500 41.98600
N  5.50000 52.29400 40.64500
C  4.22600 52.45300 41.06400
C  3.61000 51.16900 41.17400
C  4.56000 50.23100 40.87500
C  5.70000 50.96200 40.49500
C  2.16200 50.93900 41.57200
C  4.89300 48.82000 40.70200
O  4.17500 47.84200 40.98900
C  6.30300 48.72700 40.20500
C  6.25900 47.81900 39.06000
O  5.81100 48.13000 37.96000
O  6.70400 46.53900 39.41700
C  6.29300 45.49600 38.41700
H  11.34900 53.41900 39.21600
H  7.42200 58.16400 40.56700
H  2.77800 53.80200 41.78000
H  9.46700 49.33800 40.36300
H  11.12000 51.00400 38.68400
H  11.51900 50.05400 41.12800
H  10.77800 51.55300 41.76400
H  12.24100 51.57800 40.75000
H  8.70600 48.24700 38.31300
H  10.40300 48.71000 38.16200
H  9.98500 49.74900 36.33100
H  8.69400 50.70500 37.10800
H  12.21100 56.28400 38.03400
H  12.53600 55.00800 39.08600
H  12.68600 56.63800 39.69000
H  8.62400 59.65700 39.64100
H  9.92000 60.54700 40.54400
H  9.02500 59.42700 41.50500
H  4.54000 57.85100 40.28400
H  3.64900 56.29500 42.72800
H  5.92100 58.72500 42.65000
H  4.32900 58.41000 43.09200
H  4.64500 59.49300 41.69200
H  1.98200 55.75200 40.50000
H  2.43600 57.52700 40.46400
H  0.67000 57.96100 41.58000
H  1.48800 57.21100 43.00000
H  0.29100 56.35300 42.05900
H  1.59900 51.83300 41.84000
H  2.19500 50.13600 42.30800
H  1.45000 50.51500 40.86300
H  6.83900 48.17100 40.97500
H  6.48200 45.87000 37.41100
H  5.23700 45.24300 38.52000
H  6.76600 44.51500 38.47000
Mg -0.92900 44.06100 26.09300
C  1.48000 43.39000 28.53000
C  -3.35800 43.36200 28.53100
C  -3.19200 43.55800 23.76700
C  1.56900 44.18200 23.61900
N  -0.89100 43.33800 28.28200
C  0.21000 43.46200 29.10200
C  -0.04700 43.21900 30.57900
C  -1.60900 42.95500 30.49800
C  -2.04000 43.34400 29.00700
C  -2.11300 41.55900 30.99000
C  0.42600 44.45500 31.42500
C  0.77000 44.07400 32.91600
H  0.18000 42.71600 33.37900
N  -3.08200 43.64800 26.13900
C  -3.90200 43.59400 27.22400
C  -5.24300 43.56600 26.77600
C  -5.19400 43.34400 25.40500
C  -3.71000 43.43300 25.06200
C  -6.41900 43.61900 27.74100
C  -6.31600 43.18600 24.50800
O  -6.15900 43.10000 23.35000
C  -7.75300 43.15900 25.04400
N  -0.87000 44.16400 24.01800
C  -1.92800 43.78700 23.32300
C  -1.70400 43.93700 21.76000
C  -0.18100 44.24600 21.74600
C  0.24900 44.20200 23.22600
C  -2.03000 42.64700 20.86900
C  0.16000 45.63200 21.09700
C  0.05200 46.91200 21.94800
N  1.13000 44.05400 26.06000
C  2.06800 44.07200 24.98300
C  3.39100 43.89100 25.51400
C  3.23300 43.68400 26.92900
C  1.81600 43.76700 27.19800
C  4.63500 44.02400 24.66500
C  3.89400 43.39300 28.12800
O  5.08000 43.22400 28.43100
C  2.78300 43.14500 29.16700
C  2.99500 41.84400 29.83800
O  2.78900 40.77900 29.32700
O  3.56200 42.04400 31.09600
C  3.90600 40.86900 31.91400
H  -4.15000 43.11300 29.24000
H  -3.87900 43.19200 23.00100
H  2.24400 44.22600 22.76200
H  0.41600 42.25700 30.79900
H  -2.13300 43.66700 31.13400
H  -2.59100 40.97400 30.20300
H  -2.83900 41.72300 31.78600
H  -1.24100 41.05300 31.40300
H  -0.41400 45.14000 31.53900
H  1.31000 44.92700 30.99500
H  0.38400 44.84900 33.57700
H  1.85700 44.15400 32.93400
H  -6.95000 42.66800 27.78300
H  -6.98300 44.42000 27.26200
H  -6.07900 44.06600 28.67500
H  -8.52500 42.92900 24.30900
H  -8.09200 44.12700 25.41200
H  -7.82800 42.33000 25.74800
H  -2.39400 44.68500 21.37000
H  0.37600 43.52200 21.15200
H  -2.08600 41.78800 21.53800
H  -1.32700 42.45100 20.06000
H  -3.01800 42.83700 20.45000
H  -0.35000 45.74500 20.14000
H  1.21500 45.55500 20.83500
H  -0.33100 47.77300 21.39900
H  1.05100 47.24600 22.23000
H  -0.52200 46.81700 22.86900
H  5.47900 44.35900 25.26800
H  4.37500 44.70300 23.85300
H  4.85700 43.00000 24.36800
H  2.92200 43.84500 29.99100
H  3.43800 40.66000 32.87600
H  4.92000 40.94300 32.30700
H  3.72400 39.98700 31.30000

