158

Mg 44.48600 5.49600 47.79300
C  42.59300 8.52400 47.60300
C  41.65100 3.89300 46.84800
C  46.27700 2.78500 47.50100
C  47.40500 7.46600 47.97900
N  42.32400 6.17900 47.34900
C  41.77600 7.40900 47.39600
C  40.28400 7.41100 47.07600
C  39.98200 5.89800 47.04800
C  41.38100 5.28200 47.06100
C  39.06100 5.38400 48.20900
C  39.76200 8.08300 45.77700
C  38.24800 7.90800 45.39000
H  37.96600 7.06700 44.17000
N  44.02700 3.55000 47.25100
C  42.83200 3.06900 46.92700
C  42.94300 1.61400 46.92500
C  44.30400 1.26500 47.02400
C  44.95900 2.53300 47.25900
C  41.70100 0.69100 46.77900
C  44.97900 -0.09900 46.94500
O  44.24400 -1.02800 46.65900
C  46.44500 -0.48200 47.22100
N  46.59500 5.22200 47.56900
C  46.99600 3.92600 47.62800
C  48.52000 3.85800 47.95700
C  48.92600 5.39900 48.08600
C  47.57200 6.12400 47.82500
C  48.82400 3.02800 49.27900
C  50.14000 5.85800 47.22200
C  51.19700 6.78100 47.96100
N  44.96600 7.54900 47.74800
C  46.17800 8.18900 47.88000
C  45.95600 9.54100 47.99500
C  44.60100 9.72400 47.86500
C  43.99700 8.45500 47.75500
C  47.01200 10.67300 48.31300
C  43.53900 10.69500 47.93800
O  43.69600 11.88900 48.07800
C  42.16700 9.95700 47.65000
C  41.11800 10.27100 48.64300
O  40.99000 9.63200 49.68000
O  40.26200 11.31300 48.35100
C  39.06700 11.44500 49.23800
H  40.74100 3.29500 46.76400
H  46.85200 1.86000 47.57900
H  48.31000 7.94800 48.35700
H  39.70000 7.77800 47.92000
H  39.45500 5.62600 46.13400
H  39.70200 4.88500 48.93500
H  38.39600 4.60300 47.84100
H  38.56100 6.18000 48.76100
H  40.43200 7.85200 44.94800
H  40.00800 9.14200 45.85200
H  37.77600 8.88100 45.25300
H  37.67100 7.52700 46.23300
H  40.80700 1.28100 46.57700
H  41.66200 0.07200 47.67500
H  41.82700 0.07500 45.88800
H  46.99500 -0.13000 46.34700
H  46.48000 -1.57100 47.18900
H  46.81500 -0.11500 48.17800
H  49.01100 3.28800 47.16800
H  49.21400 5.59800 49.11800
H  49.60100 2.26500 49.23900
H  47.90500 2.56500 49.64000
H  49.20000 3.70000 50.05000
H  49.70900 6.33000 46.33900
H  50.64800 4.96300 46.86200
H  51.39100 7.73200 47.46400
H  52.14200 6.25000 48.07500
H  50.81900 6.99100 48.96200
H  46.43300 11.57300 48.52000
H  47.68400 10.69200 47.45500
H  47.55200 10.44400 49.23100
H  41.77800 10.37400 46.72100
H  39.19200 11.97600 50.18200
H  38.78900 10.42500 49.50200
H  38.17300 11.82900 48.74500
Mg 48.10700 16.05600 29.04000
C  45.79700 15.60900 31.62400
C  49.83600 18.12000 31.29100
C  50.06500 16.86300 26.57200
C  45.62600 14.85800 26.72000
N  47.87400 16.71900 31.23600
C  46.89800 16.36200 32.10400
C  47.09900 16.78600 33.52300
C  48.24000 17.86600 33.32000
C  48.66600 17.59200 31.83700
C  47.79500 19.35600 33.48500
C  47.64500 15.52500 34.28600
C  47.99900 15.69200 35.78900
H  47.44300 16.74800 36.73100
N  49.82300 17.15500 29.01600
C  50.38200 17.91800 30.04700
C  51.63300 18.46300 29.57200
C  51.65500 18.23600 28.15300
C  50.52000 17.33900 27.80800
C  52.52600 19.26500 30.48300
C  52.66900 18.75300 27.09800
O  52.47600 18.56400 25.88800
C  53.87000 19.41500 27.62900
N  47.92200 15.75800 27.00700
C  48.92400 16.11100 26.18800
C  48.73000 15.78200 24.70600
C  47.37200 14.96300 24.84000
C  46.93800 15.16000 26.29500
C  48.53100 17.05500 23.81900
C  47.56300 13.40000 24.59100
C  46.77000 12.71500 23.52500
N  46.11100 15.36900 29.12600
C  45.27500 14.77800 28.13100
C  44.04600 14.30900 28.72300
C  44.30500 14.58800 30.05900
C  45.51100 15.18900 30.29700
C  42.90500 13.56200 28.21100
C  43.70400 14.34400 31.35200
O  42.65600 13.88900 31.73500
C  44.65800 15.01300 32.42400
C  43.87800 16.06600 33.08900
O  43.22500 16.95300 32.58500
O  43.96200 15.81700 34.43200
C  43.33200 16.79300 35.32500
H  50.37500 18.85100 31.89700
H  50.75300 17.13000 25.76700
H  44.87600 14.44700 26.04100
H  46.16800 17.04700 34.02700
H  49.13100 17.66700 33.91600
H  46.70600 19.37900 33.44400
H  48.23000 19.98200 32.70500
H  48.03400 19.74100 34.47700
H  48.61300 15.27100 33.85600
H  46.95800 14.72300 34.01500
H  49.08800 15.64800 35.79100
H  47.61900 14.84400 36.35900
H  53.36400 18.62900 30.77100
H  52.09000 19.65800 31.40200
H  52.84000 20.20100 30.02000
H  54.59200 19.50600 26.81800
H  54.31900 18.78400 28.39600
H  53.54000 20.37200 28.03200
H  49.48400 15.07300 24.36600
H  46.71500 15.29600 24.03700
H  47.54400 17.29600 23.42400
H  49.08500 16.79800 22.91600
H  49.03300 17.86500 24.34800
H  47.21500 12.84600 25.46400
H  48.62600 13.16400 24.55600
H  45.99600 12.04000 23.89100
H  47.40900 12.07400 22.91900
H  46.33600 13.48100 22.88200
H  42.80600 13.54700 27.12500
H  42.01500 14.02000 28.64200
H  42.97900 12.55600 28.62500
H  44.93400 14.29500 33.19700
H  43.25600 17.76700 34.84100
H  43.99000 16.86400 36.19100
H  42.37300 16.56700 35.79100

