158

Mg 8.56300 3.52100 28.09900
C  10.30400 1.95200 30.84000
C  6.57700 5.04500 30.13100
C  7.26900 4.69700 25.35900
C  10.66100 1.40300 25.93000
N  8.32800 3.24700 30.22100
C  9.24400 2.81600 31.14100
C  8.85200 3.26600 32.52200
C  7.54700 4.08700 32.30100
C  7.48500 4.16000 30.75200
C  6.25600 3.72600 33.09700
C  10.03900 3.98800 33.35100
C  9.58500 4.96000 34.44500
H  10.20500 4.86700 35.76900
N  7.17500 4.80000 27.82600
C  6.42300 5.32400 28.78500
C  5.45500 6.27700 28.17800
C  5.55900 6.08700 26.76000
C  6.70300 5.16900 26.56400
C  4.49800 7.11100 28.95100
C  4.78600 6.65500 25.73200
O  5.00800 6.37400 24.55700
C  3.70300 7.68900 25.94800
N  9.01500 3.15900 25.93900
C  8.37700 3.90900 25.03400
C  8.79800 3.59300 23.54700
C  10.01900 2.65200 23.77700
C  9.88900 2.37800 25.35100
C  7.65500 3.14700 22.56000
C  11.36400 3.29600 23.42600
C  11.89400 4.34800 24.38500
N  10.14900 1.97700 28.24500
C  10.79800 1.19600 27.30100
C  11.71700 0.41000 28.00500
C  11.61300 0.70000 29.39000
C  10.57900 1.58600 29.46300
C  12.66000 -0.45600 27.32400
C  12.11500 0.45500 30.72400
O  12.96100 -0.29600 31.08800
C  11.21300 1.24600 31.72200
C  10.59300 0.33800 32.73500
O  9.59000 -0.28800 32.43900
O  11.16800 0.53400 34.02300
C  10.37200 -0.05000 35.10100
H  5.95400 5.59900 30.83700
H  6.94500 4.92300 24.34100
H  11.19300 0.67800 25.30900
H  8.65800 2.37900 33.12600
H  7.61300 5.13900 32.57900
H  6.48800 2.70700 33.40800
H  5.36900 3.69400 32.46400
H  6.18500 4.47000 33.89100
H  10.40600 4.58200 32.51400
H  10.77200 3.21800 33.59600
H  8.49900 5.01900 34.51100
H  9.87700 5.95100 34.09900
H  3.44000 6.89000 28.81600
H  4.73800 8.15100 28.73400
H  4.77100 7.09000 30.00600
H  3.32600 8.00400 24.97500
H  4.10700 8.55600 26.47100
H  2.90400 7.22600 26.52700
H  9.13100 4.56700 23.18700
H  9.87200 1.68500 23.29600
H  6.68600 3.36600 23.00700
H  7.74100 2.11200 22.22700
H  7.71300 3.77700 21.67300
H  11.26400 3.65500 22.40100
H  12.05700 2.45500 23.38900
H  11.24800 4.39600 25.26100
H  11.98800 5.31700 23.89600
H  12.88000 4.06500 24.75400
H  13.29700 0.08600 26.62600
H  12.27600 -1.32900 26.79700
H  13.37800 -0.65600 28.11900
H  11.90900 1.87600 32.27600
H  9.78900 0.74900 35.55800
H  11.06700 -0.33300 35.89300
H  9.81100 -0.92500 34.77400
Mg -11.88800 38.57800 42.26000
C  -9.92000 35.84100 41.33000
C  -9.71900 40.57700 40.15900
C  -13.89000 41.16000 42.62600
C  -14.33900 36.43300 43.31500
N  -10.14500 38.23800 40.91100
C  -9.39900 36.98400 40.81900
C  -8.20800 37.15200 39.82700
C  -8.15800 38.71500 39.53900
C  -9.40300 39.22600 40.25500
C  -6.91000 39.57900 39.92300
C  -8.20000 36.17100 38.52200
C  -6.94600 35.27500 38.32200
H  -6.16000 35.22200 37.08100
N  -11.72400 40.68000 41.63200
C  -10.70300 41.28000 40.82800
C  -11.03000 42.70200 40.80100
C  -12.27800 42.93700 41.46200
C  -12.70700 41.57700 42.00200
C  -10.22900 43.67800 40.09600
C  -12.89700 44.36400 41.65000
O  -12.47900 45.39800 41.01600
C  -14.08600 44.57000 42.53200
N  -13.85100 38.79600 42.79500
C  -14.48300 39.94000 42.90900
C  -15.94300 39.80100 43.39900
C  -16.14000 38.30000 43.40200
C  -14.67600 37.79500 43.20300
C  -16.28300 40.59300 44.61200
C  -17.03000 37.85800 42.09500
C  -17.89000 36.69700 42.19200
N  -12.07800 36.52800 42.48900
C  -13.02800 35.76200 43.08700
C  -12.62200 34.43300 43.24500
C  -11.36500 34.35300 42.55700
C  -11.07100 35.68500 42.12400
C  -13.47500 33.34800 43.87000
C  -10.26100 33.49800 42.09500
O  -10.07500 32.28600 42.29600
C  -9.25300 34.40800 41.37300
C  -7.89000 34.27300 42.05200
O  -7.30700 33.21400 42.19500
O  -7.36200 35.45400 42.44200
C  -6.06000 35.55500 43.14600
H  -9.08400 41.24400 39.57200
H  -14.65300 41.93100 42.75500
H  -15.14200 35.82000 43.73000
H  -7.26600 36.92500 40.32600
H  -8.35200 38.91800 38.48600
H  -6.15100 38.89700 40.30600
H  -7.06000 40.36000 40.66900
H  -6.50900 40.03900 39.01900
H  -8.47200 36.79700 37.67200
H  -8.99600 35.44300 38.67800
H  -7.12200 34.28400 38.74000
H  -6.13600 35.67200 38.93500
H  -9.21400 43.31800 39.92600
H  -10.12600 44.49700 40.80700
H  -10.71000 44.02600 39.18200
H  -13.89900 44.20800 43.54300
H  -14.97200 44.06500 42.14900
H  -14.25500 45.63800 42.66900
H  -16.50600 40.28900 42.60300
H  -16.63200 37.97000 44.31700
H  -17.20000 41.17900 44.55000
H  -15.48000 41.32100 44.73400
H  -16.39600 40.06000 45.55600
H  -16.32100 37.63100 41.29900
H  -17.66000 38.68100 41.75800
H  -17.77200 36.04600 41.32600
H  -18.92800 37.01200 42.29800
H  -17.70600 36.16600 43.12700
H  -13.26600 33.50000 44.92900
H  -13.16900 32.31000 43.74000
H  -14.52600 33.56900 43.68200
H  -9.13500 33.93700 40.39800
H  -5.41600 36.28500 42.65600
H  -5.50900 34.63200 43.32900
H  -6.14700 36.10600 44.08200

