158

Mg 24.94300 -8.49600 47.79200
C  27.04400 -5.99000 46.63200
C  22.51800 -7.61000 45.43500
C  23.13300 -11.17800 48.66800
C  27.70500 -9.92700 49.46800
N  24.91500 -7.19800 46.04700
C  25.89500 -6.19300 45.80300
C  25.44700 -5.20600 44.70600
C  23.98000 -5.66300 44.33800
C  23.81100 -6.91400 45.32000
C  22.90700 -4.48500 44.54700
C  26.45500 -5.15400 43.52900
C  26.79400 -3.81200 42.92200
H  26.98100 -3.85200 41.41300
N  23.02900 -9.20600 47.17900
C  22.21100 -8.65000 46.26800
C  21.05400 -9.43100 46.14200
C  21.16300 -10.59200 46.97000
C  22.51000 -10.43000 47.65700
C  19.89000 -9.05100 45.26400
C  20.26700 -11.82000 47.07200
O  19.16700 -11.83800 46.53700
C  20.59400 -12.98800 47.88800
N  25.46400 -10.32500 48.87200
C  24.42900 -11.11400 49.28400
C  24.95400 -12.12800 50.37300
C  26.49800 -11.85700 50.44200
C  26.52600 -10.59000 49.63900
C  24.32200 -11.95000 51.73800
C  27.39200 -13.03200 49.84200
C  27.86500 -14.07800 50.89900
N  26.89800 -8.03000 48.15900
C  27.95700 -8.74300 48.79900
C  29.16000 -7.82200 48.87300
C  28.82200 -6.73900 48.06100
C  27.46200 -6.93100 47.61300
C  30.41800 -8.14500 49.60200
C  29.24800 -5.48300 47.53700
O  30.30100 -4.84900 47.64600
C  28.09300 -4.98800 46.56100
C  27.79200 -3.60600 46.97400
O  27.51800 -3.28500 48.07800
O  27.86100 -2.80200 45.83500
C  27.78200 -1.37800 46.14000
H  21.73000 -7.18300 44.81200
H  22.66400 -11.99600 49.22000
H  28.57400 -10.42200 49.90600
H  25.51300 -4.18900 45.09400
H  23.96700 -6.05100 43.32000
H  22.70200 -4.04700 43.57000
H  23.27000 -3.77100 45.28700
H  21.88400 -4.62200 44.90000
H  26.00100 -5.65100 42.67100
H  27.34800 -5.56600 43.99900
H  27.73500 -3.44300 43.32900
H  26.00100 -3.09500 43.13000
H  20.05200 -9.67400 44.38400
H  19.94900 -8.01900 44.91900
H  18.93000 -9.18000 45.76300
H  21.67200 -13.11300 47.78400
H  20.05800 -13.81400 47.41900
H  20.34600 -12.81100 48.93400
H  24.92700 -13.16200 50.03000
H  26.90700 -11.55000 51.40400
H  23.29900 -11.61300 51.57400
H  24.77400 -11.17200 52.35300
H  24.42700 -12.88500 52.29000
H  28.23200 -12.66900 49.24900
H  26.83200 -13.47200 49.01700
H  28.81900 -14.50900 50.59800
H  27.04000 -14.78700 50.83100
H  27.90200 -13.61500 51.88600
H  31.16400 -7.44000 49.23500
H  30.85800 -9.12700 49.42400
H  30.13600 -7.92100 50.63100
H  28.55600 -4.95900 45.57500
H  28.07100 -1.04100 47.13500
H  26.75300 -1.09800 45.91800
H  28.27700 -0.78300 45.37200
Mg 46.49300 45.14600 43.58000
C  42.97400 44.88300 43.36700
C  46.66600 41.72900 42.74400
C  49.88300 45.45600 43.45900
C  46.13500 48.65800 43.69700
N  45.00400 43.56500 42.76100
C  43.59700 43.67900 42.99300
C  42.98900 42.29900 42.88800
C  44.15100 41.30600 42.68700
C  45.36800 42.24200 42.68200
C  44.25500 40.18900 43.77500
C  41.81100 42.17200 41.89100
C  42.12800 42.70200 40.44700
H  41.88900 41.70300 39.22000
N  48.04600 43.75300 43.26400
C  47.94600 42.42500 42.97700
C  49.31900 41.86300 42.97600
C  50.19000 42.94900 43.04400
C  49.36400 44.11200 43.30900
C  49.68100 40.29600 42.85400
C  51.71100 42.75700 42.85300
O  52.18500 41.70400 42.49500
C  52.64300 43.96000 42.70100
N  47.81300 46.72900 43.55400
C  49.15800 46.68100 43.62800
C  49.83700 48.03400 43.90800
C  48.65700 49.03900 43.62800
C  47.41500 48.07600 43.58000
C  50.46400 48.08000 45.30100
C  48.79300 49.98000 42.44300
C  48.59200 51.47000 42.72200
N  44.92500 46.53100 43.51700
C  44.93800 47.89800 43.67100
C  43.60800 48.35800 43.93100
C  42.77500 47.21900 43.80000
C  43.64500 46.11900 43.60300
C  43.16700 49.80600 44.18100
C  41.33500 46.67400 43.67800
O  40.27700 47.24700 43.61500
C  41.49900 45.19000 43.43500
C  40.73600 44.48700 44.53800
O  39.49800 44.41300 44.46300
O  41.52300 44.17000 45.58500
C  40.93000 43.22500 46.56000
H  46.83800 40.65400 42.65200
H  50.96800 45.58400 43.48600
H  45.98400 49.69700 44.00000
H  42.61100 42.19300 43.90500
H  44.00300 40.89200 41.68900
H  43.31100 40.03000 44.29700
H  45.04500 40.43300 44.48500
H  44.37400 39.20700 43.31700
H  40.85100 42.56900 42.22000
H  41.71800 41.08900 41.81600
H  43.08900 43.20900 40.36100
H  41.33700 43.43000 40.26900
H  49.83200 39.97200 41.82400
H  48.83500 39.69600 43.18900
H  50.52200 40.09100 43.51700
H  52.21400 44.48600 41.84800
H  53.62200 43.68900 42.30600
H  52.81100 44.66200 43.51800
H  50.53300 48.27700 43.10600
H  48.61400 49.64900 44.53000
H  51.48600 48.41300 45.12000
H  50.53400 47.07200 45.71000
H  49.95800 48.79500 45.94800
H  48.01500 49.70300 41.73200
H  49.78000 49.78500 42.02300
H  49.44900 52.08900 42.45600
H  48.36800 51.61200 43.77900
H  47.69700 51.76400 42.17300
H  43.03600 50.35500 43.24800
H  43.85900 50.35600 44.81700
H  42.19100 49.74000 44.66300
H  41.02000 44.84500 42.51900
H  41.41100 43.38400 47.52500
H  40.95900 42.18800 46.22500
H  39.89900 43.43000 46.84800

