158

Mg -2.89200 17.47200 26.60200
C  -3.30200 15.42600 29.43700
C  -3.61400 20.19100 28.67100
C  -2.91100 19.46700 24.00300
C  -3.03900 14.64900 24.67900
N  -3.22600 17.68400 28.80400
C  -3.23600 16.78500 29.84600
C  -3.50500 17.39500 31.26400
C  -3.90200 18.83400 30.85700
C  -3.56700 18.91400 29.29900
C  -5.34800 19.37300 31.18000
C  -2.29600 17.27200 32.18700
C  -2.71900 16.86400 33.57100
H  -1.84000 16.99500 34.92300
N  -2.98500 19.57100 26.42000
C  -3.26200 20.51900 27.34700
C  -3.17800 21.82600 26.70300
C  -2.85600 21.64200 25.36300
C  -2.98300 20.19900 25.14900
C  -3.44700 23.07600 27.40600
C  -2.51200 22.59200 24.27700
O  -2.61000 22.25700 23.08400
C  -1.96200 24.05700 24.57200
N  -2.98000 17.10200 24.66400
C  -2.95800 18.11500 23.74000
C  -3.01300 17.58800 22.26100
C  -2.93700 16.01700 22.57400
C  -2.91700 15.88000 24.06800
C  -4.30500 18.04000 21.55500
C  -1.64900 15.46100 21.97200
C  -0.28800 15.53700 22.68000
N  -3.07500 15.46900 26.94000
C  -3.13800 14.42600 26.03900
C  -3.17800 13.20200 26.70300
C  -3.26500 13.52400 28.07400
C  -3.22700 14.96500 28.13500
C  -3.30000 11.86800 26.02900
C  -3.40600 12.94900 29.35200
O  -3.37700 11.75400 29.73200
C  -3.57300 14.22300 30.26600
C  -2.73300 13.99800 31.45800
O  -1.50500 13.94700 31.43400
O  -3.50400 13.68000 32.56300
C  -2.80800 13.26600 33.75400
H  -3.67500 21.00200 29.40000
H  -2.72400 19.91200 23.02400
H  -3.08700 13.75200 24.05900
H  -4.34400 16.87500 31.72700
H  -3.26200 19.54600 31.37900
H  -5.78000 18.65100 31.87300
H  -6.06200 19.45600 30.36000
H  -5.42600 20.29100 31.76200
H  -1.92600 18.27400 32.40400
H  -1.59600 16.61600 31.66900
H  -3.13900 15.85900 33.62900
H  -3.53000 17.56000 33.78600
H  -2.45300 23.38500 27.72900
H  -4.14000 22.85400 28.21600
H  -3.89600 23.86700 26.80500
H  -1.11200 24.02400 25.25300
H  -2.65000 24.71800 25.09900
H  -1.79400 24.59700 23.64000
H  -2.11600 17.83600 21.69300
H  -3.88800 15.54700 22.32400
H  -4.84100 18.63900 22.29100
H  -4.96000 17.20800 21.29900
H  -4.13100 18.71600 20.71700
H  -1.58100 15.88900 20.97200
H  -1.89200 14.41600 21.78000
H  -0.10100 14.62700 23.24900
H  -0.16800 16.48500 23.20600
H  0.49500 15.60200 21.92500
H  -2.49600 11.14000 26.13600
H  -3.59400 11.88000 24.98000
H  -4.15800 11.48000 26.57800
H  -4.59500 14.17800 30.64200
H  -1.77400 13.00000 33.53500
H  -3.18400 12.31400 34.12800
H  -2.79800 13.95200 34.60200
Mg 36.13400 49.92600 25.01700
C  36.39200 47.86700 28.04000
C  34.60800 52.28800 26.92900
C  35.27100 51.32700 22.23100
C  37.02000 46.97200 23.22400
N  35.70400 50.05200 27.24400
C  35.90100 49.12000 28.28500
C  35.61500 49.80200 29.68100
C  34.87900 51.15600 29.28100
C  35.13000 51.16700 27.71800
C  33.39300 51.10600 29.71800
C  36.92200 50.13300 30.41700
C  37.00000 49.80900 31.93300
H  35.70900 49.40900 32.70800
N  35.24800 51.72600 24.65500
C  34.64600 52.52300 25.57500
C  33.92200 53.60200 24.83200
C  34.11900 53.38700 23.43000
C  34.94100 52.11900 23.38200
C  33.05700 54.65300 25.47600
C  33.58700 54.10100 22.17400
O  33.63100 53.68900 21.00900
C  33.03100 55.50900 22.25600
N  36.23400 49.23800 22.96000
C  35.85300 50.06900 22.00400
C  36.07300 49.54800 20.58300
C  36.54000 48.05800 20.91300
C  36.56400 47.99100 22.45200
C  34.88500 49.62400 19.62700
C  37.99600 47.67100 20.43900
C  39.32800 48.28500 21.05700
N  36.77200 47.84700 25.45500
C  37.15000 46.76600 24.63600
C  37.49800 45.60300 25.37800
C  37.20500 45.93600 26.77500
C  36.74700 47.31500 26.71200
C  38.20900 44.38100 24.93700
C  37.17800 45.51100 28.10400
O  37.39500 44.40600 28.55000
C  36.71000 46.74100 29.04000
C  35.55700 46.23100 29.79800
O  34.35400 46.44600 29.51500
O  35.91600 45.41300 30.88800
C  34.77500 45.08700 31.74500
H  34.22200 53.14500 27.48400
H  34.97400 51.74500 21.26700
H  37.25100 46.12300 22.57900
H  34.95600 49.19600 30.30300
H  35.35600 51.97600 29.81900
H  33.13900 50.19200 30.25400
H  32.83300 51.17800 28.78600
H  33.09900 52.05100 30.17500
H  37.17200 51.18000 30.24900
H  37.69300 49.52100 29.94800
H  37.40600 50.69200 32.42600
H  37.74500 49.01900 32.02300
H  31.97200 54.55800 25.42700
H  33.28000 55.60500 24.99600
H  33.37000 54.82800 26.50500
H  33.82600 56.23800 22.41300
H  32.19000 55.55400 22.94900
H  32.67500 55.71200 21.24600
H  36.85900 50.13200 20.10200
H  35.80000 47.34800 20.54300
H  34.93500 48.83900 18.87200
H  34.71800 50.52700 19.04000
H  34.07400 49.33500 20.29500
H  38.08400 47.93400 19.38500
H  38.07100 46.58500 20.38500
H  39.76800 47.43000 21.57100
H  39.08900 49.11100 21.72700
H  40.01100 48.75300 20.34900
H  38.37300 44.42000 23.86000
H  37.64700 43.45100 25.02800
H  39.18100 44.50300 25.41400
H  37.42900 46.97800 29.82400
H  34.18300 44.35300 31.19900
H  34.14100 45.92500 32.03400
H  35.22400 44.72300 32.66900

