158

Mg 39.63400 9.22500 30.09200
C  41.45800 10.45200 32.82600
C  37.21600 8.17500 32.28300
C  38.01700 7.86600 27.56000
C  42.25100 10.34200 27.93000
N  39.46400 9.20700 32.34200
C  40.23400 9.90500 33.21600
C  39.64600 9.86800 34.65900
C  38.30800 9.06600 34.43400
C  38.33700 8.78400 32.96700
C  38.18400 7.73400 35.28800
C  39.54400 11.34900 35.24300
C  40.35900 11.58700 36.51500
H  39.58000 12.15600 37.66300
N  37.98200 8.03300 29.97500
C  37.08800 7.66700 30.96600
C  35.95400 7.02800 30.43700
C  36.25200 6.74000 29.12100
C  37.48100 7.54600 28.83200
C  34.75300 6.68700 31.32000
C  35.49600 6.15100 27.98000
O  35.92400 5.85500 26.86300
C  34.10100 5.71300 28.35200
N  40.21100 9.01700 28.03800
C  39.27100 8.46400 27.13600
C  39.58200 8.88900 25.67900
C  40.94500 9.58100 25.85600
C  41.22500 9.64500 27.34900
C  39.72700 7.70300 24.70500
C  40.96800 11.01800 25.18300
C  39.84000 12.02400 25.52700
N  41.49900 10.20300 30.34200
C  42.46400 10.59200 29.35700
C  43.56800 11.22400 30.03200
C  43.22600 11.21800 31.41100
C  41.96300 10.52100 31.51500
C  44.84600 11.91900 29.50700
C  43.60700 11.67200 32.73100
O  44.58400 12.32500 33.09900
C  42.45000 11.17400 33.73600
C  43.11000 10.11900 34.63100
O  43.16800 8.92100 34.43300
O  43.76500 10.80200 35.65200
C  44.22900 10.07100 36.89000
H  36.37600 8.08500 32.97300
H  37.44500 7.52200 26.69600
H  43.17100 10.57700 27.39000
H  40.27500 9.22500 35.27500
H  37.40600 9.64600 34.63400
H  38.21400 6.89300 34.59500
H  37.21600 7.68500 35.78700
H  39.03400 7.54700 35.94300
H  38.50400 11.63600 35.39800
H  40.07200 11.98000 34.52800
H  41.03300 12.42000 36.31600
H  41.04100 10.77300 36.76000
H  33.91400 7.37900 31.23700
H  34.99900 6.63200 32.38000
H  34.38300 5.68300 31.11200
H  33.52800 6.38400 28.99200
H  34.32700 4.81700 28.93100
H  33.49800 5.47500 27.47600
H  38.80800 9.47200 25.18100
H  41.80700 9.02600 25.48400
H  40.07900 6.79300 25.19000
H  40.49000 7.84600 23.94000
H  38.78300 7.55000 24.18300
H  40.84100 10.74000 24.13600
H  41.98700 11.38300 25.30800
H  39.21500 12.16300 24.64500
H  40.34200 12.94700 25.81500
H  39.21000 11.78200 26.38300
H  45.14700 11.35300 28.62500
H  45.66200 11.82400 30.22300
H  44.64400 12.97800 29.34200
H  42.14200 11.90200 34.48600
H  44.90600 10.76100 37.39400
H  44.58300 9.09200 36.56900
H  43.32500 9.86800 37.46300
Mg 27.12500 50.33100 27.29300
C  25.11100 51.58400 29.91300
C  29.60100 49.64300 29.61300
C  29.13000 49.73700 24.77800
C  24.63200 51.95000 25.02600
N  27.30200 50.65400 29.44200
C  26.28200 50.96200 30.29600
C  26.65400 50.68100 31.79000
C  28.16800 50.46400 31.58500
C  28.39800 50.13400 30.15400
C  29.00500 51.62900 32.09000
C  25.84700 49.48900 32.47500
C  25.15300 49.83100 33.80400
H  25.87200 50.41400 35.02800
N  28.94400 49.52800 27.19500
C  29.82800 49.33100 28.26900
C  31.04400 48.76900 27.65800
C  30.95000 48.84600 26.26600
C  29.59400 49.42900 25.98600
C  32.28400 48.33500 28.48300
C  32.03700 48.34500 25.25500
O  31.90100 48.45900 23.99300
C  33.29800 47.81600 25.70100
N  26.85200 50.82400 25.18100
C  27.86900 50.32100 24.33800
C  27.46200 50.50900 22.85200
C  26.01000 51.04600 22.94700
C  25.76600 51.26900 24.46700
C  28.38800 51.49300 22.04400
C  24.88300 50.14700 22.36800
C  24.69300 48.73000 22.94000
N  25.29200 51.56900 27.34300
C  24.48700 52.08500 26.39100
C  23.27400 52.65600 27.03200
C  23.49200 52.51200 28.42100
C  24.69000 51.83600 28.55600
C  22.04400 53.23600 26.41100
C  22.97300 52.76400 29.72400
O  21.94400 53.31700 29.99700
C  23.92600 52.18400 30.77000
C  24.41200 53.28900 31.63500
O  25.24000 54.16900 31.31600
O  23.79200 53.28400 32.87100
C  24.22600 54.29700 33.85300
H  30.36700 49.34100 30.33000
H  29.87100 49.55600 23.99700
H  23.86700 52.38100 24.37700
H  26.34700 51.58600 32.31600
H  28.51900 49.63200 32.19500
H  29.97100 51.75500 31.60100
H  29.21500 51.52800 33.15500
H  28.43800 52.55900 32.12900
H  26.57300 48.71700 32.73200
H  25.08100 49.01300 31.86300
H  24.58200 48.97600 34.16700
H  24.51200 50.68700 33.59600
H  32.49800 47.26700 28.43800
H  32.17800 48.72100 29.49600
H  33.24300 48.74600 28.16700
H  33.77200 47.45700 24.78800
H  33.30800 47.03100 26.45700
H  33.85100 48.71600 25.96800
H  27.43800 49.61100 22.23400
H  25.88900 52.01900 22.47000
H  29.26200 51.58500 22.68800
H  27.95300 52.49200 22.00500
H  28.68000 51.08200 21.07800
H  24.86400 50.10900 21.27800
H  23.93000 50.65600 22.51700
H  23.67200 48.50400 23.24600
H  25.45700 48.56400 23.70000
H  25.03900 48.04400 22.16700
H  21.78400 52.67300 25.51500
H  22.22300 54.24900 26.05000
H  21.20200 53.09700 27.08900
H  23.32700 51.54500 31.41800
H  24.22900 53.75700 34.80000
H  23.51900 55.12600 33.90400
H  25.17800 54.81600 33.73200

