158

Mg 0.82000 7.42400 25.21200
C  1.77400 9.12500 28.13900
C  0.85400 4.34300 27.01800
C  0.25500 5.88000 22.37100
C  1.41200 10.39200 23.42600
N  1.22300 6.84300 27.27700
C  1.55600 7.70700 28.32300
C  1.50300 6.87200 29.67500
C  1.43100 5.42600 29.25000
C  1.11700 5.54800 27.74700
C  2.61600 4.51400 29.59300
C  0.30600 7.42100 30.51400
C  0.57000 7.49300 32.03100
H  1.72300 6.62800 32.61400
N  0.63300 5.33600 24.75800
C  0.61900 4.26300 25.61300
C  0.33800 3.06600 24.77800
C  0.22200 3.50100 23.43700
C  0.26500 4.98200 23.46500
C  0.11100 1.72900 25.38000
C  0.10400 2.63300 22.14700
O  -0.05200 3.10300 21.04000
C  0.16600 1.13800 22.25100
N  0.86500 8.05800 23.16300
C  0.54500 7.17800 22.23000
C  0.34900 7.83200 20.86300
C  0.68500 9.34600 21.11800
C  0.95700 9.27200 22.63000
C  1.11500 7.19700 19.65800
C  -0.57000 10.31100 20.88700
C  -0.24400 11.31300 19.79000
N  1.52200 9.37300 25.58700
C  1.58800 10.47000 24.79200
C  1.75400 11.65900 25.54900
C  1.87300 11.19400 26.86600
C  1.71600 9.80300 26.86300
C  1.74400 13.09600 25.13000
C  2.05900 11.59600 28.20400
O  2.36900 12.63400 28.68100
C  1.85100 10.33000 29.11000
C  2.97800 10.07800 29.94400
O  4.03100 9.56800 29.66300
O  2.75200 10.63200 31.21300
C  3.89600 10.85400 32.07600
H  0.67600 3.45600 27.62900
H  -0.16700 5.44700 21.46200
H  1.54000 11.24500 22.75600
H  2.38700 7.06600 30.28200
H  0.63600 4.84600 29.71800
H  2.32800 3.83800 30.39800
H  3.52800 4.95400 29.99800
H  2.94800 3.96600 28.71100
H  -0.53400 6.74100 30.37300
H  -0.03700 8.36200 30.08300
H  -0.32900 7.29400 32.61400
H  0.81200 8.54800 32.15900
H  1.04000 1.16500 25.47300
H  -0.61500 1.14600 24.81400
H  -0.31900 1.75300 26.38200
H  0.42800 0.81000 21.24500
H  -0.82000 0.78200 22.55200
H  0.86000 0.76100 23.00200
H  -0.70600 7.64100 20.66600
H  1.64500 9.76300 20.81400
H  1.92900 7.86000 19.36300
H  0.38300 7.05100 18.86400
H  1.54400 6.21400 19.85500
H  -0.89200 10.91100 21.73800
H  -1.36700 9.61900 20.61500
H  -0.67000 10.88600 18.88300
H  0.81800 11.45200 19.59000
H  -0.69900 12.28200 19.99700
H  2.60300 13.31700 24.49600
H  1.76100 13.72300 26.02200
H  0.96900 13.51800 24.49200
H  0.92800 10.35800 29.68900
H  4.30300 11.79500 31.70500
H  4.74200 10.17200 31.99700
H  3.58400 10.90000 33.11900
Mg 16.93200 52.81600 26.62300
C  18.75900 51.32200 29.22600
C  14.51700 53.62400 28.89600
C  14.82300 53.73800 24.12100
C  19.27900 51.76100 24.34900
N  16.76900 52.64500 28.84400
C  17.63400 52.04700 29.67300
C  17.07300 51.91300 31.12400
C  15.67700 52.66400 31.00900
C  15.58900 52.96700 29.47200
C  14.43300 51.84200 31.61200
C  17.83700 52.62800 32.22000
C  17.60900 51.69800 33.47800
H  17.21100 52.52400 34.71500
N  15.03000 53.56300 26.53200
C  14.17200 53.87400 27.55300
C  12.89600 54.41900 27.11500
C  13.06800 54.68000 25.71400
C  14.36100 53.94100 25.41300
C  11.91800 54.83700 28.04600
C  12.20300 55.30800 24.71400
O  12.52100 55.44900 23.54400
C  10.93400 55.95500 25.11800
N  17.19000 52.94100 24.55000
C  16.12700 53.19500 23.72100
C  16.49200 53.05600 22.19800
C  18.07800 52.75800 22.35800
C  18.24700 52.50800 23.81400
C  15.87400 51.93400 21.38600
C  19.04500 53.98100 21.96200
C  20.36000 53.76100 21.08000
N  18.73100 51.80600 26.74100
C  19.51700 51.39900 25.66800
C  20.55100 50.58200 26.18700
C  20.35400 50.53700 27.57300
C  19.19400 51.29500 27.87600
C  21.53300 49.86700 25.26400
C  20.72300 49.92200 28.83500
O  21.65200 49.15200 29.05900
C  19.74600 50.50600 29.96400
C  19.09000 49.31000 30.65600
O  18.45600 48.38100 30.11500
O  19.60700 49.18800 31.94200
C  19.15400 48.03200 32.63100
H  13.68200 53.87800 29.55200
H  14.22900 53.99800 23.24200
H  20.00200 51.46000 23.58700
H  16.76800 50.88100 31.29600
H  15.64500 53.62100 31.53000
H  13.89200 52.35500 32.40700
H  14.90400 50.96100 32.04800
H  13.79400 51.65400 30.74900
H  17.52600 53.64800 32.44600
H  18.89100 52.63900 31.94600
H  18.52000 51.22000 33.83900
H  16.92600 50.86600 33.31000
H  12.25400 55.78300 28.47000
H  11.70900 54.11300 28.83400
H  10.95300 54.97400 27.55800
H  11.13000 56.62000 25.95900
H  10.31100 55.20100 25.60000
H  10.40600 56.35400 24.25200
H  16.35100 54.03700 21.74500
H  18.41400 51.90200 21.77200
H  15.10700 51.45400 21.99500
H  16.56200 51.21900 20.93400
H  15.36600 52.27100 20.48300
H  19.29600 54.55500 22.85400
H  18.45900 54.64200 21.32400
H  20.65400 54.63100 20.49200
H  20.16900 52.92600 20.40500
H  21.27500 53.43500 21.57400
H  22.23900 50.62700 24.92900
H  21.16900 49.40500 24.34500
H  21.92100 49.00000 25.79800
H  20.31600 51.12400 30.65700
H  19.74100 48.11600 33.54600
H  19.34500 47.12800 32.05300
H  18.09200 48.12100 32.85800

