158

Mg 0.31600 8.27700 25.65100
C  1.17100 10.05000 28.67400
C  0.27600 5.40900 27.50400
C  0.42400 6.42100 22.81300
C  1.15700 11.08300 23.87700
N  0.94700 7.75600 27.85600
C  0.98200 8.68200 28.88200
C  0.86800 7.91000 30.24300
C  0.61600 6.37900 29.87100
C  0.58900 6.54600 28.29500
C  1.76000 5.39900 30.29400
C  -0.17600 8.56900 31.15500
C  0.09400 8.61600 32.70400
H  1.28500 7.95300 33.35300
N  0.18100 6.16900 25.23900
C  0.22700 5.15400 26.11900
C  0.01400 3.88200 25.46400
C  0.01000 4.19100 24.03000
C  0.23600 5.66200 23.96000
C  -0.00900 2.57500 26.26400
C  -0.04300 3.21100 22.79200
O  0.09500 3.57800 21.61000
C  -0.29800 1.71600 23.12500
N  0.73300 8.76400 23.62800
C  0.66700 7.82400 22.62600
C  0.74500 8.50100 21.25400
C  0.74900 9.94700 21.62800
C  0.78600 9.97100 23.13800
C  1.84500 8.00200 20.27700
C  -0.30900 10.82700 20.97200
C  -1.67500 10.98300 21.68300
N  0.84900 10.24900 26.20800
C  1.22500 11.20700 25.30700
C  1.70300 12.36800 26.05300
C  1.64100 11.95500 27.39000
C  1.21000 10.62500 27.39500
C  2.11200 13.65100 25.33900
C  1.98300 12.36600 28.72400
O  2.38400 13.39400 29.16900
C  1.60500 11.08600 29.63200
C  2.81100 10.77400 30.53500
O  3.69100 9.99300 30.32400
O  2.80100 11.62900 31.68000
C  3.87100 11.48700 32.62500
H  -0.05200 4.57100 28.12300
H  0.24400 5.78900 21.94000
H  1.39800 11.91900 23.21700
H  1.83500 8.02100 30.73200
H  -0.38000 6.00600 30.11200
H  2.49900 5.90500 30.91500
H  2.18600 4.88500 29.43200
H  1.33300 4.64500 30.95500
H  -1.04500 7.95200 30.92600
H  -0.36800 9.57500 30.78100
H  -0.83500 8.22600 33.12100
H  0.16500 9.67400 32.95300
H  -1.03600 2.31800 26.52800
H  0.50000 2.76500 27.20900
H  0.44800 1.72100 25.76400
H  0.62800 1.34400 23.56300
H  -0.35100 1.15400 22.19200
H  -1.20600 1.50400 23.69000
H  -0.21700 8.28700 20.79000
H  1.67600 10.46500 21.38100
H  2.60600 7.51500 20.88700
H  2.31100 8.87400 19.81700
H  1.67500 7.30700 19.45500
H  -0.44700 10.50100 19.94100
H  0.19500 11.78100 20.81500
H  -1.73200 10.22600 22.46600
H  -2.52000 11.09300 21.00400
H  -1.55100 11.98600 22.09200
H  3.18500 13.79400 25.21700
H  1.85100 14.44200 26.04100
H  1.51100 13.72300 24.43300
H  0.74900 11.49600 30.16800
H  4.77500 11.24300 32.06600
H  3.68400 10.62000 33.25800
H  4.10500 12.39800 33.17500
Mg 26.66100 50.21200 26.27700
C  25.04300 51.85100 28.91500
C  29.18400 49.29700 28.63000
C  28.66100 49.16000 23.75600
C  24.56600 51.84900 24.13600
N  27.01400 50.53700 28.52700
C  26.13100 51.14000 29.35600
C  26.53300 50.91300 30.79900
C  28.00000 50.34000 30.68800
C  28.07500 49.97400 29.18900
C  29.12600 51.28400 31.20400
C  25.46400 49.92300 31.44600
C  24.89000 50.43300 32.81700
H  25.74300 50.94300 33.95100
N  28.57500 49.19600 26.23100
C  29.44900 48.94400 27.28200
C  30.56500 48.22700 26.74700
C  30.50900 48.27900 25.32200
C  29.19600 48.89500 25.05300
C  31.75500 47.81900 27.60800
C  31.67500 47.99700 24.28700
O  31.49500 48.04200 23.10500
C  33.08900 47.71400 24.68900
N  26.71300 50.60800 24.26000
C  27.53400 49.88100 23.43400
C  27.05200 49.89600 21.99300
C  25.66400 50.73500 22.18200
C  25.61200 51.08800 23.63200
C  28.10400 50.40200 21.02700
C  24.27500 50.20200 21.60300
C  23.57300 51.10200 20.52400
N  25.04000 51.56300 26.41500
C  24.29200 52.20700 25.50000
C  23.22900 52.99200 26.07300
C  23.49000 52.90200 27.50400
C  24.62000 52.03800 27.60500
C  22.20000 53.82200 25.43800
C  23.09000 53.35200 28.80600
O  22.20500 54.05600 29.12800
C  24.15200 52.70400 29.82400
C  24.77900 53.73500 30.69300
O  25.85100 54.27500 30.50400
O  23.93400 54.01300 31.67300
C  24.49000 54.98100 32.62300
H  29.85300 48.93900 29.41500
H  29.23700 48.76500 22.91700
H  23.77500 52.22000 23.48200
H  26.44100 51.87800 31.29900
H  28.14500 49.35200 31.12400
H  28.74600 52.29700 31.33600
H  29.95400 51.44800 30.51300
H  29.48000 50.91300 32.16700
H  25.83700 48.90500 31.56400
H  24.58800 49.86000 30.80000
H  24.31300 49.54100 33.06100
H  24.22900 51.25300 32.53700
H  31.95100 46.75100 27.50900
H  31.63100 48.09900 28.65400
H  32.62700 48.44200 27.41300
H  33.49700 48.71300 24.83800
H  33.63900 47.20200 23.89900
H  33.16200 47.16000 25.62500
H  26.77500 48.87100 21.74800
H  25.87700 51.71700 21.76000
H  28.71600 49.73100 20.42400
H  28.71700 51.01900 21.68300
H  27.55300 51.08300 20.37800
H  23.57000 50.21200 22.43300
H  24.31000 49.16800 21.26200
H  22.70200 51.52000 21.03000
H  23.29200 50.50200 19.65800
H  24.26300 51.93500 20.38800
H  21.20300 53.41500 25.60900
H  22.29900 53.74600 24.35500
H  22.24300 54.83000 25.85000
H  23.60800 52.02000 30.47500
H  24.93600 55.83700 32.11700
H  25.17200 54.40000 33.24400
H  23.81200 55.35900 33.38700

