158

Mg 46.51100 25.44900 28.14200
C  47.38100 27.88100 30.76700
C  45.11300 23.53600 30.66700
C  46.25100 23.08200 25.84800
C  48.21400 27.56700 25.84600
N  46.35100 25.74000 30.40700
C  46.70600 26.75500 31.26600
C  46.13800 26.56700 32.70800
C  45.65400 25.10900 32.69700
C  45.65600 24.74300 31.15700
C  46.49000 24.07700 33.56900
C  45.00900 27.56900 33.10200
C  45.29400 28.54400 34.23400
H  44.14000 28.83000 35.16100
N  45.65100 23.60000 28.23100
C  45.14300 22.95400 29.34300
C  44.60400 21.68600 28.95400
C  44.99400 21.51400 27.57900
C  45.70400 22.75900 27.13800
C  43.90300 20.74300 29.91600
C  44.73100 20.38200 26.67700
O  45.09100 20.47300 25.51000
C  44.11200 19.12100 27.11700
N  47.01800 25.40900 26.11200
C  46.81500 24.29600 25.32600
C  47.32200 24.47600 23.92200
C  47.81500 25.95200 23.91400
C  47.71700 26.29600 25.34900
C  48.40100 23.52100 23.36400
C  47.13800 26.91000 22.92400
C  45.82300 27.65200 23.42900
N  47.52200 27.40900 28.20500
C  48.15500 28.08300 27.15100
C  48.77400 29.24900 27.76200
C  48.39100 29.25000 29.13100
C  47.75800 28.05200 29.38700
C  49.60200 30.18800 26.98900
C  48.53300 30.00100 30.32500
O  48.95600 31.11200 30.57800
C  47.89500 29.06900 31.47400
C  48.86800 28.75200 32.54300
O  49.62500 27.74500 32.61200
O  48.82900 29.76500 33.46800
C  49.16500 29.30000 34.80600
H  44.65600 22.92400 31.44700
H  46.17800 22.44600 24.96400
H  48.88500 28.11600 25.18200
H  46.99300 26.60700 33.38200
H  44.59900 25.02500 32.95500
H  46.83700 23.29100 32.89800
H  45.79800 23.60200 34.26500
H  47.26700 24.36500 34.27800
H  44.16500 26.97300 33.44900
H  44.62700 28.05600 32.20400
H  45.45600 29.49500 33.72800
H  46.21400 28.35000 34.78500
H  43.15300 20.21200 29.33000
H  43.47600 21.22100 30.79700
H  44.78500 20.19000 30.24100
H  44.66400 18.78900 27.99700
H  44.25700 18.37900 26.33200
H  43.07600 19.24600 27.43000
H  46.42600 24.38600 23.30800
H  48.87100 25.95600 23.64400
H  48.77500 22.94600 24.21200
H  49.21600 23.94900 22.78000
H  47.94200 22.88800 22.60400
H  46.83300 26.56100 21.93700
H  47.85300 27.70100 22.69600
H  45.92400 28.72900 23.55900
H  45.60700 27.22400 24.40800
H  45.00700 27.46400 22.73100
H  49.59500 31.13900 27.52100
H  48.97800 30.36300 26.11300
H  50.63400 29.86300 26.85000
H  47.09500 29.68100 31.89000
H  50.17100 28.88200 34.78900
H  48.46400 28.52800 35.12600
H  49.11100 30.21300 35.39900
Mg 36.18000 49.55500 25.52900
C  35.87900 47.47700 28.33200
C  35.39800 52.20600 27.68300
C  35.98800 51.53500 22.89600
C  36.82000 46.74100 23.53000
N  35.36300 49.79600 27.73300
C  35.51300 48.82900 28.67700
C  35.38700 49.35700 30.11700
C  34.98000 50.81900 29.84800
C  35.32700 50.98300 28.31800
C  33.53400 51.29700 30.06400
C  36.66900 49.20100 31.02500
C  36.32700 48.89900 32.50400
H  34.95400 49.31400 33.15200
N  35.83700 51.56300 25.31400
C  35.64400 52.53400 26.31300
C  35.61400 53.86200 25.70000
C  35.57000 53.58500 24.33200
C  35.79000 52.21000 24.10200
C  35.54400 55.19400 26.44300
C  35.36000 54.57700 23.19200
O  35.22100 54.24800 22.00300
C  35.51600 56.01600 23.44300
N  36.20800 49.13000 23.51500
C  36.23100 50.13600 22.64900
C  36.23500 49.58800 21.22500
C  36.78200 48.12700 21.39800
C  36.71700 47.99300 22.94200
C  34.92000 49.55300 20.46900
C  38.23000 47.87200 20.90700
C  39.43900 48.44900 21.84900
N  36.28000 47.52000 25.78200
C  36.61100 46.50100 24.92700
C  36.72600 45.22600 25.70700
C  36.45900 45.62400 27.00400
C  36.19100 46.98100 27.06000
C  37.10300 43.85600 25.23900
C  36.34800 45.05700 28.27800
O  36.49500 43.89500 28.67400
C  35.99600 46.23100 29.24800
C  34.75400 46.05900 30.04800
O  33.62900 46.50500 29.83500
O  35.12400 45.31800 31.15900
C  34.01600 45.14800 32.11300
H  35.27000 53.05500 28.35800
H  35.94400 51.94800 21.88700
H  36.90900 45.79700 22.98800
H  34.58200 48.81700 30.61400
H  35.66900 51.50700 30.33900
H  32.88000 50.56300 30.53400
H  33.10200 51.68700 29.14200
H  33.67100 52.19600 30.66500
H  37.23600 50.13100 31.07000
H  37.26700 48.40800 30.57600
H  37.15900 49.31500 33.07200
H  36.45900 47.81800 32.55200
H  36.20200 55.97300 26.05700
H  35.86400 55.02300 27.47100
H  34.52300 55.57700 26.41300
H  36.52800 56.22200 23.79100
H  34.79600 56.32400 24.20100
H  35.33600 56.46900 22.46800
H  36.82600 50.30500 20.65500
H  36.06700 47.33800 21.16500
H  34.51800 48.55300 20.30900
H  34.98000 49.96100 19.46000
H  34.26900 50.27200 20.96700
H  38.34400 48.23100 19.88400
H  38.31200 46.80400 21.11200
H  39.90000 47.65800 22.44100
H  39.14600 49.24400 22.53500
H  40.28800 48.82100 21.27700
H  36.89700 43.77000 24.17200
H  36.49900 43.09800 25.73900
H  38.15100 43.76200 25.52300
H  36.71100 46.51100 30.02200
H  33.13900 44.78500 31.57600
H  33.92100 46.08400 32.66500
H  34.29800 44.31000 32.75000

