158

Mg -1.92700 16.58300 26.36600
C  -2.18300 14.52500 29.19900
C  -2.31900 19.35000 28.30400
C  -1.81800 18.28400 23.50400
C  -1.82600 13.59700 24.45200
N  -2.17400 16.88400 28.55700
C  -2.27800 15.89400 29.51700
C  -2.69700 16.55600 30.84900
C  -2.46700 18.09400 30.63400
C  -2.30500 18.12000 29.07700
C  -3.67600 19.06300 31.11100
C  -2.17800 15.89400 32.08500
C  -1.93200 16.82700 33.25700
H  -1.45900 16.08700 34.42800
N  -1.91600 18.53000 26.00900
C  -2.16800 19.52500 26.90400
C  -2.20400 20.85700 26.22900
C  -2.02500 20.55300 24.79200
C  -1.93400 19.06200 24.70000
C  -2.48200 22.18700 26.96600
C  -2.03300 21.50500 23.60800
O  -1.84500 21.10100 22.47400
C  -2.32200 22.94900 23.75300
N  -1.99300 16.01400 24.24300
C  -1.89700 16.94600 23.22600
C  -2.02600 16.31200 21.84500
C  -1.84000 14.80600 22.10700
C  -1.88200 14.78900 23.69100
C  -3.24500 16.68200 20.92000
C  -0.50600 14.26400 21.52700
C  0.74100 14.82600 22.24000
N  -2.13000 14.51100 26.67000
C  -1.97700 13.41000 25.77200
C  -2.03600 12.16600 26.51500
C  -2.10800 12.54100 27.83100
C  -2.10200 13.97000 27.91100
C  -1.98300 10.81000 25.97100
C  -2.25500 11.99900 29.15600
O  -2.36300 10.82800 29.54600
C  -2.34000 13.27400 30.06700
C  -1.22600 13.11100 31.11900
O  -0.10800 13.58300 30.87100
O  -1.58100 12.51700 32.26900
C  -0.56900 12.44000 33.36200
H  -2.33800 20.28600 28.86500
H  -1.86900 18.76200 22.52400
H  -1.62300 12.74200 23.80400
H  -3.75900 16.31200 30.83600
H  -1.58200 18.51100 31.11400
H  -4.30800 19.42200 30.30000
H  -3.37600 19.90700 31.73200
H  -4.28600 18.37400 31.69500
H  -1.16500 15.70200 31.73000
H  -2.67000 14.99500 32.45500
H  -2.87600 17.33300 33.46100
H  -1.15000 17.55500 33.04100
H  -3.35000 22.76100 26.64100
H  -1.70200 22.94300 26.86800
H  -2.63700 22.03200 28.03400
H  -2.36300 23.54100 22.83900
H  -1.65700 23.31800 24.53400
H  -3.35000 22.99200 24.11400
H  -1.20300 16.71200 21.25300
H  -2.68900 14.24000 21.72100
H  -4.12400 16.87200 21.53600
H  -3.39600 15.94700 20.12900
H  -3.19000 17.61600 20.36200
H  -0.42600 14.57900 20.48700
H  -0.50400 13.17400 21.52700
H  1.30700 15.37700 21.48900
H  1.29000 14.00000 22.69200
H  0.57200 15.57500 23.01400
H  -1.24500 10.27500 26.56900
H  -1.74200 10.76800 24.90900
H  -2.96200 10.36300 26.14500
H  -3.31100 13.29100 30.56300
H  -1.02900 12.70900 34.31300
H  0.30400 13.02000 33.06500
H  -0.27100 11.39400 33.43000
Mg 16.64500 53.54600 25.56500
C  17.92300 51.81800 28.39700
C  14.31300 54.85300 27.56500
C  15.11500 54.57700 22.83800
C  19.01200 51.71600 23.62500
N  16.23600 53.41500 27.74000
C  16.92600 52.73000 28.72500
C  16.48300 53.26800 30.10000
C  15.17200 53.97200 29.75900
C  15.20900 54.12100 28.26700
C  13.91300 53.26100 30.39700
C  17.55500 54.12900 30.82400
C  17.96700 53.76400 32.31400
H  17.01600 52.86900 33.08100
N  15.00700 54.71800 25.22900
C  14.15800 55.12600 26.18000
C  13.01800 55.81300 25.58800
C  13.27600 55.82800 24.19200
C  14.49800 55.03700 24.03400
C  11.89800 56.24400 26.53300
C  12.43100 56.39300 23.06300
O  12.80500 56.23400 21.91200
C  11.18100 57.29600 23.35100
N  17.19000 53.41100 23.53800
C  16.35400 53.89500 22.55400
C  16.67200 53.37400 21.12700
C  18.05200 52.65300 21.39100
C  18.17900 52.63800 22.93700
C  15.55800 52.45100 20.53100
C  19.25900 53.42400 20.80800
C  19.65200 53.08000 19.40600
N  18.10900 51.95300 25.87200
C  19.00900 51.41300 25.00800
C  19.97300 50.54700 25.78200
C  19.49600 50.64100 27.09500
C  18.41700 51.53300 27.12900
C  21.16700 49.92600 25.21200
C  19.84000 50.32800 28.48600
O  20.74300 49.63800 28.96900
C  18.82400 51.15900 29.40900
C  18.10300 50.21100 30.28800
O  16.99300 49.76000 30.07900
O  19.00400 49.74200 31.25900
C  18.54500 48.73900 32.18000
H  13.58100 55.23300 28.28100
H  14.63800 54.88800 21.90600
H  19.81000 51.30600 23.00200
H  16.31000 52.39500 30.73000
H  15.12200 54.97900 30.17200
H  14.17700 52.26700 30.75700
H  13.20600 53.01200 29.60500
H  13.34900 53.94600 31.02900
H  17.21100 55.16100 30.89800
H  18.46100 54.15600 30.21900
H  18.06600 54.71800 32.83100
H  19.00000 53.42600 32.40200
H  11.62700 55.55900 27.33700
H  10.96800 56.53100 26.04200
H  12.27000 57.20000 26.90200
H  11.30200 57.92400 24.23400
H  10.37700 56.62100 23.64300
H  10.92900 58.00000 22.55800
H  16.71900 54.29200 20.54100
H  17.94600 51.62700 21.04100
H  15.30200 52.84000 19.54600
H  14.56800 52.50300 20.98300
H  15.85500 51.40900 20.40400
H  20.14200 53.39800 21.44600
H  19.00700 54.48300 20.86500
H  20.73900 53.16700 19.38600
H  19.19400 53.81200 18.74100
H  19.46300 52.07000 19.04300
H  21.91400 50.00600 26.00200
H  21.60100 50.39700 24.33000
H  20.89500 48.91000 24.92900
H  19.44400 51.92000 29.88300
H  18.06900 49.15000 33.07100
H  19.42000 48.18300 32.51600
H  17.82200 48.08300 31.69500

