158

Mg 17.81500 -2.34400 28.08600
C  16.61100 -0.10000 30.39900
C  19.80700 -3.67500 30.54600
C  19.08400 -4.32100 25.72600
C  15.96900 -0.53900 25.48800
N  18.03600 -2.03200 30.28200
C  17.48800 -1.06800 31.00800
C  17.80300 -1.15100 32.49900
C  18.90700 -2.23000 32.50100
C  18.95300 -2.74600 31.01200
C  20.31000 -1.72300 32.90100
C  16.57700 -1.53400 33.37600
C  16.47000 -0.91400 34.80700
H  17.64200 -0.11500 35.37600
N  19.22600 -3.88200 28.14600
C  19.92300 -4.28300 29.27700
C  20.72000 -5.38600 28.90100
C  20.50600 -5.60800 27.48500
C  19.54300 -4.64100 27.02300
C  21.61200 -6.06000 29.90600
C  21.23000 -6.74500 26.64200
O  20.83200 -6.99800 25.46500
C  22.20900 -7.59800 27.27700
N  17.56900 -2.37600 26.03200
C  18.22900 -3.36400 25.30300
C  17.95300 -3.21600 23.85500
C  17.05500 -1.99700 23.69800
C  16.82300 -1.61800 25.16100
C  19.23000 -3.06300 23.04500
C  15.79400 -2.23500 22.81600
C  15.25200 -1.05500 22.14400
N  16.51900 -0.69000 27.91200
C  15.78600 -0.07900 26.85200
C  15.00200 1.04800 27.31700
C  15.26400 1.05900 28.71200
C  16.18700 0.00700 29.02900
C  14.04800 1.92700 26.66700
C  14.91600 1.67600 29.95000
O  14.08400 2.55100 30.14300
C  15.81400 0.95200 31.06500
C  16.69700 1.98700 31.73900
O  17.81400 2.29100 31.53400
O  15.94200 2.62900 32.69100
C  16.49700 3.92700 33.22200
H  20.38500 -4.17200 31.32700
H  19.47700 -5.02800 24.99300
H  15.60300 0.08900 24.67300
H  18.17800 -0.19900 32.87500
H  18.74000 -3.04300 33.20700
H  21.15100 -2.16100 32.36300
H  20.59900 -1.93700 33.93000
H  20.39200 -0.65500 32.69700
H  16.74300 -2.61000 33.43900
H  15.68200 -1.27300 32.81200
H  16.27900 -1.78100 35.44000
H  15.63200 -0.21900 34.75100
H  21.82500 -5.49900 30.81600
H  22.57900 -6.17300 29.41500
H  21.17700 -7.01000 30.21700
H  21.93000 -8.09900 28.20400
H  23.10100 -7.02500 27.53000
H  22.44900 -8.34200 26.51800
H  17.37600 -4.12100 23.66500
H  17.61300 -1.18000 23.23900
H  19.92900 -3.89900 23.07500
H  19.85400 -2.21700 23.33600
H  18.89000 -3.09300 22.01000
H  15.05900 -2.75100 23.43400
H  16.05500 -2.93100 22.01900
H  14.17400 -0.90300 22.18500
H  15.49300 -1.17600 21.08800
H  15.70500 -0.11400 22.45500
H  13.30300 1.39800 26.07300
H  14.66600 2.50000 25.97600
H  13.53400 2.60300 27.35100
H  15.04100 0.65600 31.77500
H  17.16300 3.62000 34.02800
H  15.81500 4.70000 33.57600
H  17.11500 4.39400 32.45500
Mg 54.55600 23.58400 44.75000
C  52.03200 25.66400 43.57200
C  52.96000 20.97800 42.84500
C  57.31500 21.61300 44.85800
C  56.32500 26.32100 45.58700
N  52.85100 23.43400 43.14100
C  51.93900 24.40500 42.88400
C  50.84500 23.98400 41.87400
C  51.05500 22.42700 41.84500
C  52.34200 22.20900 42.70600
C  49.82700 21.58500 42.36100
C  51.06600 24.85500 40.59100
C  51.22000 24.12000 39.26300
H  51.30200 24.84900 37.90600
N  55.03000 21.55500 44.16300
C  54.20400 20.69600 43.42200
C  54.87300 19.36200 43.39400
C  56.06400 19.48100 44.12400
C  56.18300 20.88000 44.50700
C  54.30400 18.34300 42.51200
C  57.04000 18.40800 44.28800
O  56.92700 17.32700 43.67600
C  58.22800 18.46000 45.23400
N  56.53300 23.94900 45.01500
C  57.51400 22.91700 45.11700
C  58.81200 23.56600 45.51200
C  58.58400 25.11000 45.66000
C  57.06600 25.11800 45.43300
C  59.48000 22.95800 46.75500
C  59.44500 26.04600 44.80400
C  60.06400 27.15500 45.63800
N  54.22400 25.62700 44.85500
C  54.97400 26.57000 45.41900
C  54.28400 27.82300 45.46100
C  53.05600 27.50600 44.79000
C  53.12400 26.19400 44.33600
C  54.72700 29.08500 46.10000
C  51.79300 28.01800 44.39300
O  51.37300 29.15400 44.55200
C  51.06600 26.84000 43.60200
C  50.62900 27.42300 42.35400
O  51.38700 27.90300 41.52300
O  49.25800 27.44200 42.27900
C  48.67500 28.09300 41.06100
H  52.46600 20.11500 42.39400
H  58.18800 20.98600 44.66700
H  56.95100 27.15500 45.91100
H  49.89200 24.31500 42.28800
H  51.24100 22.07000 40.83200
H  49.07700 21.63300 41.57100
H  49.45700 21.88300 43.34200
H  50.24800 20.58200 42.29400
H  52.00500 25.40600 40.63500
H  50.31100 25.63800 40.51900
H  50.52300 23.28700 39.17800
H  52.21500 23.67500 39.24000
H  54.11500 18.77400 41.52900
H  53.38300 17.96500 42.95600
H  54.81800 17.40000 42.32300
H  58.17100 19.20000 46.03200
H  58.89300 18.94800 44.52200
H  58.51300 17.47500 45.60500
H  59.57400 23.44600 44.74200
H  58.56700 25.41600 46.70600
H  59.31600 23.60300 47.61700
H  60.56600 23.04600 46.71400
H  59.04400 21.97700 46.94300
H  58.82600 26.46300 44.01000
H  60.24100 25.48500 44.31400
H  59.74400 28.13200 45.27600
H  61.14000 26.98200 45.62300
H  59.80000 27.07800 46.69200
H  55.81000 29.12000 45.98600
H  54.59900 29.15800 47.18000
H  54.35400 29.87300 45.44500
H  50.17200 26.51600 44.13500
H  49.08600 27.64700 40.15600
H  48.91100 29.15600 41.00500
H  47.58700 28.11000 41.12200

