158

Mg 2.87800 -0.98800 44.00200
C  6.28700 -0.46100 43.72400
C  2.34400 1.78200 42.00900
C  -0.29800 -1.99300 43.58900
C  3.57800 -4.22900 45.25300
N  4.17000 0.46900 43.01600
C  5.55400 0.48500 42.98500
C  6.05700 1.65000 42.15400
C  4.76100 2.54600 41.94100
C  3.68300 1.57000 42.38000
C  4.59600 3.96900 42.60200
C  6.75800 1.12700 40.83800
C  7.75500 2.14500 40.21600
H  7.43500 2.71900 38.78700
N  1.28000 -0.10700 43.17300
C  1.19500 1.00800 42.37800
C  -0.22300 1.29800 42.00000
C  -1.03500 0.22700 42.52700
C  -0.02000 -0.71400 43.15200
C  -0.62800 2.58700 41.31500
C  -2.56900 0.04000 42.38700
O  -3.28600 0.73900 41.67300
C  -3.19300 -0.99900 43.22500
N  1.78900 -2.88800 44.29800
C  0.49300 -3.06100 43.99600
C  -0.03900 -4.48700 44.45200
C  1.25700 -5.14600 45.02900
C  2.29100 -4.02800 44.83900
C  -1.17400 -4.30100 45.40900
C  1.71000 -6.45400 44.33400
C  1.87100 -7.74100 45.20100
N  4.52000 -2.11600 44.45800
C  4.67600 -3.34300 45.04500
C  6.08100 -3.62300 45.40800
C  6.74900 -2.53200 44.86500
C  5.79100 -1.64400 44.35600
C  6.71000 -4.96200 46.00200
C  8.08800 -1.87200 44.76800
O  9.18800 -2.17800 45.16600
C  7.74700 -0.57800 43.93400
C  8.37600 0.53000 44.60100
O  8.22300 0.79400 45.78800
O  9.24300 1.15500 43.73400
C  10.09000 2.11900 44.39800
H  2.20600 2.63000 41.33600
H  -1.28900 -2.38900 43.36000
H  3.89400 -5.12900 45.78500
H  6.77100 2.13700 42.81900
H  4.65300 2.69200 40.86600
H  5.58500 4.42500 42.57400
H  4.19100 3.88000 43.61000
H  3.92800 4.60600 42.02100
H  5.91700 0.92400 40.17500
H  7.30900 0.21000 41.04600
H  8.71500 1.64500 40.33900
H  7.68300 3.02700 40.85400
H  -0.77300 2.47900 40.24000
H  0.27900 3.19100 41.27800
H  -1.49400 3.10700 41.72500
H  -4.19700 -0.61500 43.40800
H  -2.72800 -1.09700 44.20600
H  -3.34600 -1.89900 42.63000
H  -0.41900 -5.02300 43.58200
H  1.25000 -5.35500 46.09900
H  -2.11500 -4.39700 44.86700
H  -1.09800 -3.31600 45.87000
H  -1.15200 -5.12200 46.12500
H  2.64700 -6.31500 43.79300
H  1.03900 -6.70300 43.51200
H  2.95400 -7.79800 45.31100
H  1.45100 -8.61500 44.70300
H  1.57500 -7.64300 46.24500
H  6.82800 -5.67100 45.18300
H  5.95700 -5.41200 46.64900
H  7.65500 -4.73400 46.49400
H  8.26500 -0.72700 42.98700
H  9.46000 2.99600 44.54400
H  11.05000 2.44900 44.00000
H  10.38800 1.69300 45.35600
Mg 30.00100 58.31400 40.66000
C  27.07700 56.64900 39.41200
C  31.94900 55.83000 39.63300
C  32.49100 60.40500 40.92000
C  27.79100 61.14800 41.16900
N  29.48100 56.54100 39.48100
C  28.31200 55.95500 39.16900
C  28.62600 54.52000 38.62700
C  30.06400 54.19200 39.30400
C  30.56500 55.70300 39.45100
C  30.03800 53.32000 40.64900
C  28.50200 54.54100 37.12600
C  27.32100 53.92300 36.42200
H  26.43700 54.81400 35.47500
N  32.02100 58.08000 40.49900
C  32.65600 56.94100 40.09100
C  34.08200 57.15800 40.03400
C  34.24500 58.55800 40.37600
C  32.91100 59.11000 40.58200
C  35.05700 56.15200 39.49900
C  35.59300 59.23200 40.41400
O  36.57900 58.59900 40.04800
C  35.78200 60.69900 40.73800
N  30.05500 60.47800 41.19700
C  31.26300 61.06400 41.20300
C  31.17600 62.54700 41.33300
C  29.65800 62.77800 41.59400
C  29.13400 61.38500 41.26900
C  32.11700 63.19600 42.42300
C  29.04900 63.93900 40.74700
C  28.71200 65.17200 41.60400
N  27.84000 58.81900 40.45400
C  27.16100 59.96300 40.76000
C  25.81600 59.79300 40.60400
C  25.74200 58.52200 40.01200
C  26.96500 57.90900 39.95500
C  24.74400 60.73300 40.88100
C  24.82500 57.54800 39.56800
O  23.61700 57.62600 39.48500
C  25.66000 56.27600 39.05600
C  25.05600 55.16900 39.87500
O  25.14600 55.01100 41.09200
O  24.44400 54.32100 38.98800
C  23.51000 53.30900 39.60600
H  32.57700 55.00400 39.29100
H  33.37000 61.03000 40.74900
H  27.31100 62.12600 41.25500
H  27.94000 53.72200 38.91100
H  30.67000 53.65200 38.57600
H  30.24100 54.06300 41.42100
H  30.82100 52.56500 40.57700
H  29.03300 52.92500 40.79800
H  29.31100 53.89100 36.79500
H  28.74900 55.51500 36.70200
H  26.64700 53.61600 37.22200
H  27.55200 52.97000 35.94700
H  35.57700 56.31700 38.55500
H  34.65400 55.14000 39.55100
H  35.89800 55.91800 40.15300
H  35.35400 60.82900 41.73200
H  35.37700 61.38800 39.99700
H  36.85700 60.88200 40.73500
H  31.39700 63.00700 40.37000
H  29.42900 62.97000 42.64200
H  32.88400 62.46100 42.66600
H  31.50400 63.28500 43.32000
H  32.60100 64.13300 42.15200
H  28.17100 63.68700 40.15200
H  29.74500 64.31700 39.99900
H  29.54500 65.87200 41.54400
H  28.79100 64.80800 42.62900
H  27.75700 65.62000 41.33100
H  23.85100 60.13800 41.07200
H  24.57800 61.29700 39.96300
H  24.99800 61.39000 41.71300
H  25.58500 56.09000 37.98500
H  23.70700 53.01800 40.63800
H  23.59200 52.43700 38.95700
H  22.49000 53.66900 39.47400

