158

Mg 25.35800 -6.30900 46.83200
C  27.08500 -3.53800 45.76200
C  22.74300 -5.54200 44.73200
C  24.09400 -9.41300 47.46400
C  28.37300 -7.27900 48.59000
N  25.02000 -4.84500 45.24200
C  25.85600 -3.74500 45.06000
C  25.12100 -2.64300 44.15800
C  23.76900 -3.42400 43.85500
C  23.81200 -4.64200 44.66000
C  22.50700 -2.48300 44.12400
C  25.99000 -2.46100 42.80200
C  26.61700 -1.09400 42.51300
H  26.56400 -0.60400 41.06400
N  23.58400 -7.21000 46.35100
C  22.71300 -6.79100 45.42200
C  21.60500 -7.73100 45.34100
C  21.83400 -8.75100 46.30200
C  23.20400 -8.49200 46.75800
C  20.44800 -7.64500 44.29800
C  20.85200 -9.87300 46.64600
O  19.72300 -9.95100 46.17300
C  21.16500 -10.73400 47.79000
N  26.15900 -8.16900 47.82000
C  25.42900 -9.25400 47.92000
C  26.28600 -10.41000 48.50700
C  27.42800 -9.58900 49.21700
C  27.35200 -8.22200 48.48900
C  25.46600 -11.21100 49.57400
C  28.83700 -10.27700 49.24200
C  29.48900 -10.34600 50.58700
N  27.38700 -5.66900 47.12600
C  28.40100 -6.12900 47.88200
C  29.49700 -5.10800 47.92000
C  28.96000 -3.98900 47.18900
C  27.72300 -4.47300 46.59100
C  30.84100 -5.19700 48.68100
C  29.17000 -2.64500 46.74600
O  30.05800 -1.85400 46.99200
C  28.01100 -2.30900 45.77500
C  27.34500 -1.03200 46.31100
O  27.13200 -0.04900 45.62700
O  26.95600 -1.18900 47.67200
C  26.28400 -0.01700 48.31200
H  21.95100 -5.24500 44.04100
H  23.76300 -10.45200 47.52800
H  29.24400 -7.54100 49.19400
H  24.88700 -1.74700 44.73300
H  23.67300 -3.81400 42.84200
H  22.67600 -1.47400 43.74800
H  22.22700 -2.50800 45.17700
H  21.76700 -2.89200 43.43600
H  25.35400 -2.50800 41.91900
H  26.81100 -3.16100 42.64800
H  27.65500 -1.23000 42.81600
H  26.19300 -0.35500 43.19300
H  20.74500 -8.02700 43.32200
H  20.02200 -6.64200 44.28600
H  19.60900 -8.33700 44.36900
H  20.30300 -11.27800 48.17500
H  21.50600 -10.17600 48.66200
H  21.89600 -11.40900 47.34500
H  26.49300 -11.12600 47.71300
H  27.02800 -9.59200 50.23100
H  25.98400 -11.47800 50.49500
H  25.22200 -12.21300 49.22100
H  24.50300 -10.73100 49.74500
H  29.53700 -9.64800 48.69200
H  28.86200 -11.24300 48.73800
H  29.90800 -11.35200 50.54400
H  28.80500 -10.28800 51.43300
H  30.28800 -9.60700 50.65500
H  31.62700 -4.67300 48.13700
H  31.08500 -6.25200 48.81100
H  30.84500 -4.65900 49.62800
H  28.51400 -2.13800 44.82400
H  25.29100 -0.26900 48.68500
H  26.24000 0.86800 47.67700
H  26.90500 0.18700 49.18400
Mg -12.19000 38.60300 41.55000
C  -10.02500 36.13800 40.43900
C  -10.09700 40.97100 40.33400
C  -14.65300 40.72500 42.05900
C  -14.41000 35.89800 42.48500
N  -10.33000 38.50900 40.38100
C  -9.65000 37.40400 40.06200
C  -8.37400 37.76800 39.18900
C  -8.33300 39.40700 39.31600
C  -9.65900 39.64500 40.01000
C  -7.27400 39.97400 40.27300
C  -8.49200 37.15300 37.67700
C  -7.45500 36.02900 37.34700
H  -6.28800 36.27100 36.36300
N  -12.27500 40.59200 41.41600
C  -11.32700 41.40000 40.94500
C  -11.85200 42.75500 40.91000
C  -13.15100 42.75600 41.49000
C  -13.40000 41.28500 41.64900
C  -10.97500 43.98000 40.50700
C  -14.01200 43.94700 41.81700
O  -13.67900 45.14500 41.57500
C  -15.37600 43.78100 42.45200
N  -14.28800 38.33900 42.43300
C  -15.06300 39.40500 42.37600
C  -16.56800 39.06700 42.56000
C  -16.47100 37.51900 42.65200
C  -15.00000 37.21300 42.44900
C  -17.25500 39.63200 43.75600
C  -17.48100 36.72300 41.67200
C  -18.41900 35.57200 42.21300
N  -12.26100 36.46800 41.50800
C  -13.14500 35.55200 42.03900
C  -12.55200 34.24600 42.01000
C  -11.30100 34.41700 41.42200
C  -11.23800 35.80500 41.03400
C  -13.13800 33.04300 42.70400
C  -10.08600 33.73300 40.88400
O  -9.82200 32.55100 40.91500
C  -9.18800 34.83700 40.34700
C  -8.01300 34.84900 41.26400
O  -7.96300 35.33500 42.33400
O  -6.99400 34.14700 40.65000
C  -5.83600 33.85700 41.43900
H  -9.41500 41.68500 39.86700
H  -15.57100 41.31400 42.00500
H  -15.13800 35.10900 42.68100
H  -7.52800 37.34800 39.73300
H  -8.28100 39.75300 38.28300
H  -7.78900 40.41100 41.12900
H  -6.71800 40.72400 39.71100
H  -6.52400 39.22200 40.52000
H  -8.23900 37.92700 36.95200
H  -9.51600 36.80000 37.55600
H  -8.01600 35.14400 37.04500
H  -7.09600 35.76700 38.34200
H  -10.95900 44.65500 41.36200
H  -11.47100 44.51400 39.69600
H  -9.92100 43.79500 40.30200
H  -16.04400 43.30100 41.73700
H  -15.73900 44.79400 42.62900
H  -15.36900 43.33400 43.44600
H  -17.12100 39.24300 41.63800
H  -16.69200 37.10300 43.63500
H  -16.54900 40.33500 44.19700
H  -17.57900 38.88400 44.47900
H  -18.06900 40.26700 43.40300
H  -16.82400 36.41200 40.85900
H  -18.12300 37.44600 41.16800
H  -18.02300 35.08100 43.10200
H  -18.54500 34.85300 41.40300
H  -19.48300 35.79600 42.29500
H  -12.72900 33.05900 43.71400
H  -12.80100 32.16500 42.15300
H  -14.22300 33.14800 42.71900
H  -8.83600 34.55000 39.35700
H  -5.75500 34.44200 42.35500
H  -4.99900 33.93900 40.74500
H  -5.80300 32.79200 41.66900

