158

Mg -1.31700 17.35000 26.76900
C  -1.99800 15.15000 29.41400
C  -2.03900 19.94400 29.02000
C  -1.23100 19.55000 24.18200
C  -1.33400 14.63700 24.65000
N  -2.00100 17.50300 28.98400
C  -2.18700 16.49800 29.79700
C  -2.51000 16.92000 31.27100
C  -2.66500 18.46400 31.06500
C  -2.20700 18.66600 29.56600
C  -4.01200 19.13700 31.47000
C  -1.53200 16.53500 32.44200
C  -1.50900 17.26200 33.77200
H  -0.27800 17.04500 34.60700
N  -1.52000 19.42900 26.60600
C  -1.79600 20.34900 27.64300
C  -1.77500 21.66500 27.14000
C  -1.64900 21.57300 25.74200
C  -1.43200 20.15300 25.44800
C  -2.05600 22.82800 28.03900
C  -1.75600 22.65300 24.67200
O  -1.74900 22.48400 23.47200
C  -1.91000 24.07200 25.09500
N  -1.39900 17.17700 24.79100
C  -1.22600 18.16800 23.87500
C  -0.88800 17.65400 22.42900
C  -0.73700 16.16900 22.75800
C  -1.17900 15.97400 24.18600
C  -1.98700 18.05600 21.44100
C  0.60200 15.55600 22.46100
C  1.76500 16.19700 23.26400
N  -1.54900 15.30900 26.97700
C  -1.54400 14.33700 26.03700
C  -1.81700 13.06500 26.53300
C  -1.88000 13.29200 27.93900
C  -1.73200 14.70900 28.11200
C  -1.96200 11.75700 25.71300
C  -2.14200 12.65100 29.18000
O  -2.26900 11.47100 29.51700
C  -2.24000 13.83600 30.20200
C  -1.19000 13.53400 31.16400
O  -0.08900 13.93300 31.10100
O  -1.85100 12.95600 32.21200
C  -0.99300 12.66500 33.37200
H  -2.23500 20.72100 29.76200
H  -1.14400 20.16200 23.28100
H  -1.35900 13.87400 23.87000
H  -3.42400 16.36000 31.46900
H  -1.84700 19.01100 31.53400
H  -4.70000 18.30300 31.60900
H  -4.34300 19.73700 30.62200
H  -3.92100 19.86300 32.27800
H  -0.55900 16.42800 31.96300
H  -1.76500 15.51100 32.73600
H  -2.36300 16.94100 34.36900
H  -1.58200 18.34800 33.72000
H  -3.11900 22.99900 27.87300
H  -1.48000 23.71500 27.77400
H  -1.93500 22.67800 29.11200
H  -1.09100 24.36300 25.75200
H  -2.89900 24.17100 25.54300
H  -1.72600 24.73500 24.25000
H  0.04000 18.10900 22.08300
H  -1.45200 15.65700 22.11400
H  -2.72100 18.79300 21.76500
H  -2.49000 17.12100 21.19200
H  -1.45300 18.59000 20.65500
H  0.71300 15.67700 21.38300
H  0.60000 14.48400 22.65900
H  1.43500 16.79700 24.11200
H  2.22200 16.77400 22.46100
H  2.47500 15.41900 23.54500
H  -0.94900 11.53100 25.37700
H  -2.60300 11.79000 24.83200
H  -2.36200 11.03200 26.42100
H  -3.20900 13.91400 30.69500
H  -0.55800 11.66700 33.33100
H  -1.64100 12.75100 34.24400
H  -0.18900 13.39000 33.49600
Mg -10.69600 17.22100 41.01500
C  -7.15200 16.68600 40.88500
C  -10.12100 20.55500 40.32100
C  -13.94500 17.56400 40.40900
C  -11.10200 13.74000 41.13000
N  -8.85400 18.42200 40.51700
C  -7.57000 17.98400 40.60100
C  -6.65800 19.18800 40.35500
C  -7.49300 20.38100 40.80300
C  -8.90200 19.82400 40.53600
C  -7.24900 20.70000 42.31000
C  -6.26500 19.22200 38.83600
C  -4.82400 18.96700 38.42700
H  -4.55200 17.84500 37.38500
N  -11.90400 18.85300 40.49600
C  -11.45100 20.08600 40.13200
C  -12.49800 20.92500 39.80500
C  -13.71900 20.14700 40.02300
C  -13.24400 18.79600 40.33800
C  -12.28800 22.37500 39.51900
C  -15.11800 20.72800 40.00400
O  -15.34500 21.89900 39.77700
C  -16.29800 19.80600 40.25100
N  -12.26700 15.86200 40.61800
C  -13.56500 16.27100 40.62100
C  -14.54100 15.12000 40.75200
C  -13.58500 13.92800 40.72000
C  -12.20800 14.54000 40.79500
C  -15.31900 15.06200 42.13300
C  -13.80100 12.86300 39.61900
C  -12.98200 12.94800 38.31500
N  -9.44800 15.54200 41.09000
C  -9.72600 14.15100 41.11500
C  -8.46700 13.41600 41.33500
C  -7.46400 14.32900 41.14500
C  -8.09000 15.58100 40.96200
C  -8.33100 11.99800 41.65100
C  -6.06100 14.50200 41.09500
O  -5.14600 13.68600 41.20700
C  -5.77800 16.01200 40.82700
C  -4.92500 16.45300 41.89200
O  -3.76200 16.74500 41.71400
O  -5.60200 16.58500 43.07000
C  -4.79600 17.07700 44.23300
H  -9.96300 21.63300 40.24800
H  -15.02800 17.70100 40.45500
H  -11.35100 12.67900 41.18000
H  -5.81100 18.96500 41.00400
H  -7.35600 21.30800 40.24700
H  -6.85800 19.86200 42.88700
H  -8.15700 20.91600 42.87400
H  -6.57300 21.53900 42.47400
H  -6.59000 20.23100 38.58300
H  -6.94900 18.56800 38.29500
H  -4.13900 18.61100 39.19600
H  -4.34700 19.86100 38.02600
H  -11.45200 22.59700 38.85600
H  -12.10400 22.86900 40.47300
H  -13.18300 22.77400 39.04200
H  -16.21800 19.05800 39.46300
H  -17.26900 20.28700 40.12800
H  -16.14100 19.35300 41.23000
H  -15.29800 15.12000 39.96700
H  -13.57700 13.37400 41.65900
H  -15.18100 14.09500 42.61700
H  -16.34700 15.25200 41.82600
H  -14.95000 15.80300 42.84300
H  -14.85100 12.91700 39.33100
H  -13.72800 11.85100 40.01700
H  -12.56500 11.97200 38.06700
H  -12.13500 13.63400 38.28400
H  -13.65800 13.12800 37.47900
H  -8.05600 11.47000 40.73800
H  -9.24700 11.54700 42.03200
H  -7.58600 11.92500 42.44300
H  -5.39900 16.19400 39.82200
H  -5.34800 16.78900 45.12800
H  -4.66900 18.15900 44.28100
H  -3.78900 16.66300 44.29100

