158

Mg 6.45100 55.13500 39.32500
C  5.81000 51.71500 39.10500
C  9.75900 54.52000 38.43900
C  6.79400 58.44600 38.83000
C  2.97400 55.63900 39.58300
N  7.71100 53.32800 38.96900
C  7.17000 52.00800 38.88200
C  8.36000 51.02300 38.58900
C  9.63900 51.89200 38.64400
C  9.05300 53.33600 38.78400
C  10.69900 51.47400 39.83200
C  8.05900 50.29300 37.20300
C  7.69200 51.26100 36.03800
H  6.70900 50.75700 34.94400
N  8.00500 56.29500 38.79900
C  9.29700 55.89400 38.40400
C  10.12900 56.99300 38.20400
C  9.24900 58.21800 38.33600
C  7.92700 57.67500 38.61900
C  11.55800 56.90400 37.91600
C  9.76100 59.65400 38.18800
O  10.96200 59.93100 38.01400
C  8.77900 60.84400 38.40500
N  5.04200 56.83500 39.34000
C  5.45300 58.07300 39.09900
C  4.38600 59.14900 39.28900
C  3.10700 58.21200 39.43800
C  3.71800 56.82900 39.43600
C  4.64400 60.04100 40.60300
C  2.03100 58.46600 38.38300
C  1.32300 59.82800 38.49500
N  4.71800 53.95200 39.48500
C  3.42100 54.30500 39.66000
C  2.55200 53.09300 39.91600
C  3.53000 52.06000 39.73900
C  4.77600 52.63200 39.38600
C  0.98300 53.05700 40.07300
C  3.75900 50.68900 39.82500
O  3.04000 49.78400 40.20000
C  5.14100 50.40700 39.28400
C  4.94000 49.50300 38.15900
O  4.55400 49.90400 37.07400
O  5.38800 48.19400 38.44400
C  5.10900 47.26300 37.35900
H  10.79300 54.35400 38.12700
H  6.87500 59.53400 38.78000
H  1.89900 55.81300 39.66600
H  8.28500 50.23200 39.33500
H  10.13200 51.79400 37.67700
H  10.21700 50.94700 40.65600
H  11.09500 52.42000 40.20100
H  11.40300 50.92500 39.20700
H  7.25200 49.57800 37.36200
H  8.99500 49.78800 36.96200
H  8.63100 51.54500 35.56400
H  7.23700 52.18900 36.38300
H  11.58000 56.20800 37.07800
H  12.04400 56.50600 38.80700
H  12.01900 57.80600 37.51500
H  9.38700 61.70100 38.11600
H  8.41400 61.02300 39.41600
H  8.06100 60.64700 37.60900
H  4.29700 59.79900 38.41900
H  2.72600 58.33900 40.45100
H  5.63100 59.76300 40.97400
H  3.88700 59.96000 41.38300
H  4.61100 61.08900 40.30600
H  1.18100 57.78700 38.31200
H  2.60400 58.48500 37.45600
H  1.84300 60.42900 39.24200
H  0.30800 59.58800 38.81000
H  1.16000 60.29000 37.52100
H  0.90300 51.97300 40.15200
H  0.49600 53.53500 39.22300
H  0.63000 53.59200 40.95500
H  5.61200 49.90100 40.12600
H  4.03900 47.10500 37.22400
H  5.59900 46.31000 37.56300
H  5.62500 47.54700 36.44200
Mg -5.62400 25.07000 26.42800
C  -3.92600 26.15700 29.31800
C  -7.55900 23.06600 28.56900
C  -7.06000 23.65400 23.70300
C  -3.40100 26.91700 24.49400
N  -5.76400 24.67700 28.68500
C  -4.97600 25.33500 29.64900
C  -5.38300 24.94300 31.05600
C  -6.29500 23.73500 30.76700
C  -6.54200 23.79200 29.22600
C  -5.69000 22.45600 31.21700
C  -6.01000 26.16600 31.86800
C  -5.39600 26.51300 33.18700
H  -4.76400 25.38200 34.03500
N  -7.10800 23.57000 26.18600
C  -7.82300 22.97700 27.19600
C  -8.80900 22.08600 26.65100
C  -8.61800 22.20400 25.16300
C  -7.52300 23.16300 24.94200
C  -9.86800 21.44300 27.49700
C  -9.30000 21.35700 24.06900
O  -9.04300 21.52600 22.88600
C  -10.51800 20.51600 24.43800
N  -5.19200 25.15600 24.39700
C  -6.01100 24.55700 23.49800
C  -5.71800 25.07800 22.08500
C  -4.52800 26.14200 22.29600
C  -4.38700 26.07400 23.80300
C  -5.24100 23.92300 21.10100
C  -4.80400 27.53300 21.74800
C  -3.76600 28.00900 20.76900
N  -3.95600 26.28400 26.72300
C  -3.15900 27.00700 25.84900
C  -2.22800 27.80300 26.54900
C  -2.47700 27.45600 27.88900
C  -3.57900 26.58800 27.95900
C  -1.16900 28.79000 26.05200
C  -2.04600 27.79300 29.21900
O  -1.16700 28.51600 29.59800
C  -2.89200 26.86700 30.18900
C  -1.92300 26.00800 30.91700
O  -1.53100 24.92400 30.56200
O  -1.50700 26.66900 32.07600
C  -0.44900 26.02500 32.86900
H  -8.25100 22.61700 29.28500
H  -7.60000 23.45700 22.77400
H  -2.81500 27.60300 23.87900
H  -4.55100 24.50700 31.60900
H  -7.30700 23.78300 31.16800
H  -6.37600 22.14300 32.00400
H  -4.70900 22.54500 31.68300
H  -5.60600 21.60900 30.53600
H  -7.05200 25.89900 32.04400
H  -5.89200 27.03400 31.22000
H  -6.20600 26.98600 33.74200
H  -4.67500 27.30400 32.98400
H  -10.11500 21.92500 28.44200
H  -9.59300 20.42700 27.78000
H  -10.84500 21.53300 27.02200
H  -10.32000 19.76600 25.20400
H  -10.72000 19.97100 23.51600
H  -11.28500 21.25500 24.66900
H  -6.57800 25.54200 21.60200
H  -3.50100 25.85000 22.07400
H  -5.68900 23.94900 20.10800
H  -5.46000 22.91300 21.44800
H  -4.16600 24.00700 20.93800
H  -4.74200 28.19000 22.61600
H  -5.77400 27.68400 21.27400
H  -3.89200 27.74200 19.71900
H  -2.77200 27.69800 21.09200
H  -3.80300 29.09600 20.69800
H  -0.59500 28.27100 25.28400
H  -0.58900 29.01400 26.94800
H  -1.72600 29.64500 25.67100
H  -3.31700 27.53100 30.94100
H  0.49900 26.10700 32.33700
H  -0.79000 25.05500 33.23100
H  -0.44900 26.75700 33.67700

