158

Mg 51.38300 44.95300 41.56800
C  48.21500 45.79800 40.35600
C  50.75300 41.72000 40.95200
C  54.65800 44.51500 41.99300
C  51.98100 48.59200 41.94600
N  49.74300 43.95500 40.40500
C  48.48300 44.45100 40.21800
C  47.58400 43.38100 39.62700
C  48.32200 42.11300 40.12600
C  49.69400 42.57100 40.57600
C  47.50100 41.32400 41.20300
C  47.52600 43.54900 38.14300
C  46.08600 43.63200 37.56300
H  45.71100 42.49800 36.62400
N  52.54700 43.40200 41.38300
C  52.10400 42.13000 41.19600
C  53.26300 41.21100 41.08100
C  54.41000 42.01300 41.32800
C  53.90500 43.38500 41.55700
C  53.07600 39.73500 40.77100
C  55.84900 41.58400 41.30100
O  56.06300 40.34200 41.13900
C  57.02000 42.47100 41.18800
N  53.03400 46.35200 42.19900
C  54.25700 45.79900 42.35100
C  55.28400 46.95800 42.63500
C  54.41000 48.24100 42.82300
C  53.06400 47.71100 42.17700
C  56.28900 46.71100 43.76800
C  54.89100 49.50900 42.02600
C  54.62700 50.77500 42.74000
N  50.31300 46.82000 41.24500
C  50.64300 48.19400 41.52500
C  49.56600 49.01400 41.22800
C  48.55800 48.13000 40.80600
C  49.09400 46.80300 40.81500
C  49.36000 50.52200 41.36400
C  47.19700 47.98300 40.35500
O  46.36000 48.86400 40.07600
C  46.88700 46.47900 40.08100
C  45.80400 46.09900 40.99100
O  45.91400 45.75000 42.14200
O  44.61900 46.57900 40.42400
C  43.54900 46.72600 41.40300
H  50.61400 40.64700 40.80700
H  55.71400 44.31900 42.18600
H  52.04600 49.67300 42.08400
H  46.64600 43.52600 40.16400
H  48.57200 41.45100 39.29600
H  47.66800 40.26700 40.99500
H  46.42700 41.35900 41.02100
H  47.79400 41.60300 42.21500
H  47.98500 42.66300 37.70500
H  48.08000 44.37300 37.69400
H  45.97600 44.60100 37.07600
H  45.38100 43.84300 38.36600
H  53.83600 39.41300 40.06000
H  52.09800 39.36300 40.46300
H  53.20800 39.25400 41.74100
H  57.26500 42.70400 42.22400
H  56.73300 43.34800 40.60700
H  57.68300 41.85900 40.57700
H  55.88400 46.83500 41.73300
H  54.20200 48.46500 43.86900
H  57.30400 46.95500 43.45400
H  56.39200 45.66100 44.04100
H  56.11700 47.27900 44.68200
H  54.35300 49.45800 41.07900
H  55.95100 49.48300 41.77200
H  55.59500 51.18100 43.03600
H  54.01000 50.77300 43.63800
H  54.06800 51.49400 42.14200
H  49.36800 51.02700 40.39800
H  50.21200 50.96700 41.87700
H  48.43500 50.79900 41.87000
H  46.56600 46.39000 39.04300
H  42.91500 47.53900 41.04900
H  43.86200 46.85900 42.43800
H  43.09200 45.73600 41.39700
Mg -5.17200 24.85900 27.03500
C  -3.80800 26.52400 29.74400
C  -6.50800 22.65300 29.29100
C  -6.15100 23.05600 24.42100
C  -3.31200 26.93000 24.89100
N  -4.93000 24.49600 29.23600
C  -4.50400 25.39600 30.13400
C  -4.95300 25.09300 31.60000
C  -5.45100 23.63700 31.42700
C  -5.69400 23.57500 29.89000
C  -4.45400 22.59000 31.88400
C  -5.98100 26.11700 32.06800
C  -6.10000 26.35000 33.57000
H  -5.76100 25.10700 34.45100
N  -6.18300 23.12300 26.92700
C  -6.72600 22.44900 27.93000
C  -7.69000 21.46900 27.36000
C  -7.67200 21.66400 25.94600
C  -6.61300 22.61500 25.65900
C  -8.51100 20.52000 28.15400
C  -8.52000 21.05300 24.80900
O  -8.42300 21.43400 23.66700
C  -9.56600 20.12200 25.08300
N  -4.63200 24.85000 24.90000
C  -5.32800 24.02300 24.02800
C  -4.89100 24.42400 22.61800
C  -4.09900 25.70800 22.75700
C  -3.96400 25.86900 24.22800
C  -4.21500 23.21500 21.92200
C  -4.87800 26.95000 22.23000
C  -4.17100 27.72100 21.17800
N  -3.75600 26.45000 27.24000
C  -3.08800 27.26000 26.28500
C  -2.22600 28.20100 26.97400
C  -2.46300 27.88700 28.31400
C  -3.40700 26.87100 28.40100
C  -1.20500 29.14300 26.36300
C  -2.09600 28.33800 29.64400
O  -1.38700 29.24700 30.07900
C  -3.07300 27.52400 30.61400
C  -2.30200 26.96600 31.84600
O  -1.42200 26.10600 31.75000
O  -2.77500 27.55500 32.97500
C  -2.26900 27.03400 34.19600
H  -7.09800 22.04400 29.98000
H  -6.56000 22.54700 23.54600
H  -2.77400 27.65900 24.28300
H  -4.06400 25.11200 32.23200
H  -6.36400 23.50100 32.00600
H  -4.28200 21.82000 31.13200
H  -4.91300 22.11400 32.75100
H  -3.51400 23.08200 32.13300
H  -6.96200 25.78900 31.72300
H  -5.85300 27.11300 31.64500
H  -7.05000 26.80800 33.84300
H  -5.26200 26.98600 33.85400
H  -9.50000 20.92200 28.37300
H  -8.01400 20.37000 29.11300
H  -8.63700 19.63000 27.53800
H  -9.13300 19.12800 25.20100
H  -10.15700 20.03500 24.17100
H  -10.18900 20.59300 25.84200
H  -5.75900 24.56800 21.97500
H  -3.11100 25.53700 22.33000
H  -4.03500 22.42500 22.65100
H  -3.32800 23.58000 21.40400
H  -4.82400 22.74600 21.15000
H  -5.13500 27.69300 22.98500
H  -5.78700 26.52100 21.80900
H  -3.31500 27.15800 20.80900
H  -3.76300 28.63500 21.61100
H  -4.77500 28.05100 20.33300
H  -0.82300 28.67400 25.45700
H  -0.40800 29.48600 27.02300
H  -1.67200 30.06500 26.01600
H  -3.76000 28.28300 30.98700
H  -1.45100 27.58400 34.66000
H  -1.83300 26.05500 33.99500
H  -3.08700 26.92300 34.90800

