158

Mg 49.21800 35.54600 27.72700
C  46.63600 34.19400 29.85400
C  49.42700 38.12500 29.96800
C  50.97400 37.20600 25.38400
C  48.21700 33.07100 25.35200
N  48.23700 35.95800 29.83700
C  47.28300 35.30500 30.49200
C  46.88100 36.06200 31.79100
C  47.60400 37.42300 31.62800
C  48.45000 37.20700 30.39000
C  46.67300 38.61100 31.56000
C  47.42000 35.38100 33.07400
C  48.64300 34.49900 33.11900
H  49.92800 35.20000 33.60400
N  50.24700 37.28800 27.72000
C  50.30200 38.15600 28.76600
C  51.22100 39.20900 28.42600
C  51.59200 39.03600 27.08400
C  50.94700 37.76400 26.63500
C  51.45200 40.44500 29.31000
C  52.26900 39.91200 26.04300
O  52.41400 39.68100 24.85700
C  52.62100 41.37000 26.47400
N  49.35600 35.26000 25.64200
C  50.25600 36.09500 24.90600
C  50.49500 35.52900 23.53600
C  49.79600 34.14200 23.54200
C  49.07100 34.12000 24.91400
C  49.93400 36.39000 22.45400
C  50.67300 32.89000 23.30100
C  50.61200 32.28400 21.86600
N  47.80500 33.94000 27.60000
C  47.57700 33.00900 26.57200
C  46.54400 32.09700 26.98500
C  46.15800 32.50900 28.27700
C  46.92700 33.63900 28.58600
C  46.02400 30.91600 26.18600
C  45.21400 32.20100 29.36600
O  44.42700 31.22400 29.47200
C  45.46600 33.36800 30.46500
C  46.04900 32.63600 31.56400
O  47.05800 31.82000 31.60500
O  45.17600 32.88100 32.58700
C  45.39900 32.14900 33.82400
H  49.63700 38.97800 30.61600
H  51.52100 37.65300 24.55100
H  47.89000 32.27200 24.68400
H  45.79500 36.11900 31.86000
H  48.28200 37.58100 32.46700
H  45.62700 38.30600 31.54900
H  46.90700 39.18000 30.66000
H  46.69200 39.23100 32.45600
H  46.66500 34.71700 33.49400
H  47.50400 36.22600 33.75800
H  48.93400 34.09900 32.14800
H  48.42600 33.67800 33.80300
H  52.50400 40.70200 29.43500
H  50.80000 40.45400 30.18400
H  51.00100 41.25700 28.74000
H  51.73300 42.00100 26.43700
H  53.38000 41.55300 25.71400
H  53.15000 41.42200 27.42500
H  51.57600 35.50500 23.40500
H  49.03400 34.10400 22.76400
H  50.69600 37.09200 22.11700
H  49.03400 36.91800 22.76700
H  49.65700 35.79400 21.58500
H  50.22400 32.20700 24.02200
H  51.71200 33.14500 23.50800
H  50.70400 31.22200 22.09700
H  51.47400 32.56800 21.26100
H  49.75700 32.59100 21.26400
H  45.28400 30.32600 26.72700
H  46.93800 30.34600 26.02200
H  45.59000 31.29900 25.26200
H  44.67400 34.10200 30.61600
H  45.64600 31.08900 33.77300
H  44.42100 32.13300 34.30400
H  46.19000 32.62900 34.40200
Mg -5.06000 24.68200 25.97000
C  -3.59800 25.76200 28.93400
C  -6.89000 22.51800 27.75800
C  -6.13100 23.23900 23.04800
C  -2.63500 26.40600 24.16900
N  -5.18400 24.26800 28.05400
C  -4.58900 24.83500 29.10100
C  -5.07900 24.34200 30.46600
C  -5.90000 23.08900 30.05800
C  -6.04500 23.28300 28.52900
C  -5.25900 21.71200 30.29600
C  -5.98300 25.43900 31.18500
C  -5.61700 25.83500 32.63400
H  -4.98500 24.74300 33.55500
N  -6.52000 23.22600 25.47700
C  -7.21400 22.52200 26.35700
C  -8.21400 21.71100 25.65300
C  -7.93200 21.82200 24.26000
C  -6.84500 22.82000 24.20200
C  -9.23000 20.94400 26.35400
C  -8.61700 21.10300 23.07900
O  -8.20800 21.20700 21.92100
C  -9.92400 20.24400 23.27700
N  -4.50900 24.90000 23.90900
C  -5.08000 24.10400 22.92300
C  -4.29600 24.29300 21.59100
C  -3.33000 25.45500 21.91300
C  -3.44300 25.61600 23.43200
C  -3.68100 23.02000 21.04100
C  -3.55200 26.80300 21.09100
C  -2.41700 27.19800 20.02500
N  -3.51000 25.98900 26.43000
C  -2.63300 26.61800 25.55100
C  -1.81100 27.51700 26.41600
C  -2.12400 27.17400 27.72300
C  -3.18600 26.27300 27.66900
C  -0.71500 28.40100 26.02800
C  -1.87500 27.51700 29.16400
O  -1.11500 28.31500 29.67200
C  -2.78100 26.59200 29.94400
C  -1.97700 25.80400 30.99300
O  -1.50000 24.68600 30.85000
O  -1.90400 26.60500 32.16100
C  -1.01100 26.05900 33.17300
H  -7.56800 21.83200 28.27000
H  -6.53000 22.73300 22.16700
H  -1.83300 26.86300 23.58500
H  -4.13300 24.06600 30.93200
H  -6.89800 23.11200 30.49600
H  -6.06500 21.16800 30.79000
H  -4.41300 21.80700 30.97700
H  -4.82700 21.22400 29.42300
H  -7.02200 25.11300 31.13000
H  -5.82000 26.32600 30.57300
H  -6.56300 26.21200 33.02200
H  -4.96900 26.71200 32.64000
H  -10.15800 21.21700 25.85200
H  -9.32600 21.28000 27.38700
H  -9.02600 19.87900 26.45900
H  -10.58100 20.94400 23.79400
H  -9.73900 19.31900 23.82200
H  -10.34600 19.98800 22.30500
H  -5.02600 24.60200 20.84200
H  -2.27600 25.19200 21.82500
H  -2.60700 23.15300 20.91200
H  -4.13600 22.77800 20.08100
H  -3.73300 22.17800 21.73200
H  -3.51300 27.64500 21.78300
H  -4.50100 26.76600 20.55600
H  -2.00400 28.18400 20.23800
H  -2.77300 27.18400 18.99400
H  -1.54900 26.53900 20.00900
H  -1.14000 29.29400 25.56900
H  -0.18800 27.89100 25.22100
H  -0.02400 28.68600 26.82100
H  -3.40200 27.25000 30.55100
H  -0.06800 25.64900 32.81000
H  -1.54600 25.15100 33.45300
H  -0.82000 26.79500 33.95400

