158

Mg -1.85900 17.11000 25.96100
C  -1.86500 14.97200 28.63200
C  -3.17900 19.52400 28.00000
C  -1.76800 19.30700 23.35900
C  -1.34000 14.48900 23.77400
N  -2.36800 17.24900 28.16900
C  -2.17700 16.24000 29.05300
C  -2.63700 16.65500 30.44500
C  -3.36000 18.04200 30.16000
C  -2.97900 18.34100 28.66400
C  -4.84600 18.15900 30.53700
C  -1.46000 16.82700 31.54900
C  -1.44600 15.85200 32.73600
H  -1.97300 16.20000 34.16200
N  -2.23400 19.10400 25.71700
C  -2.86600 19.94000 26.67300
C  -2.98200 21.29100 26.14400
C  -2.36600 21.32000 24.85500
C  -2.08700 19.85400 24.61500
C  -3.69900 22.40300 26.94600
C  -2.09100 22.44500 23.90200
O  -1.62500 22.27400 22.77900
C  -2.32900 23.83300 24.30300
N  -1.72000 16.92900 23.77700
C  -1.59100 17.95500 22.94600
C  -1.25600 17.46800 21.57300
C  -1.01700 15.97600 21.73200
C  -1.39400 15.76000 23.17600
C  -2.20700 17.93900 20.47500
C  0.35400 15.37300 21.36600
C  0.48800 14.21700 20.52900
N  -1.71600 15.14400 26.08600
C  -1.47500 14.22900 25.14600
C  -1.36000 12.93600 25.78900
C  -1.52700 13.19600 27.14900
C  -1.70100 14.57600 27.32000
C  -1.08900 11.55900 25.11100
C  -1.51800 12.54800 28.41400
O  -1.52800 11.34900 28.73400
C  -1.54700 13.76800 29.45900
C  -0.20900 13.82800 30.03900
O  0.72700 14.34500 29.44200
O  -0.14700 13.31900 31.34100
C  1.10600 13.34500 32.03500
H  -3.62100 20.39500 28.48800
H  -1.47800 19.86800 22.46800
H  -0.84400 13.74600 23.14600
H  -3.44000 15.98600 30.75300
H  -2.90400 18.86400 30.71200
H  -5.35600 18.13800 29.57400
H  -4.90600 19.15400 30.97700
H  -5.20200 17.48100 31.31200
H  -1.51200 17.79600 32.04400
H  -0.54000 16.73400 30.97200
H  -0.38200 15.72200 32.93400
H  -1.91000 14.90000 32.47800
H  -2.98600 22.70600 27.71400
H  -4.57400 22.08500 27.51300
H  -3.75200 23.30600 26.33800
H  -3.38300 24.07500 24.17100
H  -1.78500 24.62900 23.79200
H  -1.97300 23.79200 25.33200
H  -0.35700 17.95300 21.19300
H  -1.64900 15.47300 21.00000
H  -1.85800 18.86000 20.00700
H  -3.17400 18.13000 20.94000
H  -2.31500 17.21900 19.66400
H  0.79600 15.09800 22.32300
H  1.05000 16.17400 21.11800
H  0.84900 14.62200 19.58400
H  -0.43700 13.67900 20.31600
H  1.19200 13.56400 21.04500
H  -0.25300 11.16400 25.68900
H  -0.76600 11.51400 24.07000
H  -1.92100 10.88200 25.30100
H  -2.29700 13.59600 30.23100
H  1.32600 14.30500 32.50100
H  1.87600 13.22200 31.27400
H  1.18100 12.65200 32.87400
Mg 16.11400 51.57600 26.29600
C  18.17000 50.65200 29.01300
C  13.71400 52.48600 28.42300
C  14.29200 52.22000 23.56200
C  18.60300 50.18800 24.17000
N  16.04000 51.69200 28.47600
C  16.96700 51.26500 29.38200
C  16.41600 51.45700 30.83200
C  14.96600 51.99600 30.60000
C  14.86900 52.04800 29.07400
C  13.77400 51.12400 31.20600
C  17.27900 52.45000 31.55700
C  17.31700 52.56400 33.05600
H  16.36300 51.75300 33.94200
N  14.24500 52.30900 26.06800
C  13.38000 52.70700 27.07300
C  12.27800 53.31600 26.42700
C  12.47300 53.26800 24.98300
C  13.72100 52.55400 24.81500
C  11.09300 53.86700 27.20300
C  11.49100 53.72300 23.90500
O  11.56000 53.53200 22.73300
C  10.20600 54.35100 24.28600
N  16.35600 51.14300 24.14000
C  15.43000 51.47900 23.21500
C  15.77600 50.85700 21.83400
C  17.28000 50.57000 22.04800
C  17.44100 50.65900 23.57600
C  14.91000 49.62300 21.50500
C  18.15400 51.62700 21.35700
C  19.24200 51.02700 20.38500
N  18.06900 50.63100 26.47100
C  18.92600 50.08900 25.50300
C  19.96500 49.39400 26.13600
C  19.81100 49.60200 27.52600
C  18.58800 50.37600 27.66400
C  21.05900 48.64100 25.48500
C  20.31700 49.39100 28.87100
O  21.24900 48.76300 29.23500
C  19.22100 50.10000 29.92200
C  18.83000 49.01300 30.74600
O  18.22500 47.98700 30.32500
O  19.28300 49.22100 32.02700
C  18.89700 48.15800 32.98400
H  12.86300 52.71500 29.06900
H  13.72400 52.46700 22.66300
H  19.41400 49.93800 23.48300
H  16.49900 50.48100 31.31100
H  14.82300 52.94700 31.11200
H  13.07500 50.58400 30.56700
H  13.11200 51.71100 31.84200
H  14.34400 50.46900 31.86400
H  17.02900 53.41500 31.11600
H  18.26500 52.26700 31.12800
H  17.01700 53.60400 33.18100
H  18.34900 52.47400 33.39500
H  10.29800 53.13300 27.07100
H  10.79000 54.90600 27.07600
H  11.26000 53.80900 28.27900
H  9.66100 54.59900 23.37600
H  10.48200 55.35000 24.62400
H  9.49700 53.76900 24.87500
H  15.61500 51.56100 21.01700
H  17.56500 49.55500 21.77300
H  14.05800 49.49900 22.17300
H  15.37700 48.64900 21.65200
H  14.63700 49.56000 20.45200
H  18.68100 52.22300 22.10100
H  17.63500 52.41400 20.80900
H  19.59000 51.69600 19.59700
H  19.02300 50.06200 19.92800
H  20.09900 50.69700 20.97200
H  21.07500 48.69900 24.39700
H  21.05200 47.58700 25.76300
H  21.99900 49.03700 25.87000
H  19.70700 50.93700 30.42400
H  19.76600 47.51900 33.13600
H  18.11200 47.46100 32.69000
H  18.65800 48.66400 33.92000

