158

Mg 2.06200 -1.20700 43.58200
C  5.43200 -0.20100 42.75000
C  0.91400 1.62800 42.06100
C  -0.95900 -2.69500 43.52400
C  3.46500 -4.20600 44.88800
N  3.07600 0.41700 42.46800
C  4.44900 0.61900 42.26300
C  4.67800 1.99600 41.62100
C  3.29900 2.67500 41.68400
C  2.32800 1.53500 42.13400
C  3.20400 3.95600 42.63700
C  5.09700 1.79000 40.13900
C  5.94800 2.81900 39.41800
H  5.38300 3.52800 38.24200
N  0.17200 -0.57900 42.98200
C  -0.12000 0.66200 42.44300
C  -1.50400 0.83600 42.37900
C  -2.11600 -0.37600 42.87300
C  -0.99700 -1.33200 43.15000
C  -2.12900 2.14100 41.85300
C  -3.60400 -0.65100 43.06900
O  -4.43000 0.27500 42.78800
C  -4.02000 -1.98900 43.50700
N  1.33100 -3.09900 44.13200
C  0.09800 -3.52800 43.89900
C  -0.14400 -5.01700 44.07500
C  1.23300 -5.40400 44.78900
C  2.07000 -4.16600 44.59500
C  -1.43800 -5.27100 44.90400
C  2.02300 -6.59600 44.19400
C  2.15700 -7.79600 45.11600
N  4.00600 -2.03500 43.95400
C  4.36900 -3.22800 44.58200
C  5.80600 -3.20100 44.77400
C  6.25000 -2.08400 44.01100
C  5.11300 -1.41500 43.51700
C  6.64400 -4.17100 45.43800
C  7.57100 -1.38200 43.58900
O  8.73300 -1.71500 43.71200
C  6.97400 -0.07500 42.89800
C  7.40500 1.09000 43.69300
O  6.79200 1.60800 44.62000
O  8.66300 1.48500 43.24900
C  8.99700 2.88000 43.73300
H  0.69400 2.64700 41.73800
H  -1.86000 -3.30100 43.40700
H  3.94000 -5.07300 45.35200
H  5.38700 2.65600 42.12000
H  3.05600 3.07000 40.69700
H  4.04600 3.96300 43.32900
H  2.29500 3.96200 43.23900
H  3.20400 4.87500 42.05200
H  4.17900 1.51800 39.61800
H  5.59200 0.84200 39.92900
H  6.78800 2.20200 39.10000
H  6.20100 3.60900 40.12600
H  -3.06300 1.84400 41.37700
H  -1.54200 2.58800 41.05100
H  -2.25700 2.95700 42.56500
H  -5.07300 -1.93100 43.78500
H  -3.57800 -2.28100 44.46000
H  -3.80500 -2.60800 42.63600
H  -0.23200 -5.32300 43.03200
H  1.06000 -5.44000 45.86400
H  -1.22000 -6.06300 45.62100
H  -2.26600 -5.54200 44.25000
H  -1.52900 -4.48100 45.65000
H  2.98000 -6.44900 43.69400
H  1.40100 -7.00100 43.39600
H  2.43800 -7.58100 46.14700
H  2.96900 -8.42100 44.74500
H  1.32500 -8.50000 45.09400
H  5.99700 -4.47000 46.26200
H  7.53000 -3.68000 45.84000
H  6.85500 -5.04500 44.82200
H  7.43700 0.06100 41.92000
H  9.75700 3.27100 43.05700
H  9.33100 2.78500 44.76600
H  8.13000 3.54000 43.68400
Mg 17.11200 51.96700 25.81300
C  18.82000 50.45000 28.48400
C  14.82000 53.20600 28.14400
C  15.30400 53.05000 23.28900
C  19.33600 50.39400 23.62200
N  16.89600 51.87800 28.00600
C  17.69600 51.14700 28.87800
C  17.22200 51.36400 30.35100
C  15.80500 51.93500 30.14800
C  15.79600 52.32400 28.65500
C  14.73800 50.93200 30.40200
C  18.23500 52.33200 31.11100
C  18.39600 52.24000 32.63300
H  17.22400 51.68100 33.48800
N  15.35300 53.10300 25.72500
C  14.60100 53.53700 26.79900
C  13.57200 54.43900 26.27200
C  13.66800 54.40900 24.82800
C  14.77700 53.45100 24.53100
C  12.60000 55.15000 27.11700
C  12.82500 55.14800 23.77600
O  13.00100 55.14800 22.55800
C  11.78500 56.07000 24.34700
N  17.26400 51.61600 23.72400
C  16.34400 52.17900 22.87300
C  16.67400 51.90300 21.41000
C  18.14500 51.28300 21.49200
C  18.32500 51.15000 23.05700
C  15.64300 51.17900 20.53600
C  19.21000 52.23700 20.82500
C  20.68600 51.82200 20.69000
N  18.74600 50.69700 25.96700
C  19.50500 50.11100 24.98900
C  20.55100 49.34000 25.61600
C  20.39700 49.47200 27.00300
C  19.24400 50.32300 27.18800
C  21.68600 48.72700 24.91800
C  20.89800 49.13400 28.29400
O  21.87200 48.51600 28.64100
C  19.95500 49.82700 29.29400
C  19.56000 48.76900 30.27500
O  18.89800 47.77300 29.99700
O  19.93000 49.01000 31.55700
C  19.16800 48.16100 32.57100
H  14.07100 53.44400 28.90200
H  14.65600 53.50200 22.53600
H  20.07700 50.00000 22.92400
H  17.18200 50.40200 30.86300
H  15.61900 52.77100 30.82200
H  13.81500 51.50900 30.46400
H  14.79300 50.45400 31.38100
H  14.63400 50.31400 29.51000
H  18.01400 53.37000 30.86300
H  19.18000 52.08500 30.62700
H  18.54100 53.25100 33.01400
H  19.31000 51.67700 32.82400
H  12.49300 56.20700 26.87200
H  12.90400 55.27000 28.15700
H  11.68400 54.56400 27.18800
H  11.11400 55.70600 25.12600
H  11.14700 56.19200 23.47200
H  12.31000 56.99600 24.58100
H  16.80600 52.93500 21.08500
H  18.25100 50.33800 20.95800
H  16.08900 50.65600 19.68900
H  14.95600 51.88700 20.07400
H  15.10200 50.40600 21.08200
H  19.20100 53.10500 21.48400
H  18.81700 52.53100 19.85200
H  21.01100 52.17100 19.71000
H  20.93200 50.78400 20.91600
H  21.23100 52.34700 21.47500
H  22.15500 49.28000 24.10400
H  21.32900 47.71200 24.74400
H  22.42100 48.69200 25.72300
H  20.53500 50.60600 29.78900
H  19.15800 47.07200 32.52400
H  18.14000 48.52300 32.58800
H  19.66500 48.37300 33.51800

