158

Mg 26.22500 50.10600 26.37900
C  24.10500 51.09300 28.94400
C  28.52600 49.16000 28.73400
C  28.54400 49.57000 23.82500
C  24.10600 51.43400 24.01800
N  26.25100 49.98100 28.65700
C  25.28400 50.44400 29.49400
C  25.72500 50.22900 30.93000
C  27.23500 49.73300 30.80500
C  27.33800 49.49900 29.31600
C  28.34000 50.67700 31.49500
C  24.76200 49.30100 31.73800
C  24.46000 49.78900 33.17900
H  25.51100 50.09500 34.24300
N  28.26900 49.44900 26.30400
C  28.97700 49.05700 27.41100
C  30.30200 48.69800 26.97000
C  30.19800 48.62000 25.54600
C  28.97200 49.23800 25.14200
C  31.43200 48.34900 27.92000
C  31.38200 48.17000 24.60500
O  31.21700 48.25500 23.38400
C  32.53900 47.52500 25.17000
N  26.32300 50.48000 24.23700
C  27.36800 50.12200 23.42600
C  26.95300 50.13600 21.92000
C  25.50600 50.52800 22.04900
C  25.27800 50.84500 23.49100
C  27.85200 50.99800 20.99400
C  24.41000 49.77000 21.22100
C  23.28500 48.91000 21.89600
N  24.38600 50.92500 26.41800
C  23.67600 51.45100 25.35700
C  22.44200 51.93500 25.87600
C  22.59500 51.92400 27.27200
C  23.78700 51.21200 27.55500
C  21.37100 52.56500 25.07400
C  21.93200 52.28100 28.54300
O  20.94000 52.93600 28.80900
C  22.90400 51.73600 29.69200
C  23.14600 52.89900 30.60500
O  23.80500 53.86400 30.37500
O  22.55600 52.58800 31.80200
C  22.91000 53.42800 32.93100
H  29.28800 48.88500 29.46600
H  29.29500 49.30600 23.07800
H  23.33800 51.66100 23.27600
H  25.70200 51.21700 31.39000
H  27.39900 48.73700 31.21700
H  28.74300 50.22400 32.40000
H  27.86300 51.56800 31.90300
H  29.21100 50.85700 30.86500
H  25.13100 48.27600 31.76700
H  23.75300 49.20400 31.33700
H  23.92100 48.90000 33.50500
H  23.71600 50.58500 33.19100
H  31.22600 48.63500 28.95100
H  32.44000 48.68000 27.67200
H  31.37500 47.26300 27.98300
H  33.03800 48.36900 25.64600
H  33.13000 47.22500 24.30400
H  32.09500 46.76400 25.81200
H  27.07200 49.07100 21.72400
H  25.54100 51.50500 21.56800
H  27.43300 51.98500 20.79600
H  27.98500 50.38400 20.10300
H  28.83400 51.23300 21.40300
H  24.96800 49.15100 20.51800
H  23.93400 50.53000 20.60200
H  23.52500 48.44500 22.85200
H  22.89600 48.10800 21.26900
H  22.39800 49.53000 22.03000
H  20.47800 53.02800 25.49300
H  21.05100 51.76800 24.40300
H  21.85600 53.33600 24.47600
H  22.39900 51.04100 30.36300
H  23.92500 53.18800 33.24700
H  22.12500 53.38500 33.68600
H  22.77400 54.46500 32.62600
Mg -5.10100 25.73000 26.98900
C  -4.00300 27.52800 29.64700
C  -6.80300 23.58100 28.94900
C  -5.90300 23.86400 24.18100
C  -3.24000 27.91800 24.87500
N  -5.28300 25.54200 29.04600
C  -4.73500 26.37900 29.99700
C  -5.21300 25.99400 31.36800
C  -5.82700 24.62100 31.15100
C  -6.07200 24.58200 29.60700
C  -4.99400 23.42100 31.64700
C  -6.29500 27.00200 31.87200
C  -6.59100 27.05000 33.33300
H  -6.10000 25.99000 34.33900
N  -6.12400 23.90800 26.61000
C  -6.91900 23.31800 27.53400
C  -7.74500 22.18600 26.92900
C  -7.39800 22.26000 25.54100
C  -6.45800 23.36000 25.38100
C  -8.77300 21.28000 27.66700
C  -7.83800 21.35800 24.47000
O  -7.44500 21.54700 23.31300
C  -8.78200 20.12900 24.76000
N  -4.43000 25.75900 24.89900
C  -4.96900 24.89900 23.92700
C  -4.45000 25.23600 22.53000
C  -3.78900 26.67300 22.73900
C  -3.77600 26.78100 24.27800
C  -3.42100 24.11300 22.05800
C  -4.59200 27.83000 22.02800
C  -3.71900 28.72700 21.13700
N  -3.87900 27.38600 27.24600
C  -3.22700 28.22100 26.26800
C  -2.60100 29.30600 26.94500
C  -2.87100 29.06900 28.29100
C  -3.67000 27.94000 28.39600
C  -1.78000 30.34200 26.29600
C  -2.71700 29.58700 29.60000
O  -2.08500 30.54600 30.03300
C  -3.43200 28.60800 30.58000
C  -2.47500 28.17600 31.65200
O  -1.41900 27.59300 31.44600
O  -3.03700 28.44300 32.85700
C  -2.12800 27.95700 33.90300
H  -7.40600 22.95600 29.61100
H  -6.11300 23.41200 23.20900
H  -2.56400 28.56000 24.30600
H  -4.38200 25.99000 32.07300
H  -6.74900 24.70400 31.72700
H  -3.99800 23.75600 31.93600
H  -4.92600 22.58200 30.95400
H  -5.53800 23.01600 32.50100
H  -7.21600 26.87400 31.30300
H  -5.94800 28.01000 31.64600
H  -7.67000 26.91800 33.24800
H  -6.34900 28.06200 33.65600
H  -9.69300 21.26400 27.08300
H  -8.93000 21.81200 28.60500
H  -8.47200 20.26000 27.90700
H  -8.53700 19.55200 25.65200
H  -8.68100 19.43300 23.92700
H  -9.79700 20.51900 24.68200
H  -5.25600 25.23000 21.79500
H  -2.76400 26.71000 22.37000
H  -3.73900 23.62800 21.13400
H  -3.23000 23.39900 22.85900
H  -2.40800 24.50800 21.98200
H  -5.12000 28.39200 22.79800
H  -5.38500 27.45900 21.37900
H  -2.68800 28.68200 21.48800
H  -4.13900 29.70900 20.91800
H  -3.70600 28.19700 20.18500
H  -2.23100 30.92600 25.49400
H  -0.90100 29.94700 25.78600
H  -1.52900 31.12200 27.01500
H  -4.23100 29.23300 30.97700
H  -2.28600 26.88100 33.97400
H  -2.38300 28.34700 34.88900
H  -1.08400 28.19900 33.70000

