158

Mg 30.64600 57.55700 40.88000
C  28.17200 55.30900 40.03700
C  32.97400 55.17300 39.74400
C  33.12100 60.00400 40.87600
C  28.32000 60.00100 41.40000
N  30.55400 55.53600 39.77300
C  29.40000 54.78600 39.69500
C  29.73400 53.35200 39.34200
C  31.28400 53.29200 39.62200
C  31.63900 54.74800 39.70100
C  31.65100 52.60700 40.98500
C  29.26900 52.95600 37.90200
C  29.55400 54.01300 36.81400
H  28.37500 54.50100 36.01000
N  32.85800 57.52800 40.59300
C  33.51700 56.47200 39.96500
C  34.89300 56.85100 39.89900
C  34.97800 58.28100 40.20000
C  33.59300 58.64100 40.56400
C  35.92900 55.93700 39.37000
C  36.22200 59.09400 40.10200
O  37.22800 58.57200 39.70600
C  36.32400 60.53900 40.47300
N  30.69500 59.76500 40.97600
C  31.84600 60.50100 41.10600
C  31.51900 61.92300 41.32300
C  30.05900 61.83000 41.88300
C  29.64000 60.40800 41.40900
C  32.50200 62.77200 42.10100
C  29.07400 63.00800 41.47800
C  28.29800 63.82300 42.65100
N  28.64800 57.76700 40.62100
C  27.78500 58.82100 40.94000
C  26.43000 58.35100 40.77200
C  26.51900 56.97300 40.43600
C  27.88600 56.66100 40.35200
C  25.23600 59.18900 41.05100
C  25.79100 55.79700 40.26600
O  24.57500 55.55900 40.43000
C  26.81400 54.64400 39.99600
C  26.59900 53.63900 41.07300
O  27.02700 53.72700 42.21200
O  25.74300 52.65200 40.65700
C  25.13300 51.99200 41.85900
H  33.67000 54.33500 39.66400
H  33.87500 60.78900 40.79700
H  27.55900 60.64300 41.84900
H  29.34600 52.69600 40.12200
H  31.81700 52.73500 38.85100
H  30.82100 52.26500 41.60400
H  32.24200 53.31500 41.56500
H  32.27900 51.72400 40.86600
H  28.18400 52.86000 37.87500
H  29.75300 52.01200 37.65100
H  30.24400 53.55600 36.10500
H  30.08800 54.88500 37.19100
H  36.18200 56.16400 38.33400
H  35.69900 54.88400 39.52600
H  36.80300 56.17900 39.97500
H  35.95500 60.65400 41.49200
H  35.81200 61.26800 39.84500
H  37.37700 60.79300 40.34800
H  31.41300 62.41500 40.35600
H  30.10500 61.73300 42.96800
H  33.40900 62.18100 42.23000
H  32.11800 63.01200 43.09200
H  32.63500 63.71100 41.56300
H  28.39000 62.56200 40.75700
H  29.47600 63.84400 40.90500
H  28.86800 64.70700 42.93600
H  28.23300 63.21200 43.55100
H  27.28700 64.08600 42.34100
H  24.33500 58.57500 41.01700
H  24.98200 59.93300 40.29600
H  25.38300 59.78000 41.95500
H  26.62200 54.20200 39.01800
H  25.83400 51.31600 42.34900
H  24.27400 51.50100 41.40200
H  24.92300 52.73400 42.63000
Mg 16.95900 51.47700 26.73500
C  18.89800 49.93300 29.23200
C  14.61200 52.06600 29.20100
C  15.15500 53.08200 24.46800
C  19.18700 50.28300 24.31300
N  16.91400 51.15400 28.99100
C  17.82800 50.62600 29.80600
C  17.36000 50.75500 31.21600
C  15.82600 50.89200 31.11800
C  15.74000 51.36100 29.64700
C  15.00600 49.56700 31.39800
C  18.10400 52.01100 31.79400
C  18.43100 51.94200 33.27100
H  17.54300 51.00700 34.19800
N  15.17400 52.62400 26.84700
C  14.39400 52.78700 27.94600
C  13.35400 53.75300 27.61900
C  13.41200 53.90800 26.16500
C  14.63000 53.22000 25.74200
C  12.41900 54.26000 28.63000
C  12.57600 54.80500 25.35900
O  12.74100 55.08800 24.18100
C  11.34400 55.47800 25.96200
N  17.03800 51.42200 24.65300
C  16.22900 52.35700 24.00500
C  16.65900 52.31400 22.51300
C  18.11700 51.74500 22.47400
C  18.06300 51.05200 23.92100
C  15.62000 51.55300 21.54700
C  19.25400 52.75600 22.25200
C  19.10900 53.80400 21.17400
N  18.54400 50.23600 26.73600
C  19.40500 49.79900 25.68300
C  20.47900 48.94400 26.15700
C  20.29400 48.96200 27.51100
C  19.11700 49.71800 27.80900
C  21.54700 48.31200 25.30300
C  20.89900 48.48800 28.70000
O  21.89000 47.82200 28.94700
C  20.00000 49.15200 29.90800
C  19.63200 48.12400 30.89500
O  18.73200 47.33500 30.80100
O  20.44300 48.30600 32.05600
C  19.97200 47.51300 33.21700
H  13.85500 52.35600 29.93300
H  14.61100 53.66100 23.71800
H  20.03300 50.20500 23.62700
H  17.59600 49.83000 31.74200
H  15.38900 51.65400 31.76400
H  15.63500 48.81300 31.87200
H  14.75100 49.14700 30.42600
H  14.14600 49.73800 32.04500
H  17.53900 52.93900 31.69700
H  19.04700 52.06200 31.25000
H  18.36300 52.97800 33.60300
H  19.45700 51.59600 33.39700
H  12.21700 55.32900 28.55900
H  12.82200 54.03000 29.61600
H  11.38200 53.93000 28.56800
H  10.69600 55.93000 25.21100
H  11.79700 56.28200 26.54200
H  10.73000 54.79700 26.55100
H  16.71100 53.33200 22.12600
H  18.16700 50.85100 21.85400
H  15.95000 50.68500 20.97500
H  15.30700 52.31300 20.83100
H  14.86200 51.21900 22.25600
H  20.15700 52.23600 21.93100
H  19.41600 53.18600 23.24000
H  18.98700 54.77800 21.64900
H  18.24200 53.64500 20.53200
H  19.97500 53.94100 20.52600
H  22.21900 48.99700 24.78500
H  20.98700 47.73700 24.56600
H  22.11000 47.65400 25.96500
H  20.54300 49.98300 30.35800
H  19.80800 46.45400 33.02200
H  19.00700 47.86200 33.58400
H  20.64000 47.62200 34.07200

