158

Mg 46.74900 44.47500 42.28900
C  43.39100 43.42500 42.25100
C  47.79600 41.20600 41.87600
C  49.93100 45.66000 42.25000
C  45.52000 47.76000 42.34900
N  45.67000 42.59500 42.00000
C  44.31000 42.37100 42.04200
C  44.02800 40.86100 41.78300
C  45.40400 40.18700 41.98900
C  46.36500 41.38000 41.93000
C  45.45600 39.29100 43.26800
C  43.21400 40.54100 40.49300
C  43.63400 41.27000 39.24000
H  43.37600 40.65900 37.84400
N  48.62500 43.57500 42.07700
C  48.81700 42.19600 41.98400
C  50.22900 41.96200 41.95200
C  50.96500 43.18300 42.11700
C  49.88800 44.21500 42.15200
C  50.75700 40.51800 41.78300
C  52.48400 43.37900 42.04300
O  53.20000 42.41200 41.87900
C  52.99800 44.73900 42.32200
N  47.61500 46.43600 42.01200
C  48.92600 46.68700 42.19800
C  49.34300 48.16600 42.36300
C  47.88000 48.76800 42.17400
C  46.85600 47.57000 42.12800
C  50.07300 48.46500 43.74000
C  47.55500 49.81100 41.04100
C  48.17800 51.21000 41.35700
N  44.86900 45.50900 42.33800
C  44.46400 46.83800 42.44900
C  43.04200 47.00900 42.77800
C  42.61600 45.65500 42.61700
C  43.72100 44.82800 42.33200
C  42.31900 48.28400 43.15500
C  41.43600 44.87000 42.52900
O  40.26600 45.09800 42.81200
C  41.84200 43.39700 42.21300
C  41.17100 42.40200 43.11700
O  41.44700 42.22000 44.27100
O  40.20600 41.71200 42.28600
C  39.52300 40.59300 42.86600
H  47.97800 40.14800 41.67700
H  50.84500 46.21600 42.46600
H  45.13100 48.75700 42.56800
H  43.29900 40.58800 42.54600
H  45.72400 39.52000 41.18900
H  44.48000 38.98500 43.64400
H  46.01100 39.91500 43.96800
H  46.14700 38.45600 43.15400
H  42.19900 40.79500 40.79900
H  43.29500 39.46700 40.32200
H  44.71900 41.35500 39.29500
H  43.21200 42.26600 39.37600
H  50.79600 40.12600 40.76700
H  50.11500 39.88700 42.39800
H  51.76900 40.37500 42.16200
H  52.63400 45.45500 41.58600
H  54.08600 44.77500 42.27300
H  52.58900 45.11200 43.26100
H  49.96600 48.60000 41.58200
H  47.51900 49.31200 43.04700
H  50.37700 47.49100 44.12400
H  49.32600 48.82200 44.44800
H  50.93300 49.13300 43.69400
H  46.50800 50.04300 40.84700
H  48.13000 49.52200 40.16200
H  48.68600 51.25000 42.32100
H  47.50700 52.05200 41.18600
H  49.08100 51.31300 40.75700
H  42.46900 48.44600 44.22300
H  41.27500 48.14100 42.87500
H  42.85500 49.10100 42.67200
H  41.49300 43.11900 41.21900
H  40.21900 40.13100 43.56600
H  39.19800 39.79800 42.19500
H  38.63100 40.96900 43.36600
Mg 8.95500 48.29800 27.71800
C  7.08600 47.89100 30.64900
C  11.65900 48.90900 29.78100
C  10.73800 49.33700 25.08100
C  6.05900 48.70400 25.95000
N  9.24800 48.67100 29.95800
C  8.42900 48.18400 30.91800
C  9.07600 48.26700 32.36800
C  10.49800 48.80900 32.12400
C  10.49000 48.74700 30.49200
C  10.85800 50.22500 32.65200
C  8.98700 46.98800 33.28000
C  8.40400 47.18100 34.67200
H  8.50100 45.94300 35.59000
N  10.94500 48.85300 27.46700
C  11.90400 48.91500 28.42000
C  13.18000 49.18300 27.82900
C  12.91100 49.31700 26.42000
C  11.48400 49.16800 26.23700
C  14.46200 49.37600 28.67200
C  13.92700 49.50600 25.31000
O  13.51400 49.66000 24.13100
C  15.35000 49.48900 25.63200
N  8.50800 48.91500 25.71300
C  9.44300 49.28300 24.83300
C  8.75100 49.78700 23.59600
C  7.23600 49.48800 23.87300
C  7.27300 48.93300 25.25100
C  9.11300 51.21800 23.06300
C  6.53100 48.56800 22.84500
C  6.86200 48.76400 21.33100
N  6.92100 48.11900 28.08000
C  5.83700 48.27700 27.25300
C  4.62000 48.01200 28.04000
C  5.05800 47.89900 29.38300
C  6.47800 47.91300 29.34400
C  3.25500 48.03900 27.51200
C  4.64000 47.78200 30.78600
O  3.51600 47.73300 31.31000
C  5.92800 47.68300 31.63200
C  5.87200 46.21400 32.21000
O  6.12500 45.12300 31.68800
O  5.47600 46.32500 33.52300
C  5.40800 45.09100 34.27100
H  12.47200 49.16400 30.46400
H  11.27300 49.58300 24.16100
H  5.14600 48.90300 25.38600
H  8.48000 49.04200 32.85100
H  11.26300 48.13200 32.50200
H  10.07000 50.60400 33.30300
H  11.00400 50.95500 31.85600
H  11.78900 50.23900 33.21900
H  9.96400 46.58700 33.54900
H  8.50900 46.14200 32.78600
H  7.40700 47.58700 34.50400
H  8.96000 47.98100 35.16000
H  14.57200 50.46000 28.64300
H  15.33600 49.02100 28.12600
H  14.39200 48.94700 29.67100
H  15.71300 50.18900 26.38500
H  15.84200 49.81000 24.71400
H  15.66400 48.49200 25.94000
H  8.99700 49.06400 22.81800
H  6.76000 50.46200 23.98800
H  8.23900 51.83700 23.26800
H  9.37100 51.30400 22.00800
H  9.85000 51.74300 23.67100
H  5.48500 48.87300 22.87100
H  6.68300 47.52300 23.11200
H  7.27400 49.76700 21.22100
H  5.93300 48.81000 20.76200
H  7.52300 47.99500 20.93200
H  3.22200 48.93100 26.88700
H  2.45800 48.03600 28.25600
H  3.20800 47.12600 26.91900
H  5.97100 48.42700 32.42700
H  4.62200 44.39700 33.97200
H  5.35300 45.37500 35.32200
H  6.32600 44.52800 34.10200

