158

Mg 47.11800 15.05500 28.07100
C  44.85500 15.28300 30.87100
C  49.33800 16.95700 29.65100
C  48.75400 15.25100 25.23100
C  44.38100 13.40600 26.33900
N  47.10500 15.92200 30.05000
C  46.17400 15.88200 31.02100
C  46.72200 16.30400 32.38000
C  48.11200 17.05600 31.92300
C  48.23300 16.64000 30.43900
C  48.14500 18.56600 32.18100
C  46.90700 15.04300 33.28900
C  46.71200 15.30600 34.78500
H  46.43600 16.76100 35.24200
N  48.93800 15.83100 27.57700
C  49.74300 16.55900 28.38000
C  50.99000 16.80200 27.70500
C  50.82300 16.30800 26.35100
C  49.46600 15.79100 26.29900
C  52.12300 17.49200 28.40800
C  51.77600 16.34000 25.17600
O  51.44400 15.95600 24.06400
C  53.10500 17.06600 25.45000
N  46.57400 14.43000 26.04000
C  47.47400 14.61300 25.08800
C  47.14900 13.79000 23.85000
C  45.80800 13.05500 24.22400
C  45.52300 13.65700 25.65100
C  46.99100 14.57700 22.59400
C  45.87600 11.47500 24.18100
C  47.06800 10.88700 24.88900
N  44.97500 14.45500 28.44600
C  44.10200 13.82700 27.62600
C  42.92900 13.55400 28.34600
C  43.11000 14.11100 29.61400
C  44.46400 14.63500 29.65100
C  41.68400 12.91500 27.77600
C  42.57800 14.33300 30.91200
O  41.51200 13.99700 31.42400
C  43.71500 15.05400 31.80400
C  43.13000 16.22500 32.55700
O  42.80700 17.31700 32.10700
O  42.90500 15.85000 33.85400
C  42.14300 16.79000 34.70700
H  50.05800 17.50100 30.26600
H  49.20700 15.32300 24.24000
H  43.67200 12.81900 25.75100
H  46.01900 17.02300 32.80100
H  49.01400 16.64600 32.37600
H  48.28600 19.09500 31.23800
H  48.94800 18.86600 32.85500
H  47.23000 18.96900 32.61500
H  47.97500 14.84000 33.20900
H  46.37700 14.14100 32.98300
H  47.64900 15.02000 35.26200
H  46.00500 14.65900 35.30300
H  51.95800 17.43100 29.48400
H  52.19600 18.48200 27.95700
H  53.05100 16.92600 28.33600
H  53.75700 16.60200 26.19000
H  52.74700 18.02400 25.82800
H  53.67700 17.20100 24.53200
H  47.88800 12.99800 23.72900
H  44.96400 13.33800 23.59400
H  47.50700 14.00100 21.82600
H  47.30500 15.60000 22.80000
H  46.01600 14.77900 22.15000
H  45.91200 11.17700 23.13400
H  44.92700 11.12600 24.58600
H  46.74600 10.22200 25.69000
H  47.66900 11.66700 25.35700
H  47.66600 10.25000 24.23700
H  41.02900 13.74200 27.50400
H  41.12800 12.23600 28.42200
H  42.01400 12.38000 26.88600
H  43.92700 14.36700 32.62300
H  42.65700 17.69900 35.02100
H  41.78800 16.38600 35.65400
H  41.31700 17.21400 34.13600
Mg 30.14700 59.12400 40.28200
C  27.38500 57.06100 39.14200
C  32.14400 56.83300 38.72100
C  32.48600 61.31900 40.68600
C  27.65500 61.50700 41.30700
N  29.80900 57.12800 39.18600
C  28.64400 56.47700 38.88700
C  28.91300 55.33000 37.94300
C  30.47700 55.10000 38.10000
C  30.84900 56.45500 38.71100
C  30.81000 53.82100 38.88500
C  28.60700 55.74600 36.44600
C  27.69100 54.70600 35.75000
H  26.73300 55.32800 34.68000
N  32.02200 59.06100 39.85000
C  32.69700 58.03100 39.23100
C  34.08500 58.30500 39.30200
C  34.24200 59.55500 39.92400
C  32.91000 60.10400 40.13000
C  35.14700 57.33000 38.80000
C  35.60800 60.12100 40.44300
O  36.67700 59.58500 40.23800
C  35.65900 61.30200 41.37700
N  29.96500 61.17500 40.77700
C  31.18400 61.87600 40.86700
C  30.84800 63.28400 41.24700
C  29.34900 63.28100 41.67100
C  28.99500 61.93000 41.19600
C  31.75200 63.91700 42.24800
C  28.45700 64.35700 41.08400
C  27.42900 64.95100 42.08000
N  27.94500 59.18300 40.39200
C  27.15700 60.29800 40.73900
C  25.75200 59.84900 40.61400
C  25.75500 58.61600 39.96500
C  27.15900 58.26300 39.82200
C  24.56800 60.65600 40.96900
C  25.01400 57.46700 39.40000
O  23.82300 57.27400 39.47600
C  26.07300 56.42500 38.81100
C  25.83700 54.97700 39.35900
O  26.41300 54.52400 40.32500
O  24.89200 54.27000 38.59000
C  24.24100 53.18600 39.27200
H  32.84600 56.19700 38.17700
H  33.31700 61.99500 40.89800
H  27.01400 62.28600 41.72500
H  28.33000 54.45900 38.24200
H  30.93100 54.94500 37.12200
H  29.88400 53.44000 39.31500
H  31.37200 54.12500 39.76800
H  31.49800 53.09800 38.44500
H  29.49900 55.91300 35.84200
H  28.15300 56.72900 36.32000
H  27.11100 54.07800 36.42600
H  28.23800 53.93800 35.20200
H  35.14700 57.15000 37.72500
H  35.09700 56.31100 39.18400
H  36.15400 57.63200 39.08800
H  35.01900 61.02100 42.21400
H  35.47500 62.23800 40.85100
H  36.68900 61.45900 41.69900
H  30.83000 63.79300 40.28400
H  29.24800 63.35800 42.75400
H  32.54400 63.24700 42.58100
H  31.28400 64.35600 43.12900
H  32.30100 64.74600 41.80300
H  27.91700 63.93800 40.23500
H  28.88300 65.31100 40.77300
H  26.45000 64.65900 41.69800
H  27.43800 66.03800 41.99900
H  27.54000 64.54200 43.08400
H  23.77300 60.01200 41.34600
H  24.28400 61.18800 40.06100
H  24.89100 61.50800 41.56700
H  25.97300 56.45800 37.72600
H  24.82000 52.68400 40.04700
H  23.92300 52.39100 38.59600
H  23.35300 53.50100 39.82100

