158

Mg 9.02800 3.91100 27.64400
C  10.59000 2.22100 30.45800
C  7.42900 5.92500 29.76200
C  7.35100 5.17900 25.05000
C  10.39000 1.37700 25.65800
N  8.86000 3.91800 29.88700
C  9.73200 3.33100 30.77700
C  9.56700 3.97200 32.18200
C  8.38000 4.98400 31.96600
C  8.16200 4.95500 30.46700
C  7.14200 4.69900 32.77400
C  10.88500 4.51300 32.78800
C  10.71000 5.13200 34.24600
H  11.58000 4.68000 35.37000
N  7.47200 5.26200 27.41800
C  7.00100 6.03400 28.44100
C  6.09900 7.01900 27.91500
C  6.25400 6.91400 26.51100
C  7.08400 5.78100 26.23500
C  5.27700 7.93000 28.82100
C  5.59300 7.77900 25.42000
O  5.93900 7.74600 24.22600
C  4.40100 8.54500 25.72200
N  9.04500 3.41700 25.58800
C  8.19100 4.05100 24.73900
C  8.20400 3.36100 23.35500
C  9.16300 2.17600 23.56600
C  9.57200 2.30800 25.02900
C  6.82900 3.02000 22.80600
C  10.38900 2.17600 22.61100
C  10.66600 0.84700 21.78200
N  10.31200 2.18700 27.95700
C  10.77600 1.29700 27.03400
C  11.67600 0.36300 27.62200
C  11.67300 0.67000 29.02400
C  10.83500 1.77700 29.18200
C  12.51400 -0.70400 26.92900
C  12.07800 0.22900 30.29800
O  12.64400 -0.79200 30.60400
C  11.59500 1.37400 31.29600
C  11.01600 0.61700 32.56500
O  9.99200 -0.08200 32.62100
O  11.82700 0.83500 33.67000
C  11.44100 0.27500 34.99500
H  7.07200 6.77400 30.34800
H  6.77500 5.57400 24.21100
H  10.69000 0.56700 24.98900
H  9.36400 3.17800 32.90000
H  8.86200 5.89700 32.31700
H  6.29200 4.44400 32.14200
H  6.87200 5.60500 33.31600
H  7.30200 3.84900 33.43700
H  11.24000 5.29400 32.11500
H  11.67000 3.75800 32.76200
H  9.65400 5.11300 34.51500
H  10.98700 6.15600 33.99500
H  5.54000 8.94600 28.52400
H  5.47700 7.91500 29.89300
H  4.20600 7.78600 28.67700
H  3.91000 8.75500 24.77200
H  4.64700 9.48300 26.22000
H  3.76700 8.01800 26.43500
H  8.64400 4.01300 22.60100
H  8.57800 1.27600 23.37800
H  6.14100 2.99700 23.65100
H  6.77400 2.00300 22.41700
H  6.48600 3.77200 22.09600
H  11.30700 2.44700 23.13200
H  10.29900 3.05600 21.97400
H  9.85600 0.15900 22.02500
H  11.60700 0.41200 22.11900
H  10.78300 0.91900 20.70000
H  13.19000 -1.07200 27.70000
H  12.99500 -0.17300 26.10700
H  11.93300 -1.45100 26.38800
H  12.47800 1.88800 31.67700
H  11.71000 1.02800 35.73500
H  12.17100 -0.50000 35.23000
H  10.39100 0.00900 35.11900
Mg 17.42700 -1.41000 27.74100
C  16.36500 0.46200 30.41300
C  19.46600 -3.29100 29.96700
C  18.68300 -3.15800 25.15900
C  15.76000 0.57900 25.60000
N  17.78200 -1.46700 29.92700
C  17.15300 -0.61600 30.84200
C  17.61200 -0.91200 32.23800
C  18.69000 -2.03600 32.07500
C  18.67800 -2.25600 30.52000
C  20.16300 -1.65600 32.51000
C  16.42400 -1.17300 33.31800
C  16.56500 -0.43300 34.69700
H  17.75000 -0.82700 35.55900
N  18.73000 -3.06000 27.60100
C  19.45000 -3.71200 28.62100
C  20.00100 -4.98800 28.12200
C  19.81600 -4.91800 26.73500
C  19.03800 -3.68900 26.45900
C  20.64000 -6.12100 28.95600
C  20.37100 -5.79600 25.69700
O  20.28700 -5.61700 24.49800
C  21.10300 -7.09500 26.08600
N  17.32300 -1.18600 25.66900
C  17.92400 -2.04500 24.78500
C  17.73500 -1.63300 23.29600
C  16.60100 -0.55100 23.54300
C  16.56000 -0.37900 25.02500
C  19.07500 -1.07000 22.64500
C  15.25100 -0.78000 22.95400
C  14.62100 0.36500 22.12700
N  16.28100 0.23200 27.89900
C  15.63600 0.93800 26.93600
C  14.86100 2.03300 27.59200
C  15.13900 1.87200 29.02000
C  16.02100 0.81700 29.11700
C  13.98300 3.01100 26.97800
C  14.85600 2.40400 30.28200
O  14.18100 3.40200 30.60700
C  15.67500 1.51200 31.25000
C  16.69400 2.36300 31.82600
O  17.80700 2.54300 31.41900
O  16.23000 2.96500 32.94200
C  17.26500 3.60500 33.84400
H  20.05100 -3.94700 30.61500
H  19.00700 -3.80400 24.34100
H  15.31400 1.21000 24.82900
H  18.20600 -0.06900 32.59100
H  18.31200 -2.97700 32.47400
H  20.07800 -0.66600 32.95800
H  20.89900 -1.63500 31.70600
H  20.57200 -2.39800 33.19500
H  16.36200 -2.23400 33.56300
H  15.48100 -0.96400 32.81300
H  15.61100 -0.57500 35.20700
H  16.50100 0.62700 34.45300
H  20.08200 -7.03500 28.75200
H  20.69000 -5.90400 30.02300
H  21.65500 -6.19700 28.56600
H  22.04600 -6.83900 26.56900
H  21.44700 -7.70800 25.25300
H  20.49500 -7.66700 26.78700
H  17.22100 -2.36000 22.66800
H  16.99500 0.37900 23.13300
H  19.90200 -0.99700 23.35100
H  18.97200 -0.04000 22.30200
H  19.40300 -1.71800 21.83200
H  14.56200 -1.13400 23.72100
H  15.29600 -1.60100 22.23900
H  13.74400 0.82100 22.58500
H  14.32500 0.04500 21.12800
H  15.29900 1.20800 21.99200
H  14.54900 3.92200 26.78200
H  13.22500 3.21400 27.73500
H  13.49100 2.62400 26.08600
H  15.12700 1.13700 32.11400
H  16.94300 4.52300 34.33600
H  18.20600 3.90100 33.38100
H  17.41100 2.82200 34.58800

