158

Mg -1.75800 17.41600 26.73200
C  -2.49400 15.22700 29.31200
C  -2.66800 20.01200 28.89100
C  -1.73500 19.51500 24.13800
C  -1.51800 14.69500 24.55000
N  -2.39700 17.60400 28.90400
C  -2.55100 16.55200 29.81600
C  -2.82200 16.99600 31.27400
C  -3.04800 18.52800 30.99100
C  -2.72900 18.74900 29.48400
C  -4.48600 18.99200 31.35900
C  -1.59500 16.78200 32.24800
C  -1.71700 17.31500 33.65500
H  -1.75000 16.23300 34.75400
N  -1.95600 19.50300 26.58700
C  -2.34200 20.36300 27.59800
C  -2.35600 21.73000 27.08400
C  -2.01700 21.64300 25.68400
C  -1.88900 20.21400 25.39600
C  -2.80800 22.89100 27.86100
C  -1.84200 22.73000 24.71200
O  -1.77400 22.53800 23.49100
C  -1.75000 24.15900 25.19300
N  -1.52900 17.11900 24.52600
C  -1.54700 18.19000 23.74600
C  -1.41400 17.74400 22.30900
C  -1.23900 16.21700 22.43100
C  -1.43600 16.00400 23.88900
C  -2.65200 18.14400 21.38900
C  0.18900 15.83300 21.95800
C  1.37300 16.25900 22.98300
N  -2.01200 15.36800 26.86200
C  -1.83100 14.35200 25.86700
C  -2.12300 13.12000 26.53100
C  -2.49600 13.47600 27.79900
C  -2.35100 14.79600 27.97100
C  -2.28600 11.74300 25.81700
C  -2.97300 12.89100 28.99900
O  -3.24100 11.74300 29.18600
C  -2.95400 14.02300 30.04500
C  -1.85200 13.62000 30.97100
O  -0.63100 13.74000 30.81900
O  -2.33900 13.09100 32.15100
C  -1.55500 12.18800 33.06700
H  -2.92400 20.90900 29.45800
H  -1.59500 20.15700 23.26700
H  -1.43600 13.79300 23.94100
H  -3.66800 16.48100 31.72800
H  -2.44500 19.24200 31.55100
H  -4.31000 19.87900 31.96700
H  -5.17400 18.28200 31.81800
H  -4.94800 19.36500 30.44400
H  -0.73000 17.24900 31.77700
H  -1.37000 15.71600 32.22700
H  -2.64000 17.89400 33.67600
H  -0.86100 17.92600 33.94200
H  -3.45200 23.47400 27.20300
H  -1.92200 23.48000 28.09800
H  -3.35600 22.71300 28.78600
H  -0.94000 24.05500 25.91400
H  -2.71200 24.33900 25.67300
H  -1.60600 24.94200 24.44800
H  -0.51600 18.23000 21.92500
H  -2.03200 15.62100 21.98000
H  -3.08700 17.36300 20.76400
H  -2.40800 19.06100 20.85200
H  -3.55400 18.31300 21.97800
H  0.34900 16.12700 20.92100
H  0.17800 14.74400 21.90700
H  1.02700 16.84400 23.83500
H  2.15500 16.79300 22.44400
H  1.83400 15.39500 23.46200
H  -2.81800 11.90700 24.88000
H  -2.79000 11.02900 26.46800
H  -1.30400 11.30700 25.63600
H  -3.91000 14.35600 30.45000
H  -0.90300 11.55400 32.46700
H  -2.22400 11.44600 33.50300
H  -0.99100 12.64500 33.88000
Mg 49.92300 46.77900 42.14300
C  46.57800 47.45000 40.99700
C  49.67500 43.81400 40.47300
C  53.17000 46.47300 42.67600
C  49.99900 50.21500 43.23400
N  48.31000 45.83800 40.88700
C  47.03700 46.26900 40.49300
C  46.29800 45.24600 39.49800
C  47.39400 44.17100 39.40700
C  48.54500 44.55500 40.33700
C  46.92600 42.70600 39.75100
C  45.78000 45.94300 38.19000
C  44.30700 45.68100 37.82000
H  43.94400 45.12300 36.43400
N  51.19500 45.31100 41.82200
C  50.94400 44.19900 41.10100
C  52.12200 43.36700 41.08600
C  53.12100 44.00800 41.88900
C  52.53300 45.29000 42.19900
C  52.13900 42.01400 40.38200
C  54.55000 43.49500 42.23400
O  54.88500 42.36500 41.84900
C  55.50700 44.23500 43.15500
N  51.37500 48.14500 42.95600
C  52.68800 47.77000 43.04100
C  53.56700 48.97600 43.27600
C  52.56000 50.06600 43.64600
C  51.21400 49.50200 43.26600
C  54.67300 48.77400 44.30400
C  52.87600 51.41000 43.03600
C  52.54700 52.69400 43.88700
N  48.60300 48.42700 42.13200
C  48.76900 49.70600 42.73900
C  47.58300 50.44900 42.56800
C  46.67600 49.58700 42.00600
C  47.33000 48.39700 41.72800
C  47.38800 51.88800 42.94900
C  45.31400 49.52300 41.51900
O  44.39000 50.33700 41.57300
C  45.13800 48.02900 40.98900
C  44.21800 47.24700 41.91800
O  44.11900 47.40300 43.10600
O  43.54000 46.34100 41.25400
C  42.45900 45.63000 41.96600
H  49.74800 42.82300 40.01900
H  54.25100 46.39700 42.80400
H  50.12800 51.25300 43.55000
H  45.47800 44.77700 40.04100
H  47.82900 44.17400 38.40700
H  45.87900 42.40700 39.70000
H  47.11800 42.56600 40.81500
H  47.57200 42.02200 39.20200
H  46.42700 45.59800 37.38500
H  46.04900 46.98200 38.38200
H  43.92000 46.70000 37.83400
H  43.77700 45.09400 38.57000
H  51.30500 41.33900 40.57200
H  53.02100 41.38700 40.51600
H  52.14100 42.20300 39.30900
H  56.22000 44.66900 42.45400
H  56.09100 43.51100 43.72400
H  54.99200 44.93400 43.81400
H  54.03500 49.21100 42.32000
H  52.43200 50.21800 44.71700
H  55.66100 48.73800 43.84600
H  54.64800 47.82100 44.83100
H  54.72300 49.66000 44.93700
H  52.26100 51.49100 42.14000
H  53.88200 51.48000 42.62300
H  53.38800 53.35700 44.09200
H  51.86400 52.38700 44.67900
H  51.98500 53.41100 43.29000
H  46.53600 52.31400 42.42000
H  48.28900 52.37500 42.57600
H  47.49900 51.94800 44.03200
H  44.71300 47.90900 39.99300
H  41.68000 45.49500 41.21600
H  42.11900 46.06400 42.90600
H  42.81600 44.64700 42.27500

