158

Mg 53.09000 25.02100 43.28100
C  50.77600 27.52600 42.71300
C  50.88700 22.68100 41.99800
C  55.64300 22.74600 42.81300
C  55.54200 27.43600 44.09500
N  51.09800 25.10300 42.45900
C  50.24700 26.20500 42.43700
C  48.87600 25.89800 41.93000
C  48.85900 24.25000 41.91000
C  50.33500 23.97800 42.21200
C  47.97100 23.65700 43.11900
C  48.45800 26.38000 40.48100
C  49.54700 26.29300 39.36400
H  49.33700 25.55200 38.08400
N  53.23200 22.95800 42.59000
C  52.19900 22.13500 42.27500
C  52.64300 20.82800 41.95200
C  54.01200 20.81700 42.05300
C  54.35100 22.21000 42.58800
C  51.72500 19.66900 41.52600
C  54.94800 19.65400 41.88200
O  54.54200 18.58700 41.49200
C  56.46400 19.73200 42.14800
N  55.23700 25.15600 43.49600
C  56.06600 24.03200 43.23500
C  57.64000 24.41200 43.55200
C  57.43500 25.86900 44.10800
C  55.96200 26.21800 43.83300
C  58.37300 23.43900 44.53100
C  58.54100 26.78200 43.50400
C  59.39700 27.55500 44.60000
N  53.16600 27.07100 43.45600
C  54.20000 27.92100 43.83200
C  53.58700 29.19800 44.14300
C  52.33900 29.10300 43.56200
C  52.08000 27.79100 43.25400
C  54.29300 30.43900 44.65900
C  51.05400 29.78400 43.37100
O  50.73200 30.93800 43.56800
C  50.04500 28.76700 42.76300
C  49.57500 29.38500 41.44800
O  50.31000 29.55100 40.41300
O  48.20400 29.66400 41.51800
C  47.56300 30.16000 40.33300
H  50.10100 21.99700 41.67200
H  56.52900 22.11400 42.71800
H  56.27700 28.11800 44.52800
H  48.20700 26.21100 42.73100
H  48.47000 23.79800 40.99800
H  47.62700 24.48600 43.73700
H  48.55600 22.93000 43.68300
H  47.12400 23.15300 42.65500
H  48.05900 27.39400 40.44400
H  47.59300 25.78100 40.19600
H  50.40500 25.78800 39.80800
H  49.87200 27.25400 38.96600
H  52.00500 19.27400 40.54900
H  50.71500 20.01000 41.29800
H  51.70900 18.79400 42.17600
H  56.95500 18.79900 41.87400
H  56.61600 20.12700 43.15200
H  56.79600 20.49600 41.44400
H  58.18700 24.33900 42.61200
H  57.58600 25.95700 45.18400
H  57.78000 22.54300 44.71800
H  58.50600 23.97300 45.47200
H  59.33600 23.18400 44.09000
H  58.07800 27.54000 42.87100
H  59.20400 26.24600 42.82500
H  59.08600 28.59900 44.55000
H  60.46900 27.41600 44.46000
H  59.17400 27.37700 45.65200
H  55.08600 30.69800 43.95800
H  54.74000 30.18100 45.62000
H  53.55100 31.23100 44.75300
H  49.15000 28.65200 43.37400
H  47.52900 29.41200 39.54000
H  48.16100 31.01900 40.02800
H  46.56500 30.52100 40.58300
Mg 27.66800 58.65100 42.21700
C  25.74500 56.15900 40.54200
C  30.42200 57.42300 40.65000
C  29.23900 61.17200 43.55000
C  24.48400 60.07200 43.22600
N  27.97100 57.05500 40.64200
C  27.10400 56.09500 40.18300
C  27.87300 54.94000 39.45000
C  29.33600 55.28400 39.76300
C  29.24900 56.70000 40.44800
C  30.21500 54.17100 40.43900
C  27.54300 54.85200 37.90800
C  27.14600 53.55800 37.17400
H  26.82600 53.55800 35.65100
N  29.63600 59.26900 42.12000
C  30.62900 58.63700 41.41000
C  31.83700 59.31600 41.64200
C  31.60900 60.41000 42.57600
C  30.15700 60.39800 42.80100
C  33.21100 58.89300 41.04500
C  32.60600 61.35400 43.15200
O  33.81900 61.18300 43.05600
C  32.14800 62.61400 43.86800
N  26.94100 60.33600 43.29500
C  27.87300 61.27000 43.58900
C  27.09800 62.50300 44.24700
C  25.58200 62.15900 44.19600
C  25.64700 60.77200 43.50200
C  27.49900 62.90600 45.70300
C  24.63000 63.18500 43.54500
C  23.96100 64.12100 44.51600
N  25.51000 58.21700 42.03600
C  24.38200 58.84900 42.53500
C  23.18700 58.11600 42.15800
C  23.69500 57.11700 41.34800
C  25.09500 57.21900 41.31600
C  21.80300 58.24200 42.66900
C  23.30400 55.90500 40.66000
O  22.17000 55.41300 40.48200
C  24.60200 55.20200 40.17700
C  24.75700 53.87800 40.86900
O  24.98900 53.66300 42.04300
O  24.54800 52.76200 40.00300
C  24.35700 51.43900 40.49400
H  31.37200 57.00600 40.31000
H  29.75500 61.96700 44.09100
H  23.49700 60.49100 43.43100
H  27.54700 54.08600 40.04400
H  29.82400 55.47400 38.80700
H  31.26800 54.30900 40.19400
H  29.89500 53.16300 40.17300
H  30.14900 54.18600 41.52700
H  28.32700 55.34400 37.33200
H  26.62100 55.41500 37.76300
H  26.33300 53.09600 37.73400
H  27.85300 52.73000 37.22600
H  33.78100 58.15400 41.60700
H  33.86000 59.75300 40.88200
H  32.91200 58.49600 40.07500
H  31.49500 63.16500 43.19100
H  32.89200 63.35700 44.15400
H  31.60700 62.35400 44.77800
H  27.35600 63.34200 43.60100
H  25.24900 62.01600 45.22400
H  28.06400 63.83700 45.74500
H  28.06700 62.16000 46.25900
H  26.66100 63.02500 46.38900
H  23.92700 62.67200 42.88900
H  25.13600 63.81500 42.81300
H  24.05500 65.14600 44.16000
H  24.50100 64.03100 45.45900
H  22.97000 63.70100 44.69100
H  21.13300 58.75500 41.97900
H  21.71100 58.79600 43.60300
H  21.37500 57.25100 42.82600
H  24.66700 55.00800 39.10700
H  24.13200 50.73800 39.69000
H  23.49600 51.35700 41.15700
H  25.23100 50.96800 40.94400

