158

Mg 16.35800 51.80500 26.03400
C  17.98400 50.86400 28.93700
C  13.82500 53.12500 28.09300
C  14.80900 52.86700 23.30800
C  18.62800 50.15500 24.17300
N  15.88900 51.89800 28.19300
C  16.82900 51.53100 29.20200
C  16.32300 51.87600 30.59500
C  14.87300 52.48100 30.31400
C  14.85100 52.49400 28.82900
C  13.66200 51.79600 31.01200
C  17.26100 52.86000 31.42500
C  17.68800 52.36900 32.81000
H  16.91500 53.02300 34.04400
N  14.62100 52.94000 25.76300
C  13.70900 53.39200 26.71900
C  12.66400 54.12100 26.02700
C  12.94400 54.05600 24.62100
C  14.23100 53.25000 24.47700
C  11.49700 54.77000 26.70300
C  12.23900 54.76300 23.39800
O  12.59100 54.65400 22.21800
C  10.99400 55.67900 23.63800
N  16.72800 51.69700 23.97300
C  15.97200 52.18300 23.02500
C  16.57300 51.71700 21.59800
C  17.88400 51.07800 22.05800
C  17.65900 50.86500 23.47900
C  15.54100 50.77800 20.85800
C  19.07700 52.10800 21.79400
C  20.41700 51.54500 21.52200
N  17.93000 50.63700 26.41500
C  18.86500 50.07800 25.57100
C  19.92100 49.48500 26.29600
C  19.66300 49.69200 27.67300
C  18.43100 50.43100 27.65300
C  21.18800 48.86900 25.75600
C  20.14700 49.55300 29.09000
O  21.12400 48.96300 29.52800
C  19.04300 50.30400 29.88700
C  18.50600 49.20300 30.70000
O  17.83600 48.23700 30.37900
O  19.12000 49.27200 31.98600
C  18.58800 48.31000 32.98200
H  13.00300 53.45200 28.73300
H  14.32200 53.24200 22.40600
H  19.43000 49.83000 23.50800
H  16.24600 50.94900 31.16200
H  14.84800 53.55900 30.47300
H  12.71500 52.26500 30.74700
H  13.65200 51.96400 32.08900
H  13.60000 50.71400 30.89300
H  16.76900 53.82500 31.54700
H  18.16300 53.00500 30.83000
H  18.71100 52.73800 32.74500
H  17.67200 51.28000 32.77600
H  11.64000 54.82000 27.78200
H  10.61300 54.18100 26.46000
H  11.47700 55.80300 26.35700
H  11.25800 56.59100 24.17200
H  10.27400 54.97400 24.05600
H  10.66600 55.86300 22.61500
H  16.57100 52.67900 21.08600
H  18.04300 50.13900 21.52700
H  16.08200 49.85100 20.66700
H  15.11800 51.21600 19.95400
H  14.64500 50.53400 21.42900
H  18.97700 52.76200 22.66000
H  18.76400 52.69900 20.93300
H  21.00500 51.23600 22.38600
H  20.98000 52.22800 20.88500
H  20.20700 50.66700 20.91000
H  21.32700 49.16000 24.71500
H  21.03800 47.80000 25.60900
H  22.04200 49.06800 26.40400
H  19.41800 51.03800 30.60000
H  17.50200 48.32600 33.07500
H  18.96400 48.66000 33.94300
H  19.03300 47.31800 32.91000
Mg -10.27900 40.22700 39.35600
C  -9.53100 36.90500 38.46500
C  -7.20300 41.12000 37.95500
C  -11.31000 43.35300 39.17500
C  -13.62500 39.18000 39.88200
N  -8.62400 39.08100 38.41400
C  -8.50700 37.76000 38.04700
C  -7.15500 37.32800 37.50700
C  -6.40400 38.67000 37.50500
C  -7.44200 39.72800 38.07000
C  -5.09200 38.66000 38.25600
C  -7.21400 36.58800 36.09200
C  -7.87200 37.45600 34.98200
H  -8.99400 36.85400 34.15400
N  -9.32800 42.00900 38.87400
C  -8.06400 42.15900 38.36800
C  -7.81100 43.62000 38.11200
C  -8.98900 44.26900 38.53300
C  -9.95100 43.26400 38.85100
C  -6.50300 44.16900 37.51500
C  -9.09900 45.78400 38.52600
O  -8.18400 46.53500 38.23600
C  -10.30500 46.48400 39.13200
N  -12.19500 41.11800 39.39100
C  -12.35400 42.44400 39.33900
C  -13.86400 42.83600 39.43400
C  -14.58600 41.54700 39.62800
C  -13.46500 40.52200 39.66400
C  -14.23200 43.95100 40.44000
C  -15.71500 41.11100 38.61800
C  -17.15800 40.94100 39.26000
N  -11.34000 38.39200 39.47300
C  -12.67300 38.14800 39.70400
C  -12.91900 36.73000 39.66700
C  -11.70100 36.13300 39.20800
C  -10.80200 37.27100 39.00900
C  -14.22600 36.03100 39.99100
C  -11.01300 34.95700 38.77100
O  -11.38000 33.78700 38.80300
C  -9.64300 35.44300 38.25000
C  -8.64300 34.64900 38.98900
O  -8.56000 34.69900 40.22300
O  -7.83200 33.84800 38.15400
C  -6.66700 33.27300 38.80800
H  -6.19500 41.36000 37.61100
H  -11.75900 44.34100 39.05000
H  -14.67400 38.95200 40.08000
H  -6.87100 36.58300 38.25000
H  -6.16600 39.06800 36.51800
H  -4.84800 37.73000 38.76800
H  -5.13600 39.38500 39.06900
H  -4.27400 39.02400 37.63400
H  -7.69300 35.61000 36.13100
H  -6.18200 36.42400 35.78100
H  -7.12900 37.85700 34.29300
H  -8.42300 38.29800 35.40200
H  -6.07900 44.95300 38.14200
H  -6.84700 44.59800 36.57400
H  -5.77800 43.38100 37.31300
H  -10.67100 45.84300 39.93400
H  -10.94600 46.57400 38.25500
H  -10.12300 47.46000 39.58200
H  -14.06700 43.17400 38.41800
H  -15.00500 41.42400 40.62700
H  -14.89400 43.73200 41.27800
H  -14.55300 44.77800 39.80600
H  -13.29800 44.13900 40.96900
H  -15.45400 40.20400 38.07300
H  -15.79200 41.86500 37.83400
H  -17.88300 41.29900 38.52900
H  -17.18800 41.38600 40.25500
H  -17.33500 39.86900 39.34500
H  -14.81400 35.88700 39.08500
H  -14.74700 36.56400 40.78600
H  -14.19400 35.02200 40.40100
H  -9.66300 35.12900 37.20700
H  -6.90200 33.02700 39.84300
H  -5.76900 33.89100 38.80300
H  -6.31000 32.35700 38.33700

