158

Mg 7.63400 2.31000 26.80900
C  9.01800 0.68500 29.86900
C  5.22200 3.65900 28.80000
C  6.18400 3.30200 24.08300
C  9.41900 -0.26900 25.01400
N  7.13900 2.04500 29.03800
C  7.89400 1.46000 30.08400
C  7.21100 1.84900 31.43100
C  5.92300 2.59500 31.00300
C  6.10200 2.80400 29.52000
C  4.61200 1.87800 31.51900
C  8.21600 2.69500 32.25400
C  8.09100 2.56100 33.79300
H  9.34600 2.79400 34.70400
N  6.02100 3.52100 26.49800
C  5.14000 3.99800 27.42100
C  4.19000 4.83400 26.82500
C  4.42600 4.75800 25.39600
C  5.56400 3.83200 25.27100
C  3.18100 5.76300 27.53300
C  3.79000 5.48600 24.22200
O  3.99900 5.24200 23.07900
C  2.80500 6.52700 24.44300
N  7.72900 1.51500 24.84800
C  7.14000 2.23400 23.85800
C  7.65000 1.84900 22.46000
C  8.70600 0.75500 22.77900
C  8.60000 0.59200 24.29200
C  6.50100 1.44500 21.46900
C  10.12200 1.05100 22.31800
C  10.96600 -0.08000 21.60500
N  9.08000 0.66200 27.27200
C  9.65500 -0.21900 26.40200
C  10.34100 -1.20700 27.14400
C  10.31800 -0.85000 28.48900
C  9.38300 0.28200 28.55100
C  11.10400 -2.32500 26.42700
C  10.74800 -1.07700 29.83800
O  11.55900 -1.79100 30.38400
C  10.01500 -0.04900 30.74500
C  9.33900 -0.83100 31.88300
O  8.84500 -1.94700 31.86000
O  9.61100 -0.23100 33.08400
C  9.29800 -1.00400 34.30800
H  4.53200 4.08100 29.53300
H  5.76700 3.64700 23.13400
H  9.91400 -1.01900 24.39400
H  6.94300 0.95100 31.98800
H  5.91800 3.60100 31.42300
H  4.28500 2.49700 32.35500
H  4.82100 0.85000 31.81400
H  3.89300 1.75400 30.71000
H  8.13600 3.73800 31.94900
H  9.23700 2.36100 32.07100
H  7.62500 1.63800 34.14000
H  7.51000 3.42500 34.11600
H  3.38600 6.81500 27.33100
H  3.33500 5.59400 28.59900
H  2.14000 5.53400 27.30700
H  3.36200 7.36500 24.86200
H  2.11500 6.07900 25.15900
H  2.24900 6.85700 23.56600
H  8.19100 2.69500 22.03600
H  8.27500 -0.12700 22.30600
H  6.07300 2.33700 21.01200
H  5.68700 1.05600 22.08100
H  6.71900 0.72600 20.67900
H  10.58800 1.53200 23.17800
H  10.00900 1.86500 21.60200
H  10.40200 -1.00700 21.71500
H  11.90100 -0.28900 22.12500
H  10.95900 0.23600 20.56200
H  11.99700 -2.48900 27.03000
H  11.36300 -1.81400 25.49900
H  10.55400 -3.25100 26.26400
H  10.82000 0.57900 31.12600
H  8.51300 -1.75900 34.27000
H  8.88300 -0.26500 34.99400
H  10.19900 -1.39300 34.78400
Mg 43.05300 42.24400 26.24800
C  41.81700 44.60000 28.62200
C  43.52300 40.06600 28.66700
C  44.34200 40.31200 23.87400
C  42.50300 44.77200 23.75600
N  42.69700 42.39200 28.33200
C  42.19900 43.41900 29.18500
C  42.25700 43.02400 30.65700
C  42.91700 41.55400 30.68700
C  43.08900 41.31500 29.15700
C  44.19500 41.34000 31.49900
C  40.83700 43.05800 31.30500
C  40.63100 44.00200 32.47700
H  41.44600 43.87800 33.77700
N  43.75700 40.43700 26.29100
C  43.85700 39.62700 27.36600
C  44.40900 38.33600 27.01800
C  44.64300 38.42300 25.60400
C  44.26500 39.82200 25.18600
C  44.52300 37.19900 27.98200
C  45.14600 37.39000 24.62400
O  45.48900 37.62900 23.51200
C  45.52100 36.04000 25.25800
N  43.60700 42.56700 24.13400
C  44.00700 41.54200 23.42800
C  44.01000 41.92100 21.87300
C  43.42400 43.29400 21.80400
C  43.14800 43.64400 23.30800
C  45.35000 41.82900 21.13600
C  42.14100 43.32400 20.89100
C  40.93000 42.51000 21.38500
N  42.34000 44.24400 26.15000
C  42.19400 45.09700 25.03800
C  41.64100 46.39800 25.56100
C  41.47800 46.17700 26.92900
C  41.95000 44.90100 27.26900
C  41.43200 47.69000 24.76700
C  40.95800 46.82200 28.14200
O  40.33600 47.85900 28.33400
C  41.11300 45.73500 29.29600
C  41.90900 46.39600 30.35300
O  43.09900 46.28800 30.48200
O  41.01500 47.16200 31.04900
C  41.62400 47.72900 32.27900
H  43.70700 39.38800 29.50400
H  44.50800 39.66100 23.01400
H  42.31200 45.50600 22.97000
H  42.99400 43.71600 31.06300
H  42.22000 40.80000 31.05200
H  44.95800 40.81600 30.92300
H  43.93500 40.68800 32.33300
H  44.71200 42.25400 31.79000
H  40.54300 42.05400 31.60800
H  40.11100 43.34200 30.54300
H  39.56900 43.92100 32.70500
H  40.50900 45.01100 32.08300
H  44.22500 37.50700 28.98400
H  45.51000 36.73900 28.04000
H  43.79400 36.43600 27.71100
H  44.58200 35.64100 25.64200
H  46.26000 36.16400 26.05100
H  45.93000 35.36100 24.51100
H  43.26800 41.18900 21.55200
H  44.12700 44.05100 21.45500
H  45.58200 40.79900 20.86500
H  46.20200 42.24600 21.67300
H  45.27700 42.28800 20.15000
H  42.40700 43.09800 19.85800
H  41.85800 44.37500 20.83000
H  41.20800 42.11200 22.36100
H  40.69300 41.69700 20.69800
H  40.12800 43.22700 21.55600
H  41.99800 47.80600 23.84300
H  41.46700 48.51900 25.47300
H  40.37200 47.77400 24.52600
H  40.11500 45.52900 29.68300
H  42.60300 48.18800 32.13700
H  41.90600 46.93700 32.97300
H  40.92600 48.41800 32.75300

