158

Mg 10.98600 46.98100 25.86900
C  8.78800 47.20100 28.67700
C  13.40200 48.14600 27.91400
C  13.00800 46.80900 23.26800
C  8.21100 46.06100 23.97500
N  11.02400 47.70800 27.97200
C  10.08200 47.62900 28.96300
C  10.59500 47.99700 30.38500
C  11.90600 48.74400 29.99100
C  12.17700 48.20500 28.52700
C  11.77800 50.28100 30.05000
C  10.69700 46.78300 31.33000
C  10.49800 46.89300 32.83100
H  10.56400 45.60600 33.67500
N  12.86200 47.44800 25.56600
C  13.78500 47.80000 26.59500
C  15.11700 47.88600 26.07000
C  15.02500 47.58500 24.70500
C  13.57400 47.27900 24.42900
C  16.33200 48.28000 26.87500
C  16.11600 47.28400 23.68300
O  15.90900 46.83200 22.52600
C  17.51400 47.41600 24.11200
N  10.58700 46.53400 23.83800
C  11.64200 46.51200 22.98900
C  11.15700 45.91100 21.65900
C  9.53800 45.77800 21.83100
C  9.42600 46.18900 23.29700
C  11.56300 46.79000 20.41600
C  8.99100 44.32400 21.51100
C  8.98900 43.29400 22.60600
N  8.87600 46.56000 26.18400
C  7.86400 46.23900 25.29200
C  6.62800 46.18300 25.94700
C  6.87800 46.51700 27.26100
C  8.30100 46.77100 27.38500
C  5.31600 45.78400 25.20300
C  6.32900 46.65000 28.58400
O  5.25500 46.32800 29.02800
C  7.47100 46.96800 29.52800
C  7.62200 45.73700 30.38600
O  8.17100 44.71600 30.01000
O  6.93600 45.99300 31.53100
C  7.01100 44.79500 32.42600
H  14.22800 48.44700 28.56100
H  13.77600 46.80200 22.49200
H  7.40700 45.97500 23.24100
H  9.99300 48.79200 30.82500
H  12.74100 48.48000 30.64100
H  10.84900 50.66700 30.47000
H  11.69100 50.77800 29.08300
H  12.57500 50.71400 30.65300
H  11.65500 46.28900 31.17100
H  10.02500 45.97900 31.03100
H  9.52000 47.35100 32.97700
H  11.16900 47.64000 33.25400
H  17.07700 47.48600 26.92800
H  16.11000 48.27900 27.94200
H  16.76400 49.25200 26.63500
H  18.26300 47.27400 23.33300
H  17.63400 46.60200 24.82700
H  17.68500 48.41500 24.51300
H  11.60900 44.91900 21.65500
H  9.00200 46.45200 21.16200
H  10.77000 46.80400 19.66800
H  12.51800 46.41300 20.05000
H  11.70600 47.76900 20.87400
H  9.62800 44.00000 20.68800
H  7.95500 44.30500 21.16900
H  8.09100 43.20300 23.21900
H  9.70000 43.62900 23.36100
H  9.33600 42.33800 22.21500
H  4.80900 46.72200 24.97600
H  4.67800 45.15300 25.82300
H  5.68500 45.34200 24.27800
H  7.16800 47.80300 30.16000
H  6.08000 44.24900 32.27400
H  7.03300 45.03100 33.49000
H  7.88300 44.14700 32.34400
Mg -12.33100 15.52200 41.89500
C  -9.25700 13.91800 41.80000
C  -10.74000 18.26800 40.60700
C  -15.27500 16.90300 41.47900
C  -13.90700 12.38900 42.74400
N  -10.25900 15.94100 41.06100
C  -9.18200 15.12600 41.19600
C  -7.89600 15.76500 40.63500
C  -8.32900 17.24700 40.64500
C  -9.86400 17.24400 40.79300
C  -7.78200 18.09700 41.93700
C  -7.60900 15.15300 39.20400
C  -6.07600 14.88400 38.87000
H  -5.62500 15.76300 37.69600
N  -12.90700 17.39700 41.18900
C  -12.12900 18.42700 40.75000
C  -12.99500 19.55800 40.42700
C  -14.31800 19.21300 40.77400
C  -14.21500 17.76900 41.12700
C  -12.47500 20.87200 39.88700
C  -15.58700 20.02500 40.74300
O  -15.48800 21.14700 40.28900
C  -16.92200 19.59300 41.04500
N  -14.31100 14.65900 41.78800
C  -15.32500 15.51700 41.85500
C  -16.72900 14.87600 42.05700
C  -16.25600 13.36000 42.25800
C  -14.76600 13.46400 42.28900
C  -17.52900 15.36700 43.28300
C  -16.76200 12.39700 41.04100
C  -17.99600 11.53400 41.26900
N  -11.72300 13.58400 42.30800
C  -12.45600 12.48500 42.77100
C  -11.51400 11.46400 43.16900
C  -10.26700 11.93800 42.82600
C  -10.41400 13.18800 42.24300
C  -11.81100 10.12700 43.84500
C  -8.87500 11.64700 42.87700
O  -8.21600 10.69700 43.29200
C  -8.12100 12.96200 42.18000
C  -7.13700 13.63800 43.15900
O  -7.46600 14.38800 44.04500
O  -5.85600 13.49000 42.74900
C  -4.86100 14.31100 43.44400
H  -10.20900 19.21700 40.50400
H  -16.30800 17.25600 41.50300
H  -14.37600 11.42700 42.96100
H  -7.09700 15.56500 41.34900
H  -8.00800 17.76800 39.74300
H  -7.27500 17.42600 42.63100
H  -8.58000 18.70900 42.35700
H  -6.98500 18.70600 41.50900
H  -8.04800 15.80500 38.45000
H  -7.92700 14.11100 39.17700
H  -5.98900 13.84100 38.56500
H  -5.40600 15.06000 39.71100
H  -13.00400 21.28800 39.02900
H  -11.38900 20.89900 39.80700
H  -12.67800 21.56000 40.70800
H  -17.68300 20.37300 41.02100
H  -16.79800 19.30600 42.08900
H  -17.19500 18.73800 40.42700
H  -17.42400 14.88700 41.21800
H  -16.67200 12.95200 43.17900
H  -18.60300 15.44300 43.10900
H  -17.13200 16.32700 43.61200
H  -17.46300 14.72700 44.16300
H  -15.93600 11.84400 40.59500
H  -16.97500 13.11000 40.24400
H  -18.25800 11.40500 42.31900
H  -17.84800 10.49800 40.96400
H  -18.86400 11.96700 40.77300
H  -11.93400 10.22200 44.92400
H  -11.00500 9.45100 43.55900
H  -12.75000 9.65800 43.55200
H  -7.50000 12.66900 41.33300
H  -4.26300 14.79800 42.67400
H  -4.24500 13.62000 44.01900
H  -5.17600 15.10300 44.12300

