158

Mg 16.63400 52.92500 26.24100
C  18.86600 51.00800 28.31400
C  14.76100 53.48500 29.20200
C  14.59800 54.72500 24.38300
C  18.65000 52.17700 23.61700
N  16.84500 52.32000 28.46100
C  17.82100 51.61800 29.06000
C  17.58000 51.45200 30.56200
C  16.01500 51.72300 30.65500
C  15.76000 52.51500 29.35600
C  15.04700 50.55000 30.95900
C  18.41100 52.52100 31.28600
C  18.61900 52.37700 32.81800
H  17.64000 51.56400 33.76000
N  14.95300 53.91700 26.67100
C  14.42200 54.15300 27.96600
C  13.30800 55.07600 27.75900
C  13.25500 55.49900 26.41100
C  14.28600 54.72300 25.77900
C  12.43800 55.44100 28.97500
C  12.37000 56.60800 25.78000
O  12.48900 56.95700 24.59600
C  11.34700 57.22600 26.64400
N  16.57200 53.26600 24.28100
C  15.60200 54.04600 23.68200
C  15.80100 54.08600 22.12500
C  17.23000 53.47200 21.96900
C  17.47900 52.93000 23.36100
C  14.68600 53.31600 21.33500
C  18.39000 54.42800 21.58700
C  19.37100 54.00400 20.45600
N  18.36600 51.80100 25.92400
C  19.00900 51.55000 24.78200
C  20.21700 50.73600 25.08600
C  20.23400 50.54300 26.43800
C  19.05000 51.13700 26.94200
C  21.32500 50.33100 24.11100
C  20.90500 49.81900 27.57100
O  21.99600 49.17600 27.65400
C  20.11200 50.30900 28.85700
C  19.92100 49.20700 29.85500
O  19.08000 48.31400 29.73100
O  20.67100 49.43200 30.91200
C  20.25900 48.60000 32.06200
H  14.19700 53.54400 30.13500
H  13.89400 55.27500 23.75400
H  19.24000 51.87900 22.74800
H  17.83200 50.46100 30.94000
H  15.85500 52.40700 31.48900
H  14.35100 50.77200 31.76800
H  15.56700 49.59300 30.99500
H  14.42200 50.43700 30.07400
H  18.05700 53.54400 31.16500
H  19.40100 52.49900 30.83000
H  18.65300 53.39200 33.21500
H  19.64900 52.04100 32.94100
H  12.64600 56.48700 29.20100
H  12.71400 54.98900 29.92800
H  11.39300 55.34400 28.68000
H  10.76400 57.71400 25.86300
H  11.82600 57.97100 27.27900
H  10.75000 56.55900 27.26700
H  15.77500 55.15100 21.89700
H  17.28500 52.59100 21.32900
H  13.84200 53.30500 22.02500
H  14.95900 52.32500 20.97200
H  14.46200 53.88600 20.43300
H  18.94900 54.84000 22.42700
H  17.87500 55.29800 21.18000
H  19.21200 54.60100 19.55800
H  19.41500 52.94100 20.21900
H  20.41100 54.17900 20.73100
H  20.86600 49.64100 23.40300
H  21.98100 49.70400 24.71600
H  21.77900 51.11500 23.50600
H  20.65200 51.01300 29.49100
H  20.41200 49.29600 32.88700
H  20.86500 47.69500 32.11000
H  19.19500 48.42800 32.22200
Mg -4.96900 25.02900 26.58900
C  -3.46900 26.42500 29.53100
C  -6.81400 23.06200 28.71600
C  -6.22600 23.52300 23.95100
C  -2.52300 26.75800 24.64200
N  -4.99000 24.76700 28.89300
C  -4.40500 25.49900 29.86700
C  -4.99500 25.16000 31.23800
C  -5.85600 23.85200 30.98600
C  -5.87000 23.88600 29.39500
C  -5.27500 22.49800 31.63800
C  -5.72000 26.36600 31.80300
C  -6.12400 26.42700 33.31900
H  -5.75500 25.17300 34.18500
N  -6.30200 23.54300 26.35200
C  -7.00900 22.87600 27.36900
C  -8.03500 22.08200 26.80200
C  -7.94800 22.20600 25.39500
C  -6.77300 23.04600 25.18400
C  -9.09100 21.36200 27.64400
C  -8.77200 21.53500 24.33900
O  -8.66500 21.73500 23.15700
C  -9.90700 20.62700 24.75100
N  -4.53500 25.19000 24.56200
C  -5.17400 24.40100 23.65800
C  -4.42100 24.48400 22.23400
C  -3.31600 25.55800 22.48700
C  -3.46500 25.93400 23.96600
C  -3.95100 23.18500 21.48600
C  -3.35300 26.87400 21.68000
C  -1.97800 27.26200 20.97900
N  -3.40400 26.32900 26.94600
C  -2.56600 27.03000 26.05100
C  -1.75000 27.93300 26.81100
C  -1.98400 27.71800 28.16000
C  -3.02200 26.70200 28.21100
C  -0.71300 28.88100 26.28000
C  -1.75400 28.16800 29.48600
O  -1.08600 29.05300 29.96600
C  -2.81900 27.43100 30.47400
C  -2.06500 26.78000 31.61200
O  -1.45800 25.69700 31.56300
O  -2.30100 27.51200 32.81600
C  -1.83300 26.96200 34.09900
H  -7.44300 22.47700 29.39000
H  -6.57500 23.18700 22.97300
H  -1.75200 27.24800 24.04400
H  -4.19200 24.95900 31.94700
H  -6.84800 23.92100 31.43200
H  -6.06400 21.77700 31.85200
H  -4.57100 22.65800 32.45500
H  -4.62700 22.08700 30.86400
H  -6.65700 26.48400 31.25900
H  -5.13500 27.27700 31.67900
H  -7.16500 26.72300 33.45000
H  -5.46400 27.18900 33.73500
H  -9.09000 20.27700 27.54000
H  -10.09700 21.60600 27.30300
H  -9.10400 21.55300 28.71700
H  -9.58200 19.70100 25.22500
H  -10.48600 20.40900 23.85300
H  -10.56800 21.24300 25.36100
H  -5.19100 24.95100 21.62000
H  -2.39900 25.01800 22.24900
H  -2.92700 23.17100 21.11100
H  -4.48200 23.13600 20.53600
H  -4.20100 22.30200 22.07500
H  -3.72700 27.74900 22.21300
H  -4.10400 26.75100 20.89900
H  -1.18600 26.62900 21.38000
H  -1.72100 28.32100 21.00400
H  -2.12600 27.13700 19.90600
H  0.19800 28.91000 26.87700
H  -1.15200 29.86700 26.12500
H  -0.43600 28.51100 25.29300
H  -3.48900 28.22700 30.79800
H  -2.07800 25.94400 34.40000
H  -2.15300 27.64100 34.88900
H  -0.74400 26.94200 34.15000

