158

Mg 17.10200 -1.53000 27.89500
C  15.78900 0.65000 30.43600
C  18.76400 -3.18600 30.39600
C  18.63300 -3.19700 25.41100
C  15.85700 0.76700 25.50300
N  17.36800 -1.13400 30.15500
C  16.62700 -0.34500 30.96100
C  16.98500 -0.52800 32.39300
C  17.98900 -1.70300 32.33600
C  18.09000 -2.02100 30.87500
C  19.47700 -1.42900 32.99100
C  15.72400 -0.76000 33.30900
C  15.75800 -0.09200 34.69800
H  17.09900 0.34500 35.32900
N  18.38300 -2.98500 27.92000
C  18.86700 -3.70200 29.05700
C  19.50000 -4.92400 28.60000
C  19.54100 -4.94100 27.16300
C  18.78200 -3.71000 26.75900
C  20.05200 -6.08300 29.49600
C  20.11600 -5.93000 26.19900
O  19.84100 -5.90200 25.01400
C  21.03600 -6.92400 26.67300
N  17.27300 -1.23700 25.71500
C  18.04600 -2.02800 24.97800
C  18.21200 -1.49100 23.54800
C  17.19300 -0.26300 23.57500
C  16.65100 -0.28200 25.00700
C  19.65400 -1.11900 23.23200
C  16.01000 -0.30400 22.55700
C  15.71500 1.09500 21.92000
N  16.01400 0.25400 27.88600
C  15.53300 1.05800 26.83900
C  14.70800 2.14100 27.27700
C  14.77500 1.96800 28.68900
C  15.59000 0.87600 29.00100
C  13.78700 2.90700 26.37700
C  14.32800 2.56900 29.94000
O  13.58600 3.52700 30.20600
C  15.00400 1.75500 31.08500
C  16.01700 2.75100 31.57900
O  16.86600 3.34400 30.91300
O  15.74100 3.04100 32.87500
C  16.26900 4.29700 33.44400
H  19.43400 -3.70600 31.08300
H  19.16300 -3.75500 24.63600
H  15.49300 1.49600 24.77600
H  17.36300 0.41800 32.78000
H  17.60900 -2.63700 32.75000
H  20.29400 -1.24300 32.29300
H  19.55000 -2.28000 33.66700
H  19.48600 -0.51600 33.58600
H  15.59200 -1.83600 33.42100
H  14.84800 -0.38200 32.78300
H  15.30300 -0.77600 35.41400
H  15.17500 0.82600 34.62300
H  19.80100 -7.08300 29.14400
H  19.70200 -6.06000 30.52900
H  21.12200 -5.93700 29.64400
H  21.85800 -6.41900 27.18000
H  21.60100 -7.36500 25.85200
H  20.64000 -7.72000 27.30300
H  17.86400 -2.27500 22.87500
H  17.75000 0.65800 23.40000
H  19.88800 -0.05500 23.25100
H  19.94200 -1.59500 22.29400
H  20.34200 -1.57300 23.94500
H  15.07000 -0.64500 22.99000
H  16.24500 -0.86300 21.65100
H  14.69000 1.35900 22.18000
H  15.86900 1.11400 20.84100
H  16.23500 1.95200 22.35100
H  13.28300 2.30300 25.62300
H  14.34400 3.68100 25.84900
H  13.12800 3.40600 27.08700
H  14.24600 1.70600 31.86700
H  16.07000 5.14700 32.79100
H  17.34300 4.27500 33.62800
H  15.74700 4.54000 34.36900
Mg 41.24500 8.82500 29.42800
C  42.99400 9.51100 32.43100
C  39.11900 6.82700 31.25100
C  39.94800 7.81600 26.48300
C  44.06200 10.02700 27.70900
N  41.20400 8.21600 31.62800
C  41.79100 8.87600 32.69800
C  41.16300 8.57900 34.05600
C  40.00100 7.59100 33.65000
C  40.03200 7.59800 32.07000
C  40.26300 6.10900 34.07200
C  40.62200 9.97800 34.67000
C  40.72400 10.20100 36.16100
H  41.19800 11.60900 36.80700
N  39.63900 7.66300 28.99700
C  38.90400 6.92500 29.88600
C  37.80500 6.31200 29.11700
C  37.94600 6.75100 27.71900
C  39.21000 7.43600 27.67300
C  36.75400 5.40100 29.78300
C  37.09800 6.50800 26.49400
O  37.47600 6.86600 25.36400
C  35.77300 5.74600 26.58200
N  41.94300 8.93500 27.32200
C  41.19800 8.43800 26.34200
C  41.76300 8.85300 24.99600
C  43.05400 9.66700 25.39600
C  43.07700 9.55700 26.87000
C  42.10600 7.61300 24.14900
C  43.00200 11.14700 24.97800
C  41.78600 12.01400 25.16400
N  43.14500 9.59600 29.86900
C  44.15100 10.05700 29.08300
C  45.24400 10.65100 29.85000
C  44.81300 10.49800 31.19800
C  43.54000 9.81900 31.11500
C  46.55600 11.36600 29.40800
C  45.19000 10.80200 32.51800
O  46.11300 11.45200 32.99500
C  44.00000 10.12900 33.44700
C  44.52700 9.09400 34.44700
O  44.46200 7.87300 34.37800
O  45.18600 9.77100 35.39400
C  45.63600 8.98100 36.54400
H  38.29200 6.36300 31.79300
H  39.61900 7.45200 25.50700
H  44.81300 10.61400 27.17600
H  41.85300 8.09600 34.74800
H  39.04300 7.92700 34.04800
H  39.53700 5.83300 34.83600
H  41.28000 5.98000 34.44400
H  40.25800 5.42900 33.22000
H  39.54300 10.05700 34.53800
H  41.05800 10.76600 34.05600
H  41.34000 9.38900 36.54600
H  39.76500 9.97600 36.62900
H  37.06700 4.97900 30.73800
H  36.58500 4.51800 29.16700
H  35.82600 5.93100 29.99500
H  35.18300 6.38900 27.23500
H  35.96700 4.87500 27.20800
H  35.41400 5.61600 25.56100
H  41.05000 9.46800 24.44700
H  43.93300 9.12700 25.04600
H  42.08300 6.74800 24.81200
H  43.02900 7.62400 23.57100
H  41.36800 7.41600 23.37200
H  42.96000 11.20100 23.89000
H  43.99600 11.51100 25.23800
H  42.18000 13.00800 25.37800
H  41.14600 11.67500 25.97800
H  41.26200 12.21600 24.23000
H  46.33900 12.37100 29.76900
H  46.52000 11.43100 28.32100
H  47.38200 10.85500 29.90400
H  43.52300 10.90600 34.04400
H  46.38300 9.56300 37.08400
H  46.09100 8.02900 36.27200
H  44.75200 8.89000 37.17400

