158

Mg -0.91700 33.52400 26.67100
C  -2.48500 31.97900 29.52200
C  0.68900 35.45300 28.80500
C  -0.14100 35.31500 24.03500
C  -2.78800 31.31900 24.63000
N  -0.96700 33.65100 28.95100
C  -1.57400 32.97400 29.91500
C  -1.08200 33.18500 31.30100
C  -0.06800 34.40000 31.12100
C  -0.05300 34.57000 29.53000
C  -0.30000 35.71600 31.98900
C  -0.43700 31.93800 31.98200
C  -1.06100 31.55700 33.38100
H  -0.26000 32.09100 34.66500
N  0.12400 35.21400 26.50800
C  0.76700 35.85800 27.46300
C  1.53500 36.92500 26.91500
C  1.23300 36.91700 25.53600
C  0.37100 35.75400 25.31300
C  2.37600 37.83900 27.77000
C  1.71400 37.80000 24.43300
O  1.36400 37.73000 23.24600
C  2.66000 38.84600 24.84400
N  -1.65800 33.49800 24.55800
C  -0.99900 34.26800 23.66800
C  -1.47500 33.91500 22.27600
C  -2.09500 32.51500 22.46900
C  -2.22300 32.41000 23.96200
C  -2.42100 34.92800 21.67900
C  -1.23600 31.27300 21.95000
C  0.22200 31.07100 22.30500
N  -2.32700 31.95400 26.97700
C  -2.94700 31.14800 26.02900
C  -3.75200 30.24500 26.72400
C  -3.68400 30.54300 28.09400
C  -2.73800 31.58000 28.23300
C  -4.77400 29.29400 26.10200
C  -4.19900 30.28800 29.46400
O  -5.00900 29.49600 29.82800
C  -3.34800 31.14800 30.46500
C  -4.33200 31.91400 31.22800
O  -5.07200 32.82300 30.75900
O  -4.29400 31.62700 32.52900
C  -5.23900 32.43400 33.28800
H  1.46500 35.89600 29.43200
H  0.08700 35.82100 23.09500
H  -3.07900 30.52900 23.93400
H  -1.94000 33.49500 31.89900
H  0.98400 34.14100 31.24600
H  -0.66800 36.46600 31.29000
H  0.68600 36.03900 32.32400
H  -0.90500 35.53000 32.87700
H  0.60600 32.17500 32.19100
H  -0.50400 31.10600 31.28000
H  -1.04300 30.47500 33.50800
H  -2.04400 32.00700 33.52000
H  3.44700 37.67300 27.88600
H  2.03600 37.82300 28.80600
H  2.02100 38.80900 27.42200
H  2.94500 39.43000 23.96900
H  3.58800 38.35300 25.13400
H  2.20100 39.52600 25.56200
H  -0.65100 33.81200 21.57100
H  -3.06800 32.47600 21.97800
H  -1.94000 35.83300 21.30700
H  -3.12500 35.18100 22.47300
H  -3.03300 34.49000 20.89100
H  -1.25600 31.44100 20.87300
H  -1.80100 30.36500 22.16300
H  0.47600 31.90200 22.96300
H  0.84100 31.22700 21.42200
H  0.30800 30.13600 22.85900
H  -4.82400 29.33000 25.01300
H  -5.81600 29.48800 26.35300
H  -4.59200 28.29800 26.50600
H  -2.80000 30.44800 31.09600
H  -6.27000 32.08300 33.23500
H  -5.20200 33.49800 33.05400
H  -5.05800 32.34600 34.35900
Mg -10.80800 17.24300 42.68100
C  -7.41600 16.53000 42.84900
C  -9.94800 20.53900 42.15900
C  -13.99000 17.74500 41.81900
C  -11.42400 13.62300 42.62900
N  -8.82800 18.38800 42.63700
C  -7.63000 17.90700 42.65200
C  -6.56000 19.00300 42.32700
C  -7.42700 20.29000 42.37000
C  -8.84800 19.71800 42.41800
C  -7.06200 21.34000 43.49300
C  -5.68000 18.77700 41.00300
C  -6.42300 18.24500 39.69500
H  -5.65300 18.07000 38.40700
N  -11.85300 18.89700 42.01800
C  -11.32300 20.17000 41.93400
C  -12.42200 21.07500 41.48300
C  -13.51400 20.22900 41.29300
C  -13.14200 18.84600 41.73000
C  -12.14300 22.58300 41.18600
C  -14.86400 20.75100 40.77400
O  -15.10000 21.95200 40.73900
C  -16.01100 19.75200 40.28500
N  -12.44800 15.88100 42.17100
C  -13.70300 16.40000 42.03300
C  -14.74700 15.29000 41.96700
C  -13.89200 13.99300 42.14700
C  -12.50100 14.50800 42.38700
C  -16.04400 15.49600 42.84800
C  -14.01800 12.91700 41.06100
C  -14.54000 11.45500 41.38200
N  -9.69100 15.41000 42.98800
C  -10.06700 14.05600 42.87900
C  -8.82600 13.22100 42.96800
C  -7.77400 14.13600 42.98100
C  -8.34300 15.45500 42.95500
C  -8.86800 11.71500 42.96300
C  -6.38100 14.27200 43.01500
O  -5.53300 13.38400 43.06500
C  -6.05100 15.80800 42.94900
C  -5.31800 16.33300 44.09700
O  -4.23400 16.91400 44.00300
O  -5.92500 15.87700 45.23600
C  -5.20600 16.07500 46.51800
H  -9.73700 21.61000 42.20100
H  -15.07200 17.89200 41.81500
H  -11.66100 12.56400 42.51200
H  -5.82000 19.05200 43.12600
H  -7.38300 20.75600 41.38500
H  -6.77500 22.31500 43.09900
H  -6.26600 20.91300 44.10400
H  -7.88000 21.50100 44.19500
H  -4.92300 18.01800 41.19900
H  -5.22900 19.74900 40.80100
H  -7.16700 19.01000 39.47000
H  -6.82100 17.24500 39.86800
H  -12.79600 23.00000 40.41900
H  -11.13400 22.64500 40.77900
H  -12.12200 23.17000 42.10400
H  -16.66600 19.57600 41.13900
H  -15.64900 18.77100 39.97900
H  -16.46000 20.18000 39.38800
H  -15.15700 15.35500 40.95900
H  -14.16800 13.58600 43.11900
H  -16.78300 16.01000 42.23400
H  -15.68500 16.06500 43.70600
H  -16.45000 14.52100 43.11800
H  -13.08900 12.59500 40.59300
H  -14.62600 13.28900 40.23600
H  -15.26000 11.17300 40.61300
H  -15.19000 11.39600 42.25500
H  -13.78400 10.67100 41.36000
H  -8.00600 11.26700 42.46900
H  -9.69300 11.31700 42.37100
H  -8.87500 11.42300 44.01400
H  -5.34700 15.93400 42.12600
H  -4.47100 15.27100 46.49500
H  -5.97000 15.75400 47.22700
H  -4.63400 16.96700 46.77100

