158

Mg 24.85700 1.68000 29.23900
C  27.07500 1.22500 31.88300
C  22.31400 1.97700 31.67500
C  22.48900 1.89400 26.74300
C  27.21000 1.15000 26.93200
N  24.73500 1.53400 31.56000
C  25.82200 1.40800 32.33400
C  25.50400 1.70500 33.81100
C  23.86900 1.89200 33.72100
C  23.59000 1.83400 32.18600
C  23.00700 0.87700 34.48200
C  26.30200 2.99000 34.39400
C  27.03200 2.77600 35.76700
H  26.52200 3.64200 36.97700
N  22.70800 1.83500 29.21500
C  21.82500 1.90600 30.37500
C  20.49900 1.96600 29.87600
C  20.57700 1.85500 28.48700
C  21.94500 1.82000 28.06100
C  19.25600 2.08000 30.79100
C  19.44800 1.84300 27.48600
O  19.67300 1.91800 26.27600
C  18.04500 1.82500 27.97200
N  24.84000 1.47000 27.04300
C  23.85100 1.72800 26.29100
C  24.21800 2.09700 24.79700
C  25.80200 1.81400 24.82300
C  25.99900 1.50800 26.37400
C  23.44800 1.23600 23.69300
C  26.67900 3.04000 24.30100
C  26.68000 4.26000 25.19500
N  26.69300 1.21200 29.39200
C  27.58100 0.92900 28.28000
C  28.90300 0.72200 28.84900
C  28.80800 0.88400 30.27700
C  27.43800 1.11600 30.52900
C  30.10500 0.35700 28.07100
C  29.49800 0.84300 31.53700
O  30.68700 0.95200 31.80300
C  28.36900 1.09400 32.59100
C  28.51300 0.08900 33.61500
O  27.97300 -1.01700 33.54700
O  29.40200 0.55100 34.60400
C  29.28600 -0.14400 35.88700
H  21.55100 2.03600 32.45300
H  21.77200 2.08000 25.94000
H  27.98500 1.07700 26.16600
H  25.75100 0.84900 34.43800
H  23.57600 2.87600 34.08900
H  22.60600 0.15400 33.77200
H  22.24300 1.47400 34.97900
H  23.65400 0.42100 35.23200
H  25.50400 3.70200 34.60500
H  26.99300 3.43400 33.67800
H  28.07600 3.06600 35.64500
H  27.07500 1.74100 36.10500
H  18.74900 3.04500 30.79600
H  19.50300 1.92500 31.84100
H  18.53800 1.27200 30.64800
H  17.81300 2.81300 28.37100
H  18.02000 0.98100 28.66200
H  17.31800 1.62300 27.18600
H  24.10800 3.18000 24.74400
H  26.00100 0.90100 24.26300
H  23.24900 0.20300 23.97900
H  23.98300 1.25500 22.74300
H  22.51900 1.77200 23.49900
H  26.19000 3.43400 23.41100
H  27.71100 2.79400 24.05000
H  27.57600 4.87500 25.29000
H  26.38800 4.01300 26.21600
H  25.95700 4.91800 24.71300
H  29.92100 -0.60300 27.58900
H  31.03300 0.47500 28.63000
H  30.12900 1.02900 27.21300
H  28.65600 2.08800 32.93600
H  28.27200 0.01000 36.25800
H  29.96100 0.15400 36.68900
H  29.39400 -1.20200 35.64500
Mg -12.48000 16.70000 41.85900
C  -9.39400 14.97400 41.35400
C  -10.97100 19.49400 40.43200
C  -15.45400 18.10700 41.66300
C  -13.95600 13.71900 42.87500
N  -10.49200 17.09800 40.80500
C  -9.36600 16.21300 40.78300
C  -8.20600 16.93400 40.17900
C  -8.68000 18.45500 40.03300
C  -10.16100 18.39500 40.46400
C  -7.80500 19.54200 40.61900
C  -7.80700 16.30800 38.78500
C  -6.37800 15.78500 38.67600
H  -5.70400 16.34200 37.37200
N  -13.15500 18.58400 41.25700
C  -12.35700 19.59400 40.69900
C  -13.17700 20.76200 40.46500
C  -14.51500 20.37400 40.79700
C  -14.44300 18.97000 41.28000
C  -12.76400 22.12800 39.97500
C  -15.70500 21.30300 40.72100
O  -15.50700 22.47600 40.41100
C  -17.14800 20.86100 41.00100
N  -14.46100 15.94500 42.01800
C  -15.49200 16.73800 41.95800
C  -16.83300 16.03900 42.20400
C  -16.27100 14.75900 42.90300
C  -14.79500 14.78000 42.62600
C  -17.94400 16.73400 43.05800
C  -16.94100 13.47600 42.35400
C  -17.57800 12.56100 43.40000
N  -11.87400 14.64900 42.04800
C  -12.54200 13.60300 42.62100
C  -11.67400 12.46300 42.74800
C  -10.41600 12.95200 42.25600
C  -10.54400 14.31000 41.91400
C  -12.15200 11.12200 43.23600
C  -8.96200 12.59900 41.89400
O  -8.45100 11.48200 41.85800
C  -8.26700 13.89900 41.34200
C  -7.15700 14.19200 42.33800
O  -7.27900 14.14300 43.55300
O  -6.00200 14.64400 41.70000
C  -4.99000 15.13600 42.62600
H  -10.58500 20.33700 39.85600
H  -16.45000 18.55300 41.68500
H  -14.47100 12.81500 43.20700
H  -7.38600 16.90100 40.89600
H  -8.62500 18.77800 38.99300
H  -8.26500 19.88800 41.54500
H  -7.85000 20.36900 39.91000
H  -6.81000 19.16000 40.84500
H  -7.99700 17.00600 37.96900
H  -8.44000 15.43200 38.64400
H  -6.51900 14.70400 38.64100
H  -5.75600 16.21300 39.46100
H  -12.85100 22.22700 38.89300
H  -11.68000 22.19800 40.06800
H  -13.02500 22.99000 40.58800
H  -17.13900 20.43100 42.00300
H  -17.28100 20.06100 40.27300
H  -17.95700 21.57700 40.85700
H  -17.29000 15.90700 41.22300
H  -16.39600 14.76400 43.98600
H  -17.99800 16.29700 44.05500
H  -18.86500 16.39600 42.58400
H  -17.83400 17.81800 43.03500
H  -16.29400 12.91700 41.67700
H  -17.81800 13.76500 41.77500
H  -17.51700 11.53600 43.03300
H  -18.62600 12.82000 43.55200
H  -17.09500 12.54400 44.37700
H  -11.33500 10.41400 43.37400
H  -12.92600 10.69900 42.59600
H  -12.57700 11.33800 44.21600
H  -7.80300 13.62600 40.39500
H  -4.58400 14.28600 43.17600
H  -5.42100 15.83100 43.34600
H  -4.40300 15.83600 42.03200

