158

Mg 44.92300 3.44500 47.94600
C  42.78800 6.13300 47.14200
C  42.13700 1.31800 47.22900
C  46.92100 0.85300 48.04500
C  47.67200 5.63900 47.48900
N  42.76400 3.66600 47.43000
C  42.16900 4.83200 47.16800
C  40.66900 4.70000 46.68700
C  40.34400 3.16400 47.06600
C  41.83200 2.67200 47.25600
C  39.40600 2.88000 48.28600
C  40.63100 4.98400 45.17900
C  39.59000 5.99900 44.53500
H  38.83900 5.46300 43.30500
N  44.56800 1.36900 47.82900
C  43.38300 0.72700 47.61000
C  43.61400 -0.71000 47.79100
C  44.96100 -0.89800 47.96500
C  45.54900 0.48100 47.96600
C  42.70500 -1.87600 47.55100
C  45.70400 -2.20700 48.12800
O  45.06700 -3.25600 48.39300
C  47.17400 -2.30400 48.30100
N  46.94100 3.32100 47.66800
C  47.54100 2.07500 47.93600
C  49.04500 2.22500 48.19400
C  49.34000 3.70200 47.69000
C  47.94100 4.28300 47.71200
C  49.48200 1.96900 49.66600
C  50.23600 3.85200 46.37100
C  51.18500 5.01300 46.29800
N  45.24100 5.52800 47.53100
C  46.39700 6.25200 47.41500
C  46.02900 7.65600 47.09100
C  44.63600 7.66500 46.99600
C  44.18200 6.37100 47.30100
C  46.96600 8.77700 46.84100
C  43.44000 8.38800 46.71500
O  43.40600 9.56000 46.27300
C  42.19600 7.39600 46.81000
C  41.40200 7.92700 47.84000
O  41.44900 7.51100 48.99500
O  40.60900 8.93600 47.37900
C  39.73400 9.66900 48.34000
H  41.23600 0.72200 47.06600
H  47.70900 0.10800 48.16900
H  48.56400 6.26800 47.45500
H  40.07800 5.47700 47.17300
H  39.92100 2.67300 46.19000
H  38.81000 3.72700 48.62500
H  39.96900 2.45200 49.11500
H  38.79300 2.03300 47.97400
H  40.67500 4.06300 44.59700
H  41.56400 5.46000 44.87600
H  40.15500 6.86900 44.19900
H  38.85600 6.29200 45.28700
H  42.60900 -2.46300 48.46400
H  43.02800 -2.58100 46.78500
H  41.72400 -1.64300 47.13500
H  47.57200 -1.69200 47.49200
H  47.71900 -3.23900 48.43700
H  47.38700 -1.75100 49.21600
H  49.73100 1.60400 47.61800
H  49.81900 4.28000 48.48000
H  50.40300 2.47800 49.95000
H  49.73500 0.92200 49.83000
H  48.57500 2.12000 50.25200
H  49.47300 3.95100 45.59900
H  50.83800 2.98300 46.10500
H  51.10600 5.41100 45.28700
H  52.20600 4.68400 46.49000
H  51.05600 5.81200 47.02800
H  47.97300 8.36100 46.80700
H  46.93800 9.57800 47.57900
H  46.92900 9.28100 45.87500
H  41.68400 7.55400 45.86000
H  39.64800 10.70200 48.00400
H  40.13600 9.64700 49.35300
H  38.79100 9.12300 48.35000
Mg -2.40900 34.34000 26.73700
C  -3.52600 32.40400 29.33600
C  -1.08900 36.64100 28.82100
C  -1.50600 36.40200 24.05600
C  -3.85400 32.13600 24.56800
N  -2.42000 34.49400 28.83100
C  -2.86100 33.59100 29.78500
C  -2.57400 34.08600 31.26500
C  -1.82600 35.44100 31.05900
C  -1.83400 35.58300 29.44100
C  -2.40900 36.73100 31.79000
C  -1.69800 33.04200 32.10900
C  -2.28300 32.49000 33.42300
H  -1.32900 32.59900 34.63600
N  -1.50800 36.30300 26.52100
C  -0.97400 37.05100 27.57700
C  -0.51200 38.33800 27.07300
C  -0.66800 38.29600 25.64500
C  -1.15600 36.92700 25.34000
C  -0.19200 39.43400 28.07200
C  -0.37100 39.45500 24.68500
O  -0.43900 39.30500 23.45300
C  0.02500 40.77900 25.32800
N  -2.86000 34.43600 24.60500
C  -2.31800 35.29400 23.77400
C  -2.72400 34.91500 22.27800
C  -3.09200 33.40200 22.46000
C  -3.30700 33.30400 23.97700
C  -3.84800 35.85700 21.79300
C  -2.04100 32.41300 21.85100
C  -0.77800 32.04500 22.67000
N  -3.57200 32.65000 26.90900
C  -4.14900 31.85700 25.93300
C  -4.86800 30.70000 26.51600
C  -4.61600 30.79900 27.84000
C  -3.89400 32.04200 28.04800
C  -5.43000 29.54200 25.77100
C  -4.75900 30.27200 29.12900
O  -5.46400 29.33400 29.54100
C  -4.05100 31.24300 30.10100
C  -5.06400 31.61000 31.07100
O  -5.98600 32.42300 30.82600
O  -4.99300 30.91400 32.16000
C  -5.96500 31.13800 33.29300
H  -0.61700 37.17300 29.64900
H  -1.24100 37.03900 23.21000
H  -4.26200 31.37300 23.90100
H  -3.43700 34.40700 31.84900
H  -0.79600 35.24100 31.35300
H  -2.97500 37.35200 31.09500
H  -1.53600 37.30100 32.10700
H  -2.92300 36.46000 32.71200
H  -0.70600 33.41600 32.36300
H  -1.51300 32.16100 31.49500
H  -2.45000 31.42200 33.27700
H  -3.32300 32.77600 33.58100
H  -0.00900 39.16200 29.11100
H  -0.99900 40.16600 28.05200
H  0.75600 39.88500 27.78200
H  0.13500 41.44500 24.47300
H  0.98700 40.68900 25.83200
H  -0.74500 41.09000 26.03500
H  -1.97900 35.05500 21.49500
H  -4.10500 33.23500 22.09300
H  -4.15800 36.56800 22.55800
H  -4.77000 35.30800 21.60000
H  -3.59900 36.35700 20.85700
H  -1.73900 32.83800 20.89300
H  -2.64200 31.53400 21.61700
H  -0.54800 32.64300 23.55200
H  0.08900 31.74900 22.07900
H  -1.07200 31.16600 23.24300
H  -5.30000 28.76500 26.52400
H  -4.90600 29.32600 24.84000
H  -6.51300 29.60600 25.66800
H  -3.23700 30.68100 30.55900
H  -6.96000 31.34300 32.89900
H  -5.60100 31.96900 33.89800
H  -5.99200 30.23600 33.90500

