158

Mg 35.69500 0.83100 30.16100
C  33.31800 1.99800 32.39400
C  38.00200 1.07800 32.54700
C  37.75800 -0.08200 27.88800
C  33.22600 1.35300 27.57800
N  35.71200 1.75800 32.25200
C  34.59500 1.83400 33.03700
C  34.97500 1.75800 34.54700
C  36.52700 1.87800 34.47100
C  36.76400 1.51500 33.01900
C  36.98500 3.33200 34.74600
C  34.50700 0.40200 35.17700
C  33.51300 0.57600 36.37400
H  33.99900 1.63300 37.42300
N  37.62500 0.42000 30.22300
C  38.41500 0.59200 31.30000
C  39.74600 0.11900 30.92500
C  39.68900 -0.24000 29.49800
C  38.28600 0.05200 29.14500
C  40.88100 -0.08900 31.86000
C  40.76400 -0.93300 28.54400
O  40.52600 -1.40900 27.42400
C  42.19000 -1.15700 29.04900
N  35.49300 0.57600 28.03900
C  36.51200 0.17100 27.35300
C  36.16300 0.00900 25.85900
C  34.63500 0.36000 25.82900
C  34.42600 0.77700 27.26200
C  37.07400 0.93500 24.94400
C  33.65900 -0.79500 25.36700
C  32.84300 -0.60400 24.07500
N  33.70400 1.62700 29.96000
C  32.87500 1.84300 28.84900
C  31.60000 2.38900 29.31300
C  31.68200 2.23000 30.73900
C  33.02100 1.94200 31.02800
C  30.42600 2.70800 28.48300
C  30.96400 2.30700 31.96100
O  29.77400 2.49200 32.04900
C  31.96100 2.19100 33.09700
C  32.02100 3.46600 33.81800
O  32.59500 4.49000 33.51100
O  31.33000 3.25800 34.97800
C  31.23000 4.40900 35.88600
H  38.82300 1.14600 33.26400
H  38.40800 -0.47100 27.10100
H  32.46000 1.30100 26.80200
H  34.61600 2.67200 35.02100
H  37.11200 1.11200 34.97900
H  36.74900 3.98400 33.90600
H  38.04800 3.29800 34.98500
H  36.56700 3.71200 35.67800
H  35.29900 -0.29100 35.46100
H  34.02500 -0.17900 34.39100
H  33.54400 -0.31800 36.99800
H  32.49000 0.70400 36.02000
H  41.72600 0.41300 31.38900
H  41.09000 -1.12300 32.13600
H  40.77900 0.46500 32.79300
H  42.74300 -1.71500 28.29300
H  42.15300 -1.86300 29.87900
H  42.51200 -0.17000 29.37900
H  36.17000 -1.06700 25.68900
H  34.29700 1.19300 25.21200
H  37.50400 1.65800 25.63800
H  36.39500 1.40500 24.23300
H  37.73500 0.35000 24.30500
H  32.98100 -1.07900 26.17200
H  34.16900 -1.75200 25.26200
H  33.31100 0.27300 23.62900
H  31.77500 -0.45300 24.23200
H  32.88300 -1.38300 23.31400
H  30.64200 2.58900 27.42100
H  30.14500 3.74600 28.65800
H  29.56100 2.12500 28.79700
H  31.70300 1.34600 33.73600
H  32.25400 4.46400 36.25700
H  30.54500 4.16300 36.69800
H  30.83900 5.33100 35.45500
Mg 29.93500 58.90500 39.26900
C  27.23800 56.72500 38.40200
C  32.14200 56.39900 38.42300
C  32.38500 61.09000 39.61900
C  27.54500 61.50500 39.59600
N  29.70500 56.81000 38.50800
C  28.55000 56.22400 38.14400
C  28.92200 54.88700 37.33300
C  30.35000 54.55200 37.84400
C  30.80500 56.01800 38.27600
C  30.29200 53.60100 39.00000
C  28.74300 55.04000 35.77200
C  27.72500 54.14800 35.20700
H  26.49800 54.61000 34.37100
N  31.89000 58.74000 39.17400
C  32.67100 57.63600 38.90500
C  34.09100 57.91600 39.12700
C  34.26100 59.32800 39.46700
C  32.78400 59.82800 39.41500
C  35.15700 56.79900 39.01400
C  35.56400 60.02600 39.77100
O  36.64300 59.42200 39.84300
C  35.63000 61.49800 39.95800
N  29.92800 60.96400 39.44000
C  31.12000 61.61600 39.52200
C  30.89100 63.11300 39.70500
C  29.32900 63.27400 39.58500
C  28.92100 61.82200 39.52300
C  31.38100 63.72800 41.06400
C  28.91600 64.27200 38.45800
C  28.67900 65.72000 38.73700
N  27.86600 59.08000 39.26100
C  27.02100 60.23000 39.33400
C  25.68000 59.76700 39.11200
C  25.66500 58.41600 38.81900
C  27.07600 58.05100 38.85400
C  24.50000 60.63900 39.28300
C  24.81100 57.26900 38.40100
O  23.62200 57.13500 38.33800
C  25.80200 56.11600 38.09200
C  25.36800 54.99700 38.93300
O  25.65600 54.75200 40.11000
O  24.43700 54.28300 38.17700
C  23.83800 53.08500 38.80900
H  32.78900 55.55900 38.16500
H  33.23400 61.75400 39.79200
H  26.93200 62.40200 39.70800
H  28.21900 54.15400 37.72800
H  31.00300 54.19700 37.04600
H  29.29000 53.29100 39.29800
H  30.72400 54.08900 39.87400
H  30.98600 52.77200 38.86400
H  29.73400 55.02800 35.31800
H  28.33400 56.04500 35.66400
H  27.21000 53.66700 36.03900
H  28.27000 53.35800 34.69100
H  36.16000 57.22100 38.96500
H  35.04300 56.17200 38.13000
H  34.95100 56.15700 39.87100
H  36.66800 61.78500 40.12400
H  35.08300 61.72800 40.87300
H  35.28400 61.99700 39.05300
H  31.40800 63.64700 38.90800
H  28.92400 63.84200 40.42300
H  31.59500 64.76400 40.80200
H  32.37800 63.36500 41.31300
H  30.62100 63.57300 41.83000
H  28.04300 63.82800 37.98000
H  29.69200 64.19700 37.69600
H  27.60400 65.87900 38.82700
H  29.09500 66.24600 37.87800
H  29.29000 66.09800 39.55700
H  24.05900 60.77400 38.29500
H  24.91300 61.54000 39.73800
H  23.71300 60.16900 39.87300
H  25.71900 55.78300 37.05800
H  22.87100 52.87600 38.35200
H  23.65600 53.20900 39.87700
H  24.40200 52.17800 38.59100

