158

Mg 36.49100 50.08200 24.97200
C  36.12000 48.52100 28.19800
C  35.83900 53.05900 26.37000
C  36.46400 51.19600 21.97700
C  37.12100 46.72900 23.68000
N  35.95800 50.59200 27.11000
C  35.93700 49.89000 28.29900
C  35.73100 50.79300 29.50000
C  35.42000 52.19000 28.83700
C  35.81300 51.93900 27.34700
C  33.89200 52.63100 29.00900
C  36.92500 50.79100 30.48200
C  36.68000 50.47700 32.01900
H  35.51400 51.10400 32.80900
N  36.16400 51.91400 24.26300
C  36.04900 53.03200 25.00700
C  36.01500 54.17100 24.08300
C  36.15200 53.64500 22.78200
C  36.23300 52.24700 22.94400
C  35.86600 55.58700 24.57200
C  36.18500 54.40200 21.47000
O  36.19100 53.79700 20.39400
C  36.17300 55.87400 21.42400
N  36.66800 49.04900 23.04700
C  36.57800 49.79200 22.00900
C  36.92600 48.99800 20.70800
C  37.26600 47.58400 21.21400
C  37.02800 47.80300 22.71900
C  35.72900 48.94800 19.65400
C  38.75700 47.17200 21.12800
C  39.39600 47.05600 19.68300
N  36.56500 48.08700 25.66600
C  36.86600 46.87500 25.03800
C  36.88600 45.76400 26.02300
C  36.58800 46.38700 27.22600
C  36.36500 47.75800 26.99400
C  37.21100 44.31400 25.85800
C  36.53000 46.10200 28.67300
O  36.66400 45.05200 29.22200
C  36.24400 47.50600 29.26000
C  35.05100 47.26500 30.00300
O  33.90500 47.18900 29.56900
O  35.33500 47.04400 31.31800
C  34.34300 46.44800 32.22300
H  35.71100 54.05400 26.80200
H  36.80400 51.56900 21.00800
H  37.39300 45.78100 23.21300
H  34.82700 50.40100 29.96700
H  36.10000 52.93400 29.25100
H  33.35900 51.83400 29.52900
H  33.47600 52.69800 28.00400
H  33.92900 53.60400 29.49900
H  37.43400 51.74700 30.36100
H  37.68500 50.05100 30.23300
H  37.62200 50.73800 32.50000
H  36.54200 49.40900 32.18900
H  35.02800 56.14700 24.15700
H  36.83800 56.02800 24.34900
H  35.83600 55.67900 25.65800
H  35.19700 56.20600 21.77800
H  36.34400 56.28700 20.43100
H  36.89400 56.33300 22.10000
H  37.81200 49.41900 20.23400
H  36.70300 46.77000 20.75600
H  34.77300 48.93600 20.17800
H  35.79300 48.08000 18.99900
H  35.84600 49.89700 19.13000
H  38.86700 46.22700 21.65900
H  39.35600 47.84100 21.74600
H  39.84700 47.96900 19.29400
H  38.62400 46.65500 19.02700
H  40.13900 46.27000 19.54800
H  37.29800 43.77400 26.80100
H  38.03900 44.22200 25.15500
H  36.31400 43.91600 25.38400
H  37.05500 47.70900 29.95800
H  34.15000 47.21300 32.97500
H  34.86400 45.54200 32.53100
H  33.44300 46.09100 31.72000
Mg 26.11600 52.03800 25.59900
C  23.91500 52.95400 28.21000
C  28.41600 51.43100 28.20600
C  28.37300 51.77200 23.32200
C  23.72800 53.19700 23.34000
N  26.19400 52.23600 27.89800
C  25.11400 52.45800 28.69600
C  25.44700 52.15200 30.21100
C  26.93500 51.85900 30.20300
C  27.26200 51.91400 28.69900
C  27.83600 52.73000 31.11300
C  24.52200 51.02800 30.79900
C  24.07300 51.39800 32.26000
H  24.41900 50.62600 33.52700
N  28.06300 51.49200 25.79300
C  28.88200 51.27800 26.86900
C  30.18600 50.92700 26.46000
C  30.17500 50.86900 25.04100
C  28.83700 51.35100 24.63100
C  31.22600 50.73000 27.49200
C  31.36500 50.56700 24.12100
O  31.25900 50.59000 22.88700
C  32.70100 50.21900 24.61900
N  26.05200 52.52400 23.66300
C  27.13600 52.21200 22.88100
C  26.94300 52.57000 21.37800
C  25.40200 52.85200 21.40600
C  25.00700 52.80500 22.89900
C  27.76500 53.91200 21.01000
C  24.51500 51.83900 20.50900
C  23.68300 52.44200 19.34800
N  24.21500 52.92300 25.68800
C  23.31600 53.25200 24.69800
C  22.08500 53.69600 25.26800
C  22.23800 53.54800 26.67700
C  23.54900 53.04300 26.84000
C  20.79700 54.12100 24.68700
C  21.60000 53.69200 27.95800
O  20.45400 54.02400 28.26900
C  22.68300 53.30800 29.03400
C  22.75000 54.25100 30.18100
O  23.27900 55.35700 30.08200
O  21.99200 53.82600 31.20500
C  21.85400 54.79200 32.29800
H  29.07800 51.07700 28.99900
H  29.05500 51.60000 22.48600
H  23.03900 53.40200 22.51700
H  25.31900 53.03600 30.83500
H  27.08700 50.85600 30.60200
H  27.18800 53.17400 31.86900
H  28.32600 53.49000 30.50500
H  28.60600 52.20000 31.67300
H  25.18400 50.18700 31.00500
H  23.67600 50.81300 30.14600
H  22.99700 51.55300 32.34400
H  24.41100 52.39000 32.56000
H  30.94700 51.23100 28.41900
H  32.20600 51.09000 27.18100
H  31.39200 49.65800 27.59400
H  32.64900 49.64100 25.54200
H  33.23400 51.16900 24.61600
H  33.26700 49.63300 23.89500
H  27.31600 51.79800 20.70500
H  25.18400 53.85100 21.02800
H  28.62700 53.61200 20.41300
H  28.19200 54.46200 21.84800
H  27.13700 54.62400 20.47500
H  23.86900 51.26900 21.17700
H  25.14500 51.02300 20.15600
H  23.02700 53.25900 19.64900
H  23.03500 51.66800 18.93700
H  24.37400 52.70700 18.54800
H  20.92100 54.27400 23.61400
H  20.58500 55.04200 25.22900
H  19.99700 53.38700 24.77900
H  22.25100 52.39600 29.44600
H  22.67100 54.56600 32.98300
H  20.93700 54.75500 32.88500
H  22.07500 55.82700 32.03600

