158

Mg 17.14900 -2.60800 28.34000
C  16.07900 -0.16400 30.87700
C  18.51800 -4.34200 30.76000
C  18.35800 -4.37300 25.89200
C  15.61000 -0.26800 25.90800
N  17.15100 -2.34300 30.64000
C  16.67400 -1.33000 31.40000
C  17.08200 -1.58900 32.84700
C  18.08100 -2.78600 32.76800
C  17.90300 -3.22800 31.31000
C  19.57400 -2.30900 33.19000
C  15.83800 -1.91200 33.73700
C  15.87100 -1.66900 35.31000
H  17.09300 -0.99500 36.00600
N  18.17800 -4.21800 28.28700
C  18.66600 -4.84200 29.40100
C  19.43900 -5.95700 29.04200
C  19.40700 -5.99600 27.61900
C  18.66500 -4.79600 27.19900
C  20.06400 -6.95500 30.05600
C  20.04400 -7.05300 26.70900
O  19.96800 -6.98000 25.48800
C  20.78400 -8.26000 27.19500
N  16.95400 -2.39600 26.20000
C  17.60000 -3.32100 25.46400
C  17.21000 -3.15100 24.01700
C  16.37400 -1.82400 23.96200
C  16.30800 -1.45300 25.41900
C  18.35100 -3.08900 22.98200
C  15.00900 -1.91100 23.26100
C  14.93100 -1.13900 21.98500
N  16.17000 -0.63600 28.32600
C  15.53600 0.06900 27.25200
C  14.69500 1.18200 27.81900
C  15.07500 1.20500 29.20800
C  15.90200 0.04900 29.49800
C  13.82600 2.10100 27.09600
C  14.75400 1.83300 30.44700
O  13.97200 2.79500 30.67500
C  15.48700 1.00800 31.64900
C  16.61500 1.78300 32.30200
O  17.73700 2.01700 31.90700
O  16.12500 2.39400 33.39200
C  17.03800 3.16800 34.18700
H  18.95400 -4.87700 31.60700
H  18.63300 -5.06900 25.09700
H  14.98400 0.29600 25.21400
H  17.48000 -0.67900 33.29800
H  17.88000 -3.60400 33.46100
H  19.71100 -1.29600 32.81100
H  20.31600 -2.98200 32.76200
H  19.46700 -2.24900 34.27300
H  15.56600 -2.96000 33.61600
H  15.01100 -1.33900 33.31800
H  15.74400 -2.63500 35.79700
H  15.04600 -1.00800 35.57600
H  19.64000 -7.92800 29.80700
H  19.85800 -6.78000 31.11200
H  21.15000 -7.00900 29.97900
H  20.23800 -9.09100 27.64200
H  21.58200 -7.94500 27.86600
H  21.20800 -8.73900 26.31200
H  16.64300 -4.04200 23.74500
H  16.95900 -1.01400 23.52700
H  18.37100 -4.15700 22.76200
H  19.32800 -2.93000 23.43800
H  18.15700 -2.47400 22.10300
H  14.20500 -1.51700 23.88300
H  14.83600 -2.95900 23.02000
H  15.77800 -0.52600 21.67600
H  14.04500 -0.50900 22.06200
H  14.73800 -1.89100 21.21900
H  13.16100 2.55600 27.83100
H  13.20000 1.55900 26.38800
H  14.41700 2.83000 26.54300
H  14.83300 0.68600 32.46000
H  17.22800 4.13100 33.71400
H  17.99900 2.65700 34.23300
H  16.53800 3.46500 35.10800
Mg -9.80200 17.96100 42.88200
C  -6.59000 16.60500 42.42000
C  -8.43900 21.05100 42.11000
C  -12.91300 18.95900 42.47400
C  -10.96400 14.59900 42.85000
N  -7.77000 18.74700 42.27900
C  -6.64900 18.00700 42.26900
C  -5.48700 18.89000 42.02800
C  -6.05200 20.34300 41.82700
C  -7.47600 20.06100 42.25000
C  -5.30600 21.48000 42.65600
C  -4.28300 18.47300 41.09200
C  -4.66700 17.81800 39.75600
H  -4.67800 18.59500 38.43100
N  -10.60200 19.76700 42.40800
C  -9.88300 20.87600 42.04600
C  -10.89600 22.00700 41.92900
C  -12.20200 21.56900 42.22000
C  -11.95300 20.03100 42.33900
C  -10.51800 23.38600 41.42700
C  -13.45000 22.33000 42.43600
O  -13.45500 23.58500 42.32000
C  -14.71700 21.66900 42.89600
N  -11.66000 16.92900 42.69300
C  -12.77400 17.59900 42.68200
C  -13.95500 16.68400 42.82300
C  -13.37500 15.22700 42.53000
C  -11.88100 15.56400 42.65000
C  -14.60400 16.75700 44.22600
C  -13.80500 14.52600 41.17400
C  -14.10000 13.01600 41.18100
N  -8.96100 15.96600 42.89200
C  -9.59000 14.79600 42.92300
C  -8.55300 13.70000 42.98100
C  -7.33000 14.42200 42.86600
C  -7.65400 15.75600 42.73400
C  -8.61400 12.21800 42.91600
C  -5.97900 14.17700 42.75500
O  -5.24700 13.15600 42.84500
C  -5.36400 15.64000 42.55200
C  -4.29300 15.99900 43.55200
O  -3.14000 15.57700 43.46300
O  -4.85200 16.59000 44.62600
C  -4.12400 16.79800 45.81500
H  -8.11700 22.06200 41.85300
H  -13.96100 19.21900 42.31300
H  -11.44100 13.62000 42.93600
H  -5.07600 19.00800 43.03000
H  -5.98800 20.42400 40.74200
H  -5.98500 21.93700 43.37600
H  -4.98400 22.21500 41.91800
H  -4.41700 21.15200 43.19500
H  -3.61600 17.76800 41.58800
H  -3.77300 19.42500 40.94100
H  -5.68200 17.43400 39.85600
H  -3.99700 16.96200 39.67200
H  -11.33300 23.89800 40.91600
H  -9.69100 23.30700 40.72100
H  -10.15900 23.99500 42.25700
H  -14.56500 20.92200 43.67500
H  -15.20900 21.30200 41.99600
H  -15.33400 22.37700 43.45000
H  -14.67900 17.02700 42.08400
H  -13.55300 14.46900 43.29200
H  -15.29200 15.93400 44.41600
H  -15.17500 17.64900 44.48700
H  -13.85100 16.47500 44.96200
H  -13.02500 14.67700 40.42700
H  -14.55100 15.12700 40.65400
H  -13.29100 12.38400 40.81600
H  -15.08700 12.89300 40.73500
H  -14.24300 12.76600 42.23300
H  -9.21600 12.12300 42.01200
H  -9.17000 11.85100 43.77900
H  -7.58900 11.88400 42.75600
H  -4.86200 15.60900 41.58500
H  -4.73500 16.97200 46.70000
H  -3.40200 17.60400 45.68300
H  -3.40900 15.98200 45.92000

