158

Mg 54.08600 24.39200 44.89700
C  51.44600 26.68300 44.16900
C  51.85100 21.86000 44.03100
C  56.75300 22.46400 44.84700
C  56.12400 27.18600 45.47400
N  51.89200 24.24600 44.27100
C  51.09300 25.33700 43.92700
C  49.73200 24.78300 43.29700
C  49.72500 23.32500 43.97300
C  51.20800 23.09100 44.21000
C  48.86500 23.27400 45.26400
C  49.66400 24.80500 41.71000
C  48.23700 25.10900 41.21500
H  48.13700 25.28300 39.77100
N  54.34300 22.45700 44.38000
C  53.28500 21.58800 44.03700
C  53.89000 20.33600 43.83200
C  55.29400 20.39000 44.12400
C  55.56800 21.79400 44.41800
C  53.00100 19.13200 43.48000
C  56.31900 19.25000 43.92700
O  55.87800 18.15700 43.62200
C  57.76200 19.40600 44.13900
N  56.21000 24.86000 44.89600
C  56.99200 23.85000 45.09300
C  58.40900 24.36700 45.35400
C  58.23400 25.92100 45.54900
C  56.76200 26.03700 45.28300
C  59.21100 23.57500 46.41900
C  58.96100 26.75000 44.50700
C  59.26200 28.27800 44.98500
N  53.81600 26.48400 44.96100
C  54.76000 27.43300 45.34600
C  54.03900 28.68400 45.52500
C  52.74100 28.42200 44.97400
C  52.69600 27.10600 44.63000
C  54.50500 29.96200 46.06200
C  51.48300 28.94200 44.75700
O  51.19000 30.06700 44.98200
C  50.52600 27.88900 44.22200
C  50.14200 28.30800 42.88300
O  50.96000 28.55200 41.98100
O  48.76000 28.53200 42.83300
C  48.42400 29.22600 41.57200
H  51.12700 21.04800 43.93400
H  57.63200 21.81700 44.88200
H  56.69500 28.08200 45.72700
H  48.93700 25.43400 43.66200
H  49.39600 22.64900 43.18300
H  48.29800 22.37200 45.03400
H  48.27100 24.18400 45.34800
H  49.56900 23.00600 46.05200
H  49.98600 23.82300 41.36200
H  50.40300 25.46000 41.24900
H  47.80600 25.95800 41.74500
H  47.60400 24.24400 41.41400
H  53.52800 18.19000 43.32600
H  52.41900 19.45400 42.61700
H  52.33400 18.91900 44.31600
H  58.00700 20.22600 43.46400
H  58.15800 18.49900 43.68100
H  58.01400 19.43100 45.19900
H  58.79200 24.12900 44.36200
H  58.44800 26.15000 46.59200
H  59.41500 24.16300 47.31300
H  60.09500 23.12300 45.97000
H  58.52200 22.78900 46.72900
H  58.26900 26.72600 43.66500
H  59.93000 26.38700 44.16300
H  60.33000 28.26000 45.20400
H  58.76100 28.48400 45.93100
H  58.94700 28.94600 44.18400
H  55.47500 30.18600 45.61700
H  54.57300 29.79800 47.13700
H  53.73500 30.72200 45.93200
H  49.68500 27.75800 44.90300
H  49.07700 30.08500 41.41700
H  47.44000 29.69100 41.62200
H  48.48500 28.44300 40.81500
Mg 36.22600 49.59400 24.76400
C  36.33200 47.98700 27.95500
C  34.91000 52.37100 26.38700
C  35.97500 50.97000 21.83700
C  37.17900 46.54300 23.33200
N  35.55100 50.08600 26.88400
C  35.86800 49.30200 28.03200
C  35.57000 50.11200 29.28500
C  34.87900 51.42800 28.66500
C  35.00800 51.22800 27.19500
C  33.35000 51.61900 29.16000
C  36.83500 50.18800 30.26000
C  36.64300 49.64500 31.66200
H  36.66300 50.68200 32.78500
N  35.74100 51.47300 24.21200
C  35.20300 52.47200 24.96700
C  35.02500 53.64000 24.16200
C  35.37700 53.26900 22.80900
C  35.78700 51.85200 22.86500
C  34.35000 54.91000 24.67000
C  35.30400 54.06900 21.51600
O  35.57600 53.67800 20.40300
C  34.87500 55.49500 21.45900
N  36.40600 48.78300 22.87300
C  36.20400 49.53200 21.79900
C  36.58600 48.87500 20.51500
C  37.27500 47.53200 21.00200
C  36.92600 47.58700 22.50400
C  35.33300 48.71200 19.59100
C  38.75100 47.43600 20.72500
C  39.15900 46.19500 19.77000
N  36.50700 47.61200 25.41100
C  37.03000 46.55300 24.73200
C  37.18600 45.45300 25.67000
C  36.96100 45.96600 26.89600
C  36.52400 47.28500 26.72600
C  37.61600 44.08900 25.27400
C  36.99700 45.62400 28.30700
O  37.39500 44.62500 28.86400
C  36.52900 46.89000 29.06300
C  35.21700 46.54800 29.71600
O  34.16400 46.44100 29.15400
O  35.41200 46.31200 31.03100
C  34.23000 45.81800 31.70800
H  34.53000 53.23900 26.93100
H  35.99900 51.43000 20.84700
H  37.52700 45.62000 22.86500
H  34.77100 49.54000 29.75600
H  35.47900 52.30000 28.92900
H  33.00600 50.87600 29.88000
H  32.59200 51.57700 28.37800
H  33.27800 52.62700 29.56900
H  37.16800 51.21900 30.37800
H  37.66300 49.59700 29.86700
H  37.49600 48.98800 31.82700
H  35.72800 49.05400 31.71000
H  34.68100 55.73900 24.04400
H  34.56500 55.14500 25.71300
H  33.27300 54.82800 24.52600
H  35.02800 55.94600 20.47900
H  35.46900 56.11000 22.13500
H  33.79900 55.53200 21.62700
H  37.23300 49.59900 20.01900
H  36.66600 46.69800 20.65400
H  34.37600 48.53700 20.08200
H  35.46800 47.77800 19.04600
H  35.19000 49.50200 18.85300
H  39.13500 47.26800 21.73100
H  39.12200 48.37300 20.30900
H  39.87300 46.61400 19.06100
H  38.20200 45.82000 19.40600
H  39.68600 45.40300 20.30100
H  37.00900 43.86900 24.39500
H  37.45400 43.42200 26.12100
H  38.68000 44.07100 25.04000
H  37.27400 47.16900 29.80800
H  34.46200 45.94700 32.76500
H  34.03800 44.76700 31.48900
H  33.33100 46.37900 31.45400

