158

Mg 24.64700 -8.55400 46.98000
C  27.07400 -6.16400 46.03700
C  22.58200 -7.56500 44.39400
C  22.72600 -11.23700 47.62300
C  27.21700 -9.95700 49.17200
N  24.95000 -7.05000 45.38900
C  25.93500 -6.19000 45.17800
C  25.57200 -5.22400 44.09200
C  24.17000 -5.58100 43.70000
C  23.87000 -6.86400 44.57600
C  22.99900 -4.52100 43.73100
C  26.64900 -5.15300 42.93000
C  27.18800 -3.71300 42.56900
H  27.09200 -3.15800 41.18100
N  22.82300 -9.26900 46.20500
C  22.13000 -8.68900 45.15400
C  20.94500 -9.40600 44.94200
C  20.86000 -10.46800 45.82400
C  22.19200 -10.41400 46.61200
C  20.03700 -8.95600 43.81900
C  19.76200 -11.54500 45.92600
O  18.75700 -11.52400 45.19900
C  19.98900 -12.82500 46.78900
N  25.09200 -10.37200 48.10200
C  23.99900 -11.23100 48.27300
C  24.44700 -12.48400 49.16800
C  25.88000 -12.08700 49.64500
C  26.09900 -10.75400 48.90700
C  23.47400 -12.68100 50.43200
C  27.01000 -13.10900 49.43300
C  27.43300 -14.04500 50.52100
N  26.66700 -8.08900 47.61000
C  27.58700 -8.75100 48.52100
C  28.84200 -8.02600 48.63500
C  28.64600 -6.96100 47.70600
C  27.36500 -7.09200 47.08400
C  29.95200 -8.40400 49.47200
C  29.17500 -5.72800 47.20100
O  30.27800 -5.27200 47.50800
C  28.19700 -5.20700 46.12900
C  27.76200 -3.82400 46.38000
O  26.95700 -3.49900 47.26000
O  28.19500 -2.98600 45.39700
C  28.01300 -1.56600 45.66700
H  21.97300 -7.02200 43.66900
H  22.16100 -12.15900 47.77800
H  27.96800 -10.31700 49.87800
H  25.42100 -4.24700 44.55100
H  24.26200 -5.94600 42.67700
H  23.43900 -3.53500 43.87700
H  22.20900 -4.68500 44.46400
H  22.57500 -4.58900 42.72900
H  26.11300 -5.31900 41.99600
H  27.46600 -5.84700 43.12800
H  28.24700 -3.80100 42.81100
H  26.63800 -3.16400 43.33300
H  20.20000 -7.92400 43.50900
H  19.01800 -9.09300 44.18100
H  20.08700 -9.62400 42.95900
H  20.97700 -13.16000 46.47100
H  19.19600 -13.46100 46.39700
H  19.79700 -12.33600 47.74400
H  24.59400 -13.42700 48.64200
H  25.90800 -11.77200 50.68800
H  22.57000 -13.13400 50.02500
H  23.12100 -11.69900 50.74500
H  23.83100 -13.35800 51.20800
H  27.91700 -12.53600 49.24100
H  26.83400 -13.64900 48.50300
H  26.69500 -13.92200 51.31400
H  28.42500 -13.75100 50.86600
H  27.50300 -15.08200 50.19300
H  30.50300 -9.29000 49.15400
H  29.61700 -8.64900 50.48000
H  30.62500 -7.55300 49.57500
H  28.78100 -5.13100 45.21200
H  28.50700 -1.43300 46.62900
H  26.94600 -1.34600 45.70000
H  28.46600 -0.92700 44.90900
Mg 41.51600 41.61100 27.18400
C  40.65100 44.09200 29.54500
C  42.10200 39.40000 29.81500
C  42.37800 39.39300 25.00100
C  40.96600 44.02800 24.68200
N  41.58000 41.81500 29.41300
C  40.92700 42.82400 30.13000
C  40.91600 42.53300 31.62300
C  41.33500 41.00100 31.60300
C  41.74500 40.69600 30.18800
C  42.36400 40.55600 32.64100
C  39.55700 42.89500 32.28500
C  38.89600 42.15000 33.49000
H  38.00700 42.88100 34.57600
N  42.11700 39.62900 27.42800
C  42.28100 38.87300 28.53900
C  42.58200 37.52400 28.20200
C  42.60200 37.46600 26.82400
C  42.35100 38.90900 26.36700
C  42.86600 36.37500 29.17000
C  42.85400 36.31800 25.91400
O  42.89100 36.36800 24.69100
C  43.12000 34.93400 26.46100
N  41.87600 41.79400 25.10800
C  42.08000 40.61300 24.43800
C  41.93000 40.87700 22.88900
C  41.24000 42.25300 22.88200
C  41.33300 42.71800 24.33600
C  43.32800 40.78500 22.26800
C  39.63800 42.24300 22.56300
C  38.80400 41.20300 23.39100
N  40.94800 43.63000 27.15400
C  40.93400 44.53900 26.04500
C  40.57000 45.82000 26.49500
C  40.47900 45.73000 27.87700
C  40.77600 44.34300 28.21200
C  40.35700 47.01800 25.68300
C  40.09000 46.48800 29.07700
O  39.67200 47.60300 29.28800
C  40.19400 45.42500 30.18000
C  41.12200 45.94300 31.20800
O  42.33100 45.97200 31.06200
O  40.43300 46.37000 32.28400
C  41.15000 46.90400 33.44100
H  42.16300 38.65800 30.61300
H  42.77100 38.74800 24.21200
H  40.95900 44.71700 23.83500
H  41.63600 43.22300 32.06300
H  40.44200 40.41100 31.81000
H  41.87600 39.88400 33.34800
H  42.68900 41.43100 33.20300
H  43.21200 40.03500 32.19600
H  38.77800 42.95100 31.52500
H  39.73900 43.87000 32.73600
H  39.63500 41.47100 33.91600
H  38.14000 41.47400 33.09100
H  42.20200 35.51100 29.18900
H  42.97400 36.55700 30.24000
H  43.83300 36.00600 28.83000
H  42.23400 34.72000 27.05900
H  44.04000 35.06300 27.03100
H  43.22300 34.10500 25.76000
H  41.16400 40.22100 22.47600
H  41.80300 42.99500 22.31600
H  43.66900 41.69100 21.76800
H  43.20900 39.93400 21.59600
H  44.19400 40.63300 22.91200
H  39.45700 41.88700 21.54900
H  39.13200 43.20500 22.64100
H  38.12400 41.71000 24.07600
H  39.33900 40.37100 23.84800
H  38.22200 40.73800 22.59600
H  39.89700 47.75200 26.34600
H  39.69900 46.86300 24.82800
H  41.33600 47.34900 25.33800
H  39.22000 45.35800 30.66500
H  41.35000 46.16800 34.22000
H  40.53600 47.63000 33.97300
H  42.14400 47.27300 33.18900

