158

Mg 46.84300 24.51200 28.35600
C  47.54000 26.71500 30.93100
C  46.15800 22.06600 30.75600
C  46.79400 22.14400 25.99800
C  47.83000 26.95500 26.05900
N  46.87000 24.45400 30.54600
C  47.06700 25.47000 31.36800
C  46.85700 25.05200 32.85700
C  46.61100 23.54400 32.78300
C  46.56700 23.31200 31.27400
C  47.61100 22.67600 33.57700
C  45.72000 25.85300 33.53300
C  46.15800 26.61900 34.85700
H  45.05900 26.87600 35.94000
N  46.27100 22.39900 28.32900
C  45.95700 21.67400 29.40300
C  45.71400 20.30000 28.90700
C  45.92900 20.24500 27.53600
C  46.33500 21.60800 27.22500
C  45.49100 19.10200 29.80900
C  45.67000 19.07500 26.54800
O  45.97000 19.17800 25.37200
C  45.09200 17.89700 27.01100
N  47.30900 24.53700 26.35500
C  47.12000 23.51200 25.60500
C  47.61300 23.79700 24.16700
C  47.53700 25.33900 24.09400
C  47.61300 25.62200 25.59600
C  48.96400 23.24000 23.70600
C  46.24100 25.86300 23.49100
C  44.90200 25.99100 24.28400
N  47.53300 26.44600 28.39400
C  47.85600 27.37100 27.41400
C  48.19200 28.65600 27.96800
C  48.09000 28.36400 29.39200
C  47.72500 27.06400 29.54100
C  48.65700 29.88400 27.24800
C  48.24800 28.99700 30.70300
O  48.52800 30.18000 30.94000
C  47.91000 27.93700 31.72900
C  49.04300 27.72300 32.66700
O  50.04300 27.02400 32.40500
O  48.83000 28.35900 33.84100
C  49.61200 27.98400 35.02400
H  45.95300 21.21500 31.40900
H  46.99400 21.37800 25.24700
H  47.93400 27.70200 25.26900
H  47.84200 25.32300 33.23700
H  45.59500 23.33800 33.12200
H  48.21200 23.20900 34.31400
H  48.31600 22.15900 32.92500
H  47.06300 21.86900 34.06200
H  44.81700 25.25700 33.66000
H  45.31900 26.53600 32.78400
H  46.38800 27.63800 34.54400
H  47.08700 26.26200 35.30300
H  45.54600 19.14400 30.89700
H  46.13700 18.29800 29.45700
H  44.46800 18.74600 29.68000
H  44.83900 17.18100 26.22800
H  44.19800 18.17400 27.57000
H  45.81700 17.41400 27.66600
H  46.94300 23.26500 23.49100
H  48.34100 25.83300 23.54800
H  49.07500 22.35200 24.32800
H  49.73700 24.00600 23.65300
H  48.77200 22.91200 22.68400
H  45.99500 25.33400 22.57100
H  46.55100 26.84500 23.13200
H  44.08700 25.73900 23.60600
H  44.81700 26.97200 24.75100
H  44.92600 25.22600 25.05900
H  48.18600 30.04700 26.27900
H  49.69000 29.82600 26.90600
H  48.62900 30.78100 27.86700
H  47.09600 28.24300 32.38500
H  50.22900 27.08600 35.05000
H  48.86400 27.72600 35.77300
H  50.24000 28.84100 35.26700
Mg 0.11100 43.21500 27.01500
C  2.51400 42.86300 29.42600
C  -2.34200 42.20900 29.41800
C  -2.35000 43.45900 24.66700
C  2.50900 43.53500 24.52400
N  0.09200 42.61800 29.15000
C  1.18400 42.67000 29.96700
C  0.81900 42.56300 31.45100
C  -0.59100 41.89000 31.37000
C  -0.98900 42.30900 29.87100
C  -0.59100 40.39300 31.57100
C  0.92800 43.86200 32.14200
C  0.90100 43.80300 33.65900
H  0.26800 42.63300 34.41500
N  -2.03500 42.91300 27.04600
C  -2.77500 42.57900 28.13500
C  -4.19100 42.63600 27.80900
C  -4.24200 43.07000 26.43100
C  -2.88700 43.24600 25.97000
C  -5.30900 42.27000 28.78000
C  -5.49500 43.31000 25.40100
O  -5.40100 43.72800 24.25300
C  -6.84300 42.86200 25.89100
N  0.05700 43.25900 24.86700
C  -1.05700 43.47800 24.17600
C  -0.73000 43.72500 22.64500
C  0.77600 43.76800 22.56600
C  1.16200 43.58500 24.07600
C  -1.35500 42.67000 21.71500
C  1.41500 44.91800 21.82900
C  1.92600 46.09000 22.73900
N  2.09600 43.19700 26.92000
C  2.94900 43.32500 25.84200
C  4.35200 43.32200 26.32100
C  4.20000 43.05500 27.68300
C  2.77100 43.01300 28.04700
C  5.71900 43.43700 25.55500
C  5.00600 42.86200 28.89100
O  6.19000 42.57900 29.18600
C  3.95800 42.84400 30.09600
C  4.25200 41.71900 31.03300
O  4.33000 40.52300 30.75000
O  4.39200 42.19400 32.24800
C  4.47500 41.19100 33.30500
H  -3.07300 41.87600 30.15800
H  -3.07200 43.68000 23.87800
H  3.33500 43.66000 23.82100
H  1.47900 41.86200 31.96200
H  -1.27900 42.31400 32.10200
H  0.36500 39.93300 31.82100
H  -0.80600 39.97000 30.59000
H  -1.36400 40.20800 32.31700
H  0.21700 44.58300 31.73900
H  1.90100 44.29600 31.90900
H  0.50600 44.76800 33.97800
H  1.90500 43.88000 34.07700
H  -6.13900 42.91300 28.48800
H  -5.13600 42.60600 29.80300
H  -5.58200 41.21500 28.74600
H  -6.78900 41.83000 26.23800
H  -7.63100 43.08400 25.17200
H  -7.09800 43.47300 26.75700
H  -1.14700 44.70000 22.39400
H  1.16000 42.84100 22.13900
H  -0.56800 42.31500 21.05000
H  -2.25300 43.11800 21.29000
H  -1.59300 41.80000 22.32600
H  0.90000 45.26800 20.93500
H  2.36900 44.48400 21.53000
H  1.22600 46.25500 23.55900
H  2.04300 46.98600 22.12900
H  2.93800 46.00200 23.13300
H  6.51300 43.15100 26.24500
H  5.83900 44.43200 25.12600
H  5.79500 42.73200 24.72800
H  4.12500 43.82600 30.53800
H  5.49500 41.23900 33.68600
H  4.04400 40.19800 33.17800
H  3.85500 41.62400 34.09100

