158

Mg 2.74800 -2.44700 43.68600
C  6.04300 -1.48800 43.11000
C  1.58600 0.03800 41.51900
C  -0.24400 -3.95500 43.58900
C  4.04300 -5.35400 45.17700
N  3.73300 -0.94200 42.48000
C  5.15000 -0.68000 42.37700
C  5.44000 0.49100 41.40800
C  3.95100 0.97000 41.08300
C  2.99600 -0.06000 41.69400
C  3.60400 2.34500 41.62100
C  6.40700 -0.03400 40.23200
C  7.71600 0.78800 40.06600
H  8.30400 0.97200 38.66100
N  0.84600 -1.79000 42.96500
C  0.59200 -0.76600 42.08700
C  -0.80600 -0.67700 41.83200
C  -1.35700 -1.88000 42.34300
C  -0.30400 -2.60400 43.01800
C  -1.39000 0.59500 41.07700
C  -2.82700 -2.27500 42.16300
O  -3.57800 -1.47900 41.52000
C  -3.49700 -3.54600 42.54700
N  2.06500 -4.44600 44.17000
C  0.72500 -4.74800 44.16100
C  0.43200 -6.23600 44.58800
C  1.74600 -6.51800 45.34700
C  2.72000 -5.43100 44.81600
C  -0.88300 -6.37500 45.44200
C  2.34200 -7.95900 45.12600
C  2.94200 -8.79300 46.27700
N  4.59800 -3.22500 44.25400
C  4.97800 -4.40400 44.82100
C  6.41500 -4.40300 45.11700
C  6.80500 -3.18800 44.49900
C  5.69000 -2.62600 43.88900
C  7.18800 -5.45100 45.88000
C  7.96000 -2.40600 44.21100
O  9.10900 -2.62600 44.51900
C  7.48500 -1.23900 43.35500
C  7.72200 0.02700 44.13800
O  7.26000 0.25300 45.24500
O  8.46800 0.86800 43.32400
C  8.63400 2.17200 43.84400
H  1.18500 0.84100 40.89600
H  -1.21900 -4.44300 43.52900
H  4.37300 -6.19500 45.79000
H  6.00300 1.24600 41.95700
H  3.81400 1.08800 40.00800
H  4.53000 2.90300 41.76200
H  3.03200 2.24000 42.54300
H  3.01900 2.88500 40.87700
H  5.90900 0.18300 39.28700
H  6.63500 -1.09600 40.31800
H  8.41700 0.24300 40.69800
H  7.53300 1.79100 40.44900
H  -2.40900 0.76900 41.42300
H  -1.34200 0.45700 39.99600
H  -0.81400 1.51500 41.17300
H  -3.43100 -3.92500 43.56600
H  -3.02400 -4.28300 41.89900
H  -4.57700 -3.43000 42.45800
H  0.31300 -6.77200 43.64700
H  1.64400 -6.29800 46.41000
H  -1.21900 -5.34100 45.51200
H  -0.71900 -6.95900 46.34800
H  -1.72900 -6.82500 44.92300
H  3.04200 -7.91000 44.29200
H  1.48900 -8.56600 44.82500
H  3.04200 -8.17100 47.16600
H  3.98300 -8.96900 46.00600
H  2.31300 -9.64800 46.52200
H  8.20200 -5.05800 45.79600
H  7.02100 -6.39900 45.36900
H  6.87900 -5.47900 46.92500
H  7.99400 -1.28700 42.39200
H  8.66300 2.79300 42.94900
H  9.43900 2.21600 44.57800
H  7.87900 2.60700 44.49900
Mg -11.50700 15.86800 41.57100
C  -8.66200 14.02300 41.09900
C  -9.84200 18.71500 40.30200
C  -14.52200 17.52000 41.40800
C  -13.14500 12.86900 42.29200
N  -9.56000 16.27800 40.62400
C  -8.49600 15.37500 40.71100
C  -7.23300 16.03600 40.11200
C  -7.59500 17.55900 40.31500
C  -9.07000 17.53000 40.34700
C  -7.11100 18.17300 41.59700
C  -6.75600 15.67900 38.64500
C  -5.24900 15.61800 38.47400
H  -4.67700 16.16100 37.22200
N  -12.04200 17.83500 40.98500
C  -11.25200 18.87000 40.54600
C  -12.04500 20.09200 40.27000
C  -13.36200 19.77600 40.57900
C  -13.39200 18.28500 41.03100
C  -11.46100 21.29800 39.55800
C  -14.54100 20.67600 40.49400
O  -14.28100 21.81700 40.18700
C  -16.13600 20.32600 40.69400
N  -13.59700 15.32500 41.85300
C  -14.64600 16.14000 41.78200
C  -15.99200 15.41300 41.75200
C  -15.55700 13.97400 42.28900
C  -13.99900 14.04500 42.25100
C  -17.13200 16.04500 42.62600
C  -16.06700 12.84100 41.47700
C  -17.42100 12.92600 40.79800
N  -10.96900 13.82300 41.87600
C  -11.82000 12.75500 42.04700
C  -11.00100 11.56100 42.07400
C  -9.71800 12.04100 41.76800
C  -9.82900 13.39000 41.48100
C  -11.36800 10.19400 42.35900
C  -8.35800 11.65500 41.46200
O  -7.78700 10.59100 41.34800
C  -7.59700 12.94500 41.11700
C  -6.66800 13.29600 42.08700
O  -6.83900 13.54000 43.25600
O  -5.41700 13.08500 41.61300
C  -4.24200 13.23500 42.47000
H  -9.27800 19.64100 40.17600
H  -15.53500 17.87700 41.21500
H  -13.73900 11.96300 42.43000
H  -6.40900 15.89600 40.81100
H  -7.29700 18.17800 39.47000
H  -6.39900 17.51100 42.09000
H  -7.87900 18.34000 42.35200
H  -6.69500 19.14700 41.34100
H  -7.28000 16.30600 37.92400
H  -7.12500 14.65600 38.58000
H  -4.85700 14.61100 38.61100
H  -4.81400 16.28400 39.21900
H  -11.99900 21.50200 38.63200
H  -10.42700 21.24000 39.21600
H  -11.49400 22.19400 40.17700
H  -16.62200 21.30000 40.74500
H  -16.17400 19.74300 41.61400
H  -16.33900 19.75700 39.78700
H  -16.15500 15.37600 40.67500
H  -15.83400 13.79200 43.32700
H  -18.00800 16.14500 41.98500
H  -16.70500 16.98300 42.97900
H  -17.35800 15.40200 43.47600
H  -16.22100 12.05700 42.21800
H  -15.27400 12.60000 40.76900
H  -18.00800 13.71100 41.27500
H  -17.83900 11.94000 41.00200
H  -17.27600 13.16100 39.74400
H  -10.45700 9.65500 42.61900
H  -11.88900 9.71400 41.53000
H  -11.97200 10.20100 43.26700
H  -7.22700 12.84800 40.09600
H  -3.46400 12.66200 41.96700
H  -4.45700 12.86200 43.47100
H  -3.83800 14.24700 42.43200

