158

Mg 47.06600 24.45400 27.58200
C  47.91100 26.94500 29.98000
C  45.98200 22.47100 30.05200
C  45.97000 22.34700 25.16200
C  48.39900 26.56400 25.19200
N  46.83800 24.75000 29.77500
C  47.29300 25.82000 30.51100
C  47.15600 25.45200 31.97200
C  46.58700 23.99800 31.99200
C  46.58400 23.65400 30.49400
C  47.40400 23.02100 32.86000
C  46.21700 26.50400 32.71000
C  45.72600 26.30800 34.10000
H  46.14800 27.39900 35.20200
N  46.11200 22.64400 27.60800
C  45.80100 21.98300 28.75000
C  45.25300 20.68600 28.39100
C  45.13700 20.64100 27.00300
C  45.78900 21.92300 26.49400
C  44.87400 19.73800 29.49000
C  44.54300 19.61900 26.14700
O  44.54100 19.68000 24.91300
C  43.96600 18.46300 26.79300
N  47.29800 24.30600 25.47400
C  46.69200 23.40400 24.66300
C  47.01600 23.73200 23.17600
C  47.51200 25.20300 23.13700
C  47.78500 25.34200 24.71300
C  47.91100 22.61700 22.66100
C  46.47300 26.26100 22.77600
C  46.04000 26.31600 21.33400
N  48.03200 26.32300 27.53000
C  48.53900 27.00900 26.44900
C  48.96600 28.34900 26.85100
C  48.82400 28.36500 28.28500
C  48.15900 27.11600 28.65500
C  49.55300 29.30100 25.98400
C  48.95500 29.17000 29.48400
O  49.33300 30.34100 29.58800
C  48.43900 28.26400 30.63800
C  49.61500 28.03100 31.59900
O  50.67700 27.48000 31.33400
O  49.34800 28.60900 32.79700
C  50.12300 28.01000 33.89100
H  45.56000 21.86500 30.85700
H  45.41300 21.75300 24.43400
H  48.61400 27.26800 24.38500
H  48.16000 25.49900 32.39400
H  45.53000 24.07700 32.24500
H  47.50200 22.03100 32.41500
H  46.90500 22.91800 33.82400
H  48.39400 23.42600 33.06900
H  45.32200 26.53100 32.08900
H  46.52400 27.55000 32.74500
H  46.11400 25.37600 34.50900
H  44.63700 26.35200 34.07100
H  44.99500 18.72000 29.12000
H  43.92700 19.99700 29.96500
H  45.50200 19.93700 30.35800
H  43.19500 18.83600 27.46800
H  44.76200 17.90500 27.28600
H  43.47800 17.80900 26.07000
H  46.09600 23.60400 22.60600
H  48.37600 25.26700 22.47500
H  48.66700 23.02000 21.98600
H  47.34400 21.85800 22.12200
H  48.55400 22.16100 23.41400
H  47.03600 27.17900 22.94200
H  45.58200 26.20800 23.40100
H  44.96200 26.18300 21.24900
H  46.55000 25.56100 20.73600
H  46.04000 27.33700 20.95200
H  49.15900 29.36200 24.97000
H  50.59300 28.99800 25.86300
H  49.42200 30.26200 26.48300
H  47.67700 28.81100 31.19400
H  50.95900 28.70800 33.94400
H  50.28300 26.96900 33.61300
H  49.53700 27.99900 34.81000
Mg -10.27800 17.63500 40.61300
C  -6.71400 17.21800 40.88000
C  -9.82600 20.93800 39.79300
C  -13.38400 17.72700 39.56200
C  -10.47600 14.08100 40.70300
N  -8.45600 18.83600 40.31300
C  -7.13800 18.49900 40.44100
C  -6.22400 19.59600 39.87500
C  -7.20000 20.81800 40.16300
C  -8.61700 20.16200 40.03800
C  -7.12000 21.40700 41.60800
C  -5.89000 19.36200 38.38600
C  -4.48700 18.85300 38.04000
H  -4.30200 17.45500 37.32000
N  -11.50000 19.13300 39.98500
C  -11.10900 20.45800 39.77400
C  -12.27800 21.27000 39.51500
C  -13.32700 20.30900 39.58300
C  -12.80000 18.98700 39.79000
C  -12.04900 22.77200 39.30100
C  -14.75100 20.74500 39.31700
O  -15.09000 21.88400 39.04800
C  -15.80200 19.84200 39.50500
N  -11.64800 16.06200 39.83900
C  -12.88000 16.43200 39.58900
C  -13.77200 15.18700 39.39800
C  -12.76400 14.01500 39.68800
C  -11.52500 14.75000 40.11200
C  -15.06700 15.11800 40.32900
C  -12.59400 13.14400 38.29900
C  -12.70600 11.61800 38.44900
N  -8.96200 15.99400 40.96300
C  -9.22600 14.61600 41.03500
C  -7.96400 13.93100 41.19300
C  -6.96700 14.89200 41.17200
C  -7.60700 16.20900 40.99300
C  -7.67100 12.43700 41.30400
C  -5.52400 15.07500 41.23600
O  -4.60000 14.20100 41.23400
C  -5.27400 16.61900 41.09500
C  -4.60000 17.03700 42.33500
O  -4.77200 16.63400 43.46000
O  -3.82600 18.18900 42.01400
C  -3.31300 19.02700 43.09000
H  -9.58400 21.98600 39.60300
H  -14.41900 17.74700 39.21600
H  -10.47600 12.99300 40.61400
H  -5.31600 19.63400 40.47800
H  -6.97000 21.62800 39.47000
H  -6.45100 22.25700 41.47700
H  -6.52200 20.77000 42.26000
H  -8.10100 21.55000 42.06300
H  -5.98100 20.31800 37.87100
H  -6.68600 18.74300 37.97200
H  -3.93000 18.82900 38.97700
H  -3.98200 19.64300 37.48500
H  -11.22300 22.91500 38.60300
H  -11.68400 23.11000 40.27100
H  -12.95700 23.28700 38.98600
H  -16.79700 20.27400 39.61400
H  -15.52000 19.35000 40.43600
H  -15.65200 19.21000 38.63000
H  -14.15400 15.16600 38.37800
H  -13.18000 13.40500 40.48900
H  -15.89800 14.86300 39.67200
H  -15.45100 16.07500 40.68100
H  -15.06400 14.35000 41.10300
H  -11.59100 13.37900 37.94300
H  -13.36300 13.41500 37.57600
H  -11.75600 11.14200 38.20700
H  -13.48900 11.25300 37.78500
H  -12.82900 11.32300 39.49100
H  -8.11300 11.82900 40.51400
H  -8.35400 12.08800 42.07800
H  -6.64200 12.21500 41.58500
H  -4.72400 16.94100 40.21000
H  -2.86000 19.90500 42.62900
H  -2.44800 18.51400 43.51200
H  -4.13900 19.32700 43.73500

