158

Mg 49.55500 45.74900 41.86800
C  46.20100 46.26300 41.11900
C  49.42000 42.75800 40.56300
C  52.96800 45.62100 42.32100
C  49.75800 49.22000 42.76900
N  48.09000 44.80000 40.67100
C  46.79500 45.15900 40.48500
C  45.97300 44.07300 39.72300
C  46.93900 42.84400 39.85200
C  48.20600 43.46300 40.48800
C  46.30000 41.70200 40.64600
C  45.59100 44.57100 38.31800
C  44.20100 44.25400 37.66400
H  44.13200 43.21000 36.64300
N  50.97700 44.35100 41.51000
C  50.70600 43.12300 40.99500
C  52.00900 42.31600 40.84000
C  53.05600 43.07000 41.47100
C  52.38600 44.41700 41.86100
C  52.13400 41.04300 40.14900
C  54.46600 42.61600 41.61100
O  54.80300 41.48200 41.21900
C  55.52000 43.48300 42.23500
N  51.14100 47.28600 42.36400
C  52.44000 46.89000 42.58200
C  53.29600 48.06800 43.05800
C  52.27900 49.28900 42.99900
C  50.97300 48.58100 42.67100
C  54.01500 47.95000 44.44200
C  52.61600 50.49600 42.16400
C  51.92400 51.88900 42.61400
N  48.29500 47.39700 42.02400
C  48.48800 48.72200 42.53700
C  47.18400 49.31200 42.66000
C  46.27300 48.37900 42.21800
C  46.98100 47.23500 41.76800
C  46.87300 50.71300 43.12000
C  44.84600 48.05300 42.01100
O  43.87100 48.62900 42.50000
C  44.76200 46.76300 41.18000
C  43.76000 45.76700 41.79600
O  42.86200 45.17800 41.16600
O  43.88900 45.78500 43.20200
C  42.88200 44.91600 43.81200
H  49.20700 41.76300 40.16600
H  54.05700 45.66000 42.39000
H  49.65800 50.25200 43.11100
H  45.07400 43.94300 40.32600
H  47.19900 42.50800 38.84800
H  46.41100 41.69500 41.73100
H  46.62500 40.74800 40.23100
H  45.21300 41.77700 40.65300
H  46.29700 44.20100 37.57400
H  45.78700 45.64200 38.26300
H  43.68400 45.18600 37.43700
H  43.62800 43.85100 38.49900
H  52.90600 40.99700 39.38000
H  51.20100 40.75300 39.66500
H  52.36800 40.25400 40.86300
H  55.12800 43.95500 43.13600
H  55.93800 44.18500 41.51300
H  56.29100 42.77200 42.53100
H  54.10400 48.16000 42.33300
H  52.10200 49.61700 44.02400
H  53.76600 48.82800 45.03700
H  55.09400 47.84000 44.33300
H  53.74900 47.01100 44.92800
H  52.29800 50.23500 41.15500
H  53.68400 50.71100 42.11700
H  52.70600 52.64700 42.65700
H  51.53500 51.76200 43.62400
H  51.13800 52.21200 41.93200
H  47.17400 51.54600 42.48400
H  47.41400 50.81500 44.06100
H  45.80300 50.68200 43.32400
H  44.31900 47.13300 40.25500
H  42.99800 43.93300 43.35500
H  41.88300 45.27200 43.56000
H  43.14600 44.85000 44.86700
Mg 16.39300 52.88300 26.51200
C  18.42400 51.34000 29.15300
C  14.12200 53.68300 28.98800
C  14.56400 54.02000 24.18000
C  18.69700 51.53900 24.23600
N  16.24300 52.45700 28.83200
C  17.25800 51.96700 29.61400
C  16.89500 52.31100 31.03100
C  15.36300 52.59200 30.90800
C  15.26200 52.98700 29.50200
C  14.44400 51.32400 31.25500
C  17.79900 53.44300 31.48400
C  17.87600 53.77300 33.01700
H  16.96100 53.01400 34.02800
N  14.63300 53.85300 26.59700
C  13.84700 54.11200 27.67800
C  12.66700 54.83500 27.26300
C  12.74900 54.92800 25.85600
C  13.99900 54.28600 25.43900
C  11.49200 55.19800 28.16800
C  11.68000 55.42000 24.81900
O  11.94000 55.46200 23.60900
C  10.25500 55.92000 25.30000
N  16.54700 52.68900 24.51000
C  15.63900 53.30300 23.76300
C  15.80100 53.01600 22.28900
C  17.28800 52.37700 22.29900
C  17.62300 52.25500 23.75000
C  14.72000 52.20700 21.69700
C  18.40200 53.16700 21.52900
C  19.29600 52.24200 20.73700
N  18.22000 51.71700 26.60400
C  19.04200 51.23100 25.59100
C  20.21300 50.62100 26.09700
C  20.00700 50.64400 27.48800
C  18.78400 51.30400 27.75300
C  21.36600 49.96300 25.36600
C  20.67500 50.26000 28.70900
O  21.78800 49.78000 28.85900
C  19.71800 50.80300 29.91000
C  19.35400 49.68100 30.84000
O  19.07700 48.53300 30.53400
O  19.49600 50.03000 32.16400
C  19.55300 48.92500 33.17600
H  13.32100 53.79300 29.72200
H  13.95200 54.42600 23.37100
H  19.51300 51.28300 23.55600
H  17.16900 51.51500 31.72400
H  15.02800 53.35700 31.60800
H  14.29900 51.22700 32.33100
H  15.03400 50.53500 30.78800
H  13.50800 51.42500 30.70500
H  17.53300 54.37200 30.97700
H  18.81800 53.35500 31.10900
H  17.49400 54.79400 33.01700
H  18.87900 53.84000 33.43800
H  10.76000 54.39200 28.22100
H  10.90600 56.05700 27.84100
H  11.98800 55.45100 29.10500
H  10.35300 56.88000 25.80700
H  9.95300 55.13000 25.98700
H  9.63800 56.12200 24.42400
H  15.85300 54.01100 21.84800
H  17.25200 51.34600 21.94700
H  15.23400 51.54300 21.00300
H  13.91500 52.74900 21.20000
H  14.21700 51.61600 22.46300
H  19.03700 53.80500 22.14500
H  17.91400 53.87700 20.86100
H  19.27000 51.20700 21.07700
H  20.34300 52.43700 20.96700
H  19.14500 52.37700 19.66600
H  22.30300 49.96300 25.92400
H  21.60200 50.49700 24.44600
H  21.18400 48.88800 25.33600
H  20.17600 51.59600 30.50000
H  19.54200 49.45300 34.13000
H  20.42600 48.28100 33.07500
H  18.62300 48.36800 33.06200

