158

Mg 47.26400 25.01400 27.63100
C  48.12000 27.26200 30.13700
C  46.55600 22.72400 30.06500
C  46.24300 23.02500 25.21700
C  48.57000 27.28800 25.25200
N  47.46900 25.00900 29.84800
C  47.61500 26.09500 30.62400
C  47.41500 25.70700 32.10200
C  47.29600 24.17200 32.05700
C  47.12600 23.88800 30.52600
C  48.35300 23.30300 32.72400
C  46.22100 26.43900 32.73300
C  45.60900 25.93400 34.12100
H  45.38400 26.97800 35.20300
N  46.55400 23.01600 27.64800
C  46.30200 22.25200 28.74400
C  45.76000 21.00100 28.27400
C  45.56100 21.16900 26.85900
C  46.19800 22.43500 26.49400
C  45.35200 19.84300 29.20600
C  44.79900 20.22900 25.94200
O  44.58400 20.51700 24.76000
C  44.18900 18.97600 26.37700
N  47.49400 25.08000 25.55100
C  46.88700 24.16700 24.80300
C  46.91100 24.56800 23.33200
C  47.67900 25.94400 23.28600
C  47.97600 26.11300 24.77800
C  47.47700 23.44800 22.41600
C  46.81700 27.06900 22.76300
C  47.54400 28.12600 21.96200
N  48.23700 26.85200 27.63300
C  48.73100 27.64900 26.60300
C  49.36400 28.86800 27.22800
C  49.11200 28.71600 28.57000
C  48.50100 27.47500 28.82700
C  50.10300 29.96800 26.54500
C  49.18000 29.42700 29.87000
O  49.61900 30.53000 30.13900
C  48.41800 28.53900 30.93800
C  49.24300 28.37300 32.21400
O  50.31300 27.87000 32.40000
O  48.54000 29.05900 33.19500
C  49.10300 29.26400 34.49400
H  46.33500 21.95500 30.80700
H  45.84500 22.45600 24.37400
H  48.88800 27.87900 24.39000
H  48.31200 26.03100 32.63000
H  46.34900 23.91200 32.52900
H  49.07000 23.96500 33.21000
H  48.73100 22.59300 31.98800
H  47.83700 22.72500 33.49000
H  45.49000 26.47100 31.92400
H  46.37200 27.50400 32.90600
H  46.25600 25.20000 34.60200
H  44.60000 25.53400 34.01600
H  44.32100 19.52900 29.04300
H  45.32200 20.06200 30.27300
H  46.06200 19.05600 28.95300
H  43.97800 18.25800 25.58400
H  43.24700 19.00000 26.92400
H  44.93400 18.48300 27.00200
H  45.85000 24.64100 23.09300
H  48.57500 25.84000 22.67500
H  48.29000 22.97400 22.96600
H  47.95300 24.02800 21.62500
H  46.72300 22.72100 22.11300
H  46.35800 27.50900 23.64900
H  46.06800 26.64400 22.09500
H  48.54600 27.81100 21.66900
H  47.68200 28.97100 22.63700
H  47.10600 28.38600 20.99800
H  49.55100 30.29200 25.66200
H  51.10400 29.71500 26.19700
H  50.06100 30.83200 27.20900
H  47.53500 29.04900 31.32300
H  49.17000 30.32800 34.72000
H  50.13500 28.91600 34.47300
H  48.65000 28.79000 35.36500
Mg 9.61700 49.04200 24.11400
C  7.25100 49.70700 26.46900
C  12.13500 50.20500 26.39400
C  12.06500 48.48200 21.80900
C  7.20300 47.97400 21.89500
N  9.65600 50.05100 26.17700
C  8.51400 50.03400 26.97900
C  8.90600 50.46800 28.43800
C  10.38400 51.04900 28.21000
C  10.78000 50.35300 26.85800
C  10.51800 52.57400 28.24800
C  8.69500 49.31300 29.47500
C  9.38500 49.46200 30.88200
H  8.49000 49.55800 32.05200
N  11.76200 49.24500 24.16900
C  12.55300 49.63200 25.22000
C  13.92600 49.69400 24.81000
C  14.01000 49.27600 23.40500
C  12.55800 48.97300 23.07600
C  15.09900 50.04700 25.65700
C  15.20600 49.04300 22.53300
O  15.05500 48.91200 21.31600
C  16.57300 48.90100 23.05600
N  9.59600 48.37400 22.09900
C  10.73600 48.17100 21.40500
C  10.55000 47.56200 20.05000
C  8.94600 47.42100 20.00500
C  8.49600 47.97000 21.40800
C  11.15200 48.35200 18.94000
C  8.60000 45.90800 19.72300
C  8.44300 44.95100 20.92800
N  7.60300 48.87000 24.07900
C  6.72200 48.45100 23.14500
C  5.36900 48.55600 23.68800
C  5.54400 49.06800 24.98700
C  6.91100 49.21600 25.18600
C  4.11300 48.14800 22.96800
C  4.80000 49.47500 26.17300
O  3.60700 49.46100 26.43800
C  5.86100 49.75300 27.19200
C  5.72500 48.64600 28.20500
O  6.20100 47.50300 28.07500
O  5.12900 49.16700 29.34700
C  4.82600 48.15000 30.28200
H  12.80000 50.66200 27.12900
H  12.81400 48.23200 21.05500
H  6.55900 47.49600 21.15300
H  8.31000 51.29600 28.82200
H  11.02400 50.69500 29.01800
H  9.56200 53.09400 28.18700
H  11.25900 52.91100 27.52300
H  10.94800 52.90200 29.19400
H  9.11600 48.46000 28.94300
H  7.62000 49.26000 29.64200
H  10.02600 50.34400 30.86700
H  10.14100 48.67800 30.93000
H  14.82200 50.14400 26.70600
H  15.47200 51.02800 25.36000
H  15.90200 49.31900 25.53900
H  16.54800 48.01000 23.68300
H  16.84900 49.81900 23.57600
H  17.29100 48.74800 22.25000
H  11.11900 46.63900 20.15800
H  8.42400 47.96200 19.21600
H  11.29000 49.34500 19.36600
H  10.31300 48.34200 18.24400
H  12.09300 48.00900 18.51100
H  9.42500 45.50400 19.13500
H  7.67000 45.77900 19.16900
H  8.50200 45.42500 21.90700
H  9.13000 44.10500 20.92900
H  7.40500 44.62100 20.96900
H  3.47800 47.61200 23.67300
H  4.38300 47.38800 22.23500
H  3.54600 48.97200 22.53500
H  5.70900 50.76400 27.57000
H  4.17800 47.42100 29.79600
H  4.23100 48.56200 31.09700
H  5.74600 47.67800 30.62700

