158

Mg 0.49600 7.57300 26.10300
C  1.36200 9.46900 28.84700
C  0.65000 4.81900 28.25700
C  0.57000 5.52300 23.41300
C  1.31800 10.33800 23.97100
N  1.24900 7.19400 28.33700
C  1.03900 8.14800 29.22900
C  1.07100 7.60600 30.61800
C  1.10800 6.11200 30.38400
C  1.02700 6.01400 28.86300
C  2.33300 5.23700 30.83900
C  -0.16300 8.10600 31.39800
C  0.06900 8.17000 32.90500
H  1.28700 7.37300 33.51800
N  0.27300 5.52700 25.88000
C  0.28000 4.57600 26.88400
C  -0.12700 3.34300 26.30000
C  -0.11300 3.45700 24.89800
C  0.32800 4.85500 24.66100
C  -0.55100 2.18000 27.09000
C  -0.34200 2.36100 23.75400
O  -0.08500 2.53100 22.57500
C  -0.93700 1.15000 24.22200
N  0.97800 7.97600 23.96100
C  0.72200 6.94200 23.11500
C  0.59400 7.50800 21.67900
C  0.68300 9.05100 21.87700
C  1.03100 9.13100 23.31700
C  1.67500 7.02100 20.65500
C  -0.59700 9.81800 21.51300
C  -0.40000 11.01300 20.61200
N  1.12800 9.46800 26.32900
C  1.35300 10.51700 25.37200
C  1.63200 11.76500 26.09300
C  1.65300 11.30500 27.43500
C  1.35500 9.99200 27.54400
C  1.89100 13.17700 25.54200
C  1.78500 11.83100 28.79600
O  1.98000 12.95900 29.22100
C  1.59100 10.62600 29.79600
C  2.73000 10.46200 30.69900
O  3.80700 9.89000 30.46400
O  2.40300 11.11500 31.86500
C  3.44800 10.83400 32.89100
H  0.59800 4.03300 29.01300
H  0.31600 4.87000 22.57500
H  1.41500 11.27000 23.41100
H  2.00500 7.83000 31.13300
H  0.16700 5.69500 30.74400
H  2.79100 4.64900 30.04300
H  1.98200 4.61600 31.66300
H  3.16500 5.89600 31.08700
H  -0.96800 7.37700 31.30800
H  -0.47200 9.01100 30.87500
H  -0.84300 7.78000 33.35700
H  0.04800 9.18500 33.30200
H  -1.49800 1.73000 26.79400
H  -0.61100 2.48500 28.13500
H  0.30400 1.50300 27.09400
H  -1.11900 0.54400 23.33400
H  -1.93100 1.36400 24.61300
H  -0.26200 0.65600 24.92000
H  -0.39500 7.21600 21.32600
H  1.47100 9.45600 21.24300
H  1.37400 6.13000 20.10300
H  2.62200 6.92000 21.18400
H  1.85100 7.76000 19.87400
H  -0.93700 10.26700 22.44700
H  -1.39100 9.16300 21.15400
H  -0.80300 10.87400 19.60900
H  0.66300 11.25000 20.58000
H  -0.91900 11.92400 20.91200
H  2.92100 13.31900 25.21400
H  1.68200 13.96200 26.26900
H  1.25100 13.45600 24.70500
H  0.74800 10.99800 30.37800
H  2.98900 11.22300 33.80000
H  4.37000 11.34300 32.60900
H  3.47500 9.74400 32.90900
Mg 25.28400 -7.30200 49.25900
C  27.73600 -5.06800 47.82900
C  23.13800 -6.18500 46.90800
C  23.38900 -9.81500 50.10900
C  28.18000 -8.73400 50.94500
N  25.55100 -5.90600 47.47700
C  26.53100 -5.15800 47.08600
C  26.26400 -4.25100 45.87400
C  24.76300 -4.54900 45.68200
C  24.45600 -5.57400 46.75100
C  23.85800 -3.39200 45.39400
C  27.25300 -4.69900 44.72600
C  27.92400 -3.59900 43.81200
H  27.01300 -2.59000 43.10700
N  23.47200 -7.91100 48.65100
C  22.66000 -7.20500 47.75200
C  21.38800 -7.84000 47.60500
C  21.38000 -8.90800 48.61300
C  22.70400 -8.91500 49.26800
C  20.33900 -7.37100 46.67000
C  20.18900 -9.85400 48.94200
O  19.16100 -9.70700 48.32300
C  20.19100 -10.82800 50.01900
N  25.70200 -8.99300 50.22600
C  24.71300 -9.81400 50.66400
C  25.25400 -11.02500 51.41500
C  26.76800 -10.68100 51.58700
C  26.90600 -9.39500 50.86600
C  24.40100 -11.28800 52.75200
C  27.74200 -11.77500 51.01800
C  28.76100 -12.31300 52.01200
N  27.50700 -6.83500 49.63100
C  28.51600 -7.54700 50.31600
C  29.73600 -6.86400 50.23800
C  29.50200 -5.85100 49.28800
C  28.14800 -5.92900 48.90800
C  30.96600 -7.28200 50.91900
C  30.03200 -4.71900 48.58400
O  31.06000 -4.12000 48.70500
C  28.90700 -4.18400 47.61100
C  28.54600 -2.74800 47.95400
O  27.93900 -2.36300 48.93500
O  28.88300 -1.92500 46.92400
C  28.21100 -0.61600 46.80100
H  22.51600 -5.74200 46.12700
H  22.77100 -10.63900 50.47100
H  28.88500 -9.32400 51.53400
H  26.25600 -3.24400 46.29000
H  24.64000 -5.18600 44.80700
H  23.16500 -3.24700 46.22300
H  23.29400 -3.65300 44.49800
H  24.41800 -2.46600 45.26200
H  26.52400 -5.23700 44.12100
H  28.06300 -5.37900 44.98800
H  28.56800 -3.94800 43.00500
H  28.55600 -2.99000 44.45900
H  20.24700 -6.28500 46.65000
H  19.37200 -7.76700 46.98200
H  20.39600 -7.80500 45.67200
H  20.56500 -10.42300 50.95900
H  20.76800 -11.72300 49.78800
H  19.19200 -11.24700 50.13500
H  25.18300 -11.94400 50.83400
H  26.95200 -10.46800 52.64000
H  23.99500 -12.29900 52.77600
H  23.56700 -10.62500 52.97900
H  25.11000 -11.01000 53.53300
H  28.35500 -11.31000 50.24600
H  27.23600 -12.55100 50.44300
H  29.71300 -11.92400 51.65200
H  28.88100 -13.39500 52.07000
H  28.60800 -11.85500 52.98900
H  31.38400 -6.38400 51.37200
H  31.61200 -7.87600 50.27100
H  30.63900 -7.87000 51.77600
H  29.40200 -4.27400 46.64400
H  28.87700 0.21900 47.01600
H  27.25800 -0.68300 47.32500
H  28.00600 -0.59800 45.73000

