158

Mg 46.92800 23.78700 28.08200
C  47.89900 26.35600 30.62700
C  46.22300 21.78700 30.55600
C  46.18500 21.59500 25.73800
C  48.09400 25.99700 25.74300
N  46.98700 24.09100 30.41500
C  47.38600 25.15100 31.21100
C  46.97200 24.81900 32.66000
C  46.52200 23.31600 32.58900
C  46.53700 23.04200 31.12100
C  47.34400 22.32600 33.39500
C  46.04300 25.87000 33.35600
C  45.53000 25.48100 34.78500
H  45.35500 26.57700 35.86200
N  46.36100 21.95400 28.11300
C  46.09500 21.21700 29.22700
C  45.71100 19.87500 28.90800
C  45.53400 19.86400 27.50300
C  46.00900 21.22100 27.05900
C  45.46300 18.79600 29.99000
C  45.08500 18.78000 26.52100
O  44.93300 18.93700 25.27100
C  44.76000 17.42400 27.10800
N  47.17200 23.83300 26.04700
C  46.72900 22.84700 25.30100
C  47.03500 23.08400 23.80200
C  47.39000 24.60000 23.87400
C  47.53300 24.85800 25.31200
C  48.07600 22.11500 23.09500
C  46.22900 25.40100 23.12800
C  46.13300 25.18200 21.62900
N  47.79200 25.74000 28.10500
C  48.28900 26.47200 27.11100
C  48.87000 27.66500 27.56900
C  48.58700 27.70600 28.91900
C  48.06000 26.45200 29.24400
C  49.59600 28.66700 26.72400
C  48.75200 28.50100 30.07100
O  49.19800 29.63100 30.16200
C  48.20600 27.67300 31.28100
C  49.32800 27.60300 32.27900
O  50.33300 26.88400 32.12800
O  49.02100 28.30300 33.42800
C  49.82300 28.03400 34.69200
H  45.86800 21.08100 31.30900
H  45.87600 20.91600 24.94000
H  48.57000 26.69600 25.05200
H  47.95900 24.77000 33.11900
H  45.51800 23.20700 32.99900
H  46.78300 21.48600 33.80400
H  47.88000 22.78000 34.22900
H  48.01700 21.84000 32.68800
H  45.17700 25.96800 32.70100
H  46.64800 26.77300 33.44100
H  46.11800 24.67300 35.21900
H  44.49300 25.16700 34.66800
H  44.40000 18.57300 30.07900
H  45.70900 19.23900 30.95500
H  46.10900 17.93800 29.80200
H  45.69700 17.14900 27.59300
H  44.52900 16.73600 26.29500
H  43.97300 17.55900 27.85100
H  46.04200 22.98400 23.36400
H  48.39900 24.64000 23.46500
H  47.62300 21.95000 22.11800
H  48.08600 21.18100 23.65600
H  49.03800 22.58000 22.87900
H  46.37700 26.46400 23.31800
H  45.29400 25.06400 23.57600
H  46.89500 24.48700 21.27500
H  46.40100 26.13400 21.16900
H  45.17500 24.82300 21.25500
H  50.33600 28.12900 26.13200
H  50.15900 29.27100 27.43500
H  48.90400 29.22600 26.09400
H  47.32700 28.17700 31.68400
H  50.19100 28.98500 35.07800
H  50.59200 27.28400 34.50800
H  49.07500 27.62400 35.37100
Mg 50.15300 44.53300 41.72600
C  46.82700 45.14300 40.46300
C  49.91600 41.46700 40.48200
C  53.46500 44.29500 42.23000
C  50.34000 47.98500 42.38500
N  48.50800 43.49100 40.76700
C  47.31400 43.83900 40.27000
C  46.57600 42.84600 39.42800
C  47.44500 41.60100 39.72700
C  48.70300 42.22100 40.35200
C  46.94800 40.43200 40.50700
C  46.40500 43.41400 37.92700
C  45.01100 43.19700 37.28000
H  44.67000 44.05300 36.06600
N  51.52300 43.08300 41.35200
C  51.22400 41.83100 40.91200
C  52.35600 40.97200 40.96200
C  53.39000 41.71900 41.56800
C  52.91600 43.09200 41.77900
C  52.22800 39.55900 40.62900
C  54.75500 41.23200 41.96100
O  55.13200 40.06700 41.74200
C  55.73200 42.10400 42.82000
N  51.61800 45.95800 42.17200
C  52.92500 45.59800 42.45700
C  53.79300 46.80000 42.99900
C  52.80000 48.00800 42.89500
C  51.50000 47.29700 42.43000
C  54.40500 46.48700 44.38600
C  53.24900 49.11600 41.86400
C  52.97200 50.53000 42.21600
N  48.79700 46.20500 41.66800
C  49.04100 47.53000 41.96200
C  47.87500 48.32700 41.80100
C  46.91100 47.42400 41.16400
C  47.54000 46.13500 41.13800
C  47.71500 49.75000 41.94300
C  45.59300 47.30100 40.62700
O  44.67500 48.13300 40.51500
C  45.50600 45.80200 40.17000
C  44.22200 45.22300 40.82000
O  43.30900 44.69900 40.16300
O  44.17900 45.56000 42.11000
C  42.87500 45.35100 42.69000
H  49.86200 40.47300 40.03200
H  54.53200 44.34100 42.45900
H  50.42600 49.05800 42.56400
H  45.60700 42.75000 39.91700
H  47.78500 41.21900 38.76500
H  47.15800 39.44600 40.09500
H  45.86000 40.43600 40.56000
H  47.39500 40.50700 41.49900
H  47.09600 42.76700 37.38700
H  46.81800 44.41200 37.77800
H  44.28300 43.43700 38.05600
H  44.92600 42.17600 36.90800
H  51.69200 39.33700 39.70600
H  51.60800 39.04300 41.36300
H  53.18200 39.04700 40.50400
H  55.28200 42.83600 43.49100
H  56.34000 42.80700 42.25000
H  56.46400 41.44900 43.29200
H  54.62200 46.79300 42.29200
H  52.81700 48.49300 43.87100
H  55.49500 46.45800 44.37700
H  54.16600 45.50200 44.78600
H  53.94400 47.13700 45.13000
H  52.85000 48.78300 40.90600
H  54.33700 49.14300 41.91000
H  52.37300 50.54300 43.12700
H  52.44700 51.07300 41.43000
H  53.86200 51.07800 42.52400
H  48.27900 50.32100 41.20600
H  48.02400 50.08000 42.93500
H  46.68100 50.06900 41.81200
H  45.27500 45.69000 39.11000
H  42.50400 44.33000 42.59200
H  42.11800 46.00100 42.25100
H  42.92000 45.76300 43.69800

