158

Mg 16.68400 52.05200 26.26400
C  18.81000 50.35600 28.50400
C  14.38800 52.29200 28.68700
C  14.69600 53.57100 24.07700
C  19.03200 51.45700 23.76500
N  16.67300 51.41300 28.36600
C  17.67200 50.81900 29.16000
C  17.15700 50.56500 30.58200
C  15.63700 50.95900 30.51400
C  15.47300 51.54200 29.08900
C  14.61400 49.93400 31.02000
C  17.98700 51.17900 31.77500
C  17.95100 50.49000 33.11600
H  17.27600 51.32300 34.21000
N  14.79800 52.92900 26.38300
C  14.04000 52.94900 27.48400
C  12.89100 53.75400 27.17700
C  12.85800 54.06400 25.81400
C  14.17100 53.54700 25.39100
C  11.84800 54.15600 28.25900
C  11.84800 54.77100 24.99400
O  12.05400 54.94800 23.77700
C  10.46500 55.22300 25.50800
N  16.87500 52.34900 24.14100
C  15.89400 53.07800 23.49200
C  16.21100 53.13100 21.99400
C  17.68500 52.44500 21.92600
C  17.92500 52.11800 23.35700
C  15.23800 52.38700 21.07200
C  18.77900 53.34600 21.26700
C  19.17900 54.58300 21.95200
N  18.52100 51.04600 26.09700
C  19.34500 50.84400 24.99200
C  20.53400 50.10300 25.31400
C  20.34900 49.96500 26.72500
C  19.14400 50.50800 27.12600
C  21.66200 49.73700 24.44500
C  20.96800 49.34300 27.87100
O  21.98500 48.69800 27.98000
C  20.08800 49.81700 29.13900
C  19.74600 48.59700 29.96200
O  19.12100 47.62600 29.64700
O  20.34600 48.74300 31.17000
C  20.04000 47.74200 32.21800
H  13.75300 52.37100 29.57100
H  14.10200 54.17900 23.39200
H  19.86200 51.28600 23.07600
H  17.17400 49.48100 30.70300
H  15.42100 51.75800 31.22300
H  14.08100 50.27800 31.90700
H  15.21000 49.10300 31.39900
H  13.94300 49.44800 30.31100
H  17.54200 52.16100 31.93600
H  19.04200 51.23900 31.50800
H  18.93200 50.21100 33.50100
H  17.33900 49.58900 33.11800
H  12.26800 53.98500 29.25100
H  10.81500 53.80800 28.26800
H  11.83100 55.24600 28.27600
H  10.06600 54.35200 26.02800
H  9.83400 55.51100 24.66700
H  10.50800 56.00700 26.26400
H  16.16600 54.19000 21.74200
H  17.71400 51.49500 21.39100
H  14.54700 53.11700 20.65000
H  14.80400 51.64300 21.74000
H  15.77700 51.98400 20.21500
H  18.45100 53.61600 20.26300
H  19.69800 52.78000 21.11500
H  19.90700 54.43000 22.74900
H  18.45600 55.18800 22.49800
H  19.74800 55.17400 21.23500
H  21.40900 48.79600 23.95700
H  22.52400 49.53700 25.08100
H  21.83300 50.49000 23.67600
H  20.44300 50.62900 29.77300
H  20.66200 46.85000 32.15300
H  19.04100 47.30600 32.21000
H  20.09400 48.25200 33.18000
Mg 9.98300 47.44800 25.33400
C  7.73100 47.82900 27.94600
C  12.25800 49.07800 27.17400
C  11.89200 47.36400 22.72600
C  7.11700 46.69400 23.26100
N  10.01300 48.18400 27.32900
C  9.00800 48.14700 28.30700
C  9.48500 48.56900 29.64400
C  10.78700 49.36900 29.30000
C  11.02100 48.82500 27.87600
C  10.78200 50.89600 29.53100
C  9.76900 47.31500 30.62300
C  9.89500 47.70200 32.09000
H  9.71300 46.58000 33.06800
N  11.90000 48.03400 24.95000
C  12.64200 48.73000 25.81900
C  14.01500 48.93600 25.22400
C  13.97900 48.39000 23.91900
C  12.56800 47.90500 23.82400
C  15.17200 49.50800 25.98300
C  15.01500 48.35000 22.83800
O  14.80700 47.90500 21.66800
C  16.37000 48.74900 23.23300
N  9.50000 47.16000 23.31800
C  10.56000 46.96900 22.42600
C  10.09600 46.27600 21.07600
C  8.57700 45.95000 21.37700
C  8.36500 46.61500 22.73100
C  10.27700 47.14700 19.77300
C  8.31500 44.42800 21.40900
C  8.83500 43.53800 22.52300
N  7.89700 47.23100 25.52300
C  6.84900 46.90900 24.66800
C  5.56700 46.97800 25.25900
C  5.90300 47.30300 26.56300
C  7.27500 47.43900 26.69200
C  4.12800 46.85400 24.61900
C  5.25900 47.48600 27.82300
O  4.08100 47.16800 28.09900
C  6.44300 47.77300 28.82000
C  6.34800 46.73200 29.92500
O  6.50600 45.49500 29.74400
O  6.16400 47.41000 31.13700
C  6.05300 46.58200 32.28800
H  12.98000 49.59200 27.81200
H  12.45100 47.26600 21.79300
H  6.36000 46.32600 22.56500
H  8.75900 49.18100 30.18000
H  11.59400 49.01800 29.94300
H  11.58800 51.18800 30.20300
H  9.80700 51.25000 29.86700
H  11.02200 51.47300 28.63800
H  10.71000 46.91300 30.24700
H  9.10500 46.46900 30.44800
H  9.15700 48.48300 32.27400
H  10.86900 48.12000 32.34500
H  14.91000 49.48100 27.04000
H  15.47200 50.51500 25.69200
H  16.09600 48.93000 25.99800
H  16.97400 48.69200 22.32700
H  16.82600 48.04200 23.92500
H  16.20600 49.77200 23.57200
H  10.66300 45.37500 20.84000
H  7.98400 46.31200 20.53700
H  11.09600 46.73500 19.18300
H  10.53900 48.15000 20.10900
H  9.43200 47.20500 19.08700
H  8.71700 44.00900 20.48700
H  7.24200 44.27600 21.29200
H  9.53500 42.81600 22.10100
H  8.02600 42.86300 22.80100
H  9.20900 44.20400 23.30000
H  3.90500 45.97700 24.01200
H  4.14500 47.70200 23.93500
H  3.40700 47.09300 25.40100
H  6.21800 48.71300 29.32400
H  5.29800 45.83100 32.05600
H  5.86800 47.11300 33.22200
H  7.06600 46.18500 32.35000

