158

Mg 36.30000 49.55200 24.75900
C  36.38400 47.89200 27.68300
C  34.86300 52.22300 26.32100
C  35.50900 50.79100 21.72500
C  37.38000 46.53500 23.14200
N  35.60800 50.01500 26.71100
C  35.81500 49.17300 27.78700
C  35.40300 49.75800 29.18700
C  34.65300 51.02100 28.67400
C  35.07000 51.18800 27.13100
C  33.07800 51.15700 28.86800
C  36.64900 50.19000 30.08100
C  36.60000 49.95500 31.56000
H  35.29000 49.98400 32.30700
N  35.37800 51.36800 24.16600
C  34.98400 52.41700 24.94100
C  34.64000 53.54200 24.11900
C  34.66300 53.05300 22.75700
C  35.15500 51.65400 22.83300
C  34.25700 54.84200 24.68100
C  34.40500 53.81900 21.48400
O  34.57100 53.37500 20.32800
C  33.79300 55.19900 21.53100
N  36.55500 48.86800 22.79200
C  36.08800 49.50500 21.68100
C  36.42700 48.75800 20.37600
C  37.37600 47.57300 20.85100
C  37.12400 47.61700 22.38800
C  35.15400 48.31600 19.57900
C  38.89600 47.76300 20.62200
C  39.68600 46.54100 20.21000
N  36.79700 47.65400 25.27300
C  37.25800 46.52400 24.54500
C  37.59500 45.46800 25.45100
C  37.27400 45.98700 26.70300
C  36.84900 47.32100 26.54700
C  38.13200 44.14400 25.05400
C  37.23600 45.68300 28.08200
O  37.45400 44.67300 28.72700
C  36.86500 46.88100 28.76900
C  35.77300 46.53400 29.74600
O  34.56400 46.39300 29.49600
O  36.30800 46.29700 31.01300
C  35.38600 45.69000 32.01600
H  34.42000 53.02800 26.91100
H  35.18400 51.18200 20.75900
H  37.73100 45.59500 22.71300
H  34.66900 49.16100 29.72900
H  35.15600 51.91600 29.04000
H  32.82800 52.21800 28.89200
H  32.64300 50.50100 29.62200
H  32.64600 50.96600 27.88500
H  37.07800 51.17900 29.92300
H  37.45300 49.52300 29.76800
H  37.26500 50.65300 32.06800
H  37.06900 49.00200 31.80400
H  34.55000 54.92200 25.72800
H  33.17000 54.92200 24.69300
H  34.84700 55.54900 24.09800
H  32.81500 55.07300 21.99500
H  33.78600 55.63300 20.53100
H  34.51300 55.85200 22.02400
H  36.89200 49.48200 19.70800
H  37.08500 46.60700 20.43900
H  34.20200 48.72700 19.91600
H  35.05100 47.24500 19.40300
H  35.18100 48.81600 18.61100
H  39.46300 48.05800 21.50400
H  39.00000 48.59800 19.92900
H  39.14000 45.68600 20.61000
H  40.61400 46.44100 20.77400
H  39.77700 46.36200 19.13900
H  39.21600 44.18500 24.95300
H  37.67500 43.83300 24.11400
H  37.80900 43.45700 25.83600
H  37.69200 47.26700 29.36500
H  35.11200 44.68800 31.68500
H  34.50300 46.30900 32.17300
H  35.90200 45.67300 32.97600
Mg -5.99100 25.25500 25.54300
C  -4.42300 26.37800 28.28800
C  -7.88500 23.18700 27.65600
C  -7.11400 23.43300 22.85000
C  -3.69000 26.80600 23.54600
N  -6.08400 24.83900 27.71000
C  -5.45600 25.50200 28.71300
C  -5.98500 25.24400 30.12000
C  -6.85300 23.98500 29.85700
C  -6.91000 23.95300 28.26600
C  -6.29500 22.70000 30.40100
C  -6.68200 26.49200 30.78800
C  -6.07800 26.88500 32.13300
H  -5.52100 25.74500 32.97900
N  -7.50000 23.74600 25.26000
C  -8.16700 23.11200 26.26900
C  -9.08800 22.16900 25.66400
C  -8.80900 22.14000 24.28200
C  -7.79800 23.12900 24.07700
C  -9.94900 21.29700 26.37500
C  -9.53100 21.23600 23.21700
O  -9.39000 21.46400 22.00800
C  -10.49100 20.14500 23.57800
N  -5.39800 25.07200 23.41800
C  -6.03800 24.24600 22.51800
C  -5.32500 24.37100 21.12100
C  -4.34600 25.62500 21.37100
C  -4.50000 25.92300 22.89500
C  -4.64400 23.13000 20.58600
C  -4.74800 26.92300 20.47500
C  -3.56200 27.42200 19.63900
N  -4.32400 26.41000 25.86500
C  -3.49400 27.06100 24.93100
C  -2.64300 27.93000 25.64600
C  -2.96700 27.65800 27.00600
C  -3.98900 26.72400 27.04900
C  -1.76300 28.94500 24.95200
C  -2.61100 27.95400 28.35100
O  -1.69400 28.61400 28.85500
C  -3.56300 27.11400 29.18200
C  -2.51500 26.31100 30.01900
O  -1.92400 25.33800 29.59200
O  -2.43600 26.76300 31.29000
C  -1.39400 26.05700 32.14600
H  -8.45900 22.55100 28.33300
H  -7.44100 23.06800 21.87400
H  -3.12500 27.44300 22.86200
H  -5.19200 24.90500 30.78700
H  -7.90200 24.04900 30.14400
H  -5.21900 22.79700 30.54400
H  -6.38700 21.93700 29.62700
H  -6.83900 22.40700 31.29900
H  -7.76300 26.35900 30.83800
H  -6.53800 27.30200 30.07300
H  -6.87100 27.32600 32.73600
H  -5.40900 27.74600 32.11900
H  -10.93100 21.24500 25.90300
H  -10.18800 21.73700 27.34300
H  -9.42400 20.35100 26.50400
H  -10.13400 19.50300 24.38300
H  -10.73200 19.51800 22.72000
H  -11.39400 20.62400 23.95800
H  -6.14500 24.62700 20.45100
H  -3.38000 25.24100 21.04200
H  -3.57600 23.26700 20.41800
H  -5.12000 22.90900 19.63100
H  -4.78800 22.25400 21.22000
H  -4.91600 27.77600 21.13300
H  -5.74700 26.80500 20.05600
H  -2.73200 26.71900 19.56700
H  -3.23000 28.29400 20.20200
H  -4.01900 27.61300 18.66800
H  -1.38000 28.60600 23.98900
H  -0.93000 29.10400 25.63700
H  -2.28600 29.89700 24.86500
H  -4.14900 27.73700 29.85900
H  -1.86200 25.65900 33.04700
H  -0.73100 26.87000 32.44000
H  -0.80300 25.25600 31.70200

