158

Mg 3.30700 -0.37800 43.98200
C  6.25700 1.57000 44.14400
C  1.71400 2.33300 42.57700
C  0.61800 -2.34700 43.68600
C  5.10500 -3.09400 45.14800
N  4.06000 1.62300 43.21400
C  5.22600 2.23000 43.48600
C  5.27500 3.69500 42.99500
C  3.72900 4.01400 42.94700
C  3.06700 2.59200 42.91100
C  3.32300 4.95200 44.11400
C  6.03500 3.97900 41.64300
C  6.51700 2.64400 40.89600
H  7.02900 2.94600 39.49700
N  1.42200 -0.01800 43.19900
C  0.91300 1.12700 42.62600
C  -0.57400 0.93000 42.33500
C  -0.90900 -0.35600 42.74000
C  0.36600 -1.00300 43.21300
C  -1.44100 2.00500 41.72200
C  -2.31000 -0.90000 42.73300
O  -3.23300 -0.14300 42.41300
C  -2.82200 -2.29400 43.18900
N  2.97000 -2.49200 44.10300
C  1.72200 -3.01700 44.13200
C  1.76500 -4.53500 44.41400
C  3.24000 -4.82200 44.82300
C  3.83100 -3.42000 44.65300
C  0.60400 -5.09700 45.26200
C  4.05400 -5.86700 43.94400
C  4.69900 -6.91000 44.77800
N  5.32300 -0.80700 44.47200
C  5.91400 -1.88100 44.98900
C  7.29500 -1.66900 45.42300
C  7.45200 -0.29900 45.13300
C  6.24500 0.19200 44.51800
C  8.15800 -2.67900 46.16900
C  8.36700 0.85500 45.19300
O  9.48900 0.87400 45.67000
C  7.61400 2.09500 44.54700
C  7.58000 3.26600 45.48100
O  8.45400 4.10800 45.53500
O  6.53800 3.19100 46.34300
C  6.57200 4.08300 47.49900
H  1.05200 3.13200 42.23700
H  -0.23000 -3.01500 43.52300
H  5.59700 -4.00300 45.50000
H  5.80600 4.18800 43.80900
H  3.53100 4.56600 42.02800
H  3.12800 4.46700 45.07000
H  2.56200 5.65500 43.77500
H  4.18300 5.57800 44.34900
H  6.99200 4.48500 41.76900
H  5.41000 4.60400 41.00600
H  5.79000 1.83800 40.79800
H  7.36400 2.27000 41.47100
H  -2.03300 2.47800 42.50600
H  -2.02000 1.78900 40.82400
H  -0.73400 2.75300 41.36400
H  -2.69700 -2.34700 44.27100
H  -2.33100 -3.13200 42.69300
H  -3.87000 -2.39500 42.90700
H  1.56000 -5.02600 43.46300
H  3.28400 -5.19000 45.84800
H  0.98400 -5.99200 45.75300
H  -0.24800 -5.29200 44.61000
H  0.38800 -4.38200 46.05600
H  4.81100 -5.36900 43.33800
H  3.49600 -6.37200 43.15600
H  3.95300 -7.21300 45.51200
H  5.60300 -6.50700 45.23500
H  4.95400 -7.86800 44.32500
H  7.90900 -2.76800 47.22700
H  9.11200 -2.15200 46.17000
H  8.32700 -3.66100 45.72600
H  8.26900 2.44500 43.74900
H  5.97200 4.98300 47.37200
H  7.57000 4.41800 47.78100
H  6.28400 3.45800 48.34400
Mg -0.65500 43.80600 25.66400
C  1.88900 43.44700 28.06800
C  -3.00700 42.96500 28.21600
C  -2.93100 43.71000 23.42600
C  1.86300 44.30000 23.27500
N  -0.59200 43.37000 27.92300
C  0.61900 43.28700 28.64000
C  0.32000 43.05600 30.10100
C  -1.25000 42.67400 30.16000
C  -1.64500 42.98100 28.64400
C  -1.57600 41.17000 30.50200
C  0.65300 44.34000 30.87200
C  0.77900 44.32800 32.42800
H  0.81000 42.97800 33.16600
N  -2.70800 43.47300 25.85700
C  -3.50500 43.29900 26.96700
C  -4.89000 43.33500 26.53300
C  -4.82700 43.45700 25.05100
C  -3.47100 43.50600 24.71900
C  -6.08200 43.16000 27.41300
C  -5.97600 43.46400 24.04000
O  -5.91600 43.65400 22.84700
C  -7.41400 43.20700 24.61300
N  -0.45200 43.83100 23.61500
C  -1.62300 43.85700 22.89400
C  -1.39800 44.17700 21.41000
C  0.14400 44.42700 21.39100
C  0.54500 44.19800 22.83900
C  -1.89700 42.97400 20.55500
C  0.51500 45.77000 20.85400
C  0.19100 47.00200 21.71400
N  1.47100 43.96400 25.67300
C  2.35200 44.16900 24.61700
C  3.73400 44.17300 25.06700
C  3.63300 43.86300 26.45300
C  2.22600 43.76800 26.73300
C  4.90900 44.31600 24.18500
C  4.37500 43.59300 27.63200
O  5.54800 43.57500 27.89300
C  3.25700 43.39200 28.71200
C  3.51600 42.09500 29.47300
O  3.17700 41.01900 29.05200
O  4.09700 42.25700 30.71900
C  4.31500 41.01400 31.48000
H  -3.77100 42.77500 28.97300
H  -3.70200 43.88400 22.67300
H  2.68800 44.50000 22.58800
H  0.83300 42.15100 30.42700
H  -1.82400 43.35400 30.78800
H  -2.38100 41.21100 31.23600
H  -0.71500 40.57200 30.80100
H  -2.03400 40.64200 29.66600
H  -0.08900 45.10500 30.64700
H  1.53300 44.80800 30.43000
H  -0.01100 44.95900 32.83500
H  1.65300 44.83800 32.83100
H  -6.73700 42.32800 27.15500
H  -6.72900 44.03700 27.36400
H  -5.79600 43.05100 28.45900
H  -7.77200 43.90400 25.37100
H  -7.46200 42.16400 24.92600
H  -8.00200 43.32100 23.70300
H  -1.96000 45.04400 21.06300
H  0.63600 43.64400 20.81400
H  -2.04200 42.15700 21.26200
H  -1.14000 42.75600 19.80100
H  -2.84900 43.12300 20.04600
H  0.10200 45.91400 19.85600
H  1.60300 45.76200 20.78700
H  -0.21700 47.75300 21.03700
H  1.15100 47.42200 22.01500
H  -0.41100 46.78500 22.59700
H  4.89400 45.18800 23.53100
H  4.97500 43.46000 23.51400
H  5.83400 44.30800 24.76100
H  3.33500 44.24600 29.38500
H  5.33900 40.70900 31.26600
H  3.57300 40.24800 31.25300
H  4.30200 41.12800 32.56400

