158

Mg 16.52400 -1.67100 28.04800
C  15.51100 0.22100 30.72700
C  18.60300 -3.36900 30.03400
C  17.59900 -3.34500 25.26500
C  14.44500 0.19800 25.93300
N  16.97800 -1.52500 30.14500
C  16.44300 -0.73800 31.02500
C  16.95700 -0.99700 32.44400
C  18.17300 -2.00100 32.15800
C  17.93800 -2.34300 30.68300
C  19.64200 -1.46000 32.41600
C  15.85900 -1.66600 33.35700
C  15.78500 -1.26100 34.90900
H  17.04700 -0.63000 35.46700
N  17.73600 -3.33100 27.69600
C  18.51600 -3.82700 28.70600
C  19.39100 -4.77200 28.04600
C  19.03800 -4.83200 26.57600
C  18.04800 -3.84800 26.46400
C  20.35700 -5.59800 28.74100
C  19.65100 -5.70300 25.50500
O  19.24800 -5.73700 24.35100
C  20.90500 -6.39800 25.71500
N  16.25400 -1.46700 25.93100
C  16.85700 -2.26300 25.02800
C  16.46000 -1.91000 23.53700
C  15.27200 -0.92200 23.73300
C  15.29700 -0.73900 25.29400
C  17.63600 -1.43000 22.59400
C  13.85900 -1.28000 23.23700
C  13.18900 -0.29100 22.34300
N  15.22300 -0.09300 28.23000
C  14.44500 0.52600 27.28300
C  13.61100 1.49200 28.06900
C  13.95300 1.36100 29.36200
C  15.00800 0.44300 29.42500
C  12.64500 2.44800 27.59000
C  13.79200 1.92500 30.66200
O  12.95800 2.74900 31.01900
C  14.72700 1.17300 31.64900
C  15.63200 2.16600 32.25400
O  16.45900 2.86900 31.65000
O  15.31800 2.19900 33.58900
C  16.12300 3.16000 34.30700
H  19.29800 -3.87600 30.70700
H  18.15800 -3.81400 24.45300
H  13.73100 0.78700 25.35400
H  17.33700 -0.02700 32.76500
H  18.11400 -2.94100 32.70600
H  20.16600 -1.30600 31.47300
H  20.22800 -2.11600 33.06000
H  19.47300 -0.46100 32.81800
H  16.05300 -2.73600 33.28500
H  14.89600 -1.52100 32.86700
H  15.57200 -2.14700 35.50700
H  14.98900 -0.62400 35.29300
H  21.35800 -5.17200 28.68100
H  20.47700 -6.67900 28.66800
H  19.98700 -5.55100 29.76600
H  21.32000 -6.57700 24.72300
H  20.75800 -7.36800 26.18900
H  21.55400 -5.75800 26.31300
H  16.10300 -2.86000 23.13800
H  15.51800 0.03200 23.26600
H  17.35500 -0.48900 22.12200
H  17.74400 -2.25100 21.88500
H  18.49900 -1.48600 23.25800
H  13.21600 -1.49100 24.09200
H  14.04500 -2.19800 22.68000
H  12.45800 -0.82200 21.73200
H  13.96400 -0.07200 21.60900
H  12.69600 0.56900 22.79700
H  12.08000 1.83100 26.89100
H  13.01200 3.23900 26.93600
H  12.03300 2.88400 28.38000
H  14.13500 0.47500 32.24200
H  15.55700 4.08600 34.19800
H  17.07000 3.38200 33.81600
H  16.23400 2.95000 35.37100
Mg 34.43600 3.58400 29.48300
C  32.27500 4.52700 32.10400
C  36.98300 3.37600 31.74700
C  36.59300 3.21000 26.99100
C  31.95800 4.26500 27.18500
N  34.58600 3.83000 31.65900
C  33.56900 4.24800 32.57100
C  34.05900 4.21200 34.03500
C  35.64800 4.05500 33.85300
C  35.73600 3.69400 32.35700
C  36.59400 5.26200 34.18900
C  33.34000 3.08800 34.85000
C  33.01700 3.31200 36.32700
H  34.07800 4.11500 37.05700
N  36.43100 3.14000 29.40100
C  37.31000 2.96000 30.46200
C  38.57800 2.49700 29.97900
C  38.52900 2.50100 28.56800
C  37.11900 2.94200 28.26300
C  39.64600 1.97400 30.88100
C  39.59500 2.28900 27.52900
O  39.43000 2.31300 26.30300
C  40.98200 1.98300 27.94100
N  34.30200 3.84000 27.30000
C  35.32200 3.61000 26.50100
C  34.91300 3.79900 25.04100
C  33.36100 3.92200 25.10500
C  33.16500 3.95200 26.61700
C  35.74500 4.82600 24.14800
C  32.60500 2.77600 24.44200
C  31.18900 3.14300 24.02800
N  32.46900 4.18900 29.61700
C  31.60200 4.37400 28.55700
C  30.33200 4.74400 29.12700
C  30.55300 4.88900 30.50400
C  31.84000 4.39500 30.76900
C  29.07900 5.12100 28.36800
C  29.96900 5.33200 31.79800
O  28.84800 5.78000 32.07800
C  31.05100 5.02800 32.86200
C  31.29200 6.34500 33.71000
O  31.87400 7.35100 33.34200
O  30.74500 6.16200 35.01100
C  30.66300 7.33900 35.86600
H  37.74700 3.12700 32.48700
H  37.22000 2.90100 26.15200
H  31.17800 4.65500 26.52900
H  33.80200 5.18100 34.46400
H  35.95400 3.17100 34.41200
H  37.28500 4.95900 34.97500
H  36.04500 6.09100 34.63400
H  37.10600 5.51400 33.26000
H  33.95300 2.18700 34.85100
H  32.40400 2.86400 34.33700
H  32.88000 2.34500 36.81000
H  32.00900 3.71600 36.41800
H  40.16800 1.12600 30.43800
H  39.15800 1.58000 31.77300
H  40.41600 2.72900 31.04100
H  41.70100 2.39100 27.23000
H  41.11300 0.91000 28.08100
H  41.32400 2.36600 28.90300
H  35.32800 2.88900 24.60700
H  33.06700 4.92100 24.78300
H  36.44100 4.31500 23.48300
H  36.32100 5.50600 24.77600
H  35.17900 5.41000 23.42400
H  32.50200 1.94000 25.13300
H  33.05300 2.33100 23.55400
H  30.98700 3.31400 22.97000
H  30.79600 3.96600 24.62500
H  30.60200 2.26600 24.30000
H  28.96900 4.58400 27.42600
H  28.91000 6.17300 28.14100
H  28.21200 4.72600 28.89800
H  30.71700 4.20600 33.49500
H  29.59500 7.37900 36.08000
H  31.06900 8.27700 35.48700
H  31.33200 7.10700 36.69500

