158

Mg 40.11400 9.50700 29.07200
C  42.44500 10.85200 31.62700
C  37.97400 8.72300 31.53000
C  38.15900 8.11900 26.74300
C  42.53200 10.10400 26.80700
N  40.34300 9.60000 31.31000
C  41.19900 10.30800 32.13700
C  40.62200 10.38700 33.52400
C  39.28200 9.43800 33.53600
C  39.13700 9.23100 32.03800
C  39.35600 8.22200 34.42200
C  40.24700 11.76700 34.05100
C  39.90500 11.87800 35.56600
H  40.86000 12.44300 36.56400
N  38.27500 8.59300 29.06400
C  37.63400 8.34900 30.23000
C  36.43700 7.55700 29.86000
C  36.37400 7.49300 28.46500
C  37.64100 8.09700 28.03000
C  35.57500 6.91000 30.93200
C  35.32700 6.87100 27.52900
O  35.58500 6.88800 26.32600
C  34.01800 6.30100 27.98100
N  40.30300 9.19300 27.12700
C  39.38600 8.61500 26.29300
C  39.80900 8.54800 24.74800
C  41.21100 9.22900 24.79400
C  41.36100 9.56800 26.34500
C  39.84000 7.10800 24.17800
C  41.49800 10.31200 23.81400
C  41.06300 11.76800 24.10300
N  42.04100 10.41500 29.13500
C  42.91300 10.60000 28.07900
C  44.09800 11.23700 28.52700
C  43.97500 11.35200 29.92000
C  42.74400 10.83500 30.25800
C  45.24400 11.58400 27.66900
C  44.58800 11.85300 31.11400
O  45.58200 12.49400 31.28000
C  43.48900 11.59800 32.33300
C  44.00900 10.79700 33.50500
O  44.27400 9.63400 33.65600
O  44.09700 11.70700 34.51600
C  44.26700 11.07600 35.85600
H  37.19000 8.72700 32.29000
H  37.67000 7.57300 25.93300
H  43.31600 10.28800 26.06900
H  41.39700 9.95900 34.16100
H  38.47700 10.07100 33.90900
H  40.16400 8.27000 35.15200
H  39.51100 7.42200 33.69900
H  38.45500 8.30300 35.03100
H  39.30100 12.03400 33.58000
H  41.09900 12.41600 33.85100
H  39.73700 10.84100 35.85800
H  38.98600 12.43900 35.73300
H  36.18300 6.21200 31.50800
H  34.71200 6.33300 30.60000
H  35.13500 7.65100 31.59900
H  33.76800 7.01200 28.76900
H  34.19700 5.26100 28.25500
H  33.23000 6.49500 27.25400
H  39.21800 9.15100 24.05800
H  42.03500 8.55600 24.55900
H  40.68000 6.83900 23.53700
H  38.85700 7.02300 23.71500
H  39.86800 6.42900 25.03100
H  41.14700 9.97900 22.83700
H  42.57100 10.34000 23.62500
H  40.74900 12.19200 23.14900
H  41.85700 12.41700 24.47400
H  40.22300 11.74900 24.79700
H  45.55300 12.59800 27.92200
H  44.88900 11.47900 26.64400
H  46.10300 10.99200 27.98600
H  43.26000 12.60500 32.68200
H  45.22500 10.56600 35.95700
H  43.46600 10.35900 36.03900
H  44.21400 11.86900 36.60200
Mg 27.07000 51.01000 25.37200
C  25.31100 52.20700 28.19200
C  29.66400 50.03600 27.56000
C  28.87800 49.91900 22.61100
C  24.81300 52.56700 23.30400
N  27.45100 51.10800 27.59600
C  26.50000 51.51800 28.59100
C  27.09500 51.28200 29.96500
C  28.50400 50.65000 29.72000
C  28.58400 50.66400 28.20700
C  29.75700 51.24400 30.61400
C  26.27400 50.50300 31.01000
C  26.08600 51.28700 32.37000
H  25.37800 50.50800 33.43500
N  28.92700 50.04100 25.13700
C  29.82400 49.67100 26.20700
C  30.99300 48.97300 25.61200
C  30.67200 48.92500 24.23400
C  29.45600 49.66900 23.94400
C  32.11800 48.44900 26.51300
C  31.35000 48.08400 23.28300
O  30.94600 47.85300 22.14000
C  32.48500 47.29700 23.71100
N  26.92400 51.34400 23.21000
C  27.67000 50.66200 22.29400
C  27.14200 50.87300 20.84600
C  25.76700 51.51500 21.08700
C  25.78900 51.86800 22.61700
C  28.19900 51.53400 19.94600
C  24.50400 50.81600 20.62200
C  23.40200 51.71400 20.06600
N  25.46800 52.27200 25.61200
C  24.67000 52.85300 24.65500
C  23.57200 53.53800 25.23800
C  23.78000 53.32400 26.69000
C  24.92300 52.46700 26.83200
C  22.47600 54.31200 24.55900
C  23.25000 53.58500 28.05400
O  22.28100 54.16700 28.41600
C  24.28500 52.91400 29.07000
C  24.76200 53.87200 30.04200
O  25.80400 54.54900 29.96000
O  23.86700 53.88800 31.03600
C  24.25400 54.76700 32.21900
H  30.32300 49.57200 28.29700
H  29.34500 49.52100 21.70700
H  24.03200 52.93300 22.63400
H  27.15400 52.30300 30.34100
H  28.45400 49.63000 30.10000
H  30.32100 51.83500 29.89200
H  30.42300 50.54400 31.11800
H  29.35800 51.92500 31.36500
H  26.70700 49.51300 31.15000
H  25.31400 50.29500 30.53800
H  25.60700 52.24200 32.15100
H  27.10800 51.44700 32.71300
H  32.19100 47.36200 26.50100
H  32.05400 48.81700 27.53700
H  33.07800 48.85400 26.19200
H  33.27600 48.00100 23.96800
H  32.78200 46.60300 22.92500
H  32.16700 46.65300 24.53100
H  26.97100 49.89500 20.39600
H  25.80600 52.46800 20.56100
H  28.86300 52.12900 20.57300
H  27.74300 52.22200 19.23500
H  28.69600 50.80700 19.30300
H  24.17400 50.34000 21.54500
H  24.71100 50.06500 19.85900
H  23.76200 52.74000 19.98300
H  22.52200 51.67500 20.70700
H  22.99800 51.39700 19.10400
H  22.76100 54.78800 23.62000
H  21.94400 54.98600 25.23000
H  21.80000 53.49600 24.30700
H  23.75800 52.14100 29.62900
H  24.92900 54.15800 32.82000
H  23.35100 54.96300 32.79700
H  24.76900 55.70800 32.02500

