158

Mg 48.74500 44.97800 42.68500
C  45.22200 44.64700 42.60800
C  48.89000 41.50700 42.18400
C  52.04700 45.29900 42.39800
C  48.27200 48.42900 42.64600
N  47.06200 43.28900 42.31200
C  45.76800 43.39600 42.51500
C  45.13200 42.00400 42.46100
C  46.32000 40.98300 42.43000
C  47.50700 41.98300 42.24500
C  46.43900 40.08700 43.67200
C  44.22300 41.75200 41.19800
C  44.83300 42.09600 39.74000
H  44.88400 40.96900 38.72500
N  50.33000 43.58000 42.21500
C  50.14200 42.25000 42.07600
C  51.52100 41.69500 41.89500
C  52.41700 42.82500 41.85900
C  51.60700 43.98400 42.18000
C  51.76400 40.28000 41.61400
C  53.96900 42.82200 41.63000
O  54.56400 41.76400 41.34600
C  54.86500 44.04300 41.63300
N  49.98700 46.62800 42.29900
C  51.30900 46.44100 42.55300
C  52.01200 47.69800 43.01500
C  50.86200 48.71900 42.82700
C  49.60800 47.91300 42.58200
C  52.72200 47.56200 44.45900
C  51.01800 49.76000 41.59000
C  50.47800 51.10100 41.89200
N  47.15200 46.24600 42.69100
C  47.07200 47.64400 42.63400
C  45.70800 48.11200 42.71600
C  44.94500 46.94000 42.69100
C  45.86700 45.86500 42.65700
C  45.21600 49.55000 42.75600
C  43.66000 46.47900 42.68700
O  42.66900 47.14900 42.77600
C  43.73100 44.99900 42.62000
C  42.97700 44.24100 43.61300
O  41.96600 43.55700 43.38000
O  43.55800 44.43300 44.84600
C  42.90000 43.69400 46.02200
H  48.96900 40.41900 42.24200
H  53.10000 45.44100 42.65100
H  48.20700 49.47100 42.96800
H  44.50300 41.94100 43.35000
H  46.19500 40.31000 41.58200
H  46.09000 39.06400 43.53200
H  46.01600 40.50400 44.58600
H  47.52000 40.11200 43.80100
H  43.28500 42.30100 41.28000
H  43.83300 40.74800 41.36900
H  45.79100 42.55400 39.98800
H  44.23700 42.84500 39.21900
H  52.82900 40.04600 41.61200
H  51.30900 40.06900 40.64700
H  51.25500 39.63600 42.33200
H  54.53100 44.90500 41.05600
H  55.90200 43.76300 41.44800
H  54.87600 44.21600 42.70900
H  52.67800 48.00400 42.20900
H  50.78000 49.18700 43.80800
H  53.74400 47.93900 44.48800
H  52.69500 46.56200 44.89000
H  52.20300 48.16200 45.20700
H  50.66900 49.34800 40.64300
H  52.07000 50.02200 41.47500
H  51.20400 51.90800 41.99400
H  49.96900 50.93900 42.84300
H  49.80100 51.43800 41.10700
H  45.71200 50.06200 43.58100
H  44.13500 49.66300 42.84300
H  45.57300 49.98300 41.82200
H  43.22300 44.65200 41.72000
H  41.92400 43.30100 45.73600
H  42.74600 44.37500 46.85900
H  43.49900 42.83900 46.33600
Mg 30.52600 58.93000 39.74200
C  27.51000 57.16800 38.97400
C  32.26300 56.19000 38.42000
C  33.25300 60.68900 39.76000
C  28.56000 61.73900 40.50300
N  29.91700 56.95900 38.78300
C  28.67300 56.42900 38.63700
C  28.74100 55.05500 37.95500
C  30.14400 54.59400 38.34600
C  30.85700 56.00300 38.49800
C  30.35200 53.55200 39.54600
C  28.37600 55.15800 36.44600
C  26.98400 54.68400 35.94200
H  26.34800 55.52400 34.82300
N  32.45000 58.50400 39.10200
C  33.02100 57.29900 38.60200
C  34.43100 57.47400 38.46800
C  34.79000 58.73200 38.92700
C  33.51600 59.38700 39.28200
C  35.28600 56.39500 37.79700
C  36.19700 59.21700 39.09400
O  37.13900 58.51000 38.75900
C  36.43800 60.53200 39.61000
N  30.84000 60.96500 39.86000
C  32.12500 61.42600 39.92700
C  32.15000 62.86200 40.53800
C  30.65500 63.21900 40.64300
C  29.99000 61.90900 40.38300
C  32.85000 63.01400 41.87600
C  30.10100 64.46000 39.86500
C  29.14600 65.36200 40.63700
N  28.46600 59.39200 39.81800
C  27.76200 60.59400 40.22800
C  26.32800 60.39100 40.18000
C  26.21000 59.04000 39.77500
C  27.51500 58.55800 39.47800
C  25.31700 61.49700 40.54300
C  25.22900 58.05100 39.40700
O  23.99200 58.06500 39.36500
C  26.04600 56.77000 38.80400
C  25.55700 55.63500 39.63700
O  26.00500 55.31900 40.73300
O  24.58300 54.94700 39.00400
C  23.94100 53.85900 39.82100
H  32.71700 55.23300 38.15700
H  34.10400 61.32800 40.00400
H  28.16100 62.62100 41.00900
H  28.04300 54.36500 38.42900
H  30.58800 54.06400 37.50400
H  29.45400 53.19500 40.05000
H  30.88700 54.23800 40.20300
H  31.04800 52.76900 39.24500
H  29.09600 54.48400 35.98200
H  28.52900 56.18800 36.12300
H  26.33800 54.58300 36.81400
H  27.16900 53.69300 35.52500
H  35.75200 55.66200 38.45600
H  36.11900 56.85800 37.26800
H  34.77600 55.85000 37.00300
H  36.06300 60.65900 40.62500
H  35.95000 61.22700 38.92600
H  37.49800 60.77200 39.52300
H  32.57100 63.45600 39.72600
H  30.25500 63.32600 41.65100
H  32.23800 63.52900 42.61600
H  33.76900 63.50900 41.56000
H  33.07200 62.00200 42.21200
H  29.45000 64.07500 39.08000
H  30.90100 65.03400 39.39800
H  29.68300 66.20100 41.08100
H  28.63500 64.86000 41.45900
H  28.34400 65.74300 40.00600
H  24.40300 61.36400 39.96400
H  25.59300 62.53600 40.36600
H  25.06900 61.39300 41.59900
H  25.64900 56.75600 37.78900
H  24.35600 52.86400 39.66000
H  22.91000 53.95000 39.48000
H  24.01100 54.07300 40.88800

