158

Mg 7.91600 3.23600 27.25900
C  8.94900 1.50500 30.10800
C  5.74900 4.93900 29.18100
C  6.61000 4.50500 24.37100
C  10.01400 1.12500 25.37700
N  7.31600 3.07900 29.47800
C  7.89900 2.37800 30.45200
C  7.52400 2.97300 31.85800
C  6.37700 3.92000 31.50000
C  6.45800 4.00400 29.96900
C  4.92100 3.57600 31.98700
C  8.70000 3.69500 32.62300
C  8.36700 4.12900 34.03800
H  9.40100 4.02100 35.15700
N  6.48100 4.67400 26.88300
C  5.70400 5.27700 27.85200
C  4.92800 6.23900 27.15900
C  5.09200 6.09400 25.73900
C  6.04400 4.99700 25.55900
C  4.02700 7.24700 27.89800
C  4.47300 6.84700 24.57300
O  4.63200 6.59700 23.38400
C  3.73500 8.09200 24.91100
N  8.29400 2.87300 25.20500
C  7.68000 3.58000 24.23900
C  8.22700 3.18700 22.86000
C  9.42700 2.30400 23.18500
C  9.31600 2.08600 24.66400
C  7.13800 2.58200 22.01200
C  10.85400 2.94000 22.86900
C  11.35600 2.34600 21.54800
N  9.17300 1.52200 27.59800
C  10.01500 0.85600 26.73000
C  10.84400 -0.04400 27.53300
C  10.55800 0.21500 28.88200
C  9.45000 1.14000 28.84500
C  11.73200 -1.17000 27.04400
C  10.82900 -0.11700 30.24600
O  11.65500 -0.88100 30.69800
C  9.83400 0.79200 31.07500
C  9.12500 -0.02600 32.03200
O  8.28300 -0.88000 31.80700
O  9.64000 0.30300 33.27100
C  9.28000 -0.57900 34.42800
H  5.10200 5.52300 29.83900
H  6.17400 4.76800 23.40500
H  10.53800 0.51800 24.63600
H  7.08500 2.15700 32.43200
H  6.59300 4.85400 32.01800
H  4.14900 3.78500 31.24600
H  4.71800 4.26700 32.80600
H  4.82200 2.57300 32.40200
H  9.05100 4.57400 32.08200
H  9.58100 3.05400 32.59600
H  7.54700 3.50200 34.38800
H  8.13900 5.19500 34.01000
H  2.99000 6.91200 27.89400
H  4.07600 8.26500 27.51000
H  4.33800 7.30000 28.94100
H  2.85300 7.85800 25.50800
H  3.45000 8.62100 24.00200
H  4.48500 8.72900 25.38000
H  8.58600 4.13900 22.47000
H  9.41700 1.28100 22.80900
H  6.12700 2.67500 22.41000
H  7.33300 1.52800 21.81300
H  7.03400 3.04100 21.02900
H  11.56300 2.61900 23.63100
H  10.83500 4.02900 22.82200
H  12.03600 1.53400 21.80600
H  11.86100 3.05600 20.89200
H  10.52600 2.04500 20.90900
H  11.12400 -1.67100 26.29100
H  11.97500 -1.88500 27.83000
H  12.68900 -0.86200 26.62200
H  10.57500 1.42000 31.56900
H  8.54400 -0.08300 35.06100
H  10.20700 -0.72700 34.98200
H  8.95300 -1.59300 34.19900
Mg 23.96100 -4.69200 46.18400
C  25.81900 -2.24200 44.51800
C  21.38700 -4.07000 43.82800
C  22.40500 -7.67300 46.97400
C  26.77100 -5.65000 47.86700
N  23.73900 -3.35300 44.34900
C  24.58000 -2.38800 43.90300
C  24.15000 -1.58700 42.71200
C  22.54300 -1.91500 42.82300
C  22.49300 -3.18100 43.70700
C  21.60500 -0.80500 43.43000
C  24.79900 -2.07900 41.45300
C  25.55600 -1.04000 40.58100
H  25.01100 -0.87200 39.13300
N  22.17000 -5.65400 45.63800
C  21.26900 -5.23100 44.73400
C  20.10700 -6.03400 44.78700
C  20.26700 -7.08600 45.71600
C  21.67100 -6.85000 46.15100
C  18.89000 -5.70300 43.92200
C  19.31200 -8.14800 46.09400
O  18.23000 -8.15100 45.55500
C  19.64200 -9.22000 47.17500
N  24.53700 -6.45800 47.36900
C  23.64900 -7.47800 47.58100
C  24.38600 -8.59700 48.33400
C  25.78300 -7.98700 48.58100
C  25.70000 -6.60400 47.98000
C  23.65000 -9.12800 49.72200
C  26.99600 -8.79600 47.91400
C  28.18800 -8.96200 48.85100
N  25.88700 -3.97400 46.44100
C  26.90900 -4.43000 47.22600
C  28.02300 -3.49500 47.13200
C  27.62700 -2.64300 46.13100
C  26.27700 -2.97000 45.69100
C  29.36500 -3.65600 47.74800
C  28.01800 -1.50300 45.38800
O  29.05200 -0.86900 45.47600
C  26.87300 -1.26800 44.21500
C  26.51500 0.11600 44.21100
O  25.84100 0.63100 45.09600
O  27.09600 0.73600 43.13200
C  27.29400 2.15800 43.33700
H  20.45400 -3.89900 43.28800
H  22.03800 -8.69300 47.10700
H  27.63500 -5.94100 48.46700
H  24.25500 -0.51300 42.86500
H  22.15000 -2.07200 41.81800
H  22.30900 -0.08600 43.85000
H  21.08800 -1.27700 44.26500
H  20.97300 -0.32700 42.68100
H  24.02600 -2.42100 40.76500
H  25.49800 -2.89300 41.64600
H  26.58800 -1.38700 40.54700
H  25.58500 -0.09000 41.11300
H  19.18300 -5.39700 42.91800
H  18.46100 -4.80200 44.36000
H  18.13100 -6.48500 43.96900
H  20.39000 -9.93100 46.82300
H  18.74500 -9.82900 47.28300
H  19.77500 -8.71900 48.13400
H  24.44300 -9.43300 47.63700
H  26.01500 -7.81400 49.63200
H  23.77000 -10.21200 49.73000
H  22.62600 -8.75500 49.72700
H  24.06000 -8.87200 50.69900
H  27.47200 -8.40900 47.01200
H  26.68800 -9.80500 47.64200
H  28.02700 -9.84100 49.47500
H  28.30500 -8.04200 49.42400
H  29.13500 -8.95600 48.31200
H  29.58500 -4.66200 48.10500
H  29.48800 -2.91100 48.53300
H  30.06500 -3.38000 46.96000
H  27.29400 -1.49300 43.23500
H  28.03200 2.51100 42.61600
H  27.53800 2.43400 44.36300
H  26.39600 2.70100 43.04500

