158

Mg 55.24900 24.03400 45.13700
C  52.95400 26.49400 44.05200
C  53.16300 21.61300 44.11300
C  57.92100 21.86800 44.92000
C  57.57100 26.57800 45.88500
N  53.27100 24.07000 44.12000
C  52.51000 25.15500 43.83600
C  51.07000 24.63500 43.36600
C  51.16500 23.15000 43.80800
C  52.61600 22.88900 44.02100
C  50.33300 22.74300 44.98100
C  50.67900 24.84600 41.88500
C  49.25500 25.19900 41.60600
H  48.57900 24.83900 40.27200
N  55.54900 21.98200 44.62200
C  54.48400 21.17200 44.39800
C  55.01200 19.81100 44.20800
C  56.39300 19.81300 44.50000
C  56.74100 21.23300 44.63600
C  54.09900 18.60800 43.73800
C  57.28700 18.61500 44.69500
O  56.94100 17.50200 44.29200
C  58.65900 18.69500 45.39900
N  57.50100 24.28400 45.16600
C  58.33700 23.21100 45.25900
C  59.77900 23.55400 45.52500
C  59.66700 25.06600 45.96200
C  58.16300 25.34100 45.67000
C  60.54800 22.78900 46.57700
C  60.65900 26.07500 45.30500
C  61.37200 27.14300 46.24600
N  55.22800 26.09100 45.27800
C  56.21500 26.97800 45.53800
C  55.60500 28.33400 45.48900
C  54.38200 28.18200 44.87600
C  54.18300 26.78300 44.71200
C  56.37200 29.55800 45.87800
C  53.25200 28.93200 44.31300
O  53.08800 30.11500 44.25100
C  52.28200 27.84900 43.75800
C  52.06300 28.23500 42.32800
O  52.94300 28.53500 41.53600
O  50.71800 28.30400 42.01600
C  50.30400 28.67700 40.61700
H  52.37700 20.87000 43.96500
H  58.79400 21.23700 45.09600
H  58.25400 27.29400 46.34500
H  50.41200 25.23200 43.99700
H  50.78500 22.64600 42.91900
H  49.61600 23.48300 45.33700
H  50.96500 22.42000 45.80800
H  49.84500 21.82200 44.66300
H  50.95700 23.99400 41.26500
H  51.31700 25.61800 41.45600
H  49.15600 26.28400 41.64600
H  48.63900 24.66700 42.33100
H  53.95000 18.04900 44.66200
H  54.53000 17.96500 42.97000
H  53.26100 19.07200 43.21700
H  59.45200 19.01400 44.72200
H  58.63600 17.70100 45.84700
H  58.49800 19.26000 46.31700
H  60.28000 23.47200 44.56000
H  59.75500 25.13900 47.04600
H  61.10200 22.01800 46.04300
H  59.93200 22.24100 47.28900
H  61.29400 23.46400 46.99700
H  60.18600 26.62100 44.48800
H  61.49100 25.53700 44.85000
H  61.09800 28.17400 46.02300
H  62.42800 27.01400 46.00900
H  61.34800 26.96400 47.32100
H  56.09100 29.98400 46.84100
H  56.20200 30.44100 45.26200
H  57.40500 29.34400 46.15300
H  51.31300 27.84500 44.25800
H  51.17300 29.02500 40.05800
H  49.54200 29.45600 40.63100
H  49.86200 27.80400 40.13700
Mg 41.57600 41.37000 26.53100
C  40.80800 43.81800 28.93000
C  42.98900 39.38700 28.98500
C  42.37600 39.00100 24.23900
C  40.47600 43.48600 24.13400
N  41.84400 41.54100 28.83800
C  41.42300 42.70300 29.59100
C  41.76700 42.38400 31.01600
C  42.65300 41.07100 30.94700
C  42.51600 40.58400 29.48700
C  44.10700 41.40700 31.36500
C  40.45100 42.11600 31.89100
C  40.74300 41.66700 33.38100
H  39.75400 42.22300 34.51100
N  42.48600 39.39400 26.62500
C  42.99200 38.82300 27.69000
C  43.72300 37.65700 27.28100
C  43.26200 37.34000 25.97200
C  42.71700 38.61400 25.55300
C  44.51400 36.76600 28.35800
C  43.20000 36.02200 25.13300
O  42.68200 35.90800 24.06300
C  43.72600 34.75400 25.70300
N  41.46100 41.26800 24.49900
C  41.85400 40.21700 23.71100
C  41.52200 40.37700 22.20000
C  40.83800 41.80800 22.14500
C  40.88000 42.17600 23.72400
C  42.83800 40.06100 21.36900
C  39.40800 41.77800 21.54000
C  38.40800 40.97400 22.44800
N  40.85100 43.23400 26.47400
C  40.51100 44.04600 25.44000
C  40.00300 45.35700 25.88500
C  40.08900 45.25000 27.28000
C  40.60300 43.98500 27.59100
C  39.45500 46.52500 25.02600
C  39.88800 45.99400 28.54900
O  39.43400 47.13100 28.72200
C  40.29200 45.03600 29.64800
C  41.21900 45.73100 30.58500
O  42.37400 46.01400 30.38500
O  40.52400 45.99000 31.78000
C  41.30000 46.70500 32.79300
H  43.63900 38.94300 29.74200
H  42.53400 38.31700 23.40200
H  40.26700 44.13100 23.27900
H  42.34700 43.23500 31.37400
H  42.29600 40.33400 31.66700
H  44.60300 40.44300 31.25100
H  44.15500 41.66900 32.42200
H  44.66900 42.04700 30.68500
H  39.98000 41.33400 31.29500
H  39.83100 43.01200 31.87700
H  41.77800 41.87200 33.65100
H  40.70300 40.58300 33.48000
H  44.75900 37.31800 29.26600
H  45.37000 36.16200 28.05600
H  43.72200 36.08300 28.66400
H  44.78700 34.77700 25.45500
H  43.17100 33.88600 25.34700
H  43.61100 34.69400 26.78500
H  40.81400 39.62100 21.85900
H  41.54100 42.37200 21.53300
H  43.76600 39.87500 21.91000
H  43.07300 40.82900 20.63200
H  42.56500 39.14400 20.84800
H  39.48300 41.15900 20.64600
H  39.02200 42.76300 21.27600
H  37.47300 41.49800 22.64600
H  38.76200 40.58700 23.40300
H  38.08300 40.05300 21.96500
H  38.95600 46.06600 24.17300
H  40.18500 47.20000 24.58000
H  38.77900 46.92400 25.78200
H  39.35100 44.83500 30.15900
H  42.16500 47.28900 32.48000
H  41.67100 45.99600 33.53300
H  40.69100 47.35500 33.42200

