158

Mg 36.09200 2.01300 28.61500
C  33.97500 3.17500 31.34300
C  38.60300 2.16300 30.90100
C  38.05800 1.34300 26.09200
C  33.32900 2.16300 26.52900
N  36.14700 2.60200 30.80900
C  35.24700 2.91000 31.76800
C  35.74600 2.85400 33.24100
C  37.29700 3.05400 32.94800
C  37.39400 2.45000 31.47600
C  37.91000 4.47700 33.15200
C  35.26100 1.61100 34.08400
C  35.00900 1.92700 35.58700
H  35.68300 3.24700 36.14000
N  38.06500 1.63800 28.49000
C  38.93500 1.81000 29.55200
C  40.26700 1.49000 29.06400
C  40.18300 1.33600 27.64700
C  38.73700 1.39200 27.36000
C  41.45100 1.42300 29.96700
C  41.26200 1.01200 26.62900
O  40.90800 0.75200 25.47300
C  42.72200 0.92400 27.01400
N  35.73800 1.56900 26.64500
C  36.68300 1.36300 25.74000
C  36.16400 1.24900 24.31600
C  34.67100 1.27800 24.47300
C  34.50100 1.65600 25.97400
C  36.78200 2.35500 23.38200
C  33.85600 0.01800 24.24600
C  32.58500 0.21500 23.30400
N  34.10900 2.62700 28.83200
C  33.06600 2.56000 27.87500
C  31.88700 3.12800 28.45000
C  32.13500 3.29400 29.83500
C  33.50700 2.96400 30.03200
C  30.64500 3.39900 27.55800
C  31.62100 3.85500 31.07600
O  30.63300 4.51300 31.24900
C  32.69400 3.54500 32.13400
C  32.85700 4.81000 32.94300
O  33.65100 5.66700 32.81700
O  31.94100 4.73100 33.97700
C  31.95400 5.76500 34.94500
H  39.45500 2.20300 31.58300
H  38.64900 1.14900 25.19500
H  32.48300 2.47100 25.91100
H  35.35900 3.75800 33.70900
H  37.99100 2.45900 33.54200
H  37.13300 5.11100 33.57900
H  38.28400 4.87200 32.20700
H  38.72000 4.39700 33.87700
H  36.09900 0.93100 33.93000
H  34.43200 1.03800 33.66900
H  35.15300 1.07600 36.25300
H  33.93200 2.08500 35.52700
H  41.30400 1.29800 31.04000
H  42.06300 2.31700 29.85000
H  41.92500 0.52000 29.58100
H  42.92200 1.70000 27.75300
H  43.35900 1.05000 26.13900
H  42.89100 -0.06700 27.43400
H  36.44200 0.24400 23.99800
H  34.31500 2.12300 23.88300
H  37.54600 2.99200 23.82900
H  35.97100 2.97500 23.00100
H  37.35500 1.87200 22.59000
H  33.48000 -0.47500 25.14300
H  34.48900 -0.72100 23.75400
H  31.67500 0.09900 23.89300
H  32.50500 -0.50000 22.48600
H  32.60000 1.20800 22.85300
H  30.39800 2.42300 27.14100
H  30.97900 4.09600 26.78900
H  29.70900 3.66400 28.05000
H  32.29900 2.71400 32.71800
H  30.97000 6.03600 35.32800
H  32.64600 6.58500 34.74700
H  32.52400 5.22600 35.70100
Mg 0.42000 43.29600 25.08700
C  2.85900 42.74200 27.69500
C  -1.92300 42.35000 27.32600
C  -1.53700 42.97700 22.43200
C  3.19500 43.85800 22.85800
N  0.45600 42.70300 27.29200
C  1.53800 42.47100 28.08000
C  1.00800 42.15600 29.46600
C  -0.49000 41.90800 29.33700
C  -0.66600 42.37300 27.87700
C  -0.95400 40.38300 29.62100
C  1.24900 43.38400 30.34200
C  0.92800 43.30200 31.82900
H  0.32000 41.92900 32.39600
N  -1.52500 42.75900 24.93000
C  -2.38700 42.43400 25.96300
C  -3.67800 42.03800 25.42900
C  -3.58800 42.23900 24.00500
C  -2.15500 42.66300 23.70100
C  -4.84400 41.58900 26.18000
C  -4.63700 42.02900 22.95100
O  -4.35700 42.16900 21.76800
C  -5.99900 41.55800 23.31900
N  0.76900 43.30100 23.01600
C  -0.24900 43.41300 22.12200
C  0.17700 43.82800 20.73200
C  1.64800 44.14000 20.91900
C  1.91000 43.68300 22.34300
C  -0.22700 42.87400 19.61500
C  2.10000 45.54800 20.54800
C  2.19300 46.65000 21.62100
N  2.57900 43.39600 25.20300
C  3.52000 43.66300 24.21300
C  4.83300 43.66000 24.81900
C  4.65900 43.31300 26.17000
C  3.24700 43.11400 26.36400
C  6.12300 43.84000 24.06100
C  5.36100 43.06400 27.43100
O  6.58000 43.07700 27.72100
C  4.15600 42.78200 28.47500
C  4.44800 41.63400 29.41100
O  4.53200 40.44900 29.12000
O  4.48600 42.16100 30.67700
C  4.64400 41.23900 31.72000
H  -2.70600 42.16600 28.06500
H  -2.20100 42.89500 21.56900
H  4.06200 44.25800 22.32800
H  1.46700 41.25300 29.86700
H  -1.03000 42.68500 29.87700
H  -0.22600 39.87700 30.25400
H  -1.08300 39.89200 28.65600
H  -1.80400 40.37300 30.30400
H  0.82100 44.33000 30.00900
H  2.31000 43.63500 30.35300
H  0.21400 44.07000 32.12800
H  1.83500 43.59300 32.36100
H  -5.25900 40.68600 25.73200
H  -5.55700 42.40400 26.30300
H  -4.52700 41.34200 27.19300
H  -6.48400 42.23100 24.02600
H  -5.90000 40.52100 23.63900
H  -6.61600 41.53000 22.42100
H  -0.38700 44.74700 20.57200
H  2.19800 43.36900 20.38100
H  -0.31100 41.84900 19.97500
H  0.57900 42.92800 18.88200
H  -1.15100 43.17700 19.12200
H  1.42100 45.95100 19.79600
H  3.08100 45.32900 20.12700
H  1.37200 46.42000 22.30000
H  2.22300 47.70100 21.33300
H  3.09300 46.56800 22.23000
H  6.92900 43.27300 24.52500
H  6.36000 44.89300 24.21700
H  5.96600 43.57600 23.01500
H  4.17800 43.64100 29.14600
H  4.04600 41.60700 32.55400
H  5.69100 41.19500 32.02000
H  4.28700 40.23300 31.49600

