158

Mg 44.71100 4.51600 48.16200
C  42.24100 6.88200 47.47400
C  42.25600 1.98800 48.17900
C  47.11100 2.16700 48.27000
C  47.20600 6.95600 47.60800
N  42.49300 4.48200 47.79200
C  41.73100 5.55800 47.60600
C  40.30000 5.16300 47.38500
C  40.19100 3.62800 47.78100
C  41.71900 3.27400 47.93100
C  39.38700 3.40500 49.10700
C  40.05400 5.38300 45.83400
C  39.00300 6.44600 45.51300
H  39.32000 7.36600 44.31900
N  44.67800 2.32700 48.24100
C  43.60100 1.51100 48.23400
C  44.08900 0.16500 48.21200
C  45.51400 0.13000 48.19900
C  45.85600 1.58200 48.26500
C  43.05100 -1.01900 47.97800
C  46.33200 -1.14000 48.12700
O  45.78500 -2.24800 48.08400
C  47.86600 -1.12300 48.11000
N  46.85400 4.59200 47.65200
C  47.54500 3.51400 48.15900
C  49.04200 3.77300 48.38400
C  49.11200 5.33900 48.07000
C  47.66200 5.66800 47.79000
C  49.72100 3.34500 49.73300
C  50.08100 5.92900 46.99700
C  51.45800 6.22100 47.42600
N  44.71000 6.50100 47.68100
C  45.88800 7.40600 47.57100
C  45.27100 8.74400 47.35400
C  43.87000 8.54000 47.46200
C  43.56500 7.17700 47.55800
C  46.00900 9.99200 46.93700
C  42.65000 9.23700 47.32900
O  42.44400 10.43200 47.08600
C  41.53200 8.19100 47.33000
C  40.58200 8.50000 48.43100
O  40.57700 8.00500 49.53900
O  39.62900 9.37600 47.94100
C  38.67900 9.92700 48.95200
H  41.45400 1.25600 48.07000
H  47.94300 1.52300 48.56000
H  48.02800 7.67500 47.61000
H  39.58300 5.81700 47.88200
H  39.82900 3.00700 46.96200
H  38.68800 2.60000 48.88000
H  38.87200 4.33000 49.36400
H  39.96200 3.04400 49.96000
H  39.67900 4.45900 45.39300
H  41.00900 5.66600 45.39200
H  38.69500 6.95900 46.42500
H  38.14700 5.93400 45.07400
H  43.32600 -1.61700 47.10900
H  42.02200 -0.70300 47.81000
H  43.11200 -1.55100 48.92700
H  48.24000 -0.55300 47.26000
H  48.34600 -2.10200 48.09700
H  48.04100 -0.54000 49.01400
H  49.62200 3.24200 47.63000
H  49.45200 5.67300 49.05100
H  50.48200 4.07100 50.01900
H  50.37100 2.51600 49.45400
H  49.11400 3.14100 50.61500
H  49.58700 6.72900 46.44500
H  50.13100 5.08200 46.31400
H  51.71600 7.24800 47.17000
H  52.21000 5.65400 46.87900
H  51.72600 6.03800 48.46700
H  46.85000 10.31100 47.55300
H  45.25700 10.78200 46.93500
H  46.42900 9.68500 45.97900
H  41.19400 8.15500 46.29500
H  37.70900 10.30800 48.63000
H  39.21800 10.78700 49.35100
H  38.51200 9.28000 49.81300
Mg -10.47800 38.43800 41.91400
C  -8.78600 35.68400 40.63400
C  -8.29600 40.43100 39.93500
C  -12.33900 41.20600 42.58600
C  -12.98900 36.45600 43.12800
N  -8.80200 38.11200 40.31800
C  -8.29400 36.86000 40.06700
C  -7.18000 36.93400 38.88100
C  -6.98800 38.49000 38.84600
C  -8.04400 39.10300 39.79700
C  -5.50500 38.93000 39.27400
C  -7.49800 36.17500 37.59200
C  -6.24300 35.43300 36.99200
H  -5.66100 36.08500 35.75800
N  -10.20400 40.51600 41.54000
C  -9.23300 41.10000 40.71400
C  -9.33500 42.51000 40.89500
C  -10.55700 42.79300 41.60500
C  -11.08400 41.50100 41.96300
C  -8.26100 43.42900 40.33100
C  -11.11100 44.19400 41.79300
O  -10.43500 45.14200 41.34000
C  -12.48600 44.56800 42.24000
N  -12.45200 38.76100 42.53200
C  -12.94700 40.01700 42.87700
C  -14.30400 39.91700 43.44600
C  -14.48100 38.40300 43.75200
C  -13.20100 37.83900 43.15100
C  -14.74900 40.81300 44.61800
C  -15.83100 37.71000 43.28200
C  -16.86500 37.46600 44.42400
N  -10.82800 36.49000 42.01500
C  -11.85600 35.82900 42.58400
C  -11.49300 34.41400 42.55900
C  -10.28100 34.33700 41.89300
C  -9.96200 35.62600 41.48500
C  -12.40000 33.29400 42.94600
C  -9.32100 33.41600 41.31300
O  -9.19200 32.20400 41.36900
C  -8.30100 34.26000 40.49900
C  -6.99500 33.94600 41.30900
O  -6.36400 32.91900 41.18700
O  -6.70900 35.06000 42.11400
C  -5.49400 34.93900 42.86900
H  -7.61500 41.01700 39.31500
H  -13.04000 41.96700 42.93700
H  -13.60900 35.71100 43.63100
H  -6.30200 36.49700 39.35600
H  -7.14300 38.89500 37.84600
H  -4.95400 38.08200 39.68100
H  -5.56700 39.75900 39.97900
H  -4.95700 39.29200 38.40400
H  -7.82900 36.91400 36.86200
H  -8.28600 35.45900 37.82400
H  -6.42400 34.37800 36.78600
H  -5.44800 35.42700 37.73800
H  -8.56600 43.89200 39.39200
H  -7.34000 42.84700 40.34200
H  -8.17800 44.15100 41.14300
H  -12.60700 44.59500 43.32300
H  -13.26000 43.91800 41.83200
H  -12.68500 45.56400 41.84600
H  -14.89800 40.17100 42.56700
H  -14.42700 38.33800 44.83900
H  -13.89600 41.19200 45.18000
H  -15.47000 40.25700 45.21700
H  -15.28500 41.67800 44.22500
H  -15.60700 36.76300 42.79200
H  -16.24800 38.35500 42.50900
H  -16.89000 36.41200 44.70100
H  -17.85400 37.87700 44.22200
H  -16.54100 37.99000 45.32300
H  -13.28500 33.14100 42.32900
H  -12.59800 33.26800 44.01700
H  -11.79700 32.39300 42.82600
H  -8.25900 33.93700 39.45900
H  -4.86200 35.79100 42.62000
H  -4.89000 34.05100 42.68100
H  -5.91800 34.92600 43.87300

