158

Mg 0.59000 6.94200 25.93400
C  1.56400 9.16100 28.53300
C  0.74300 4.38200 28.29500
C  -0.25200 4.85300 23.54500
C  1.12600 9.53700 23.68700
N  1.04600 6.84400 28.21700
C  1.32900 7.85900 29.04500
C  1.35800 7.39600 30.50300
C  1.39600 5.86200 30.30900
C  1.06400 5.65900 28.86400
C  2.79300 5.42200 30.66200
C  0.07700 7.83400 31.32200
C  0.34700 8.08400 32.84800
H  1.62500 7.62000 33.56600
N  0.23000 4.98200 25.96600
C  0.40100 4.07700 26.98400
C  0.06600 2.73700 26.52500
C  -0.16700 2.81800 25.08100
C  -0.14200 4.27900 24.80000
C  0.05500 1.65900 27.51800
C  -0.47800 1.76700 24.13500
O  -0.78400 2.00800 22.95700
C  -0.26200 0.32100 24.50500
N  0.65200 7.09200 23.84000
C  0.14500 6.10900 23.07400
C  -0.19900 6.66600 21.67200
C  0.57300 8.01700 21.61200
C  0.71200 8.27900 23.17500
C  0.12900 5.77800 20.36600
C  -0.24300 9.25300 20.91300
C  0.51800 10.12600 19.84800
N  1.21200 9.00900 25.99100
C  1.37100 9.94700 24.97700
C  1.71100 11.27500 25.55400
C  1.84500 10.97400 26.89400
C  1.51000 9.64700 27.14700
C  2.02700 12.50100 24.84200
C  2.15800 11.52400 28.17400
O  2.59100 12.64000 28.38300
C  1.96500 10.44200 29.31400
C  3.23900 10.40800 30.18400
O  4.27300 9.79900 29.84000
O  3.15200 11.19900 31.30000
C  4.31800 11.28100 32.12800
H  0.78200 3.51100 28.95300
H  -0.54800 4.25800 22.67900
H  1.46900 10.25800 22.94200
H  2.15300 7.86900 31.08000
H  0.70900 5.40100 31.01900
H  3.53900 5.36000 29.87000
H  2.71800 4.43900 31.12700
H  3.18700 6.03400 31.47400
H  -0.78400 7.16600 31.29300
H  -0.16600 8.85100 31.01300
H  -0.42800 7.50700 33.35200
H  0.15000 9.13800 33.04300
H  -0.50600 0.79900 27.15000
H  -0.40200 2.04500 28.42900
H  1.02000 1.36700 27.93100
H  0.65300 0.34200 25.09800
H  -0.02500 -0.23600 23.59800
H  -1.18800 -0.01200 24.97100
H  -1.25500 6.93600 21.66700
H  1.57600 7.96800 21.18700
H  0.42400 6.46500 19.57300
H  -0.78700 5.31500 19.99700
H  0.96500 5.09100 20.49200
H  -0.51500 9.95700 21.69900
H  -1.17900 8.84500 20.53200
H  0.41500 11.09500 20.33700
H  0.06900 10.21700 18.85900
H  1.58500 9.93600 19.73900
H  2.90100 12.37700 24.20200
H  2.44300 13.08900 25.66100
H  1.15600 12.86200 24.29600
H  1.15600 10.77200 29.96600
H  5.28000 11.10800 31.64600
H  4.35300 10.52600 32.91300
H  4.40800 12.27400 32.56900
Mg -5.11500 25.51400 25.25400
C  -3.43600 27.20000 27.82800
C  -6.49100 23.42700 27.45700
C  -6.28300 23.65400 22.70400
C  -2.77900 27.06800 23.08600
N  -4.79300 25.25100 27.41400
C  -4.26200 26.15900 28.31600
C  -4.74400 25.85000 29.71100
C  -5.44200 24.48900 29.58300
C  -5.63000 24.39800 28.02100
C  -4.71400 23.23200 30.10500
C  -5.66600 26.97200 30.43400
C  -5.09700 27.34200 31.79000
H  -4.74200 26.08500 32.65700
N  -6.26800 23.78400 25.07300
C  -6.81800 23.12000 26.12500
C  -7.76000 22.12900 25.65300
C  -7.68000 22.10200 24.26200
C  -6.78000 23.26500 23.95900
C  -8.56500 21.34700 26.71000
C  -8.42000 21.19200 23.24900
O  -8.21100 21.25200 22.07500
C  -9.45000 20.10900 23.68000
N  -4.60300 25.35600 23.29100
C  -5.25800 24.56500 22.37800
C  -4.68100 24.69200 20.96800
C  -3.58700 25.77000 21.06300
C  -3.60500 26.01200 22.57300
C  -4.09800 23.32000 20.36300
C  -3.82700 27.05200 20.21600
C  -3.58400 27.03500 18.72900
N  -3.57100 27.00400 25.35000
C  -2.74800 27.60300 24.40600
C  -1.91700 28.63300 24.98100
C  -2.11400 28.46700 26.37500
C  -3.11800 27.49500 26.49800
C  -1.01400 29.53200 24.28700
C  -1.73200 28.91400 27.68400
O  -0.84100 29.72000 27.98400
C  -2.54500 28.08700 28.71700
C  -1.48000 27.39200 29.48300
O  -0.71900 26.51700 29.03800
O  -1.49500 27.81900 30.77500
C  -0.71200 27.17300 31.79700
H  -7.02000 23.00900 28.31600
H  -6.85000 23.20100 21.88800
H  -2.10600 27.63800 22.44300
H  -3.85200 25.61300 30.29100
H  -6.45300 24.39000 29.97700
H  -3.87600 23.35900 30.79000
H  -4.33700 22.70600 29.22800
H  -5.52700 22.65700 30.54800
H  -6.71300 26.70500 30.58100
H  -5.69500 27.86900 29.81600
H  -5.83900 27.99400 32.25200
H  -4.26800 28.02100 31.58700
H  -9.48600 21.91600 26.83300
H  -8.10400 21.37600 27.69700
H  -8.75900 20.33000 26.36800
H  -9.97100 19.94000 22.73700
H  -10.08800 20.52000 24.46300
H  -8.97700 19.21100 24.07700
H  -5.49400 25.03200 20.32700
H  -2.59100 25.39300 20.83200
H  -4.46800 23.27100 19.33900
H  -4.52000 22.47400 20.90600
H  -3.01100 23.35300 20.30000
H  -3.28100 27.91700 20.59300
H  -4.84800 27.33900 20.46900
H  -2.85000 27.78700 18.44100
H  -4.52300 27.30200 18.24400
H  -3.20300 26.07200 18.38900
H  -1.06200 30.57600 24.59600
H  -1.25200 29.40700 23.23000
H  -0.01100 29.19000 24.53900
H  -3.02100 28.83900 29.34600
H  -1.43100 27.27000 32.61000
H  0.24500 27.66900 31.96200
H  -0.64700 26.12100 31.51800

