158

Mg -0.16600 7.97000 26.31000
C  0.60600 9.90200 29.09800
C  0.11300 5.16400 28.32900
C  -0.35800 6.02400 23.63800
C  0.28000 10.78600 24.29500
N  0.29200 7.59700 28.45400
C  0.44300 8.52600 29.40300
C  0.70200 7.97200 30.76600
C  0.57800 6.41700 30.51100
C  0.29800 6.34800 29.01100
C  1.87200 5.57600 30.91400
C  -0.28300 8.49800 31.86500
C  0.20800 8.55300 33.30400
H  -0.68200 7.94200 34.47200
N  -0.25300 5.82700 26.02500
C  -0.22900 4.87700 26.99100
C  -0.49300 3.60900 26.37500
C  -0.56200 3.82700 24.97700
C  -0.34300 5.25500 24.78700
C  -0.63000 2.36900 27.20500
C  -0.67100 2.84000 23.87200
O  -1.01900 3.11000 22.71700
C  -0.48400 1.38600 24.20500
N  -0.21200 8.36500 24.27300
C  -0.32200 7.35900 23.37400
C  -0.43100 7.94400 21.93600
C  -0.35400 9.48100 22.14100
C  -0.04700 9.59400 23.61700
C  0.57200 7.30600 20.84500
C  -1.61500 10.22200 21.74200
C  -2.82800 10.26200 22.74100
N  0.19700 9.98700 26.58400
C  0.44100 10.95500 25.68900
C  0.79500 12.19400 26.38400
C  0.94700 11.79900 27.71700
C  0.56700 10.52200 27.79800
C  1.02100 13.55900 25.78400
C  1.30000 12.31600 29.06100
O  1.64400 13.45800 29.45100
C  0.95600 11.05900 29.96700
C  2.11200 10.83900 30.83800
O  3.27500 10.71800 30.46000
O  1.74300 11.14000 32.11600
C  2.77500 11.41800 33.15700
H  0.22200 4.37500 29.07600
H  -0.33700 5.48000 22.69200
H  0.12700 11.69200 23.70600
H  1.72500 8.30300 30.94800
H  -0.25100 5.96700 31.05700
H  2.29400 5.94000 31.85000
H  2.60100 5.68700 30.11200
H  1.66800 4.54100 31.19100
H  -1.14000 7.82600 31.80800
H  -0.57300 9.48200 31.49800
H  0.18400 9.62400 33.50900
H  1.25000 8.23900 33.26000
H  -1.40300 1.70100 26.82600
H  -0.75600 2.60700 28.26100
H  0.31900 1.83400 27.16400
H  -0.65300 0.79200 23.30600
H  -1.32500 1.09600 24.83600
H  0.53300 1.12500 24.49800
H  -1.45100 7.73700 21.61200
H  0.52400 9.85700 21.61600
H  1.30700 6.61700 21.26000
H  0.95900 8.00900 20.10700
H  -0.05000 6.67400 20.21000
H  -2.11400 9.94800 20.81200
H  -1.23400 11.20900 21.48100
H  -3.61200 10.57900 22.05300
H  -2.73200 11.18100 23.32000
H  -3.01500 9.36200 23.32700
H  0.80100 13.60700 24.71700
H  2.04600 13.91100 25.90200
H  0.30400 14.22900 26.26000
H  0.14300 11.39000 30.61400
H  3.74700 11.22300 32.70500
H  2.63000 10.62500 33.89100
H  2.63600 12.35900 33.68800
Mg 1.94400 41.64700 24.97600
C  2.57900 41.98300 28.44700
C  -1.14000 40.65500 25.83900
C  1.43700 40.90700 21.79800
C  5.31100 42.40700 24.39600
N  0.79200 41.47900 26.95100
C  1.28400 41.68500 28.23000
C  0.18700 41.58000 29.28300
C  -1.02600 40.92500 28.44000
C  -0.43200 40.97500 26.98000
C  -1.51800 39.47800 28.92600
C  -0.10800 42.98600 29.82600
C  -0.13600 43.04900 31.39500
H  -0.87500 41.91300 32.17200
N  0.31800 41.03400 23.93400
C  -0.84800 40.69300 24.44600
C  -1.75800 40.29100 23.36500
C  -1.04900 40.25500 22.15800
C  0.27700 40.69600 22.54600
C  -3.24400 40.09000 23.57700
C  -1.50600 39.89700 20.78000
O  -0.69400 39.84200 19.84100
C  -2.98000 39.68500 20.43700
N  3.18600 41.68100 23.35600
C  2.72600 41.34300 22.13300
C  3.86600 41.57800 21.04900
C  5.02300 42.21500 21.85500
C  4.47100 42.14500 23.25400
C  4.37200 40.30500 20.21400
C  5.36200 43.69200 21.45500
C  5.86000 43.81300 20.02000
N  3.66000 42.14800 26.10600
C  4.94100 42.46900 25.72700
C  5.74300 42.78300 26.93100
C  4.86400 42.53200 27.97200
C  3.63200 42.24400 27.49800
C  7.19300 43.15600 26.93700
C  4.77900 42.55700 29.44600
O  5.59200 42.59500 30.36800
C  3.30700 42.08100 29.79200
C  3.28600 40.78400 30.49400
O  3.90700 39.75900 30.15300
O  2.45600 40.85500 31.54000
C  2.26400 39.56300 32.27600
H  -2.14300 40.27900 26.05400
H  1.45700 40.70700 20.72400
H  6.35400 42.65200 24.18100
H  0.40200 40.78900 30.00100
H  -1.89600 41.57500 28.53300
H  -2.45400 39.67400 29.45000
H  -0.76700 39.01500 29.56700
H  -1.71500 38.88900 28.03000
H  -1.04100 43.43100 29.48000
H  0.78600 43.51900 29.50200
H  -0.63600 43.98000 31.65900
H  0.86900 43.11000 31.81200
H  -3.84500 40.82400 23.03900
H  -3.49000 40.00700 24.63500
H  -3.59100 39.14300 23.16400
H  -3.25100 38.68900 20.78400
H  -3.01300 39.66200 19.34800
H  -3.64100 40.46900 20.80600
H  3.56900 42.28300 20.27300
H  5.89400 41.57200 21.73400
H  4.16100 39.39600 20.77700
H  5.43700 40.39400 19.99600
H  3.99800 40.14800 19.20200
H  6.09600 44.13700 22.12700
H  4.48600 44.29900 21.68300
H  5.04100 44.37100 19.56500
H  5.99600 42.86900 19.49300
H  6.67700 44.51100 19.83700
H  7.74800 42.37900 27.46200
H  7.38100 44.02100 27.57200
H  7.58700 43.16800 25.92000
H  2.85600 42.83300 30.44100
H  2.94400 39.38600 33.10900
H  2.42300 38.67200 31.67000
H  1.29000 39.53900 32.76500

