158

Mg 2.40800 0.19100 45.21700
C  5.56000 1.70700 44.59400
C  1.07300 3.14800 43.96600
C  -0.40700 -1.42100 45.07000
C  4.16800 -2.96000 45.61700
N  3.24000 2.25100 44.40200
C  4.53000 2.55600 44.25100
C  4.71600 3.95900 43.82600
C  3.22700 4.51600 43.61600
C  2.47700 3.25500 44.06400
C  2.82500 5.89500 44.32000
C  5.43900 4.07500 42.44600
C  5.17300 3.01700 41.38900
H  5.73200 3.20300 40.03100
N  0.59100 0.75600 44.64100
C  0.15100 2.02700 44.19600
C  -1.23900 1.94000 43.85900
C  -1.69500 0.64000 44.30200
C  -0.43700 -0.06200 44.71900
C  -2.02800 3.14500 43.36100
C  -3.15200 0.19400 44.26000
O  -3.92200 0.88900 43.67700
C  -3.72300 -0.92700 45.05600
N  2.00200 -1.84200 45.36600
C  0.71300 -2.29000 45.30000
C  0.59700 -3.77900 45.27500
C  2.02600 -4.23000 45.37000
C  2.79200 -2.93400 45.42400
C  -0.33500 -4.36500 46.36500
C  2.44900 -5.30700 44.41200
C  2.99700 -6.65200 45.00700
N  4.41700 -0.49400 45.35900
C  4.96800 -1.79300 45.58800
C  6.40600 -1.70600 45.64800
C  6.65100 -0.38600 45.22200
C  5.43900 0.31900 45.01700
C  7.44600 -2.68800 45.88500
C  7.71200 0.68700 44.90600
O  8.95500 0.57200 44.96100
C  7.04100 2.03600 44.58000
C  7.38200 3.05000 45.48400
O  7.69000 4.24000 45.24100
O  7.07300 2.62700 46.68300
C  6.76100 3.60000 47.65100
H  0.50100 3.97200 43.53600
H  -1.35700 -1.95600 45.02000
H  4.69500 -3.90200 45.78700
H  5.18900 4.55300 44.60900
H  2.90300 4.66700 42.58600
H  1.91800 5.70000 44.89100
H  2.71700 6.73400 43.63300
H  3.68200 6.02600 44.98100
H  6.49200 4.35400 42.46700
H  4.96700 4.92600 41.95500
H  4.09600 3.05000 41.23100
H  5.54800 2.07600 41.79100
H  -3.05200 3.17200 43.73400
H  -1.95800 3.03100 42.27900
H  -1.58600 4.01300 43.85000
H  -3.33800 -0.96900 46.07500
H  -3.63000 -1.90900 44.59300
H  -4.78400 -0.77200 45.25000
H  0.19900 -4.01500 44.28700
H  2.17900 -4.62700 46.37300
H  -0.88200 -3.51000 46.76200
H  0.25400 -4.80100 47.17100
H  -0.99200 -5.12300 45.93800
H  3.18100 -4.83800 43.75300
H  1.59300 -5.54400 43.78000
H  2.87500 -6.77200 46.08300
H  4.05100 -6.72800 44.73800
H  2.44200 -7.45500 44.52200
H  8.13100 -2.10900 46.50500
H  7.93600 -2.92000 44.94000
H  7.12300 -3.62100 46.34600
H  7.35300 2.22900 43.55300
H  5.84000 4.07200 47.30900
H  7.37000 4.49200 47.80000
H  6.45700 3.20200 48.61900
Mg 16.88200 -1.18200 27.63300
C  15.97300 0.87900 30.27500
C  19.19700 -2.64400 29.79400
C  18.15100 -2.71900 25.02800
C  14.77600 0.72200 25.54700
N  17.50800 -0.90600 29.74300
C  16.91600 -0.01500 30.67800
C  17.47800 -0.25500 32.08500
C  18.74500 -1.13000 31.78600
C  18.48500 -1.61500 30.37200
C  20.23700 -0.52500 32.09000
C  16.39500 -0.89200 32.96000
C  16.10900 -0.14300 34.18300
H  17.26900 0.50500 34.79900
N  18.31600 -2.70800 27.55500
C  19.11500 -3.17600 28.54700
C  19.81900 -4.32800 27.97400
C  19.52900 -4.38600 26.61000
C  18.59100 -3.24800 26.25100
C  20.49400 -5.41000 28.87100
C  19.83400 -5.49200 25.58700
O  19.36500 -5.38000 24.49900
C  20.80900 -6.61500 25.90400
N  16.41600 -1.07700 25.61500
C  17.21300 -1.73700 24.71700
C  16.89400 -1.42600 23.27900
C  15.59500 -0.56800 23.43900
C  15.52200 -0.31900 24.92300
C  18.08500 -0.69400 22.55100
C  14.20000 -1.20000 22.86700
C  13.85000 -0.86400 21.44400
N  15.63600 0.46900 27.84700
C  14.80900 1.08800 26.93000
C  14.01800 2.09100 27.51500
C  14.54500 2.16200 28.80100
C  15.53200 1.13700 28.92200
C  12.92300 2.84200 26.77200
C  14.44700 2.85600 30.04700
O  13.78800 3.85700 30.39200
C  15.34700 2.00700 31.11600
C  16.33400 2.91600 31.70500
O  17.45300 3.08200 31.32100
O  15.85600 3.52300 32.82900
C  16.87900 4.36700 33.53000
H  20.02400 -3.04900 30.38000
H  18.49800 -3.24300 24.13500
H  14.23400 1.31200 24.80500
H  17.82500 0.72800 32.40500
H  18.61900 -2.03100 32.38600
H  20.61500 -1.30000 32.75600
H  20.14500 0.45300 32.56400
H  20.86400 -0.61700 31.20300
H  16.74700 -1.89400 33.20600
H  15.45500 -1.14100 32.46800
H  15.57900 -0.75100 34.91600
H  15.39100 0.63300 33.91800
H  19.86600 -6.30000 28.91500
H  20.49700 -4.99500 29.87900
H  21.52300 -5.60300 28.56800
H  21.83100 -6.24700 26.00000
H  20.72200 -7.30900 25.06800
H  20.37300 -7.17100 26.73300
H  16.56100 -2.34300 22.79300
H  15.87700 0.39300 23.00800
H  18.88700 -0.48800 23.26000
H  17.82900 0.26300 22.09800
H  18.41500 -1.38400 21.77500
H  13.39500 -0.89400 23.53500
H  14.17700 -2.27900 23.02000
H  14.32200 0.10500 21.28100
H  12.77900 -0.83300 21.24700
H  14.35300 -1.54800 20.76000
H  12.09800 2.81500 27.48500
H  12.53500 2.35600 25.87800
H  13.24600 3.85000 26.51000
H  14.89000 1.51500 31.97500
H  17.05500 5.31700 33.02600
H  17.87600 3.92600 33.52700
H  16.49000 4.50000 34.54000

