158

Mg 17.23000 51.43500 25.56100
C  18.81400 50.47200 28.57400
C  14.32100 52.25900 27.54600
C  15.39000 51.95500 22.75200
C  19.70100 50.07200 23.69000
N  16.68000 51.52600 27.79300
C  17.53900 51.04500 28.77400
C  16.98300 51.53400 30.16400
C  15.44500 51.72400 29.83400
C  15.44800 51.86100 28.29700
C  14.54100 50.53600 30.27500
C  17.60400 52.83200 30.71300
C  17.48700 52.99700 32.18900
H  16.39800 52.36400 33.04800
N  15.25600 52.22300 25.25000
C  14.25300 52.51900 26.12100
C  13.15100 53.11700 25.43900
C  13.46100 53.04300 24.08900
C  14.77300 52.42900 23.97700
C  11.93700 53.70400 26.22600
C  12.65700 53.51500 22.90300
O  13.22300 53.53000 21.79800
C  11.28000 54.07900 23.04800
N  17.56900 51.20000 23.51900
C  16.63200 51.32000 22.55400
C  17.18400 50.94100 21.19500
C  18.73400 50.71900 21.49500
C  18.66000 50.62200 23.01900
C  16.44000 49.78000 20.51400
C  19.77700 51.79200 20.85100
C  21.07000 51.21800 20.29400
N  18.90200 50.44900 25.95500
C  19.91700 50.00000 25.12200
C  21.00800 49.47500 25.91600
C  20.70100 49.73200 27.22900
C  19.32000 50.24400 27.24900
C  22.20700 48.64500 25.38800
C  21.14700 49.66400 28.57400
O  22.22300 49.35500 29.03100
C  19.91700 50.18200 29.51100
C  19.51300 49.09200 30.40600
O  19.39500 47.93400 30.06900
O  18.99900 49.65800 31.61100
C  18.38700 48.77700 32.59500
H  13.43600 52.51100 28.13500
H  15.03400 51.95100 21.72000
H  20.47300 49.54600 23.12500
H  16.99000 50.68700 30.85000
H  15.04800 52.68100 30.17100
H  14.56300 49.79700 29.47500
H  13.55800 50.84300 30.63100
H  15.05100 50.01500 31.08600
H  17.13300 53.66800 30.19500
H  18.66400 52.82700 30.45800
H  17.59900 54.05800 32.41200
H  18.41600 52.71800 32.68600
H  11.86300 53.29200 27.23200
H  11.00500 53.44000 25.72600
H  11.95900 54.79300 26.25700
H  10.67100 53.32600 23.54900
H  10.95100 54.05500 22.00900
H  11.22600 55.05100 23.53800
H  17.08200 51.81800 20.55700
H  18.95300 49.70100 21.17400
H  15.47100 49.69100 21.00500
H  17.00400 48.85000 20.57000
H  16.11200 49.87200 19.47800
H  19.90200 52.61900 21.55100
H  19.24200 52.24600 20.01700
H  21.01200 51.14000 19.20800
H  21.37100 50.27100 20.74200
H  21.87100 51.91400 20.54300
H  23.13800 48.96300 25.85800
H  22.29100 48.55200 24.30500
H  21.95800 47.64300 25.73700
H  20.28200 51.01800 30.10800
H  18.39800 49.33000 33.53500
H  19.10200 47.98200 32.80600
H  17.43600 48.34800 32.28100
Mg -11.66600 16.96000 41.52000
C  -8.36000 15.92500 41.84400
C  -10.63700 20.16900 40.88200
C  -14.72800 17.83700 40.54200
C  -12.60800 13.50900 41.59000
N  -9.73900 17.86100 41.36500
C  -8.52400 17.33400 41.66400
C  -7.30100 18.38200 41.34400
C  -8.16500 19.74200 41.40400
C  -9.62300 19.24300 41.24200
C  -7.98100 20.63500 42.59300
C  -6.73100 18.07100 39.86800
C  -5.19600 18.13600 39.69900
H  -4.54100 17.01600 38.81500
N  -12.62600 18.77300 40.89100
C  -12.01200 19.95100 40.75900
C  -12.91700 21.00600 40.37700
C  -14.16100 20.30600 40.10800
C  -13.94200 18.97200 40.56400
C  -12.44900 22.35700 40.03900
C  -15.46400 20.90200 39.53300
O  -15.54900 22.06700 39.12800
C  -16.79000 20.03800 39.41400
N  -13.42700 15.80600 41.00900
C  -14.59000 16.45700 40.79400
C  -15.71100 15.43300 40.83500
C  -15.02800 14.02000 40.94500
C  -13.60000 14.48300 41.23900
C  -16.85600 15.66500 41.86700
C  -15.22600 13.16300 39.72100
C  -14.41100 13.43600 38.45600
N  -10.76800 15.11700 41.83500
C  -11.22200 13.78500 41.75400
C  -10.19600 12.89800 41.92800
C  -9.02000 13.72200 41.92100
C  -9.41700 15.01100 41.86200
C  -10.23200 11.38500 42.01900
C  -7.57000 13.62800 42.07400
O  -6.80900 12.65700 42.24300
C  -7.03700 15.08200 41.87900
C  -6.29900 15.40500 43.05400
O  -6.74300 15.56300 44.16800
O  -4.95300 15.29200 42.80400
C  -4.06800 15.14400 43.92500
H  -10.20800 21.16400 40.74500
H  -15.75400 18.11200 40.28800
H  -12.93100 12.46600 41.60200
H  -6.56600 18.23500 42.13500
H  -7.99000 20.39100 40.54600
H  -7.26600 20.21700 43.30100
H  -8.94200 20.62600 43.10900
H  -7.51500 21.60200 42.40400
H  -7.05200 18.96700 39.33600
H  -7.22300 17.13300 39.61100
H  -4.74100 18.19000 40.68800
H  -4.91500 19.09700 39.26700
H  -11.90100 22.20200 39.10900
H  -11.92900 22.79600 40.89000
H  -13.38500 22.90700 39.93800
H  -17.56200 20.66100 38.96100
H  -17.09000 19.65300 40.38900
H  -16.51400 19.24300 38.72000
H  -16.21800 15.49500 39.87200
H  -15.38200 13.43700 41.79500
H  -16.57900 16.34500 42.67200
H  -17.29700 14.73600 42.22800
H  -17.70800 16.18500 41.42900
H  -16.27000 13.26100 39.42400
H  -14.92500 12.15300 40.00200
H  -13.83900 12.56900 38.12500
H  -13.89700 14.39300 38.36900
H  -15.19400 13.49700 37.70100
H  -10.44400 11.11600 40.98400
H  -11.09100 11.09300 42.62300
H  -9.35100 10.92800 42.47000
H  -6.36000 15.16400 41.02800
H  -3.02900 15.40100 43.71900
H  -4.23200 14.14100 44.32000
H  -4.33000 15.86400 44.70100

