158

Mg 7.09400 53.74100 41.29200
C  6.27400 50.31700 40.66900
C  10.24700 53.08500 39.82800
C  7.68600 57.12900 41.05000
C  3.74000 54.25300 41.87800
N  8.16300 51.87400 40.50900
C  7.61600 50.62500 40.27500
C  8.58300 49.78800 39.47400
C  9.95300 50.53400 39.71900
C  9.44100 51.93200 40.10100
C  10.96000 49.97700 40.74600
C  8.13900 49.63500 37.96500
C  8.36100 48.31200 37.31900
H  7.44400 47.95100 36.22900
N  8.68700 54.93000 40.59900
C  9.91000 54.43600 40.09400
C  10.82500 55.56200 40.04100
C  10.16400 56.74700 40.45800
C  8.79500 56.31900 40.78000
C  12.29700 55.39300 39.67800
C  10.84900 58.11200 40.68400
O  12.09400 58.09500 40.62200
C  10.16600 59.42900 41.04000
N  5.85400 55.35800 41.20700
C  6.34800 56.70800 41.15900
C  5.22000 57.75200 41.34900
C  4.03200 56.78500 41.75400
C  4.53300 55.35400 41.56900
C  5.41700 58.86600 42.37700
C  2.74400 57.10100 40.90400
C  2.81800 56.78400 39.38700
N  5.38100 52.48900 41.52500
C  4.11000 52.85700 41.74900
C  3.33000 51.75600 42.14100
C  4.11300 50.66500 41.72100
C  5.32600 51.23900 41.25300
C  1.86300 51.87600 42.54700
C  4.16800 49.26400 41.49800
O  3.44700 48.30100 41.74500
C  5.59400 48.98600 40.84700
C  5.28700 48.20000 39.61300
O  4.96700 48.73200 38.55000
O  5.33700 46.84200 39.74700
C  4.80400 45.95700 38.67600
H  11.26800 52.83800 39.52900
H  7.85100 58.20200 40.92900
H  2.72300 54.42400 42.23800
H  8.65200 48.80100 39.93200
H  10.44800 50.59000 38.74900
H  11.88700 49.99100 40.17300
H  10.67600 48.97800 41.07500
H  11.07300 50.72100 41.53400
H  8.76700 50.34800 37.43000
H  7.10900 49.97600 37.86400
H  8.30100 47.56800 38.11400
H  9.37700 48.38100 36.93000
H  12.52800 54.40000 39.29300
H  13.00500 55.45300 40.50500
H  12.54200 56.16400 38.94800
H  9.37300 59.28200 41.77300
H  9.67300 59.90400 40.19100
H  10.88000 60.11800 41.49200
H  5.02900 58.11800 40.34100
H  3.71400 56.83400 42.79500
H  6.03700 58.54400 43.21400
H  4.46000 59.32300 42.62800
H  6.14100 59.57600 41.97700
H  2.62700 58.18500 40.93200
H  1.82900 56.77800 41.40000
H  2.08300 56.03700 39.08800
H  3.79000 56.46000 39.01400
H  2.57200 57.71500 38.87500
H  1.43900 52.57300 41.82500
H  1.61300 52.25200 43.53900
H  1.40200 50.88900 42.57900
H  6.14300 48.34000 41.53200
H  4.06200 45.19300 38.90800
H  5.50200 45.34100 38.10900
H  4.29300 46.63500 37.99300
Mg -11.78400 38.26900 41.40900
C  -9.32600 35.75800 41.06300
C  -9.50700 40.55500 40.61900
C  -14.35800 40.49400 41.37600
C  -14.11300 35.70900 42.08800
N  -9.75000 38.14500 40.69100
C  -8.90800 37.07900 40.69300
C  -7.56000 37.40900 40.05900
C  -7.49600 38.97500 40.31600
C  -8.96800 39.23800 40.62700
C  -6.53700 39.24200 41.47400
C  -7.43000 36.95500 38.58100
C  -6.29500 35.91500 38.33100
H  -5.34600 36.49100 37.26300
N  -11.87500 40.24100 41.10100
C  -10.81500 41.03000 40.79500
C  -11.21200 42.34100 40.59900
C  -12.62400 42.36900 40.83500
C  -13.05400 40.96400 41.08900
C  -10.42100 43.44900 40.03500
C  -13.53900 43.56100 40.62400
O  -12.94600 44.59400 40.55700
C  -15.00300 43.48200 40.45500
N  -13.92900 38.03100 41.48400
C  -14.74700 39.13800 41.49900
C  -16.18300 38.73000 41.85200
C  -16.09200 37.16800 42.00600
C  -14.59600 36.96900 41.84000
C  -16.64700 39.48800 43.10100
C  -17.00900 36.35800 41.08600
C  -17.93200 35.34100 41.75300
N  -11.78800 36.13900 41.51200
C  -12.78700 35.28800 41.85100
C  -12.22900 33.94500 41.99400
C  -10.89400 34.10900 41.65800
C  -10.66200 35.44600 41.44500
C  -12.95600 32.74700 42.51400
C  -9.67200 33.37400 41.48000
O  -9.45200 32.19100 41.49400
C  -8.47700 34.48400 41.17300
C  -7.61600 34.53500 42.45500
O  -7.78000 35.28000 43.46700
O  -6.56900 33.63600 42.26200
C  -5.68400 33.54800 43.35100
H  -8.63100 41.16800 40.39500
H  -15.21800 41.15800 41.49200
H  -14.81000 34.92600 42.39100
H  -6.88800 36.80900 40.67300
H  -7.24200 39.63200 39.48400
H  -5.98300 40.16500 41.30500
H  -5.82000 38.47200 41.76100
H  -7.23200 39.37400 42.30300
H  -7.26400 37.87400 38.02000
H  -8.38200 36.55500 38.23400
H  -6.74800 35.03400 37.87700
H  -5.83400 35.52300 39.23800
H  -9.39400 43.17800 39.79000
H  -10.41100 44.24200 40.78200
H  -10.89500 43.65300 39.07400
H  -15.34700 44.38600 39.95200
H  -15.59300 43.55300 41.36900
H  -15.20600 42.58600 39.86900
H  -16.77200 39.01800 40.98100
H  -16.35800 37.00400 43.05000
H  -17.53300 39.99000 42.71300
H  -15.92500 40.22600 43.45300
H  -16.86600 38.85200 43.95900
H  -16.38700 35.83200 40.36100
H  -17.66800 36.99000 40.49100
H  -18.86800 35.23000 41.20500
H  -18.04300 35.36000 42.83700
H  -17.55200 34.34200 41.53900
H  -13.22400 32.20000 41.61000
H  -13.85800 33.00800 43.06800
H  -12.30300 32.12000 43.12000
H  -7.84400 34.10300 40.37200
H  -5.98900 33.99400 44.29800
H  -4.74900 34.05900 43.12100
H  -5.42600 32.52600 43.62500

