158

Mg 29.97700 58.57900 38.69700
C  27.61500 56.56000 37.32600
C  32.44000 56.18000 38.08400
C  32.31900 61.01200 39.28400
C  27.53500 61.20400 38.69700
N  30.00500 56.51600 37.65000
C  28.85300 55.88600 37.36200
C  29.12300 54.39100 37.12100
C  30.66100 54.26400 37.45100
C  31.09100 55.69500 37.80500
C  31.03000 53.26500 38.49000
C  28.78400 53.84300 35.67000
C  29.21600 54.63600 34.42200
H  28.08700 55.06000 33.48100
N  32.10000 58.49800 38.81400
C  32.88900 57.43000 38.48200
C  34.30100 57.79900 38.73700
C  34.23500 59.18500 39.20800
C  32.84600 59.64400 39.07500
C  35.49200 56.88100 38.57200
C  35.48400 59.92300 39.58300
O  36.60700 59.42400 39.64000
C  35.48500 61.44600 39.92100
N  29.94200 60.74600 39.01700
C  31.02700 61.44800 39.39000
C  30.75800 62.93300 39.39100
C  29.21400 62.93700 39.46900
C  28.81100 61.56100 39.04600
C  31.55400 63.86100 40.39400
C  28.47700 64.12300 38.69000
C  28.54100 64.01500 37.10500
N  28.04600 58.88000 38.07200
C  27.13100 59.96400 38.20500
C  25.79700 59.63000 37.71500
C  25.86900 58.19000 37.57600
C  27.28200 57.92400 37.65600
C  24.51800 60.48800 37.56600
C  25.10100 56.99900 37.27900
O  23.90900 56.70500 37.14200
C  26.25600 55.88100 37.03600
C  25.77900 54.74200 37.92400
O  26.05100 54.56400 39.10000
O  24.90200 53.95600 37.21300
C  24.23400 52.93100 37.98200
H  33.13000 55.33400 38.05400
H  32.98400 61.86000 39.45800
H  26.74400 61.94000 38.85400
H  28.51200 53.81200 37.81400
H  31.11500 54.04600 36.48400
H  30.15700 52.92800 39.05000
H  31.76500 53.66000 39.19100
H  31.44500 52.36000 38.04700
H  27.76800 53.45100 35.61700
H  29.38200 52.93500 35.59100
H  29.90200 54.02100 33.83800
H  29.60400 55.57000 34.82900
H  36.11200 57.36700 37.81800
H  35.16900 55.93200 38.14400
H  36.12800 56.66100 39.43000
H  36.46000 61.83400 40.21400
H  34.79300 61.59700 40.75000
H  35.10400 62.09700 39.13400
H  30.96300 63.31500 38.39100
H  28.95000 63.14600 40.50600
H  32.29900 64.48800 39.90400
H  32.02600 63.30500 41.20400
H  30.83800 64.52100 40.88500
H  28.84800 65.12000 38.93100
H  27.47400 64.01700 39.10500
H  28.93900 64.90800 36.62300
H  27.55400 63.76000 36.71700
H  29.06800 63.14300 36.71800
H  23.76700 60.01400 36.93400
H  24.69300 61.49300 37.18000
H  23.99000 60.54600 38.51700
H  26.21100 55.47400 36.02600
H  23.72600 52.27200 37.27900
H  23.54200 53.43100 38.65900
H  24.92600 52.27100 38.50600
Mg -1.86300 35.01000 27.31900
C  -3.48600 33.17900 29.94800
C  -0.43100 36.97200 29.64400
C  -0.52500 36.59700 24.89500
C  -3.57700 32.69300 24.98800
N  -2.01800 35.07700 29.56000
C  -2.73900 34.28600 30.43200
C  -2.54400 34.71100 31.90600
C  -1.76500 36.10700 31.70700
C  -1.33900 36.02500 30.19800
C  -2.63200 37.43100 31.99800
C  -1.70600 33.56200 32.64900
C  -2.28000 32.92300 33.86800
H  -1.35600 32.86200 35.10600
N  -0.70900 36.57500 27.31400
C  -0.11200 37.32200 28.31200
C  0.76600 38.25500 27.82300
C  0.63900 38.20100 26.44000
C  -0.27300 37.13200 26.11600
C  1.58300 39.16000 28.73300
C  1.30200 39.10100 25.32600
O  0.96000 39.08900 24.17400
C  2.32100 40.19400 25.80300
N  -2.23500 34.82700 25.27200
C  -1.37100 35.56900 24.48000
C  -1.40800 35.14900 22.98600
C  -2.31000 33.96300 23.00800
C  -2.76700 33.81300 24.53600
C  -1.83300 36.30400 22.10700
C  -1.64700 32.66000 22.37900
C  -0.37700 32.00700 22.96200
N  -3.23600 33.23300 27.39600
C  -3.84800 32.50700 26.40400
C  -4.64200 31.42800 27.00900
C  -4.61600 31.66600 28.40400
C  -3.72800 32.79600 28.57400
C  -5.42300 30.43500 26.22900
C  -5.05800 31.29100 29.70800
O  -5.76400 30.38900 29.96200
C  -4.43800 32.28100 30.75000
C  -5.44900 33.03800 31.58300
O  -6.00300 34.05700 31.22200
O  -5.51600 32.44300 32.84600
C  -6.44700 33.11700 33.73300
H  0.06100 37.64400 30.35100
H  -0.01500 36.91200 23.98200
H  -3.85100 31.98300 24.20500
H  -3.53700 34.84500 32.33400
H  -0.92800 36.15700 32.40400
H  -3.69000 37.34800 31.74800
H  -2.11900 38.24400 31.48500
H  -2.59200 37.68600 33.05700
H  -0.78200 33.99100 33.03500
H  -1.40900 32.80600 31.92200
H  -2.52600 31.87300 33.71000
H  -3.11500 33.55700 34.16600
H  2.61400 39.19900 28.38200
H  1.55600 38.95100 29.80300
H  1.23600 40.18800 28.62700
H  1.69600 40.86300 26.39400
H  2.74300 40.85400 25.04600
H  3.15800 39.67700 26.27200
H  -0.41400 34.84900 22.65400
H  -3.12800 34.22700 22.33800
H  -0.98100 36.86800 21.72800
H  -2.52200 36.89400 22.71000
H  -2.35300 36.00600 21.19700
H  -1.51900 32.74500 21.30000
H  -2.45500 31.93600 22.48800
H  -0.29800 32.45600 23.95300
H  0.43100 32.25200 22.27300
H  -0.43700 30.92400 23.07000
H  -5.03600 29.42500 26.36400
H  -5.24400 30.62200 25.17000
H  -6.49700 30.50900 26.39900
H  -3.95100 31.66300 31.50500
H  -7.11300 33.77700 33.17700
H  -5.98800 33.58300 34.60500
H  -7.14700 32.36700 34.09900

