158

Mg 8.37300 3.02000 27.58300
C  9.66800 1.59900 30.62700
C  6.70500 5.26800 29.53700
C  6.93600 4.14100 24.76700
C  9.73100 0.40000 25.89700
N  8.26000 3.41400 29.92600
C  8.92300 2.70600 30.88600
C  8.72800 3.42100 32.16900
C  7.67000 4.51900 31.87000
C  7.43900 4.42400 30.33700
C  6.33800 4.27100 32.64700
C  9.97700 3.96400 32.81700
C  9.90300 4.49900 34.23800
H  10.91500 4.00800 35.18600
N  7.11500 4.54900 27.20100
C  6.43400 5.32900 28.17600
C  5.69100 6.36700 27.43700
C  5.70300 5.96800 26.10300
C  6.57300 4.78400 25.98300
C  4.94900 7.46900 28.16400
C  5.04400 6.62700 24.87200
O  4.92600 6.07300 23.76300
C  4.55800 8.00900 25.03700
N  8.26900 2.33700 25.58000
C  7.65300 2.93000 24.57800
C  7.79400 2.17100 23.23000
C  8.87800 1.15300 23.59100
C  9.00200 1.33000 25.08700
C  6.44500 1.50000 22.80300
C  10.20800 1.29100 22.88500
C  10.86600 -0.01000 22.39200
N  9.53800 1.41400 28.13000
C  10.02500 0.42800 27.30000
C  10.88100 -0.54000 28.05000
C  10.69600 -0.06300 29.33200
C  9.85900 1.05900 29.36100
C  11.78700 -1.59900 27.50900
C  11.07900 -0.33300 30.71000
O  11.83900 -1.20400 31.11800
C  10.43500 0.73200 31.62700
C  9.77600 0.01400 32.68800
O  8.68700 -0.60500 32.61700
O  10.41500 0.23000 33.87100
C  9.76200 -0.17400 35.09700
H  6.23400 6.04600 30.14100
H  6.34700 4.39700 23.88400
H  9.91800 -0.50400 25.31400
H  8.28800 2.65400 32.80500
H  8.01700 5.51600 32.14200
H  5.84500 5.03100 33.25400
H  6.57700 3.45100 33.32400
H  5.53900 3.81600 32.06100
H  10.35300 4.83500 32.28000
H  10.84000 3.32300 32.63900
H  8.94300 4.25600 34.69100
H  10.21000 5.54200 34.16500
H  3.93400 7.63800 27.80500
H  5.45900 8.43200 28.14900
H  4.76300 7.27700 29.22100
H  5.36300 8.60800 25.46300
H  3.75000 7.88400 25.75700
H  4.37900 8.39200 24.03300
H  8.13900 2.90800 22.50400
H  8.61200 0.10400 23.46400
H  6.50600 0.41300 22.84700
H  6.19800 1.73200 21.76700
H  5.70700 1.85800 23.52100
H  10.93600 1.82600 23.49400
H  10.03500 2.08200 22.15600
H  11.47800 0.25700 21.53100
H  10.15100 -0.81800 22.23400
H  11.45900 -0.28500 23.26400
H  12.83900 -1.31500 27.47600
H  11.33000 -1.91300 26.57100
H  11.63300 -2.52100 28.07100
H  11.28200 1.20800 32.12100
H  8.73800 -0.52700 34.97200
H  9.83700 0.61100 35.84900
H  10.27900 -1.00300 35.58100
Mg -2.33100 34.27800 27.06700
C  -3.29300 32.73500 29.99200
C  -0.77900 36.82100 29.04000
C  -1.68900 35.99300 24.34500
C  -4.00500 31.86100 25.19100
N  -2.10600 34.64700 29.26400
C  -2.54800 33.87100 30.25800
C  -2.04400 34.45500 31.61800
C  -1.35700 35.84600 31.23800
C  -1.46000 35.80800 29.70100
C  -2.07400 37.11000 31.67200
C  -1.16200 33.50400 32.44100
C  -1.65900 33.38600 33.87200
H  -0.69900 33.03500 35.01800
N  -1.29600 36.10900 26.75300
C  -0.70200 36.96400 27.63600
C  -0.06500 38.02800 26.99800
C  -0.40300 37.90700 25.60500
C  -1.15900 36.61100 25.50300
C  0.74500 39.09500 27.72000
C  -0.12100 38.87200 24.46500
O  -0.65300 38.65500 23.35900
C  0.65800 40.10800 24.66200
N  -2.76200 33.93100 25.11000
C  -2.33900 34.76200 24.09300
C  -2.78500 34.31300 22.65200
C  -3.27700 32.84000 22.98500
C  -3.37800 32.87200 24.52100
C  -3.86900 35.12000 21.83400
C  -2.50400 31.61000 22.32400
C  -1.18700 31.25300 22.96100
N  -3.52800 32.72900 27.43000
C  -4.16000 31.81100 26.61300
C  -4.85300 30.83200 27.34600
C  -4.49800 31.15000 28.66200
C  -3.68000 32.31700 28.68800
C  -5.57400 29.72900 26.69600
C  -4.80700 30.73800 29.97700
O  -5.59800 29.85900 30.32500
C  -4.00900 31.74000 30.96400
C  -4.95800 32.38400 31.85500
O  -5.73200 33.27000 31.57300
O  -4.95600 31.78800 33.04100
C  -5.91200 32.19500 34.02600
H  -0.35300 37.61900 29.65100
H  -1.55300 36.44800 23.36200
H  -4.51800 31.12700 24.56600
H  -2.99900 34.65700 32.10200
H  -0.41300 35.85600 31.78400
H  -2.94800 36.94200 32.30200
H  -2.45800 37.64200 30.80200
H  -1.35600 37.81800 32.08700
H  -0.10200 33.75800 32.45800
H  -1.18900 32.52900 31.95500
H  -2.34600 32.53900 33.87800
H  -2.14000 34.33700 34.10000
H  0.94800 38.81600 28.75400
H  0.13200 39.99100 27.82000
H  1.62000 39.38400 27.13900
H  0.44000 40.83300 23.87700
H  1.70900 39.83900 24.55200
H  0.43200 40.54800 25.63300
H  -1.93500 34.12600 21.99500
H  -4.26000 32.69700 22.53800
H  -4.17100 35.97400 22.43900
H  -4.79700 34.54700 21.82100
H  -3.62200 35.43900 20.82100
H  -2.25200 31.92600 21.31200
H  -3.11500 30.71700 22.19800
H  -1.06000 30.17800 22.83800
H  -0.96900 31.52500 23.99300
H  -0.42200 31.79500 22.40500
H  -5.20900 29.35700 25.73900
H  -6.66000 29.81200 26.67700
H  -5.43800 28.93700 27.43200
H  -3.30800 31.14200 31.54600
H  -5.54400 33.01100 34.64900
H  -6.05600 31.34600 34.69400
H  -6.83100 32.52000 33.53800

