158

Mg 17.07900 -2.08600 27.68900
C  16.15500 -0.06800 30.24300
C  19.18300 -3.84200 29.83100
C  18.45000 -3.81900 25.03200
C  15.77000 0.16200 25.40200
N  17.56300 -1.98600 29.79100
C  16.97700 -1.09800 30.69600
C  17.45900 -1.33300 32.15100
C  18.63700 -2.30600 31.88700
C  18.41600 -2.77300 30.38600
C  20.08800 -1.71500 32.05000
C  16.21200 -1.91700 32.91000
C  16.13500 -1.40800 34.41600
H  17.23300 -0.75600 35.19900
N  18.51200 -3.70400 27.43300
C  19.14000 -4.34800 28.44100
C  19.91200 -5.46100 27.96600
C  19.79100 -5.38800 26.57100
C  18.93000 -4.26700 26.25900
C  20.71900 -6.44900 28.85100
C  20.50600 -6.28800 25.47800
O  20.59200 -6.00000 24.29800
C  21.14900 -7.57200 25.97700
N  16.99700 -2.00300 25.52100
C  17.72300 -2.73300 24.65800
C  17.82600 -2.08500 23.24600
C  16.94500 -0.81700 23.35000
C  16.47200 -0.92000 24.85100
C  19.28300 -1.78000 22.78200
C  15.70200 -0.78900 22.37400
C  14.66400 -1.93400 22.42000
N  16.16100 -0.37800 27.69800
C  15.64000 0.53400 26.77600
C  14.95900 1.66100 27.35600
C  15.07900 1.39400 28.77800
C  15.86900 0.21600 28.89600
C  14.09700 2.63000 26.60600
C  14.76400 1.90000 30.08300
O  14.12200 2.89300 30.33600
C  15.53600 1.09000 31.11700
C  16.36100 2.07400 31.85900
O  17.51300 2.37300 31.54100
O  15.65700 2.48800 32.97300
C  16.43100 3.21500 33.99400
H  19.84700 -4.43800 30.46100
H  18.88400 -4.33700 24.17400
H  15.42100 0.94000 24.72000
H  17.88700 -0.41400 32.55000
H  18.49900 -3.01400 32.70300
H  20.61100 -2.03000 31.14700
H  20.46800 -2.28500 32.89800
H  20.03000 -0.65900 32.31200
H  16.15200 -3.00500 32.92400
H  15.22700 -1.77500 32.46500
H  15.83500 -2.26700 35.01700
H  15.30000 -0.71800 34.29600
H  21.74100 -6.07600 28.77900
H  20.59300 -7.48000 28.51800
H  20.27900 -6.48400 29.84700
H  21.60700 -8.20300 25.21500
H  20.30700 -8.05600 26.47100
H  21.94800 -7.16000 26.59400
H  17.33700 -2.86200 22.65900
H  17.47400 0.11300 23.14400
H  19.41800 -2.18000 21.77700
H  19.97000 -2.27400 23.46900
H  19.43000 -0.70000 22.75700
H  16.05900 -0.45500 21.40000
H  15.15300 0.09400 22.70000
H  15.10000 -2.80700 22.90500
H  14.47300 -2.22900 21.38900
H  13.69000 -1.71500 22.86000
H  13.69400 2.19600 25.69000
H  14.61200 3.45000 26.10500
H  13.38400 3.09500 27.28700
H  14.83500 0.49700 31.70600
H  15.73200 3.64500 34.71100
H  17.08200 3.94300 33.51000
H  17.02800 2.49000 34.54700
Mg 36.15600 49.56800 24.97500
C  36.13200 47.98500 28.16200
C  34.66900 52.25200 26.51200
C  35.50100 50.77900 21.93900
C  37.12800 46.52900 23.46100
N  35.25900 49.91400 27.08800
C  35.64100 49.27700 28.20700
C  35.38600 50.18400 29.47300
C  34.60500 51.36900 28.87200
C  34.77400 51.14000 27.36700
C  33.11700 51.45100 29.19400
C  36.75500 50.49800 30.16500
C  36.96000 49.88600 31.57800
H  35.64600 49.79200 32.44800
N  35.36300 51.32300 24.31500
C  34.92000 52.36300 25.11200
C  34.65800 53.51200 24.34200
C  34.90000 53.09400 23.00500
C  35.20300 51.64500 23.02100
C  34.10100 54.86500 24.77700
C  34.78000 53.92800 21.69400
O  34.76700 53.41200 20.60900
C  34.64500 55.41300 21.73500
N  36.24700 48.75100 22.92700
C  35.94000 49.48500 21.88300
C  36.46400 48.92300 20.58600
C  36.97500 47.47300 21.01900
C  36.70100 47.52400 22.58200
C  35.59000 48.87500 19.23400
C  38.44700 47.16800 20.67100
C  39.55400 47.85200 21.50300
N  36.58700 47.69100 25.60400
C  37.01000 46.55400 24.89300
C  37.31000 45.46600 25.85900
C  37.02900 46.01700 27.14500
C  36.58400 47.35700 26.94800
C  37.60400 43.99900 25.56500
C  37.05600 45.70100 28.55200
O  37.61200 44.78300 29.14000
C  36.35100 46.97100 29.29700
C  35.10000 46.45100 29.82700
O  33.93200 46.48400 29.48000
O  35.35700 45.86400 31.10300
C  34.19400 45.27400 31.80400
H  34.28300 53.16700 26.96400
H  35.32900 51.20600 20.94900
H  37.57000 45.60800 23.07600
H  34.78000 49.65800 30.21100
H  35.05000 52.34300 29.08000
H  32.69500 50.52300 29.58000
H  32.59900 51.80400 28.30300
H  33.04100 52.17000 30.00900
H  36.86300 51.57700 30.04900
H  37.54400 50.08500 29.53700
H  37.52700 50.64300 32.12000
H  37.54400 48.97800 31.72700
H  34.81000 55.69100 24.72100
H  33.80000 54.76700 25.82100
H  33.19400 54.95800 24.17900
H  33.60700 55.67400 21.94200
H  34.88500 55.78300 20.73800
H  35.50900 55.80600 22.27300
H  37.29200 49.62200 20.47400
H  36.23600 46.73000 20.71800
H  35.49300 47.87900 18.80300
H  36.13100 49.35900 18.42100
H  34.62800 49.38700 19.26500
H  38.67100 47.51000 19.66100
H  38.62700 46.10200 20.81100
H  39.02600 48.37600 22.30000
H  40.01400 48.60800 20.86600
H  40.29400 47.21000 21.98000
H  38.61800 43.96100 25.16700
H  36.93800 43.66300 24.77100
H  37.41900 43.47100 26.50100
H  36.82500 47.34600 30.20400
H  34.66500 44.87100 32.70100
H  33.76000 44.42200 31.28100
H  33.47000 46.06900 31.98000

