158

Mg 24.23400 -6.20900 46.80900
C  26.60500 -3.77300 45.88100
C  22.02900 -4.66600 44.58600
C  22.16200 -8.81900 47.14200
C  26.83100 -8.10000 48.21500
N  24.28500 -4.35800 45.40000
C  25.39300 -3.58400 45.17300
C  25.12400 -2.58000 44.07400
C  23.56500 -2.66900 43.91600
C  23.23700 -3.96800 44.72500
C  22.75300 -1.48500 44.42800
C  26.03700 -2.82800 42.83000
C  26.70700 -1.64000 42.31400
H  25.97800 -0.87900 41.19900
N  22.32600 -6.72000 46.07600
C  21.59700 -5.91300 45.21200
C  20.33400 -6.54800 44.93400
C  20.21000 -7.71500 45.78400
C  21.57700 -7.80600 46.42400
C  19.43800 -6.12200 43.75600
C  18.99300 -8.68000 45.86100
O  18.00400 -8.43700 45.19700
C  19.03100 -9.85200 46.75200
N  24.53500 -8.22500 47.51200
C  23.43500 -9.05200 47.60900
C  23.80300 -10.38200 48.36600
C  25.38200 -10.17000 48.64600
C  25.58500 -8.72100 48.18300
C  23.01900 -10.63200 49.64400
C  26.29000 -11.19600 47.81500
C  27.38500 -11.83200 48.54000
N  26.20300 -5.96000 47.15800
C  27.21000 -6.80500 47.70600
C  28.45400 -6.08300 47.71100
C  28.22100 -4.88500 47.10400
C  26.87300 -4.84800 46.71300
C  29.74600 -6.59200 48.28200
C  28.89800 -3.65700 46.65000
O  30.03500 -3.25600 46.83500
C  27.85700 -2.91800 45.81900
C  27.55000 -1.62900 46.46800
O  26.84200 -1.47200 47.50000
O  28.05700 -0.69800 45.67800
C  27.74900 0.68100 45.97000
H  21.34100 -4.21200 43.87000
H  21.55100 -9.71400 47.27600
H  27.66600 -8.64500 48.66100
H  25.38300 -1.72800 44.70200
H  23.34700 -2.74000 42.85000
H  23.35500 -0.57700 44.45200
H  22.35100 -1.63800 45.42900
H  21.91200 -1.55100 43.73800
H  25.40300 -3.21700 42.03300
H  26.83300 -3.54600 43.02500
H  27.71900 -1.84700 41.96600
H  26.75800 -1.02100 43.21000
H  19.05100 -7.00500 43.24800
H  20.09700 -5.65200 43.02700
H  18.64800 -5.46100 44.11000
H  18.07700 -10.37900 46.77400
H  19.27700 -9.48500 47.74800
H  19.77300 -10.57800 46.41900
H  23.63400 -11.17400 47.63600
H  25.59500 -10.08000 49.71100
H  22.20600 -11.33000 49.44300
H  22.79500 -9.63500 50.02400
H  23.64400 -11.12700 50.38700
H  26.77000 -10.85600 46.89700
H  25.63300 -12.01200 47.51400
H  27.44900 -11.51700 49.58200
H  28.33700 -11.86500 48.01000
H  27.20100 -12.90400 48.61500
H  29.82500 -6.35200 49.34200
H  30.54200 -6.25200 47.62000
H  29.74700 -7.65700 48.05300
H  28.09100 -2.68700 44.77900
H  26.70400 0.80100 46.25700
H  27.75000 1.32500 45.09100
H  28.44600 1.01100 46.74100
Mg 48.25000 35.13600 27.82700
C  46.43000 33.68200 30.42200
C  48.72000 37.81200 29.67500
C  49.50400 36.54200 25.02900
C  47.82000 32.12800 25.91900
N  47.66500 35.71800 29.83800
C  46.99200 34.90700 30.74800
C  46.99800 35.68400 32.09900
C  47.26200 37.19400 31.72800
C  47.81800 36.96800 30.31500
C  45.98600 38.06900 31.68600
C  48.29200 35.07800 32.77000
C  48.19300 34.93100 34.32100
H  47.42300 35.92600 35.08600
N  49.00700 36.94200 27.42500
C  49.21800 37.92000 28.29200
C  49.98100 39.01500 27.68100
C  50.29600 38.62900 26.33300
C  49.61300 37.34000 26.20100
C  50.42400 40.19100 28.50400
C  51.09800 39.36000 25.32500
O  51.14400 39.01400 24.16500
C  51.73400 40.60500 25.66900
N  48.47800 34.44700 25.66000
C  49.05900 35.30400 24.71700
C  49.34800 34.55100 23.39500
C  49.02000 33.02600 23.79100
C  48.45100 33.13700 25.19600
C  48.55200 35.15800 22.21500
C  50.28500 32.12800 23.69100
C  50.86600 32.00600 22.26200
N  47.27300 33.32700 28.05400
C  47.18300 32.18900 27.20000
C  46.40600 31.10700 27.82700
C  46.08700 31.69900 29.04000
C  46.63400 33.01900 29.16000
C  46.13200 29.70900 27.38400
C  45.37400 31.48100 30.26500
O  44.75200 30.47200 30.53900
C  45.54900 32.70300 31.22500
C  45.97400 32.34600 32.59600
O  46.99800 31.73200 32.91000
O  45.04100 32.76700 33.46200
C  45.07800 32.48000 34.82000
H  48.99800 38.70900 30.23200
H  49.98300 37.00100 24.16200
H  47.64200 31.18700 25.39500
H  46.15400 35.58700 32.78200
H  47.88500 37.80000 32.38400
H  45.14600 37.67500 32.25800
H  45.65500 38.13700 30.64900
H  46.24600 39.05300 32.07500
H  49.24000 35.56000 32.53200
H  48.26800 34.02600 32.48500
H  49.20300 35.02400 34.72000
H  47.77400 33.96700 34.61000
H  51.44400 40.16300 28.88700
H  49.66100 40.58800 29.17400
H  50.16200 40.98500 27.80400
H  52.17900 40.51800 26.66000
H  50.97500 41.37700 25.53900
H  52.45300 40.95600 24.92800
H  50.40700 34.65400 23.15900
H  48.29200 32.55500 23.13100
H  49.30900 35.41000 21.47400
H  47.99200 36.05400 22.48100
H  47.85100 34.44800 21.77500
H  49.96800 31.13600 24.01400
H  51.00600 32.51700 24.41000
H  50.17400 32.45700 21.55100
H  50.78600 30.95600 21.98100
H  51.88100 32.40400 22.25000
H  46.49600 29.41900 26.39800
H  45.08400 29.45300 27.53700
H  46.70400 29.14500 28.12100
H  44.53500 33.10200 31.23000
H  44.34000 31.72700 35.09400
H  44.79100 33.41600 35.29800
H  46.08000 32.17000 35.11700

