158

Mg -10.65700 39.08800 42.23600
C  -10.04500 35.90500 41.35800
C  -7.76800 40.09200 40.66600
C  -11.82300 42.31500 42.46900
C  -13.99100 38.06100 43.31900
N  -9.22100 38.12700 40.89600
C  -9.17900 36.79300 40.67400
C  -7.86500 36.44000 39.99600
C  -7.01100 37.74300 40.05500
C  -8.05900 38.71200 40.53600
C  -5.86400 37.69200 41.10300
C  -8.12000 35.90700 38.51200
C  -7.16000 34.74800 38.06300
H  -6.16600 35.22700 37.07300
N  -9.93900 40.95900 41.71500
C  -8.72800 41.19800 41.14800
C  -8.46900 42.60900 40.96000
C  -9.61900 43.29400 41.38500
C  -10.53300 42.20400 41.84700
C  -7.13700 43.20000 40.43200
C  -9.76300 44.87100 41.46000
O  -8.81500 45.60100 41.15500
C  -11.12100 45.47900 41.88800
N  -12.62300 40.06200 42.88000
C  -12.73400 41.37900 42.96300
C  -14.12600 41.78600 43.34900
C  -14.78800 40.47800 43.75400
C  -13.75600 39.44700 43.30500
C  -14.34200 43.02200 44.29800
C  -16.17400 40.18300 43.13200
C  -17.21100 39.70100 44.13200
N  -11.74900 37.40100 42.49800
C  -13.01900 37.09300 42.98000
C  -13.23100 35.69300 42.98500
C  -12.13300 35.14600 42.44100
C  -11.26600 36.22600 42.07600
C  -14.47800 34.90300 43.39000
C  -11.41100 33.92600 42.07800
O  -11.75100 32.75700 42.23900
C  -10.05400 34.35900 41.26500
C  -8.86200 33.86800 42.07200
O  -8.71000 33.87200 43.29200
O  -8.05300 33.24300 41.17400
C  -6.79500 32.66500 41.62100
H  -6.77400 40.39100 40.32600
H  -12.21600 43.33100 42.55000
H  -14.98200 37.72500 43.63300
H  -7.57700 35.52700 40.51800
H  -6.68900 38.04000 39.05700
H  -5.69500 36.64900 41.37000
H  -6.06200 38.28100 41.99800
H  -4.90700 38.09100 40.76600
H  -8.16900 36.70000 37.76600
H  -9.14000 35.52700 38.45000
H  -7.63500 33.82600 37.72900
H  -6.64100 34.32200 38.92200
H  -6.64600 43.94700 41.05500
H  -7.45700 43.73500 39.53800
H  -6.40700 42.47700 40.06900
H  -11.25100 45.21700 42.93800
H  -11.87900 45.01500 41.25800
H  -11.12000 46.53600 41.62000
H  -14.54800 42.16700 42.42000
H  -14.90200 40.52900 44.83700
H  -14.78400 42.76300 45.26000
H  -14.88000 43.77600 43.72200
H  -13.36300 43.41100 44.57600
H  -16.16400 39.41600 42.35800
H  -16.52600 41.09800 42.65600
H  -17.90300 39.01400 43.64600
H  -17.75300 40.60300 44.41600
H  -16.75400 39.19500 44.98300
H  -15.07100 34.82900 42.47800
H  -15.13300 35.37600 44.12200
H  -14.20100 33.96800 43.87700
H  -10.05700 34.05900 40.21700
H  -5.96100 33.35400 41.75200
H  -6.40100 31.98300 40.86700
H  -6.96700 32.08100 42.52500
Mg -11.34800 16.20800 42.92400
C  -7.89300 16.54200 42.48100
C  -11.59000 19.53200 42.44400
C  -14.70800 15.69800 42.88800
C  -10.93000 12.75600 42.74400
N  -9.84300 17.78300 42.33400
C  -8.53800 17.72800 42.28200
C  -7.91900 19.13600 42.08100
C  -9.07300 20.11100 42.39900
C  -10.27100 19.09900 42.34200
C  -9.03100 20.78800 43.77000
C  -7.37200 19.15000 40.57300
C  -5.90200 19.59200 40.38000
H  -5.05600 18.82800 39.34700
N  -12.95500 17.43600 42.60600
C  -12.84800 18.80900 42.44800
C  -14.22300 19.27800 42.31800
C  -15.15900 18.18400 42.43700
C  -14.28600 16.98900 42.64000
C  -14.47700 20.77300 42.25700
C  -16.67900 18.27300 42.40700
O  -17.29500 19.34700 42.20000
C  -17.63200 17.12000 42.70600
N  -12.66500 14.41800 42.84300
C  -14.01100 14.52300 43.00600
C  -14.63900 13.14200 43.19700
C  -13.45900 12.13000 42.91600
C  -12.27200 13.15500 42.78400
C  -15.33800 12.99500 44.61000
C  -13.58300 11.28100 41.67700
C  -13.43600 9.73900 41.84200
N  -9.80900 14.89100 42.71200
C  -9.75300 13.51300 42.73100
C  -8.34100 13.08000 42.65200
C  -7.65700 14.20700 42.43500
C  -8.48900 15.29500 42.56700
C  -7.86000 11.64900 42.80700
C  -6.24900 14.72300 42.25400
O  -5.21700 14.13000 42.14300
C  -6.38300 16.28700 42.34200
C  -5.59200 16.82700 43.51100
O  -5.57900 16.35600 44.62800
O  -4.64000 17.77700 43.05600
C  -3.51500 18.35600 43.88600
H  -11.65200 20.62200 42.48100
H  -15.77600 15.53400 43.04700
H  -10.83100 11.67100 42.67000
H  -7.11900 19.37000 42.78400
H  -9.02800 20.88400 41.63200
H  -8.19100 20.36800 44.32300
H  -9.95800 20.65500 44.32700
H  -8.93000 21.87100 43.69000
H  -8.00900 19.85300 40.03700
H  -7.38200 18.17500 40.08600
H  -5.46200 19.33000 41.34200
H  -5.87900 20.68100 40.35200
H  -14.87800 21.21700 43.16800
H  -15.14600 20.98400 41.42200
H  -13.56100 21.29100 41.97200
H  -18.64300 17.34000 42.36600
H  -17.51500 16.67100 43.69300
H  -17.20600 16.42500 41.98200
H  -15.34100 13.01800 42.37300
H  -13.25700 11.56000 43.82300
H  -16.37400 12.65700 44.58500
H  -15.31800 13.95300 45.13100
H  -14.79500 12.23400 45.17000
H  -12.85200 11.54000 40.91200
H  -14.52900 11.32300 41.13800
H  -14.38600 9.26400 41.59700
H  -13.11400 9.60900 42.87500
H  -12.67100 9.29600 41.20300
H  -8.14700 11.17000 43.74200
H  -6.79500 11.66600 42.57500
H  -8.33200 11.07300 42.01100
H  -6.00700 16.73000 41.42000
H  -2.59700 17.95600 43.45500
H  -3.50500 18.11500 44.94900
H  -3.65100 19.42100 43.70000

