158

Mg 30.03900 57.54800 40.55900
C  27.33500 55.55100 39.93400
C  32.19800 55.17800 39.46200
C  32.68600 59.71700 40.75100
C  27.96100 60.05100 41.77900
N  29.77700 55.65700 39.61400
C  28.55500 54.98000 39.61300
C  28.77600 53.55400 39.19000
C  30.30400 53.46900 39.21700
C  30.81400 54.79800 39.51300
C  30.90500 52.41300 40.13900
C  28.06900 53.28700 37.82100
C  28.49200 54.10000 36.61500
H  27.47600 54.95700 35.76700
N  32.11300 57.50100 39.94300
C  32.76400 56.40200 39.50700
C  34.13600 56.64200 39.27600
C  34.30000 57.94400 39.66600
C  33.01200 58.50200 40.18100
C  35.10500 55.76900 38.65100
C  35.55700 58.78000 39.51400
O  36.64100 58.23300 39.33100
C  35.58500 60.34800 39.67900
N  30.26700 59.63900 40.94200
C  31.47600 60.26600 41.03500
C  31.27500 61.74300 41.37800
C  29.89400 61.73100 42.08300
C  29.29200 60.34600 41.56300
C  32.32100 62.53200 42.22900
C  28.99500 62.94700 41.81200
C  28.55700 63.61800 43.16200
N  28.07700 57.77900 40.79700
C  27.35700 58.87200 41.31800
C  25.91500 58.50500 41.38800
C  25.84800 57.24200 40.77200
C  27.22600 56.81200 40.44600
C  24.72600 59.48100 41.62400
C  25.04400 56.09300 40.27300
O  23.83800 56.04400 40.24800
C  25.92400 55.01800 39.81300
C  25.56400 53.83900 40.61000
O  25.97700 53.59800 41.72000
O  24.61200 53.07400 39.92100
C  24.05000 51.92600 40.51100
H  32.97800 54.46000 39.19700
H  33.57000 60.30300 41.01000
H  27.36600 60.79900 42.30600
H  28.34200 52.90600 39.95200
H  30.50900 53.27000 38.16500
H  30.60900 51.38900 39.91100
H  30.49900 52.67200 41.11700
H  31.98200 52.46400 40.29400
H  26.98000 53.26200 37.86200
H  28.32900 52.24900 37.61100
H  28.97300 53.41800 35.91400
H  29.19500 54.86900 36.93600
H  35.82200 56.31100 38.03500
H  34.73700 54.95400 38.02700
H  35.67300 55.18600 39.37600
H  34.67900 60.77700 39.25200
H  36.35600 60.58200 38.94500
H  35.77500 60.56900 40.73000
H  31.19200 62.19900 40.39100
H  30.05000 61.61100 43.15500
H  33.17000 61.85100 42.27900
H  31.92200 62.79100 43.21000
H  32.61300 63.45900 41.73700
H  28.09000 62.63000 41.29500
H  29.56900 63.67300 41.23600
H  28.95300 64.60800 43.38500
H  28.68500 63.04700 44.08100
H  27.47700 63.73700 43.25000
H  25.04900 60.27500 42.29700
H  23.88100 58.94300 42.05400
H  24.42300 59.91200 40.67000
H  25.63100 54.95100 38.76500
H  23.03200 51.92000 40.12200
H  24.12500 51.82100 41.59400
H  24.54900 50.99700 40.23400
Mg -4.97400 25.83500 26.31600
C  -3.62300 27.69500 28.98500
C  -6.70900 23.91000 28.58600
C  -6.10700 24.00800 23.69600
C  -3.22600 27.82000 24.10500
N  -4.96700 25.72200 28.53000
C  -4.55500 26.70500 29.42400
C  -5.17200 26.44500 30.81700
C  -5.79400 24.98400 30.73200
C  -5.84100 24.86700 29.19100
C  -4.94300 23.86100 31.32000
C  -6.26100 27.48000 31.12100
C  -6.61200 27.56400 32.64300
H  -6.18600 26.49600 33.62900
N  -6.28700 24.26900 26.13600
C  -6.95700 23.67900 27.20000
C  -7.83000 22.65700 26.64900
C  -7.74500 22.71200 25.21400
C  -6.65900 23.68700 24.93800
C  -8.93100 22.04600 27.49800
C  -8.56800 21.90100 24.15800
O  -8.53500 22.15800 22.95900
C  -9.57000 20.80000 24.61800
N  -4.76100 25.89800 24.19200
C  -5.22000 25.02000 23.31500
C  -4.66700 25.22100 21.94300
C  -4.08200 26.64900 22.02600
C  -4.02000 26.82300 23.56600
C  -3.71000 24.11900 21.29000
C  -4.98300 27.87200 21.47800
C  -4.41600 28.50200 20.19700
N  -3.66500 27.35700 26.46100
C  -3.05900 28.13700 25.44600
C  -2.11300 29.10000 26.02800
C  -2.28700 28.97600 27.41500
C  -3.25300 27.92200 27.61100
C  -1.30400 30.12600 25.24200
C  -1.88900 29.52700 28.80000
O  -1.04300 30.28900 29.13200
C  -2.85700 28.75200 29.78200
C  -2.16300 28.07200 30.98800
O  -1.43100 27.06200 30.94600
O  -2.56600 28.74200 32.14500
C  -2.02200 28.05500 33.35600
H  -7.13900 23.26900 29.35900
H  -6.43500 23.36800 22.87400
H  -2.72800 28.55500 23.46800
H  -4.27500 26.48300 31.43400
H  -6.76000 24.89500 31.22900
H  -3.91900 24.23500 31.29700
H  -4.91200 22.95300 30.71900
H  -5.26600 23.56400 32.31700
H  -7.15400 27.12600 30.60500
H  -6.01100 28.39700 30.58700
H  -7.69100 27.64500 32.77200
H  -6.12200 28.49700 32.92400
H  -9.85300 22.53500 27.18200
H  -8.71600 22.19600 28.55600
H  -8.96800 20.97200 27.31600
H  -9.13500 20.10900 25.34100
H  -9.91600 20.24900 23.74300
H  -10.34500 21.34900 25.15200
H  -5.59700 25.39200 21.40100
H  -3.05300 26.76200 21.68300
H  -3.78800 23.14100 21.76500
H  -2.66700 24.39400 21.44700
H  -3.94900 24.11100 20.22700
H  -5.15100 28.66900 22.20300
H  -5.89900 27.47100 21.04400
H  -3.95900 27.68200 19.64300
H  -3.64800 29.22400 20.47100
H  -5.24300 29.05200 19.74900
H  -0.49400 29.59900 24.73800
H  -0.86800 31.01100 25.70400
H  -1.92600 30.39900 24.38900
H  -3.55600 29.41100 30.29600
H  -2.69100 28.36500 34.15900
H  -1.04100 28.46500 33.59300
H  -1.95500 26.96800 33.41500

