158

Mg 17.32900 -1.20200 27.54800
C  16.21000 0.87400 30.04800
C  19.75100 -2.39000 29.72200
C  18.62000 -2.91700 25.00800
C  15.23500 0.56400 25.32000
N  18.00200 -0.74800 29.58700
C  17.21100 0.05000 30.47400
C  17.70000 -0.07000 31.96600
C  18.96200 -0.93900 31.83300
C  18.88300 -1.42600 30.29200
C  20.29800 -0.33300 32.23100
C  16.63100 -0.85100 32.85200
C  16.52000 -0.48300 34.35100
H  17.75300 0.06200 35.09200
N  18.81600 -2.66000 27.49100
C  19.76400 -2.95300 28.44000
C  20.52000 -4.09200 27.99700
C  20.31600 -4.10200 26.55800
C  19.16800 -3.18800 26.32900
C  21.59600 -4.86400 28.90100
C  21.06300 -4.94200 25.46700
O  20.80000 -4.84400 24.29000
C  22.10200 -5.97000 25.95600
N  16.97400 -1.20900 25.41100
C  17.63600 -1.99000 24.54000
C  17.31500 -1.68500 23.12200
C  16.13100 -0.66800 23.23900
C  16.08100 -0.41100 24.76500
C  18.52600 -1.07000 22.39600
C  14.82000 -1.09300 22.56100
C  13.79200 -1.84200 23.46000
N  15.94900 0.37900 27.58200
C  15.13100 0.99100 26.65800
C  14.31500 2.00000 27.27400
C  14.69000 1.91200 28.60800
C  15.63600 0.94400 28.75500
C  13.34100 2.91800 26.60200
C  14.39400 2.49600 29.86700
O  13.71200 3.50700 30.11600
C  15.39700 1.85500 30.91900
C  16.26000 2.90400 31.52400
O  17.40800 3.13200 31.38700
O  15.52800 3.53500 32.46900
C  16.20300 4.54300 33.32400
H  20.58400 -2.62100 30.39000
H  19.07400 -3.33200 24.10600
H  14.51000 0.95200 24.60100
H  17.88700 0.94300 32.32300
H  18.95100 -1.94200 32.26000
H  20.43800 -0.61900 33.27300
H  20.34200 0.75600 32.26200
H  21.11000 -0.71600 31.61200
H  16.85400 -1.91600 32.78600
H  15.67500 -0.73400 32.34300
H  16.18700 -1.33100 34.94900
H  15.67700 0.20500 34.40200
H  22.63200 -4.92800 28.57000
H  21.18400 -5.86700 29.01500
H  21.43900 -4.52000 29.92300
H  21.82600 -6.37900 26.92800
H  23.05100 -5.44000 26.02400
H  22.17300 -6.86500 25.33700
H  16.94700 -2.56400 22.59200
H  16.27700 0.30800 22.77700
H  19.26600 -0.73100 23.12200
H  18.24400 -0.21100 21.78800
H  19.04500 -1.82700 21.80900
H  15.15900 -1.70700 21.72700
H  14.42800 -0.16000 22.15700
H  12.77500 -1.45000 23.46000
H  14.12600 -1.96500 24.49100
H  13.69500 -2.90600 23.24500
H  13.02600 2.54400 25.62800
H  13.79300 3.89800 26.44900
H  12.53900 3.03800 27.33000
H  14.82900 1.31600 31.67800
H  16.70000 5.29500 32.71000
H  16.90400 3.99600 33.95500
H  15.45800 4.98800 33.98400
Mg 6.69400 54.61100 40.74900
C  5.83900 51.14400 40.57100
C  9.82900 53.80300 40.00100
C  7.18700 57.82100 39.93600
C  3.19100 55.27600 40.83700
N  7.65300 52.64800 40.21000
C  7.22300 51.38900 40.22700
C  8.27800 50.36200 39.84500
C  9.56400 51.16100 40.19100
C  9.01600 52.65700 40.12800
C  10.21400 50.74200 41.57700
C  8.19700 49.81100 38.34000
C  7.38600 50.68700 37.27200
H  6.78400 50.02900 36.02800
N  8.34700 55.76900 40.27200
C  9.60400 55.21200 39.95000
C  10.49500 56.26600 39.67200
C  9.75300 57.49200 39.81500
C  8.38100 57.04100 40.00900
C  11.91500 55.98700 39.35900
C  10.37500 58.86500 39.68000
O  11.53900 58.98500 39.42000
C  9.54600 60.09000 39.73700
N  5.35900 56.35700 40.44300
C  5.85000 57.53800 40.08700
C  4.74500 58.54800 39.74000
C  3.46600 57.80200 40.33900
C  4.01500 56.35500 40.54300
C  5.03500 60.00400 40.24600
C  2.14800 57.83200 39.48300
C  0.86500 58.30100 40.21200
N  4.84900 53.48300 40.83600
C  3.51700 53.90300 41.02200
C  2.68100 52.71500 41.18800
C  3.52400 51.68400 41.05000
C  4.86700 52.17700 40.82700
C  1.20000 52.74900 41.41700
C  3.58400 50.25900 41.06700
O  2.71900 49.41400 41.22700
C  5.10300 49.86800 40.81100
C  5.10100 48.97400 39.53100
O  4.82800 49.36900 38.41600
O  5.39900 47.65700 39.93200
C  5.11800 46.57900 38.98100
H  10.86200 53.45000 39.95600
H  7.36200 58.76600 39.41700
H  2.13100 55.47500 41.00900
H  8.14100 49.42800 40.39000
H  10.35800 50.91800 39.48500
H  10.38600 51.65200 42.15200
H  11.16400 50.28800 41.29500
H  9.65400 50.10200 42.26000
H  7.81000 48.79600 38.43100
H  9.22300 49.59600 38.03900
H  8.17700 51.36400 36.94800
H  6.59100 51.29400 37.70500
H  12.21500 56.31800 38.36400
H  12.06200 54.92000 39.52500
H  12.59900 56.33700 40.13200
H  8.89600 60.13200 38.86400
H  10.29900 60.87800 39.76800
H  8.98300 60.12900 40.66900
H  4.73500 58.63500 38.65400
H  3.29400 58.23300 41.32500
H  6.07600 60.08000 40.56000
H  4.57200 60.44900 41.12700
H  4.92700 60.73500 39.44600
H  2.00000 56.91700 38.91000
H  2.38900 58.55500 38.70300
H  0.41000 59.15100 39.70400
H  1.11900 58.71000 41.19000
H  0.17700 57.47500 40.39200
H  0.65100 52.02700 40.81200
H  0.89000 53.78400 41.27500
H  0.97400 52.70600 42.48200
H  5.38100 49.26200 41.67400
H  4.94900 45.57600 39.37400
H  5.84700 46.50700 38.17400
H  4.21200 46.82700 38.42800

