158

Mg 16.33800 -1.05900 27.40800
C  15.42200 1.04800 29.92400
C  18.22600 -2.89300 29.60600
C  17.43300 -2.91900 24.89600
C  14.76600 1.10500 25.15300
N  16.93000 -0.81600 29.49400
C  16.23200 -0.00900 30.31300
C  16.60100 -0.33000 31.76700
C  17.71800 -1.45800 31.63000
C  17.70000 -1.70500 30.12400
C  19.10000 -1.14000 32.20800
C  15.40900 -0.63500 32.77700
C  15.40900 -0.03600 34.19200
H  16.82500 0.31900 34.80300
N  17.75200 -2.70400 27.29100
C  18.28200 -3.41100 28.30300
C  18.99300 -4.56300 27.76700
C  18.79700 -4.51500 26.38000
C  17.97100 -3.34900 26.13700
C  19.73600 -5.51200 28.65000
C  19.48100 -5.38700 25.32400
O  19.25600 -5.25600 24.14400
C  20.52400 -6.35100 25.78900
N  15.97100 -1.05900 25.31000
C  16.68300 -1.83900 24.45200
C  16.53900 -1.51100 22.97400
C  15.66000 -0.23900 23.06000
C  15.35700 -0.03000 24.58500
C  17.93000 -1.16700 22.34000
C  14.31700 -0.44200 22.28000
C  14.15600 0.71800 21.26600
N  15.04100 0.53700 27.47400
C  14.55000 1.38300 26.49200
C  14.02100 2.58000 27.12100
C  14.25600 2.41400 28.44800
C  14.95000 1.23500 28.65300
C  13.30400 3.67800 26.41200
C  14.13500 3.05100 29.71200
O  13.61500 4.07000 29.98900
C  14.74100 2.12700 30.80300
C  15.59700 2.87800 31.68400
O  16.80700 3.17800 31.54500
O  14.92800 3.22000 32.82900
C  15.56000 3.84000 34.02600
H  18.89100 -3.34500 30.34500
H  17.86000 -3.45400 24.04500
H  14.40300 1.83000 24.42200
H  17.21600 0.50000 32.11400
H  17.31000 -2.37200 32.06100
H  19.86800 -1.06400 31.43800
H  19.49200 -1.88700 32.89800
H  19.02000 -0.24700 32.82800
H  15.35300 -1.69200 33.03700
H  14.51000 -0.35100 32.22900
H  14.99600 -0.77500 34.87900
H  14.83100 0.88800 34.16500
H  20.75300 -5.16200 28.82700
H  19.71400 -6.55000 28.31800
H  19.36400 -5.41800 29.67000
H  21.11900 -6.69200 24.94200
H  20.04000 -7.24500 26.18400
H  21.10600 -5.75600 26.49300
H  16.08300 -2.34600 22.44200
H  16.25700 0.59200 22.68400
H  18.82300 -1.62900 22.76200
H  18.16300 -0.11600 22.51100
H  17.89900 -1.41900 21.28000
H  13.48400 -0.48100 22.98200
H  14.35400 -1.41800 21.79600
H  14.98700 0.97300 20.60900
H  13.78900 1.59800 21.79400
H  13.35000 0.45100 20.58200
H  12.30700 3.36200 26.10500
H  13.80700 4.09600 25.54000
H  13.22500 4.50900 27.11300
H  13.87200 1.71700 31.31800
H  15.41500 3.25400 34.93400
H  15.02400 4.73100 34.35100
H  16.62500 4.04700 33.92300
Mg -12.02800 37.89400 43.10800
C  -10.10600 35.19700 42.21800
C  -10.09100 39.76800 40.97000
C  -14.30300 40.40500 43.13000
C  -14.19400 35.76900 44.63000
N  -10.28900 37.50800 41.68300
C  -9.65100 36.32900 41.60600
C  -8.36400 36.52500 40.82500
C  -8.42200 37.94400 40.25100
C  -9.67700 38.45900 41.00500
C  -7.12600 38.87400 40.41400
C  -8.11700 35.47200 39.67200
C  -6.64100 35.05200 39.49800
H  -5.83500 35.57500 38.27600
N  -12.12100 39.88700 42.28200
C  -11.15700 40.48000 41.51400
C  -11.49400 41.88700 41.30900
C  -12.67200 42.11800 42.00000
C  -13.13100 40.77500 42.49800
C  -10.68300 42.76600 40.41400
C  -13.33000 43.42500 42.11800
O  -12.73200 44.42000 41.73800
C  -14.69000 43.65000 42.67200
N  -13.90200 38.02900 43.71400
C  -14.63700 39.19100 43.74100
C  -16.07600 38.99700 44.27500
C  -16.07500 37.45400 44.56800
C  -14.59100 37.03800 44.35600
C  -16.35300 40.00500 45.42500
C  -17.15300 36.67600 43.71900
C  -17.77500 35.45500 44.39600
N  -12.12400 35.85900 43.48300
C  -13.06700 35.15300 44.17000
C  -12.60100 33.77000 44.30300
C  -11.35900 33.75200 43.58000
C  -11.25300 35.02900 43.00800
C  -13.27900 32.63400 45.05100
C  -10.21900 32.93300 43.20500
O  -9.92300 31.78300 43.44000
C  -9.42400 33.77600 42.28100
C  -8.06500 33.84300 42.85900
O  -7.14200 33.23400 42.43600
O  -7.99600 34.72500 43.88800
C  -6.57000 34.90400 44.41700
H  -9.51100 40.49200 40.39500
H  -14.95800 41.25600 43.32900
H  -14.94400 35.13900 45.11200
H  -7.51000 36.32700 41.47300
H  -8.61500 38.00600 39.18000
H  -7.34600 39.72300 41.06200
H  -6.80700 39.21900 39.43000
H  -6.24800 38.31100 40.73200
H  -8.40000 35.96100 38.74000
H  -8.88500 34.70500 39.77100
H  -6.60000 33.97900 39.30800
H  -6.13300 35.05200 40.46200
H  -11.37500 43.39800 39.85700
H  -9.97000 42.40700 39.67200
H  -10.03700 43.47900 40.92500
H  -15.33900 43.07100 42.01500
H  -14.96800 44.67300 42.42000
H  -14.74500 43.38700 43.72800
H  -16.76100 39.10100 43.43300
H  -16.41000 37.41100 45.60400
H  -15.44200 40.33000 45.92700
H  -16.98300 39.53200 46.17800
H  -16.90200 40.90500 45.14800
H  -16.52300 36.38300 42.87900
H  -17.92300 37.38000 43.40600
H  -18.82100 35.68100 44.60400
H  -17.23700 35.10900 45.27900
H  -17.77300 34.63400 43.67900
H  -14.35100 32.60700 44.85800
H  -13.05100 32.71400 46.11400
H  -12.76600 31.77900 44.61100
H  -9.46200 33.31500 41.29400
H  -6.39300 35.70800 45.13200
H  -5.84400 35.10800 43.63000
H  -6.24300 33.97400 44.88100

