158

Mg -8.46100 40.86600 42.81200
C  -7.58900 37.59100 42.04200
C  -5.78400 41.94500 40.79200
C  -9.69500 43.86900 43.04600
C  -11.67500 39.59000 43.98700
N  -6.90700 39.88400 41.55700
C  -6.75500 38.53700 41.48500
C  -5.60400 38.23500 40.57200
C  -4.91900 39.59200 40.25000
C  -5.92500 40.54000 40.88900
C  -3.46200 39.76000 40.82700
C  -6.02700 37.48700 39.27500
C  -5.15000 36.31200 38.92000
H  -4.29200 36.63700 37.72700
N  -7.65100 42.66200 42.18800
C  -6.69900 42.92300 41.29500
C  -6.63400 44.37900 41.07700
C  -7.68800 44.99600 41.78000
C  -8.43100 43.82200 42.37800
C  -5.42100 44.96900 40.36900
C  -7.95300 46.52300 41.72900
O  -7.29700 47.30400 41.06400
C  -9.09700 47.10600 42.45600
N  -10.38300 41.60300 43.49400
C  -10.55600 42.94800 43.53800
C  -11.91400 43.36500 44.09600
C  -12.53800 42.00100 44.51500
C  -11.47000 40.97500 43.94000
C  -11.89300 44.37500 45.23000
C  -14.00300 41.78500 44.04500
C  -15.10100 41.30900 45.02600
N  -9.44200 38.99900 43.03400
C  -10.68000 38.63100 43.56900
C  -10.78200 37.18000 43.61000
C  -9.55500 36.77500 43.06300
C  -8.77600 37.90300 42.71700
C  -11.96800 36.38700 44.02700
C  -8.91900 35.57600 42.64200
O  -9.25800 34.39400 42.67400
C  -7.60100 36.09700 41.91600
C  -6.47200 35.46600 42.74400
O  -6.43800 35.53100 43.94900
O  -5.61400 34.74700 41.89400
C  -4.40700 34.11800 42.49300
H  -4.89600 42.25800 40.24000
H  -10.12500 44.87100 43.10900
H  -12.63400 39.21700 44.35000
H  -4.87200 37.62200 41.09800
H  -4.88700 39.69800 39.16500
H  -2.73300 39.51700 40.05300
H  -3.23300 38.92100 41.48300
H  -3.29300 40.67400 41.39600
H  -6.07100 38.19000 38.44300
H  -7.08700 37.24600 39.35000
H  -5.70700 35.38800 38.76800
H  -4.46000 36.04800 39.72100
H  -4.53200 44.52400 40.81500
H  -5.25100 46.03500 40.52400
H  -5.40000 44.74900 39.30200
H  -9.05700 48.19300 42.38700
H  -8.89100 46.83800 43.49200
H  -10.01900 46.75800 41.99000
H  -12.47900 43.88600 43.32400
H  -12.51900 41.84100 45.59300
H  -12.16100 43.96300 46.20300
H  -12.56400 45.22200 45.08900
H  -10.90500 44.83300 45.25600
H  -14.09100 41.24600 43.10200
H  -14.43800 42.73700 43.74100
H  -14.80900 41.22400 46.07300
H  -15.50700 40.38800 44.60800
H  -16.04000 41.86100 44.97700
H  -11.61500 35.49900 44.55100
H  -12.38100 36.11900 43.05400
H  -12.65800 36.91700 44.68400
H  -7.47400 35.74000 40.89400
H  -4.70700 33.50100 43.34100
H  -3.83900 34.91700 42.97100
H  -3.92300 33.50400 41.73400
Mg -0.15700 43.85300 24.71100
C  2.06400 43.70000 27.43000
C  -2.69600 42.78300 26.82900
C  -2.16900 44.06800 22.18800
C  2.72500 44.27700 22.66700
N  -0.30400 43.29300 26.93500
C  0.69500 43.43600 27.84000
C  0.24900 43.01900 29.26400
C  -1.23600 42.50400 28.95600
C  -1.47600 42.95400 27.46300
C  -1.51400 41.02100 29.24200
C  0.26000 44.15400 30.25100
C  0.14000 43.76900 31.75900
H  0.11800 42.32200 32.14800
N  -2.22400 43.59600 24.54300
C  -3.02300 43.11200 25.52800
C  -4.35000 43.13000 24.94100
C  -4.24200 43.46200 23.57300
C  -2.87300 43.78400 23.35200
C  -5.53300 42.67900 25.66400
C  -5.28700 43.51200 22.44300
O  -5.11400 43.98200 21.34500
C  -6.66700 42.88800 22.69900
N  0.29400 44.09700 22.74900
C  -0.79200 44.19000 21.91800
C  -0.24400 44.13700 20.42200
C  1.20300 44.46700 20.65300
C  1.49800 44.30900 22.08800
C  -0.55800 42.66700 19.74100
C  1.61000 45.90100 20.06800
C  1.44100 47.05300 21.05200
N  1.99200 43.86500 24.88000
C  3.02000 44.08100 24.02700
C  4.21600 44.18200 24.64300
C  3.94500 44.00800 26.02300
C  2.55500 43.80900 26.14000
C  5.59100 44.45000 23.98300
C  4.49000 44.00500 27.36300
O  5.60900 44.14400 27.68900
C  3.30500 43.79400 28.35900
C  3.58700 42.50400 29.16500
O  3.80900 41.37600 28.68300
O  3.85100 42.84300 30.43000
C  4.43200 41.77000 31.20200
H  -3.58900 42.38200 27.31300
H  -2.78700 44.18500 21.29500
H  3.58900 44.53800 22.05300
H  0.84900 42.15800 29.55800
H  -1.98800 43.02700 29.54700
H  -2.08200 40.58800 28.41900
H  -2.20200 41.00700 30.08700
H  -0.62500 40.51200 29.61500
H  -0.52800 44.84900 29.96400
H  1.16500 44.71500 30.01800
H  -0.66200 44.41000 32.12600
H  1.03500 44.13600 32.26200
H  -5.52400 42.87500 26.73600
H  -5.71400 41.63800 25.39800
H  -6.38000 43.19400 25.20900
H  -6.50700 41.98700 23.29100
H  -7.00800 42.70300 21.68000
H  -7.38800 43.47800 23.26400
H  -0.82600 44.79700 19.77800
H  1.69700 43.63200 20.15600
H  -1.19100 42.05600 20.38500
H  0.29500 41.99600 19.64300
H  -1.19200 42.77800 18.86200
H  0.98200 46.00300 19.18300
H  2.64400 45.95200 19.72600
H  1.10100 46.68000 22.01800
H  0.59700 47.60500 20.64000
H  2.37200 47.61700 20.99700
H  5.75900 43.63000 23.28400
H  6.40200 44.43900 24.71100
H  5.65400 45.42200 23.49400
H  3.16400 44.65500 29.01200
H  4.57000 42.20000 32.19300
H  5.43500 41.59600 30.81200
H  3.78200 40.89600 31.17100

