158

Mg 0.07500 8.43700 26.82000
C  0.79600 10.51200 29.61100
C  0.64400 5.70300 28.83300
C  -0.13900 6.54600 24.08500
C  0.08300 11.40600 24.93500
N  0.48500 8.21900 28.95100
C  0.56200 9.10500 29.97100
C  0.65900 8.51600 31.32500
C  0.95200 6.98500 31.03700
C  0.72500 6.95100 29.50300
C  2.36300 6.49900 31.27600
C  -0.72200 8.78000 31.93200
C  -0.90900 8.59400 33.47400
H  0.16700 8.25500 34.44300
N  0.12200 6.36600 26.54500
C  0.36400 5.41800 27.45000
C  0.32700 4.09700 26.83500
C  0.07300 4.34100 25.46000
C  0.11500 5.82600 25.26100
C  0.49100 2.87200 27.64200
C  -0.11700 3.32100 24.38700
O  -0.23300 3.79800 23.23700
C  -0.21400 1.78200 24.60400
N  0.20800 8.89100 24.87800
C  -0.14300 7.94900 23.92800
C  -0.28900 8.61600 22.54700
C  -0.56400 10.09400 22.88800
C  0.02300 10.14000 24.27800
C  0.87500 8.46800 21.57100
C  -2.04400 10.59300 22.92500
C  -2.45800 11.37900 21.65100
N  0.38400 10.50600 27.17000
C  0.40800 11.60300 26.27500
C  0.72900 12.85800 26.88600
C  0.90300 12.42300 28.22400
C  0.62500 11.07400 28.34100
C  0.94300 14.28800 26.25100
C  1.31800 12.87700 29.54000
O  1.73200 14.00100 29.83100
C  1.10600 11.67500 30.52100
C  2.37900 11.52800 31.27600
O  3.45500 11.00600 30.94100
O  2.13500 12.17000 32.45300
C  3.21100 12.06400 33.53500
H  0.97200 4.91900 29.51800
H  -0.35500 5.97700 23.17800
H  -0.04300 12.23700 24.23700
H  1.46200 9.00200 31.88000
H  0.14800 6.42200 31.51100
H  2.25300 5.63300 31.93000
H  2.94400 7.32400 31.68700
H  2.85800 6.11900 30.38300
H  -1.51900 8.30200 31.36300
H  -0.85400 9.85800 31.84100
H  -1.69400 7.85600 33.63500
H  -1.27100 9.55800 33.83300
H  0.98500 3.02000 28.60200
H  1.13800 2.19600 27.08100
H  -0.48700 2.42200 27.80900
H  0.81900 1.48400 24.78500
H  -0.44600 1.38500 23.61700
H  -1.05300 1.58200 25.27100
H  -1.22200 8.27700 22.09700
H  0.06400 10.72700 22.26000
H  1.22900 7.43700 21.55000
H  1.74200 9.03300 21.91100
H  0.55100 8.70600 20.55800
H  -2.34300 11.16200 23.80600
H  -2.58800 9.65700 23.05600
H  -1.66100 11.50700 20.91900
H  -2.74200 12.35400 22.04800
H  -3.26900 10.88200 21.11800
H  1.37700 14.95200 26.99900
H  0.06000 14.76100 25.82100
H  1.74600 14.24000 25.51600
H  0.31700 12.00700 31.19500
H  3.60800 13.04900 33.78100
H  4.00600 11.38200 33.23200
H  2.69300 11.68500 34.41600
Mg 6.61300 53.22600 40.94100
C  5.72300 49.79400 40.46800
C  9.55300 52.71100 39.60900
C  6.89800 56.54000 41.06300
C  3.05800 53.67400 41.82600
N  7.39700 51.41200 39.98500
C  6.93000 50.14700 39.87100
C  8.03100 49.29900 39.24400
C  9.35000 50.09400 39.62500
C  8.75800 51.52000 39.73100
C  10.08600 49.74000 40.92900
C  8.01100 48.87900 37.78600
C  7.49300 49.90300 36.73000
H  6.69700 49.31800 35.55600
N  8.08500 54.49500 40.46000
C  9.30200 54.10200 39.87400
C  10.15600 55.24400 39.90200
C  9.37200 56.36200 40.23200
C  8.05000 55.84200 40.62000
C  11.57500 55.12900 39.42400
C  9.86400 57.77700 40.18700
O  11.06400 57.99100 39.95400
C  9.00900 58.95800 40.41600
N  5.07000 54.88800 41.29300
C  5.54900 56.13300 41.41700
C  4.38800 57.12000 41.75100
C  3.18200 56.17200 42.08900
C  3.77500 54.81500 41.61800
C  4.58100 58.06800 42.98500
C  1.75100 56.51800 41.49800
C  1.32600 55.97200 40.10100
N  4.77100 52.01900 41.30000
C  3.47000 52.35100 41.69400
C  2.70000 51.16700 42.05400
C  3.54300 50.18500 41.47600
C  4.77600 50.73600 41.03000
C  1.31600 50.99600 42.61700
C  3.60900 48.77700 41.12600
O  2.80500 47.87900 41.32500
C  5.07900 48.45100 40.51700
C  4.89000 47.84200 39.18900
O  4.42600 48.40000 38.19900
O  5.19300 46.52100 39.22000
C  5.03000 45.74900 37.99100
H  10.58900 52.58000 39.29000
H  6.98500 57.61100 41.25900
H  2.03200 53.83200 42.16600
H  8.22600 48.36500 39.77000
H  10.14000 49.96600 38.88400
H  11.17100 49.72400 40.82600
H  9.71800 48.77800 41.28600
H  9.78600 50.52000 41.62900
H  7.33100 48.03200 37.69300
H  9.02600 48.63300 37.47200
H  8.31900 50.43200 36.25400
H  6.89700 50.69800 37.17700
H  11.64600 55.89100 38.64800
H  11.85100 54.13600 39.07000
H  12.35200 55.38400 40.14500
H  9.54200 59.77700 39.93300
H  8.93400 59.20800 41.47400
H  8.06500 58.82400 39.88800
H  4.13900 57.58500 40.79700
H  3.11600 55.93300 43.15000
H  3.81800 58.02100 43.76200
H  4.45500 59.03400 42.49500
H  5.56900 57.99700 43.43900
H  1.76500 57.59900 41.35600
H  0.90800 56.23600 42.12900
H  1.10000 56.82600 39.46300
H  0.44400 55.33100 40.12700
H  2.16700 55.52000 39.57700
H  1.40200 50.21700 43.37400
H  0.60600 50.66100 41.86100
H  0.78800 51.87000 42.99900
H  5.51600 47.68500 41.15700
H  4.49100 44.81500 38.15400
H  6.00500 45.48500 37.58300
H  4.51900 46.24600 37.16600

