158

Mg 35.57300 48.71100 25.38000
C  35.75900 46.92900 28.39100
C  34.47000 51.37800 27.10100
C  35.23700 50.10300 22.44800
C  36.91500 45.76500 23.93100
N  35.22400 49.15800 27.56400
C  35.51200 48.31900 28.57200
C  35.33800 49.05700 29.93000
C  34.67100 50.42000 29.49100
C  34.81400 50.33500 27.98800
C  33.17900 50.62100 29.77800
C  36.73300 49.23400 30.67600
C  36.61100 49.50800 32.18400
H  35.11000 49.51800 32.70200
N  34.94400 50.49700 24.87300
C  34.51800 51.50100 25.66500
C  34.03400 52.58600 24.87500
C  34.27400 52.24800 23.52800
C  34.82400 50.91900 23.57500
C  33.51500 53.74700 25.52400
C  34.05300 53.08300 22.27100
O  34.33900 52.69600 21.15900
C  33.40800 54.40700 22.49700
N  36.01800 47.98500 23.46800
C  35.80000 48.80700 22.40600
C  36.13200 48.07500 21.07200
C  36.94500 46.81800 21.61400
C  36.67400 46.87000 23.07800
C  34.83100 47.71800 20.25900
C  38.44100 46.83200 21.00100
C  38.60700 45.72100 19.94100
N  35.98000 46.68100 25.97300
C  36.50200 45.62900 25.23400
C  36.57800 44.46300 26.07300
C  36.22800 44.93300 27.32800
C  35.93400 46.28400 27.18800
C  36.94700 43.07300 25.65000
C  36.20100 44.56300 28.74900
O  36.60600 43.50400 29.26100
C  35.89900 45.91800 29.51700
C  34.75400 45.83400 30.40400
O  33.63300 46.16700 30.13800
O  35.06700 45.34500 31.63300
C  33.91300 45.11600 32.49100
H  34.17500 52.30400 27.60000
H  35.21500 50.47200 21.42000
H  37.32900 44.84000 23.52300
H  34.65600 48.46200 30.53700
H  35.23600 51.25400 29.90800
H  33.21600 51.48700 30.43900
H  32.77200 49.72500 30.24600
H  32.59000 50.86300 28.89300
H  37.34100 49.98800 30.17700
H  37.35500 48.35400 30.51100
H  37.13700 50.43400 32.41300
H  37.14200 48.79100 32.81100
H  34.20600 54.53400 25.22300
H  33.19600 53.68100 26.56400
H  32.56600 53.89300 25.00700
H  34.00300 55.10000 23.09100
H  32.45200 54.20200 22.97900
H  33.24600 54.77700 21.48400
H  36.74500 48.71900 20.44200
H  36.33300 46.01800 21.19700
H  34.05000 48.39000 20.61500
H  34.63700 46.65900 20.42500
H  35.02500 47.99200 19.22200
H  39.17200 46.76900 21.80800
H  38.68900 47.74000 20.45100
H  38.78400 46.23400 18.99500
H  37.69800 45.12200 19.87700
H  39.46300 45.06000 20.07200
H  37.97200 43.18100 25.29700
H  36.18400 42.76800 24.93400
H  36.92100 42.43400 26.53200
H  36.72600 46.12800 30.19500
H  33.59100 46.11600 32.78300
H  34.22400 44.55600 33.37300
H  33.05300 44.67000 31.99200
Mg 0.08500 44.06900 25.13900
C  2.14200 44.01100 28.10700
C  -2.45000 42.98600 27.13200
C  -1.70700 44.24600 22.42700
C  2.95300 44.71200 23.27000
N  -0.08000 43.48800 27.39900
C  0.86500 43.66800 28.41200
C  0.22100 43.34200 29.82600
C  -1.13600 42.67800 29.36500
C  -1.23900 43.13800 27.87100
C  -1.34900 41.16900 29.53700
C  -0.05600 44.66600 30.55500
C  0.06000 44.62400 32.04600
H  -0.29200 43.30200 32.75200
N  -1.77600 43.72700 24.84300
C  -2.71300 43.35100 25.75800
C  -3.98400 43.20500 25.08700
C  -3.83100 43.55900 23.71900
C  -2.43800 43.97700 23.63500
C  -5.25200 42.93200 25.85300
C  -4.85100 43.60200 22.50900
O  -4.49100 43.97500 21.39800
C  -6.31200 43.26000 22.69800
N  0.65200 44.02200 22.96000
C  -0.37600 44.36800 22.09200
C  0.17000 44.96000 20.73400
C  1.69300 45.29600 21.17500
C  1.73100 44.66400 22.59000
C  0.12800 43.95500 19.55900
C  2.10900 46.76800 21.10900
C  1.37000 47.73200 22.05900
N  2.11700 44.23700 25.50600
C  3.13100 44.49000 24.67900
C  4.39200 44.47900 25.35300
C  4.02600 44.36000 26.71400
C  2.58800 44.20300 26.74300
C  5.85200 44.69100 24.75500
C  4.53900 44.29700 28.03700
O  5.73200 44.23000 28.31600
C  3.28900 44.08500 28.99400
C  3.58100 42.90200 29.88900
O  3.67000 41.74100 29.44400
O  3.63200 43.27500 31.20700
C  3.87800 42.13700 32.15000
H  -3.21700 42.68100 27.84700
H  -2.29900 44.55600 21.56300
H  3.78100 45.06500 22.65300
H  0.79700 42.67500 30.46700
H  -1.93500 43.19900 29.89300
H  -0.58300 40.87500 30.25500
H  -1.10500 40.63500 28.61900
H  -2.28400 40.86300 30.00500
H  -1.05000 45.05200 30.33100
H  0.65900 45.42600 30.23900
H  -0.44300 45.46000 32.53200
H  1.11900 44.74400 32.27500
H  -5.48800 43.88500 26.32600
H  -4.89300 42.26700 26.63800
H  -5.96300 42.47100 25.16800
H  -6.74400 43.67300 23.61000
H  -6.23400 42.17400 22.75400
H  -6.98400 43.63300 21.92500
H  -0.45500 45.84100 20.58800
H  2.37000 44.71800 20.54600
H  -0.58600 44.32000 18.82100
H  -0.18400 42.99100 19.96100
H  1.00100 43.93100 18.90700
H  1.72700 47.00800 20.11700
H  3.19800 46.81500 21.11500
H  1.97800 48.23900 22.80800
H  0.74600 47.01800 22.59700
H  0.65100 48.35500 21.52600
H  5.82700 45.43300 23.95700
H  6.37400 43.78400 24.45000
H  6.45500 45.07300 25.57800
H  3.18800 44.95900 29.63600
H  2.87000 41.81200 32.41100
H  4.49700 42.45400 32.99000
H  4.43800 41.29500 31.74300

