158

Mg 35.23700 1.02900 29.58500
C  33.23900 2.48900 32.06600
C  37.83200 0.97600 32.03700
C  37.18500 -0.23100 27.30300
C  32.60700 1.52400 27.27200
N  35.57100 1.94900 31.80500
C  34.51700 2.22500 32.60200
C  35.03300 2.31800 34.04600
C  36.59300 2.06700 33.93600
C  36.66900 1.59500 32.52200
C  37.61400 3.17600 34.28900
C  34.23800 1.45400 35.03700
C  34.13100 1.88200 36.53500
H  34.52900 3.26400 37.01900
N  37.34200 0.48600 29.62600
C  38.12600 0.39000 30.71400
C  39.40200 0.01700 30.21400
C  39.26100 -0.37000 28.87400
C  37.89100 -0.06100 28.55600
C  40.61500 0.06600 31.09800
C  40.26800 -0.73200 27.86000
O  40.00800 -0.84000 26.70500
C  41.64800 -1.01600 28.25800
N  34.98400 0.82200 27.55100
C  35.94600 0.18900 26.83600
C  35.42000 -0.02600 25.36500
C  34.03100 0.48600 25.38100
C  33.83600 0.90900 26.83800
C  36.33700 0.63000 24.29800
C  32.92600 -0.51600 24.95600
C  32.52000 -1.57500 26.01300
N  33.36700 1.90700 29.53300
C  32.37200 2.03000 28.59100
C  31.23600 2.69100 29.09700
C  31.52800 2.88500 30.50900
C  32.85200 2.40600 30.70200
C  29.89500 2.97000 28.34700
C  30.97000 3.27100 31.74100
O  29.83500 3.55900 32.11300
C  32.01600 2.97000 32.88000
C  32.18700 4.29900 33.61700
O  32.81900 5.23400 33.13700
O  31.38200 4.22400 34.74400
C  31.32300 5.46200 35.46200
H  38.55800 0.75800 32.82300
H  37.65600 -0.82500 26.51700
H  31.86100 1.64100 26.48300
H  34.75200 3.35400 34.23600
H  36.85100 1.20600 34.55300
H  38.60100 3.03200 33.85000
H  37.78700 3.14000 35.36500
H  37.12900 4.12900 34.07600
H  34.68200 0.45900 35.00300
H  33.28100 1.42700 34.51600
H  34.51800 1.18500 37.27900
H  33.07800 1.78500 36.79900
H  40.50100 0.74700 31.94100
H  41.42500 0.60000 30.60200
H  40.99200 -0.93100 31.32500
H  42.20500 -0.11400 28.51300
H  42.12700 -1.40000 27.35700
H  41.58600 -1.77100 29.04100
H  35.36000 -1.09200 25.14600
H  33.84500 1.35900 24.75600
H  36.65200 -0.14200 23.59600
H  37.24600 0.90100 24.83600
H  36.01500 1.52100 23.76000
H  33.37000 -0.97200 24.07100
H  32.04800 0.05000 24.64300
H  32.43000 -2.50600 25.45300
H  31.53500 -1.32700 26.40900
H  33.13100 -1.65200 26.91300
H  29.69700 2.29700 27.51200
H  29.82900 3.95000 27.87400
H  29.03300 2.79400 28.99100
H  31.68500 2.18400 33.55800
H  30.48100 6.07800 35.14400
H  32.22900 6.06400 35.39000
H  31.33000 5.22300 36.52500
Mg 6.99300 56.31300 41.78300
C  7.09100 52.79500 42.02000
C  10.20000 56.12100 40.65500
C  6.68600 59.57000 40.92300
C  3.66500 56.35100 42.85300
N  8.38300 54.56100 41.15900
C  8.22700 53.22800 41.29600
C  9.39900 52.43500 40.70900
C  10.53700 53.55800 40.65800
C  9.67500 54.84600 40.83100
C  11.67900 53.55400 41.74000
C  8.99300 51.84400 39.34400
C  9.59300 50.52200 38.93000
H  8.88400 49.73300 37.79900
N  8.29400 57.62400 40.98100
C  9.63500 57.42600 40.61000
C  10.18600 58.66500 40.23500
C  9.18900 59.66800 40.26500
C  7.93900 58.96600 40.70400
C  11.58100 58.81800 39.95500
C  9.51500 61.13500 39.90000
O  10.67700 61.49800 39.68400
C  8.36300 62.06600 39.74400
N  5.36200 57.73500 41.80500
C  5.55800 58.98500 41.41800
C  4.29200 59.84600 41.64400
C  3.19700 58.79500 42.13200
C  4.07600 57.52300 42.23900
C  4.38200 61.10200 42.52800
C  1.95200 58.67800 41.19900
C  0.58100 59.01200 41.84700
N  5.66100 54.88700 42.37900
C  4.39300 55.10100 42.98200
C  4.03700 53.80800 43.68200
C  5.02800 52.90100 43.27100
C  5.98300 53.60000 42.51600
C  2.79100 53.63100 44.45800
C  5.55700 51.53200 43.41000
O  5.12200 50.65000 44.15800
C  6.81100 51.36900 42.52600
C  6.42100 50.47400 41.48800
O  5.51900 50.68300 40.72800
O  7.31600 49.42200 41.42700
C  6.98500 48.31600 40.51800
H  11.28900 56.09500 40.57100
H  6.62400 60.65900 40.96100
H  2.72700 56.40500 43.40900
H  9.66500 51.78800 41.54500
H  10.93200 53.50000 39.64400
H  11.88600 52.60300 42.23100
H  11.36200 54.18200 42.57300
H  12.57600 54.03900 41.35600
H  9.31300 52.45700 38.50100
H  7.91300 51.93800 39.22700
H  9.41400 49.87000 39.78500
H  10.65900 50.67400 38.75800
H  12.06900 57.88500 40.23800
H  12.13500 59.56100 40.52900
H  11.72900 58.97700 38.88700
H  7.79300 62.24400 40.65600
H  7.71300 61.61900 38.99200
H  8.64400 62.93700 39.15300
H  4.05700 60.18600 40.63600
H  2.98300 59.07900 43.16300
H  4.63100 62.06100 42.07400
H  5.14400 60.87600 43.27300
H  3.47100 61.19700 43.11900
H  1.87300 57.71400 40.69500
H  2.00000 59.46400 40.44600
H  -0.01300 58.09800 41.85000
H  0.15800 59.76500 41.18200
H  0.70200 59.51300 42.80800
H  2.84300 52.58100 44.74800
H  1.92100 53.88200 43.85100
H  2.71100 54.24300 45.35700
H  7.69900 51.01200 43.04800
H  6.14900 47.68400 40.81800
H  7.89800 47.80600 40.21300
H  6.56100 48.70100 39.59000

