158

Mg -1.89500 16.80300 25.54100
C  -2.35800 14.32400 28.07600
C  -2.68400 19.12500 27.87600
C  -1.91700 18.96800 23.01700
C  -1.69900 14.12500 23.17800
N  -2.34400 16.69900 27.77200
C  -2.43300 15.63100 28.62900
C  -2.82800 16.07200 30.02100
C  -2.94400 17.64700 29.91300
C  -2.65000 17.85500 28.42500
C  -4.20000 18.36100 30.37900
C  -1.89300 15.56800 31.13500
C  -1.84200 16.32600 32.45100
H  -1.44500 15.47700 33.68100
N  -2.32000 18.79600 25.40800
C  -2.53100 19.58500 26.53100
C  -2.53800 20.92000 25.97800
C  -2.48100 20.87200 24.51600
C  -2.24000 19.49600 24.24700
C  -2.86300 22.06400 26.95100
C  -2.66200 21.99800 23.51900
O  -2.50500 21.85700 22.32600
C  -2.70600 23.49700 24.12600
N  -1.87300 16.53900 23.39300
C  -1.77600 17.67700 22.59000
C  -1.62100 17.19200 21.13900
C  -1.41700 15.71300 21.26500
C  -1.73500 15.45300 22.67600
C  -2.73000 17.69900 20.16600
C  -0.02800 15.08900 20.81500
C  1.09800 15.54300 21.73300
N  -2.03600 14.64400 25.57300
C  -2.00300 13.76600 24.50000
C  -2.16400 12.41900 24.96500
C  -2.20000 12.55100 26.40100
C  -2.12300 13.92600 26.69100
C  -2.35200 11.13900 24.31200
C  -2.31200 11.88100 27.58300
O  -2.55600 10.68800 27.79700
C  -2.20400 12.93300 28.73300
C  -0.94700 12.80300 29.45800
O  0.08700 13.46100 29.25500
O  -1.06500 11.82400 30.36700
C  -0.07100 11.79900 31.44500
H  -2.83800 19.94900 28.57600
H  -1.83100 19.70100 22.21200
H  -1.74600 13.27700 22.49100
H  -3.80400 15.75200 30.38600
H  -2.12800 18.06500 30.50300
H  -4.66300 18.84300 29.51900
H  -3.90100 19.08400 31.13900
H  -5.02300 17.74500 30.74200
H  -0.93400 15.58800 30.61700
H  -2.15900 14.54400 31.39500
H  -2.72600 16.95700 32.54600
H  -0.99600 17.01200 32.41100
H  -3.20900 21.79900 27.94900
H  -3.62000 22.76200 26.59400
H  -1.98000 22.69700 27.04400
H  -1.79000 23.53500 24.71600
H  -3.62300 23.68900 24.68400
H  -2.42600 24.27300 23.41500
H  -0.69600 17.64800 20.78600
H  -2.17900 15.18000 20.69700
H  -2.25700 18.08200 19.26100
H  -3.27000 18.52000 20.63800
H  -3.49800 16.95500 19.95700
H  0.15700 15.24000 19.75200
H  -0.18400 14.02800 21.01300
H  1.23700 14.84500 22.55900
H  0.89900 16.55300 22.09400
H  2.00700 15.50200 21.13300
H  -1.39200 10.64100 24.17500
H  -2.82800 11.30200 23.34500
H  -2.88500 10.45400 24.97200
H  -3.12800 12.76400 29.28600
H  -0.50800 11.89700 32.43800
H  0.76100 12.49100 31.31300
H  0.44800 10.84200 31.49600
Mg -11.57700 16.18000 42.44200
C  -8.17700 17.16600 42.30700
C  -12.40500 19.50600 42.22700
C  -14.85100 15.24400 42.07900
C  -10.59900 12.84900 42.29200
N  -10.38300 18.12500 42.37300
C  -9.05700 18.27400 42.28600
C  -8.65600 19.71100 41.98400
C  -10.06600 20.46500 42.34800
C  -11.05600 19.33000 42.30100
C  -9.94400 21.21900 43.73300
C  -8.19100 19.84300 40.42000
C  -7.04500 20.79300 40.10600
H  -6.02400 20.18900 39.09100
N  -13.39400 17.18600 42.33800
C  -13.48700 18.62700 42.22500
C  -14.87700 18.93200 42.12900
C  -15.61500 17.71000 42.15900
C  -14.64800 16.63000 42.21300
C  -15.32900 20.25700 41.99500
C  -17.17700 17.63900 42.22600
O  -17.83200 18.66200 42.29800
C  -17.97000 16.28600 42.36100
N  -12.56900 14.34300 42.31900
C  -13.91200 14.21100 42.18400
C  -14.29400 12.75800 42.28000
C  -12.99000 11.97400 42.00600
C  -11.96300 13.09600 42.27300
C  -14.78900 12.52200 43.62600
C  -12.86000 11.47900 40.52100
C  -13.60200 10.20400 40.35100
N  -9.75900 15.20300 42.15600
C  -9.49100 13.79900 42.22200
C  -8.07100 13.52600 42.24800
C  -7.52900 14.84400 42.24500
C  -8.61200 15.81200 42.24600
C  -7.40500 12.18700 42.45000
C  -6.28900 15.62500 42.36300
O  -5.11800 15.28800 42.41400
C  -6.68000 17.12600 42.42300
C  -6.22800 17.59400 43.81900
O  -6.01100 16.88300 44.82200
O  -5.91700 18.96000 43.87300
C  -5.36300 19.56000 45.11400
H  -12.62400 20.56700 42.09300
H  -15.88600 14.92000 41.95400
H  -10.17900 11.84600 42.18800
H  -7.82800 19.96600 42.64400
H  -10.26400 21.23400 41.60200
H  -10.63300 20.79800 44.46500
H  -10.23500 22.25800 43.57700
H  -8.93100 21.08000 44.11100
H  -9.03400 20.13100 39.79100
H  -7.85600 18.86100 40.08800
H  -6.49200 21.01500 41.01800
H  -7.48900 21.76100 39.87200
H  -14.56900 21.03800 42.02000
H  -15.95500 20.52500 42.84600
H  -15.83800 20.35400 41.03600
H  -18.95200 16.51100 42.77700
H  -17.42000 15.71900 43.11200
H  -18.08400 15.80400 41.39000
H  -15.05500 12.36700 41.60500
H  -12.87500 11.18800 42.75300
H  -15.22000 13.41100 44.08500
H  -14.12600 12.12800 44.39700
H  -15.56200 11.75600 43.57200
H  -11.83800 11.26200 40.20800
H  -13.26000 12.31400 39.94500
H  -14.47800 10.43100 39.74300
H  -13.84100 9.80300 41.33600
H  -12.99700 9.40100 39.92900
H  -7.31700 11.94200 43.50800
H  -6.46200 12.07500 41.91500
H  -7.99500 11.33500 42.11100
H  -6.13200 17.52200 41.56800
H  -5.56700 20.63000 45.11100
H  -4.27600 19.63800 45.13400
H  -5.72300 19.16200 46.06400

