158

Mg 25.27700 -7.74700 47.93400
C  28.00300 -5.77900 46.79700
C  23.41700 -6.83400 45.42600
C  23.17000 -10.37200 48.73000
C  27.65900 -9.26500 50.24500
N  25.85800 -6.63400 46.15900
C  26.89200 -5.73100 45.98400
C  26.58900 -4.72500 44.82800
C  25.06200 -5.00500 44.49200
C  24.74800 -6.21200 45.45200
C  24.00100 -3.84800 44.43500
C  27.55800 -4.96300 43.62400
C  28.12100 -3.62500 43.01600
H  28.07400 -3.57400 41.47200
N  23.41300 -8.45700 47.22000
C  22.84800 -7.87400 46.18400
C  21.59900 -8.55300 45.93500
C  21.56900 -9.73000 46.74500
C  22.73400 -9.58200 47.62900
C  20.64000 -8.14900 44.75900
C  20.54600 -10.80600 46.66400
O  19.70600 -10.81100 45.75000
C  20.42200 -11.97100 47.62700
N  25.45600 -9.67000 49.25600
C  24.40400 -10.40600 49.47700
C  24.48300 -11.23300 50.76000
C  25.95000 -10.87200 51.23300
C  26.43300 -9.87600 50.18100
C  23.36100 -11.03500 51.85000
C  26.94900 -12.14800 51.50700
C  27.94600 -12.19900 52.64100
N  27.36900 -7.48300 48.58100
C  28.22100 -8.15400 49.48500
C  29.52500 -7.53700 49.48000
C  29.44900 -6.55400 48.46200
C  28.18300 -6.65400 47.88800
C  30.70400 -7.96300 50.22500
C  30.21200 -5.40700 47.82800
O  31.31000 -4.91600 48.12500
C  29.25900 -4.92900 46.68100
C  28.97900 -3.47000 46.82500
O  28.20500 -2.99000 47.59400
O  29.73400 -2.77000 45.86700
C  29.48800 -1.34500 45.84900
H  22.73000 -6.31600 44.75500
H  22.47500 -11.13800 49.08000
H  28.36800 -9.63100 50.99100
H  26.66600 -3.65900 45.04100
H  25.02000 -5.36900 43.46500
H  23.30400 -4.07600 45.24100
H  23.43000 -3.80000 43.50700
H  24.51900 -2.91200 44.64300
H  27.01700 -5.51100 42.85200
H  28.33200 -5.68200 43.89200
H  29.11200 -3.42200 43.42400
H  27.46800 -2.83100 43.37700
H  20.86100 -7.12400 44.46200
H  19.63400 -7.97300 45.13900
H  20.59200 -8.90400 43.97400
H  21.41000 -12.34300 47.90000
H  19.86000 -12.74200 47.10100
H  19.94900 -11.65700 48.55700
H  24.44200 -12.31500 50.63100
H  25.98900 -10.20100 52.09000
H  23.75200 -10.42200 52.66200
H  23.03700 -12.02400 52.17400
H  22.56900 -10.44100 51.39500
H  27.41500 -12.40900 50.55700
H  26.33300 -12.98800 51.82700
H  27.75600 -13.09000 53.23800
H  27.80700 -11.27300 53.20000
H  28.94000 -12.12900 52.20000
H  31.46700 -7.19500 50.09700
H  31.16600 -8.85500 49.80300
H  30.52300 -8.25900 51.25900
H  29.71600 -4.91900 45.69100
H  29.62100 -0.90700 46.83800
H  28.45300 -1.12300 45.58600
H  30.21200 -0.90400 45.16400
Mg 0.04100 42.41500 26.48100
C  2.36200 41.89100 29.04900
C  -2.46900 41.52900 28.67800
C  -2.21000 42.27000 23.98900
C  2.67500 42.63600 24.31900
N  -0.01900 41.54100 28.56100
C  0.99700 41.68300 29.37100
C  0.51000 41.81700 30.86700
C  -0.99900 41.32600 30.69300
C  -1.21500 41.42100 29.21800
C  -1.18700 39.84400 31.04700
C  0.72700 43.29500 31.36200
C  0.93500 43.42300 32.87500
H  0.38900 42.41300 33.91300
N  -2.00400 41.92100 26.27500
C  -2.80300 41.71500 27.38600
C  -4.25700 41.74700 26.95900
C  -4.22100 41.85400 25.54900
C  -2.80800 42.00100 25.17200
C  -5.44100 41.65400 27.93400
C  -5.41800 41.91000 24.57800
O  -5.26600 41.95300 23.34800
C  -6.89000 41.90300 25.02800
N  0.22500 42.23700 24.43300
C  -0.85800 42.36600 23.59500
C  -0.39900 42.56000 22.15300
C  1.19300 42.50500 22.33600
C  1.41300 42.49000 23.77000
C  -1.03200 41.57000 21.08500
C  1.89800 43.70500 21.55200
C  1.52100 45.18400 22.04200
N  2.10700 42.39800 26.60900
C  3.04900 42.54900 25.67400
C  4.41100 42.50300 26.20000
C  4.16200 42.24300 27.54300
C  2.73100 42.13000 27.72800
C  5.71100 42.60300 25.40800
C  4.78100 41.93100 28.83000
O  5.99900 41.59400 29.05700
C  3.55300 41.91400 29.84800
C  3.66600 40.69500 30.74300
O  2.94600 39.71600 30.76000
O  4.83700 40.79300 31.46200
C  4.93600 39.81500 32.55400
H  -3.19500 41.57400 29.49300
H  -2.95100 42.38500 23.19500
H  3.54000 42.71300 23.65700
H  0.97200 41.08700 31.53100
H  -1.71700 41.96600 31.20600
H  -0.65700 39.61000 31.97100
H  -0.85600 39.14300 30.28100
H  -2.20800 39.60000 31.33900
H  -0.14400 43.93100 31.20500
H  1.63200 43.70900 30.91800
H  0.47200 44.29500 33.33800
H  2.01000 43.49100 33.03800
H  -5.29100 42.51800 28.58100
H  -5.38500 40.85800 28.67600
H  -6.46500 41.74100 27.56800
H  -7.63600 41.86200 24.23400
H  -7.01000 42.82700 25.59300
H  -7.13400 41.00200 25.59000
H  -0.60200 43.57400 21.80900
H  1.57100 41.60500 21.85000
H  -0.24400 41.00000 20.59400
H  -1.41400 42.25600 20.32800
H  -1.74200 40.88200 21.54400
H  1.60400 43.59500 20.50800
H  2.97700 43.55300 21.58000
H  2.38900 45.81600 22.22900
H  0.82000 45.20000 22.87700
H  1.00200 45.71400 21.24300
H  5.80100 43.64900 25.11600
H  5.65400 41.97000 24.52300
H  6.62200 42.34300 25.94700
H  3.63300 42.77700 30.51000
H  5.95200 39.42200 32.52100
H  4.24100 38.98500 32.68100
H  4.77100 40.32600 33.50300

