158

Mg 16.78300 -2.13800 27.29900
C  16.09600 -0.38100 30.25400
C  18.79400 -4.28000 29.24800
C  18.04400 -3.60300 24.49500
C  15.21500 0.22100 25.40300
N  17.41600 -2.24000 29.55800
C  16.95200 -1.48000 30.57400
C  17.46000 -1.92900 31.94100
C  18.49800 -3.09700 31.51100
C  18.20700 -3.24700 30.01600
C  20.05200 -2.72800 31.84900
C  16.29800 -2.42200 32.87000
C  16.21600 -1.89100 34.35100
H  17.40300 -1.06400 34.95100
N  18.02600 -3.82300 26.95700
C  18.73500 -4.57700 27.85400
C  19.31700 -5.77100 27.19600
C  19.04400 -5.59900 25.83400
C  18.33000 -4.32400 25.68800
C  20.07700 -6.80600 27.97300
C  19.50300 -6.48800 24.71000
O  19.12600 -6.24900 23.59600
C  20.43400 -7.69700 24.95000
N  16.71700 -1.73300 25.26800
C  17.34500 -2.42000 24.31300
C  17.16400 -1.83700 22.88700
C  16.15700 -0.62600 23.17600
C  15.94100 -0.72200 24.70500
C  18.49800 -1.43200 22.23700
C  14.83300 -0.76700 22.43700
C  14.71300 -0.06400 20.97800
N  15.77500 -0.50300 27.70900
C  15.10400 0.33700 26.82600
C  14.35900 1.27500 27.61800
C  14.68400 1.03700 28.97900
C  15.58900 -0.00900 28.97200
C  13.52100 2.42400 27.12900
C  14.48800 1.52500 30.33000
O  13.72800 2.41400 30.70000
C  15.45500 0.62400 31.30600
C  16.53000 1.57900 31.75600
O  17.66300 1.70200 31.23600
O  16.17400 2.24600 32.89400
C  17.06400 3.28500 33.44400
H  19.48000 -4.93300 29.79200
H  18.24400 -4.13300 23.56100
H  14.66600 1.02800 24.91300
H  17.99400 -1.05500 32.31500
H  18.15900 -4.07300 31.86000
H  20.59600 -2.42300 30.95500
H  20.60300 -3.55000 32.30500
H  20.09500 -1.93200 32.59300
H  16.31700 -3.51200 32.87100
H  15.36300 -2.03000 32.46900
H  16.04000 -2.75800 34.98800
H  15.30200 -1.31200 34.47800
H  19.81900 -7.75500 27.50300
H  19.77700 -6.93000 29.01400
H  21.13800 -6.57500 27.89100
H  21.28800 -7.45600 25.58400
H  20.89200 -8.02000 24.01500
H  19.79300 -8.48400 25.34600
H  16.75900 -2.63600 22.26600
H  16.57700 0.33900 22.88900
H  18.45800 -0.37000 21.99500
H  18.80500 -2.02000 21.37200
H  19.30400 -1.61000 22.94900
H  13.95900 -0.48900 23.02700
H  14.76100 -1.84800 22.32300
H  14.51900 -0.89100 20.29500
H  15.64800 0.32800 20.57900
H  13.99900 0.74600 20.83200
H  12.54000 2.16900 27.53000
H  13.56100 2.26000 26.05300
H  13.95500 3.38800 27.39400
H  14.83600 0.18600 32.08900
H  18.06000 3.13900 33.02600
H  17.03200 3.19200 34.53000
H  16.72800 4.26300 33.09900
Mg 53.58400 24.61800 44.41700
C  50.75700 26.68500 43.95000
C  51.60400 21.85800 43.95700
C  56.39400 22.83400 44.27900
C  55.51100 27.57900 44.86500
N  51.51100 24.32600 43.77200
C  50.52800 25.27700 43.56900
C  49.15000 24.70800 43.27600
C  49.39300 23.27300 43.67900
C  50.93900 23.13900 43.82400
C  48.50300 22.70200 44.91700
C  48.58600 24.91600 41.80800
C  49.71900 25.37300 40.86000
H  49.18100 25.71500 39.49600
N  53.94300 22.60600 44.07700
C  53.03100 21.66100 43.98100
C  53.69200 20.34500 43.96700
C  55.07700 20.61900 43.89000
C  55.20100 22.04900 44.10600
C  52.95400 19.01400 44.03000
C  56.21700 19.65600 43.60400
O  55.88400 18.45500 43.44300
C  57.67700 19.97500 43.61500
N  55.73500 25.17300 44.54000
C  56.67100 24.22800 44.40800
C  58.06500 24.80500 44.68400
C  57.69800 26.35200 44.54700
C  56.19300 26.37800 44.72100
C  58.41600 24.31100 46.13700
C  58.25500 26.96100 43.22200
C  59.56900 27.69700 43.31600
N  53.26300 26.73300 44.38800
C  54.10900 27.78500 44.76500
C  53.28700 29.02300 44.93900
C  51.98400 28.58300 44.59000
C  52.01000 27.23800 44.33700
C  53.90300 30.35700 45.33800
C  50.63300 29.03100 44.37300
O  50.16900 30.17700 44.49400
C  49.73600 27.86200 44.00100
C  49.00100 28.13100 42.73500
O  49.58700 28.49700 41.70800
O  47.62600 28.10900 42.88000
C  46.84800 28.33700 41.53400
H  50.98300 20.96000 43.92300
H  57.32200 22.25900 44.32100
H  55.95000 28.57000 45.00000
H  48.42900 25.19400 43.93200
H  49.04600 22.58900 42.90500
H  49.05900 22.11500 45.64800
H  47.75000 22.04100 44.48700
H  47.99700 23.49100 45.47400
H  47.67500 25.50700 41.71200
H  48.24600 23.92700 41.50000
H  50.50000 24.61300 40.83700
H  50.22100 26.23700 41.29500
H  52.50500 18.71200 43.08400
H  52.27000 19.02100 44.87800
H  53.70400 18.23600 44.17700
H  58.19500 19.03800 43.41400
H  57.82400 20.32200 44.63800
H  57.89400 20.75200 42.88100
H  58.72300 24.46700 43.88400
H  58.12100 26.98000 45.33100
H  58.57000 25.21400 46.72800
H  59.30300 23.67800 46.16200
H  57.64700 23.82400 46.73600
H  57.49500 27.56500 42.72800
H  58.45400 26.21500 42.45200
H  59.48500 28.68600 42.86400
H  60.26600 27.08300 42.74400
H  59.86300 27.77400 44.36300
H  53.17600 31.16700 45.28900
H  54.73600 30.68600 44.71700
H  54.40900 30.26400 46.29900
H  49.00200 27.68100 44.78600
H  46.51800 27.32500 41.30000
H  47.35200 28.84600 40.71200
H  45.86100 28.74600 41.74800

