158

Mg 43.07700 4.49200 46.98000
C  40.83000 7.26200 46.56700
C  40.43000 2.28400 46.94600
C  45.29400 1.94500 46.51600
C  45.64100 6.74700 45.87400
N  40.95600 4.79700 46.74600
C  40.21300 6.02700 46.66400
C  38.76200 5.74200 46.53500
C  38.64900 4.20900 46.78700
C  40.06500 3.70200 46.91100
C  37.86200 3.72000 48.05100
C  38.01500 6.23300 45.20500
C  38.71700 5.67400 43.96900
H  39.30300 6.78600 42.99800
N  42.89600 2.38200 46.83300
C  41.73600 1.67700 46.87500
C  42.05800 0.23400 46.88900
C  43.50700 0.09800 46.88100
C  43.95800 1.50400 46.78700
C  40.94200 -0.88000 47.00900
C  44.36600 -1.13200 46.91200
O  43.88900 -2.22000 47.13900
C  45.88700 -1.17400 46.63900
N  45.18600 4.40800 46.32700
C  45.85900 3.25700 46.38400
C  47.36600 3.45000 46.00800
C  47.47900 4.98100 45.74200
C  46.01000 5.44500 46.01100
C  48.27400 2.94200 47.13400
C  48.01400 5.33100 44.38300
C  47.22000 5.04800 43.16200
N  43.27200 6.61600 46.54400
C  44.37500 7.34600 46.16900
C  44.03700 8.75600 46.12800
C  42.73700 8.75500 46.30000
C  42.23300 7.44100 46.53600
C  44.96000 9.94700 45.85200
C  41.59200 9.61400 46.48600
O  41.57600 10.82500 46.43500
C  40.29200 8.70000 46.55000
C  39.38600 8.88800 47.68700
O  39.25200 8.11700 48.64500
O  38.51500 9.85100 47.39300
C  37.25300 9.97800 48.01300
H  39.55700 1.62800 46.97300
H  46.07500 1.19700 46.36100
H  46.46700 7.44700 45.72900
H  38.20700 6.18800 47.36000
H  38.11300 3.65400 46.01600
H  38.56500 3.28100 48.76000
H  37.04600 3.06000 47.75800
H  37.61400 4.64100 48.57900
H  37.89500 7.31700 45.20000
H  36.97600 5.90700 45.23400
H  37.92600 5.20800 43.38200
H  39.47900 4.99900 44.35900
H  40.09600 -0.42800 47.52800
H  41.34200 -1.76000 47.51200
H  40.63500 -1.10000 45.98600
H  46.53700 -0.69800 47.37400
H  46.00100 -0.74500 45.64400
H  46.22800 -2.20000 46.50700
H  47.51300 2.89800 45.07900
H  48.08200 5.40900 46.54400
H  49.07800 2.31100 46.75700
H  47.59500 2.32900 47.72700
H  48.81400 3.67900 47.72800
H  48.95700 4.81100 44.20900
H  48.17500 6.40300 44.26800
H  47.68500 4.36800 42.44800
H  47.02200 5.92800 42.55100
H  46.25300 4.72900 43.55200
H  45.34500 10.07400 44.84000
H  45.87900 9.77600 46.41400
H  44.43300 10.85700 46.13800
H  39.72300 8.76500 45.62300
H  36.46800 9.96900 47.25700
H  37.27600 10.89500 48.60100
H  37.04500 9.14500 48.68500
Mg 16.71300 51.97600 26.08300
C  18.69200 50.85800 28.73700
C  14.30300 52.66300 28.28700
C  14.73500 52.84100 23.48200
C  19.21700 50.79300 23.94500
N  16.46700 51.51300 28.21900
C  17.49100 51.30600 29.10300
C  17.04300 51.53500 30.56200
C  15.50700 51.76800 30.34100
C  15.41800 52.03100 28.85300
C  14.50200 50.71900 30.91800
C  17.79700 52.76900 31.17500
C  18.44000 52.74400 32.53500
H  17.65300 52.00300 33.63800
N  14.79500 52.74800 25.91500
C  13.93100 53.06800 26.94800
C  12.83900 53.84000 26.44900
C  12.99100 53.91000 25.03300
C  14.17900 53.14000 24.74300
C  11.59900 54.25000 27.35200
C  12.21100 54.70800 24.00300
O  12.47200 54.81200 22.83100
C  10.92900 55.38300 24.48200
N  16.88000 51.74600 24.00100
C  15.95400 52.27700 23.12000
C  16.45000 52.03300 21.67600
C  18.01000 51.72100 21.89800
C  18.04200 51.35700 23.39300
C  15.59900 50.87400 20.94300
C  18.93500 52.95500 21.51000
C  20.07100 52.70900 20.41900
N  18.52700 50.85800 26.24300
C  19.40200 50.43800 25.30100
C  20.58800 49.83300 25.94100
C  20.42300 50.04400 27.30700
C  19.07900 50.62000 27.44800
C  21.80100 49.32300 25.29600
C  20.95000 49.87000 28.64000
O  21.98400 49.31400 28.96500
C  19.87500 50.41600 29.63400
C  19.54000 49.25300 30.42700
O  18.70800 48.39900 30.14700
O  20.20300 49.32100 31.66100
C  20.12500 48.09900 32.43800
H  13.57600 52.92300 29.05900
H  14.11000 53.09000 22.62200
H  19.97800 50.55000 23.20100
H  17.24200 50.61700 31.11500
H  15.14500 52.65400 30.86200
H  13.82600 50.24500 30.20600
H  13.81800 51.21000 31.61000
H  15.07700 49.90000 31.35100
H  17.17500 53.66300 31.22200
H  18.62000 52.94400 30.48200
H  18.51900 53.77400 32.88400
H  19.35500 52.15200 32.51900
H  11.63400 55.34000 27.37200
H  11.77400 53.92000 28.37600
H  10.71300 53.76900 26.93900
H  10.20300 54.59000 24.65700
H  10.68700 56.04700 23.65200
H  11.22900 55.93000 25.37600
H  16.28900 52.99100 21.18200
H  18.29000 50.80300 21.38300
H  14.82900 50.48300 21.60800
H  16.23400 50.06100 20.59000
H  15.18600 51.50400 20.15600
H  19.38900 53.49100 22.34300
H  18.19200 53.60100 21.04100
H  20.51000 53.64500 20.07500
H  19.57200 52.07600 19.68500
H  20.88000 52.13600 20.87100
H  21.45700 48.34600 24.95600
H  22.60300 49.11900 26.00500
H  22.18400 49.92300 24.47100
H  20.19100 51.23400 30.28100
H  19.31900 48.05300 33.16900
H  21.03800 48.00800 33.02700
H  20.07100 47.17500 31.86300

