158

Mg 28.82700 57.28500 41.37600
C  26.27300 55.06600 40.25300
C  31.04800 55.00100 39.82100
C  31.00600 59.59800 41.58800
C  26.30100 59.45000 42.42600
N  28.64000 55.28800 40.08100
C  27.48700 54.53800 39.86700
C  27.89600 53.18800 39.32700
C  29.42600 53.07100 39.47900
C  29.70300 54.51800 39.80100
C  30.02400 52.08600 40.59500
C  27.34100 52.90300 37.89200
C  27.20100 54.19400 37.12800
H  27.35100 54.13700 35.60700
N  30.78500 57.23300 40.92700
C  31.53000 56.23300 40.31000
C  32.90100 56.63500 40.21700
C  32.94400 57.90900 40.82700
C  31.56900 58.33800 41.13900
C  33.96800 55.79800 39.53100
C  34.23500 58.66200 41.06300
O  35.29800 58.16100 40.74100
C  34.27200 59.98500 41.56700
N  28.69500 59.21900 41.98500
C  29.72700 60.01900 42.01400
C  29.49800 61.42300 42.76100
C  27.94300 61.44900 42.75400
C  27.62700 59.99000 42.30200
C  30.11500 61.57400 44.17000
C  27.18800 62.58700 41.93600
C  26.81200 63.88000 42.71600
N  26.70800 57.30500 41.41500
C  25.85200 58.24700 41.92100
C  24.48400 57.73400 41.69400
C  24.59500 56.51900 41.11100
C  25.99800 56.31700 40.89300
C  23.21900 58.37600 42.08600
C  23.87700 55.38600 40.65900
O  22.67200 55.10800 40.68200
C  24.93000 54.39300 40.20100
C  24.82800 53.12000 40.94200
O  25.12700 52.94900 42.11400
O  24.23600 52.13200 40.20300
C  23.74900 50.94300 40.93200
H  31.76200 54.23700 39.50600
H  31.77900 60.36600 41.52800
H  25.62000 60.20700 42.82000
H  27.44900 52.50500 40.04900
H  29.81900 52.71200 38.52800
H  29.22100 51.54400 41.09500
H  30.47900 52.64100 41.41600
H  30.72200 51.37800 40.14800
H  26.30900 52.55300 37.92000
H  28.01700 52.21700 37.38200
H  27.92500 54.96300 37.39800
H  26.18100 54.56300 37.23400
H  34.41800 56.40700 38.74700
H  33.47700 55.03200 38.93100
H  34.67000 55.35400 40.23600
H  33.91000 60.60700 40.74800
H  35.32400 60.23400 41.70400
H  33.71700 60.02900 42.50400
H  29.97200 62.12700 42.07600
H  27.54100 61.58800 43.75700
H  30.40700 62.58500 44.45400
H  30.98400 60.91700 44.18800
H  29.42100 61.25400 44.94700
H  26.29400 62.28100 41.39200
H  27.84300 62.89000 41.11900
H  26.97400 63.81800 43.79200
H  25.76100 63.95800 42.43900
H  27.45200 64.68300 42.34900
H  23.29600 59.43600 41.84400
H  23.00800 58.28700 43.15200
H  22.37100 58.01400 41.50400
H  24.71300 54.14800 39.16100
H  23.65800 51.09600 42.00700
H  24.41400 50.12600 40.65400
H  22.74700 50.74800 40.54800
Mg 36.43200 49.03900 24.91200
C  36.72400 47.52900 28.01200
C  34.54900 51.62000 26.52600
C  35.64400 50.34000 21.97500
C  37.94200 46.42100 23.38700
N  35.59800 49.47300 26.99300
C  36.04000 48.74200 28.12000
C  35.74200 49.53200 29.38100
C  34.91700 50.80100 28.86600
C  35.01700 50.61600 27.39400
C  33.52200 50.97300 29.49000
C  36.95500 50.02300 30.25400
C  36.89500 49.82500 31.73900
H  35.51400 49.58800 32.39400
N  35.23100 50.72100 24.32500
C  34.65000 51.71900 25.10300
C  34.04100 52.68900 24.26300
C  34.54100 52.35400 22.95700
C  35.16000 51.12400 23.02300
C  33.33300 53.97100 24.78700
C  34.44800 53.14700 21.69600
O  34.85800 52.76200 20.55500
C  33.86700 54.56200 21.68300
N  36.45000 48.27100 22.93900
C  36.18500 49.04900 21.89200
C  36.55200 48.39800 20.58100
C  37.47000 47.23800 21.06200
C  37.31200 47.32900 22.57200
C  35.34700 47.84400 19.74200
C  38.98700 47.46800 20.61300
C  39.33400 46.52900 19.46200
N  37.36600 47.36400 25.54700
C  37.93200 46.34800 24.81500
C  38.58100 45.34900 25.69200
C  38.06800 45.76200 26.99300
C  37.36500 46.97200 26.84800
C  39.32600 44.06700 25.38000
C  37.97800 45.42200 28.38300
O  38.50200 44.46700 29.05500
C  37.09600 46.58200 29.06100
C  35.95600 46.07700 29.84200
O  34.89700 45.79000 29.44500
O  36.44000 45.70800 31.06500
C  35.59500 44.94700 32.01900
H  33.96600 52.42000 26.98700
H  35.60900 50.75400 20.96500
H  38.54600 45.63200 22.93500
H  35.16800 48.78700 29.93400
H  35.49100 51.70900 29.04900
H  33.22300 50.11900 30.09700
H  32.71400 50.99700 28.75900
H  33.35200 51.86000 30.10100
H  37.18100 51.08900 30.22600
H  37.82900 49.45300 29.94100
H  37.35000 50.69400 32.21500
H  37.47500 48.93400 31.97800
H  34.03800 54.80200 24.79200
H  32.89000 53.69600 25.74500
H  32.56100 54.15700 24.04100
H  33.88900 54.91600 20.65200
H  34.25300 55.36200 22.31400
H  32.78500 54.48700 21.79100
H  36.99600 49.17700 19.96100
H  37.03700 46.27200 20.80200
H  34.43800 47.99200 20.32500
H  35.47300 46.79400 19.47600
H  35.31500 48.43100 18.82500
H  39.75200 47.20300 21.34300
H  39.08500 48.53300 20.40500
H  40.20100 45.96700 19.81100
H  39.54100 46.97700 18.49000
H  38.49500 45.84700 19.32600
H  38.78600 43.39700 24.71100
H  39.52900 43.65400 26.36800
H  40.20700 44.37800 24.81900
H  37.80700 47.09500 29.70800
H  36.15800 44.08400 32.37200
H  34.59100 44.65500 31.71000
H  35.52900 45.65200 32.84800

