158

Mg -0.31900 6.82600 26.46200
C  0.58200 8.96700 29.16700
C  -0.13400 4.08000 28.41700
C  -0.29100 4.99800 23.55200
C  0.22600 9.78000 24.34700
N  0.16800 6.62100 28.52700
C  0.26400 7.63600 29.47200
C  0.18600 7.00800 30.87800
C  0.09300 5.52000 30.62000
C  -0.00800 5.38800 29.09000
C  1.25800 4.57600 31.06700
C  -1.00200 7.57500 31.74200
C  -0.90100 7.59300 33.30200
H  0.30900 7.06800 33.98100
N  -0.28100 4.83700 26.05500
C  -0.25200 3.83000 27.05200
C  -0.28000 2.55400 26.39700
C  -0.26400 2.78500 24.99600
C  -0.24500 4.26000 24.76700
C  -0.38100 1.27200 27.17100
C  -0.38500 1.75500 23.90000
O  -0.31000 2.10100 22.72100
C  -0.70300 0.34500 24.10200
N  -0.14000 7.32100 24.26600
C  -0.22700 6.37400 23.31200
C  -0.28000 6.97800 21.83600
C  -0.07300 8.47200 22.10000
C  0.05600 8.53600 23.68400
C  0.91700 6.48400 20.94500
C  -1.17700 9.47800 21.58400
C  -2.53800 9.50500 22.38900
N  0.23700 8.98000 26.66800
C  0.44000 10.00900 25.74900
C  0.81400 11.22100 26.44800
C  0.74900 10.83200 27.77400
C  0.42300 9.51400 27.87500
C  1.11200 12.49700 25.87700
C  1.09800 11.33900 29.11400
O  1.50400 12.42500 29.51100
C  0.84500 10.14400 30.07900
C  2.03000 9.90900 31.00100
O  3.05500 9.25500 30.73700
O  1.64600 10.62000 32.15600
C  2.62400 10.65700 33.20500
H  -0.28500 3.21800 29.07000
H  -0.24500 4.49700 22.58300
H  0.31700 10.63300 23.67100
H  1.14600 7.18900 31.36200
H  -0.79300 5.08500 31.08100
H  2.07300 5.09300 31.57200
H  1.69600 4.19100 30.14600
H  0.92200 3.72500 31.65900
H  -1.82200 6.97400 31.34800
H  -1.17300 8.57100 31.33400
H  -1.77900 7.14000 33.76200
H  -0.97100 8.66200 33.50700
H  -1.34000 0.83600 26.89200
H  -0.32500 1.32100 28.25800
H  0.33300 0.53900 26.79400
H  -1.65500 0.35600 24.63300
H  0.18300 -0.13900 24.51200
H  -0.91700 -0.23600 23.20600
H  -1.20600 6.54800 21.45500
H  0.86900 8.79400 21.65500
H  1.48100 7.29600 20.48600
H  0.50100 5.80500 20.20100
H  1.56200 5.98300 21.66700
H  -1.30900 9.21600 20.53400
H  -0.62200 10.41100 21.68700
H  -2.44300 10.20200 23.22100
H  -2.79800 8.53600 22.81500
H  -3.31200 9.87200 21.71500
H  0.26400 12.88300 25.31100
H  2.00200 12.32900 25.27100
H  1.53500 13.16400 26.62900
H  -0.04700 10.42300 30.64100
H  2.76600 11.67800 33.55700
H  3.59600 10.23900 32.94300
H  2.26900 10.04200 34.03200
Mg 27.43300 50.45100 26.80400
C  25.13500 51.37700 29.16100
C  29.75500 50.27000 29.19700
C  29.73400 50.12100 24.26900
C  25.07900 51.31500 24.33500
N  27.44100 50.76500 28.90400
C  26.34100 50.89000 29.66200
C  26.59600 50.69700 31.16400
C  28.15700 50.30700 31.16000
C  28.48000 50.50000 29.69100
C  29.03800 51.05700 32.17100
C  25.65000 49.63300 31.89400
C  24.85900 50.19400 33.09800
H  24.80300 49.47900 34.40600
N  29.46800 50.04100 26.75100
C  30.24900 50.04300 27.86800
C  31.61200 49.90800 27.49300
C  31.65300 49.80500 26.07500
C  30.21900 49.95400 25.58900
C  32.71400 49.98700 28.48100
C  32.84400 49.62300 25.13300
O  32.76100 49.80200 23.90500
C  34.20000 49.27400 25.78400
N  27.39100 50.56000 24.70800
C  28.40500 50.32900 23.92300
C  28.02600 50.42500 22.43300
C  26.50400 50.66800 22.42100
C  26.32900 50.78600 23.94900
C  28.99100 51.30600 21.62900
C  25.71200 49.53800 21.73000
C  25.66100 48.27400 22.54800
N  25.45600 51.23900 26.70100
C  24.61000 51.52400 25.68600
C  23.37200 52.07900 26.17300
C  23.53400 51.97400 27.55900
C  24.78800 51.51300 27.80100
C  22.21300 52.50400 25.35400
C  22.79300 52.19500 28.78800
O  21.65900 52.59700 28.99500
C  23.84700 51.73800 29.91200
C  24.03700 52.85500 30.84200
O  24.89700 53.74200 30.73800
O  23.22400 52.72600 31.92300
C  23.44400 53.79400 32.94500
H  30.48900 50.14200 29.99600
H  30.52900 49.95300 23.54000
H  24.35300 51.54400 23.55300
H  26.47800 51.61100 31.74600
H  28.22100 49.22700 31.28800
H  29.42100 50.32500 32.88300
H  28.47500 51.85000 32.66300
H  29.91600 51.46900 31.67400
H  26.26500 48.75200 32.08100
H  24.84900 49.33900 31.21600
H  23.82500 50.43200 32.84700
H  25.26200 51.17000 33.36700
H  33.05300 48.99900 28.79500
H  32.36100 50.52000 29.36400
H  33.67400 50.35700 28.12300
H  34.92000 48.94500 25.03600
H  34.11700 48.45900 26.50400
H  34.71100 50.12700 26.23100
H  28.12300 49.39300 22.09600
H  26.49500 51.68100 22.02000
H  29.87000 51.65000 22.17300
H  28.40700 52.10300 21.16700
H  29.26600 50.53600 20.90900
H  26.22100 49.30500 20.79500
H  24.72700 49.91000 21.44800
H  25.64700 47.45700 21.82600
H  24.71400 48.17900 23.08000
H  26.46200 48.13700 23.27400
H  22.22100 53.59000 25.44900
H  21.21100 52.18200 25.63800
H  22.42400 52.33300 24.29900
H  23.46000 50.90300 30.49400
H  23.59900 54.80000 32.55700
H  24.23300 53.40700 33.59000
H  22.49900 54.00700 33.44500

