158

Mg 35.84200 1.79900 29.59500
C  33.51100 2.75500 32.09300
C  38.22300 1.63800 32.02700
C  38.11100 1.16900 27.24900
C  33.38400 2.48500 27.22900
N  35.74800 2.05300 31.82400
C  34.70500 2.42500 32.63800
C  35.13300 2.58700 34.12600
C  36.70400 2.46700 33.98600
C  36.90600 2.01200 32.56300
C  37.49500 3.73600 34.42900
C  34.53100 1.41800 34.96800
C  34.30700 1.65800 36.49200
H  35.02400 2.86500 37.17900
N  37.88800 1.38700 29.66400
C  38.69700 1.29200 30.74400
C  40.06100 0.95300 30.32200
C  40.09800 0.85200 28.90500
C  38.66500 1.10900 28.51800
C  41.14200 0.92900 31.43200
C  41.28600 0.52300 27.98700
O  41.17000 0.56000 26.77100
C  42.65500 0.20300 28.48900
N  35.78500 1.90000 27.59500
C  36.81300 1.51300 26.76100
C  36.43700 1.49000 25.27600
C  34.86100 1.57500 25.31700
C  34.62200 2.11000 26.79800
C  37.01500 2.74800 24.59100
C  34.09000 0.24200 24.89700
C  33.84100 -0.72700 26.03900
N  33.88100 2.35500 29.61800
C  33.02200 2.63200 28.59200
C  31.76900 3.05100 29.06400
C  31.89000 3.10800 30.45500
C  33.18700 2.67500 30.71600
C  30.55400 3.33500 28.23400
C  31.19800 3.34400 31.71200
O  29.96700 3.46700 31.95500
C  32.25200 3.15700 32.82700
C  32.41100 4.42700 33.65500
O  33.13000 5.36800 33.36800
O  31.58800 4.33700 34.79700
C  31.63900 5.51800 35.60000
H  38.95600 1.52300 32.82800
H  38.76500 0.94500 26.40400
H  32.54400 2.57600 26.53700
H  34.92500 3.55900 34.57400
H  37.02700 1.60700 34.57400
H  36.89400 4.40900 35.04100
H  37.96900 4.29900 33.62400
H  38.28500 3.44100 35.11900
H  35.22400 0.57900 34.90300
H  33.63700 1.12500 34.41800
H  34.70900 0.73600 36.91200
H  33.23800 1.76500 36.67600
H  42.05900 0.43900 31.10500
H  40.74000 0.50200 32.35100
H  41.31800 1.97200 31.69500
H  42.94600 1.04300 29.12000
H  43.33900 0.21900 27.64100
H  42.66200 -0.78800 28.94300
H  36.76500 0.51100 24.92600
H  34.38600 2.25900 24.61400
H  37.39700 2.42900 23.62100
H  37.76600 3.14600 25.27300
H  36.20600 3.46100 24.43300
H  34.81000 -0.15500 24.18200
H  33.15700 0.48300 24.38800
H  34.78800 -1.25700 26.14000
H  33.09800 -1.46900 25.74800
H  33.65800 -0.25800 27.00600
H  30.23100 2.44200 27.70000
H  30.75700 4.17800 27.57300
H  29.79800 3.78400 28.87900
H  31.88700 2.30800 33.40600
H  32.61300 5.74000 36.03500
H  31.02200 5.40800 36.49200
H  31.46100 6.46000 35.08100
Mg 53.37000 23.79400 44.90200
C  50.86300 26.22900 43.89200
C  51.22600 21.46100 44.02400
C  55.95800 21.83100 44.65600
C  55.53500 26.56500 45.56200
N  51.43800 23.79700 43.66600
C  50.58100 24.88700 43.51800
C  49.26000 24.40200 43.12100
C  49.24100 22.85700 43.59400
C  50.74700 22.69400 43.76800
C  48.38000 22.58500 44.86600
C  48.91200 24.53800 41.62400
C  50.09700 24.92300 40.73600
H  49.77900 25.16400 39.20900
N  53.54300 21.80600 44.49600
C  52.52500 20.95500 44.11700
C  53.02700 19.61300 44.13100
C  54.44200 19.65000 44.43300
C  54.72800 21.12800 44.57400
C  52.12400 18.40400 43.86600
C  55.46000 18.50100 44.47400
O  55.09700 17.35500 44.12600
C  56.98700 18.72300 44.78100
N  55.50200 24.21600 44.81500
C  56.32600 23.15000 44.75900
C  57.74900 23.74300 44.91300
C  57.57800 25.28100 45.09800
C  56.14900 25.39200 45.24500
C  58.46800 23.10800 46.16200
C  58.22400 26.16400 43.98600
C  59.69600 25.78900 43.48800
N  53.17600 25.99300 44.92600
C  54.14300 26.90400 45.32700
C  53.38500 28.15500 45.55500
C  52.11000 27.93100 45.02600
C  52.05000 26.64100 44.54800
C  53.99800 29.38400 46.18900
C  50.83600 28.53900 44.73000
O  50.54100 29.72700 44.93500
C  49.90700 27.37500 44.05700
C  49.25400 27.87700 42.77400
O  49.88900 28.21600 41.79000
O  47.92000 27.83400 42.83500
C  47.26500 28.52900 41.70700
H  50.57200 20.59500 44.14600
H  56.84900 21.21700 44.50400
H  56.18000 27.41400 45.80100
H  48.56800 25.00300 43.71000
H  48.81900 22.27700 42.77300
H  48.79700 21.73700 45.41000
H  47.45000 22.30000 44.37500
H  48.09100 23.41100 45.51500
H  48.12300 25.26800 41.44500
H  48.35900 23.65700 41.29900
H  50.77000 24.06600 40.76300
H  50.50800 25.85200 41.13000
H  51.14400 18.34500 44.33800
H  52.61500 17.43500 43.95400
H  51.84300 18.46300 42.81400
H  57.47300 17.76200 44.95300
H  57.19800 19.44700 45.56700
H  57.40400 19.26000 43.92900
H  58.40300 23.48500 44.07900
H  58.10600 25.63700 45.98300
H  57.87800 22.33500 46.65600
H  58.72300 23.76600 46.99200
H  59.28900 22.49000 45.79900
H  58.20000 27.19400 44.34200
H  57.55400 26.01400 43.14000
H  60.28100 25.05500 44.04300
H  60.31600 26.67900 43.59400
H  59.69600 25.50900 42.43500
H  55.07400 29.48100 46.04600
H  53.79600 29.38600 47.26000
H  53.49400 30.23800 45.73700
H  49.04500 27.21300 44.70500
H  46.20500 28.71400 41.87600
H  47.25300 27.74200 40.95300
H  47.70700 29.39800 41.22000

