158

Mg 46.42600 34.34700 28.18000
C  44.87000 32.30100 30.45500
C  46.42900 36.93100 30.30300
C  47.35300 36.52500 25.58800
C  46.08200 31.91300 25.71800
N  45.79900 34.49200 30.14300
C  45.33100 33.53800 30.98000
C  45.25600 33.95800 32.44000
C  45.60400 35.53600 32.33800
C  45.89200 35.70000 30.82100
C  44.66500 36.55600 32.90800
C  46.39100 33.25300 33.34200
C  46.21800 33.35000 34.86000
H  45.23800 34.27500 35.56600
N  47.06200 36.38700 28.09400
C  46.94500 37.27800 29.09400
C  47.37800 38.59000 28.69100
C  47.75200 38.54200 27.30400
C  47.39400 37.08600 26.93100
C  47.38400 39.88000 29.56100
C  48.39100 39.59900 26.33500
O  48.83100 39.30400 25.23300
C  48.71100 41.01200 26.76000
N  46.83300 34.16100 26.04500
C  47.02000 35.24900 25.18100
C  47.10000 34.90900 23.74200
C  46.84600 33.35500 23.80600
C  46.52900 33.10300 25.34200
C  46.24600 35.72200 22.78200
C  47.98000 32.47500 23.24900
C  49.24100 32.38100 24.17500
N  45.68000 32.46000 28.06000
C  45.56700 31.58800 26.95000
C  44.89800 30.34700 27.40300
C  44.49200 30.63000 28.73600
C  45.08600 31.88600 29.11100
C  44.62900 29.07800 26.51900
C  43.84200 30.09400 29.83600
O  43.26800 29.07200 30.02900
C  43.87600 31.28600 30.94700
C  44.09600 30.91300 32.42900
O  45.00800 30.27500 32.87000
O  42.96200 31.34700 33.12800
C  43.03900 31.08300 34.57900
H  46.53200 37.71500 31.05700
H  47.46200 37.32300 24.85100
H  45.88800 31.18600 24.92700
H  44.28200 33.74300 32.87900
H  46.53500 35.70300 32.87900
H  44.40800 37.36200 32.21900
H  45.00400 36.91700 33.87900
H  43.77900 35.94400 33.07500
H  47.32700 33.77900 33.15600
H  46.48900 32.20600 33.05700
H  47.23400 33.63900 35.13100
H  45.85800 32.35200 35.11000
H  48.37100 40.32300 29.42500
H  47.18800 39.65400 30.60900
H  46.69000 40.64700 29.21800
H  47.81100 41.31800 27.29400
H  48.83800 41.67100 25.90200
H  49.67300 41.00100 27.27300
H  48.07700 34.94100 23.26000
H  45.90800 33.06600 23.33200
H  46.81400 36.54100 22.34000
H  45.29100 36.02600 23.21100
H  46.09200 35.00200 21.97900
H  48.25300 32.90600 22.28500
H  47.60900 31.46200 23.09700
H  50.15400 32.79200 23.74400
H  49.55600 31.38700 24.49300
H  49.05600 32.92500 25.10100
H  45.60400 28.82000 26.10400
H  44.01400 29.45200 25.70000
H  44.31900 28.23400 27.13500
H  42.96200 31.86000 30.79300
H  42.37400 31.82400 35.02400
H  44.03000 31.25800 34.99700
H  42.78200 30.09400 34.95900
Mg -8.46100 40.86600 42.81200
C  -7.58900 37.59100 42.04200
C  -5.78400 41.94500 40.79200
C  -9.69500 43.86900 43.04600
C  -11.67500 39.59000 43.98700
N  -6.90700 39.88400 41.55700
C  -6.75500 38.53700 41.48500
C  -5.60400 38.23500 40.57200
C  -4.91900 39.59200 40.25000
C  -5.92500 40.54000 40.88900
C  -3.46200 39.76000 40.82700
C  -6.02700 37.48700 39.27500
C  -5.15000 36.31200 38.92000
H  -4.29200 36.63700 37.72700
N  -7.65100 42.66200 42.18800
C  -6.69900 42.92300 41.29500
C  -6.63400 44.37900 41.07700
C  -7.68800 44.99600 41.78000
C  -8.43100 43.82200 42.37800
C  -5.42100 44.96900 40.36900
C  -7.95300 46.52300 41.72900
O  -7.29700 47.30400 41.06400
C  -9.09700 47.10600 42.45600
N  -10.38300 41.60300 43.49400
C  -10.55600 42.94800 43.53800
C  -11.91400 43.36500 44.09600
C  -12.53800 42.00100 44.51500
C  -11.47000 40.97500 43.94000
C  -11.89300 44.37500 45.23000
C  -14.00300 41.78500 44.04500
C  -15.10100 41.30900 45.02600
N  -9.44200 38.99900 43.03400
C  -10.68000 38.63100 43.56900
C  -10.78200 37.18000 43.61000
C  -9.55500 36.77500 43.06300
C  -8.77600 37.90300 42.71700
C  -11.96800 36.38700 44.02700
C  -8.91900 35.57600 42.64200
O  -9.25800 34.39400 42.67400
C  -7.60100 36.09700 41.91600
C  -6.47200 35.46600 42.74400
O  -6.43800 35.53100 43.94900
O  -5.61400 34.74700 41.89400
C  -4.40700 34.11800 42.49300
H  -4.89600 42.25800 40.24000
H  -10.12500 44.87100 43.10900
H  -12.63400 39.21700 44.35000
H  -4.87200 37.62200 41.09800
H  -4.88700 39.69800 39.16500
H  -2.73300 39.51700 40.05300
H  -3.23300 38.92100 41.48300
H  -3.29300 40.67400 41.39600
H  -6.07100 38.19000 38.44300
H  -7.08700 37.24600 39.35000
H  -5.70700 35.38800 38.76800
H  -4.46000 36.04800 39.72100
H  -4.53200 44.52400 40.81500
H  -5.25100 46.03500 40.52400
H  -5.40000 44.74900 39.30200
H  -9.05700 48.19300 42.38700
H  -8.89100 46.83800 43.49200
H  -10.01900 46.75800 41.99000
H  -12.47900 43.88600 43.32400
H  -12.51900 41.84100 45.59300
H  -12.16100 43.96300 46.20300
H  -12.56400 45.22200 45.08900
H  -10.90500 44.83300 45.25600
H  -14.09100 41.24600 43.10200
H  -14.43800 42.73700 43.74100
H  -14.80900 41.22400 46.07300
H  -15.50700 40.38800 44.60800
H  -16.04000 41.86100 44.97700
H  -11.61500 35.49900 44.55100
H  -12.38100 36.11900 43.05400
H  -12.65800 36.91700 44.68400
H  -7.47400 35.74000 40.89400
H  -4.70700 33.50100 43.34100
H  -3.83900 34.91700 42.97100
H  -3.92300 33.50400 41.73400

