158

Mg 37.29100 50.21400 24.18400
C  36.79100 48.69500 27.46400
C  36.87400 53.19500 25.88100
C  37.37400 51.65600 21.17100
C  37.67400 47.10100 22.96600
N  36.65000 50.83200 26.44900
C  36.55300 50.05700 27.51800
C  36.57700 50.91500 28.88200
C  36.44900 52.38300 28.37000
C  36.64000 52.10800 26.81200
C  35.09900 53.10700 28.69200
C  37.83000 50.69100 29.84900
C  37.49800 50.20400 31.30600
H  36.12100 50.65600 31.86100
N  37.16900 52.16100 23.63000
C  37.06100 53.20400 24.44300
C  37.02900 54.33400 23.59500
C  37.14500 53.96300 22.25300
C  37.21300 52.53200 22.26600
C  36.78300 55.78000 24.11200
C  37.16500 54.84800 21.01500
O  37.29800 54.34500 19.84300
C  37.10100 56.34500 21.11700
N  37.17100 49.47700 22.32300
C  37.46400 50.25400 21.20500
C  37.62800 49.38900 19.91900
C  38.11800 48.05500 20.58300
C  37.58600 48.19900 22.03800
C  36.40500 49.25300 18.93000
C  39.66400 47.68500 20.38900
C  39.87500 46.32300 19.66400
N  37.15900 48.20800 24.90600
C  37.32700 47.02600 24.31300
C  37.31800 45.94400 25.29300
C  37.16700 46.56200 26.52200
C  37.03600 47.96800 26.25900
C  37.53500 44.52000 25.04700
C  37.02300 46.28700 27.90700
O  37.16500 45.25200 28.55400
C  36.76000 47.66000 28.62100
C  35.46900 47.56300 29.30800
O  34.40000 47.88800 28.81300
O  35.53300 47.00500 30.51900
C  34.29300 46.75400 31.29400
H  36.88100 54.18300 26.34600
H  37.40300 51.99900 20.13400
H  38.09100 46.19300 22.52700
H  35.68200 50.69100 29.46300
H  37.33800 52.94800 28.64900
H  35.38900 54.07000 29.11400
H  34.51800 52.63100 29.48200
H  34.42900 53.31800 27.85900
H  38.44500 51.59000 29.88700
H  38.50200 50.00100 29.33900
H  38.22000 50.58500 32.02800
H  37.48100 49.11400 31.33000
H  36.22900 55.81100 25.05100
H  36.05900 56.19300 23.41000
H  37.64300 56.44700 24.16800
H  36.15200 56.69800 21.52000
H  37.15000 56.71400 20.09200
H  37.98000 56.87900 21.47600
H  38.46700 49.75100 19.32600
H  37.59100 47.21400 20.13100
H  35.59300 49.94700 19.14900
H  35.99900 48.24400 18.86000
H  36.89000 49.59300 18.01600
H  40.05800 47.80700 21.39800
H  40.24200 48.35900 19.75800
H  39.89000 45.53000 20.41200
H  40.88300 46.31900 19.24900
H  39.16500 46.28500 18.83900
H  37.94600 44.36700 24.04900
H  36.53300 44.09300 25.00400
H  38.10400 44.26100 25.94000
H  37.69900 47.79600 29.15900
H  33.63900 47.61300 31.14000
H  34.50600 46.55200 32.34300
H  33.67000 45.99600 30.81900
Mg 26.69100 51.83500 25.70700
C  24.15900 52.46400 27.90700
C  28.78000 51.06200 28.37700
C  29.15200 51.43300 23.51100
C  24.52600 52.74300 23.08900
N  26.53800 51.91500 27.86700
C  25.37800 52.07200 28.52000
C  25.50300 51.66800 30.01700
C  27.01400 51.38500 30.12800
C  27.49300 51.46700 28.69000
C  27.77900 52.21100 31.25400
C  24.51600 50.50400 30.51800
C  24.84500 49.74700 31.85700
H  23.84400 49.79700 33.07100
N  28.70000 51.34700 25.87700
C  29.32600 51.10800 27.06300
C  30.71800 50.71200 26.68200
C  30.90200 50.93100 25.29400
C  29.55100 51.26100 24.81200
C  31.73500 50.19700 27.71200
C  32.14000 50.78800 24.39700
O  32.15300 51.04400 23.21400
C  33.28200 50.11800 24.94100
N  26.77800 51.96600 23.56300
C  27.91200 51.71500 22.90900
C  27.70500 51.74800 21.34900
C  26.21000 52.03300 21.14200
C  25.79300 52.28300 22.67100
C  28.62800 52.70900 20.46300
C  25.44000 50.77700 20.52600
C  24.33300 51.14400 19.45600
N  24.78200 52.57000 25.46200
C  23.98800 52.78100 24.38600
C  22.69900 53.23000 24.83300
C  22.64700 53.10000 26.23600
C  23.96000 52.74000 26.53200
C  21.65800 53.77100 23.93700
C  21.88600 53.24600 27.42600
O  20.76100 53.71900 27.64600
C  22.79600 52.78200 28.55300
C  22.90400 53.86300 29.49700
O  23.29400 54.99600 29.18500
O  22.44100 53.47800 30.69100
C  22.54600 54.31600 31.83600
H  29.39800 50.79000 29.23600
H  29.93100 51.23400 22.77300
H  23.73400 52.78500 22.33800
H  25.27900 52.59000 30.55300
H  27.13300 50.38200 30.53700
H  28.22400 53.07700 30.76300
H  28.60600 51.64000 31.67500
H  27.05300 52.48500 32.02000
H  24.45200 49.85500 29.64500
H  23.61200 51.05300 30.78100
H  25.66200 50.35500 32.24500
H  25.07200 48.69400 31.68900
H  32.70500 50.66200 27.53500
H  31.91400 49.12200 27.67700
H  31.43500 50.45800 28.72700
H  33.94100 49.66800 24.19800
H  32.85500 49.29200 25.51000
H  33.71300 50.79800 25.67600
H  27.91000 50.72900 21.02000
H  26.04000 52.97500 20.62000
H  28.08800 53.63000 20.24300
H  28.93800 52.14300 19.58400
H  29.47500 53.05300 21.05500
H  24.96400 50.20200 21.32000
H  26.12900 50.05600 20.08500
H  24.38700 50.56700 18.53300
H  24.28300 52.19100 19.15500
H  23.34300 50.99900 19.88900
H  20.76300 53.71200 24.55600
H  21.57700 53.25200 22.98100
H  21.97500 54.78200 23.68200
H  22.33600 51.88700 28.97100
H  23.36600 53.87000 32.39900
H  21.63400 54.21500 32.42500
H  22.62900 55.33400 31.45500

