158

Mg 8.08800 3.36700 27.51200
C  8.99100 1.58500 30.36000
C  6.19900 5.43900 29.47200
C  7.10500 5.02400 24.67600
C  9.72500 1.10300 25.53700
N  7.51100 3.45100 29.73100
C  8.17400 2.72300 30.68600
C  7.84000 3.31800 32.09800
C  7.06400 4.57200 31.72400
C  6.90300 4.48400 30.21700
C  5.66600 4.73800 32.49400
C  9.11100 3.60900 32.99600
C  8.93200 4.71600 34.15100
H  9.55600 4.52200 35.49600
N  6.83300 4.99900 27.18300
C  6.07500 5.61300 28.09600
C  5.15600 6.52600 27.45700
C  5.54000 6.55100 26.04300
C  6.53100 5.54300 25.91300
C  4.00500 7.34900 28.13300
C  4.97900 7.48500 24.99700
O  5.56400 7.51700 23.92100
C  3.83900 8.42400 25.21000
N  8.47000 3.15200 25.30600
C  7.93900 3.93800 24.39000
C  8.12600 3.36100 22.95000
C  9.18300 2.23500 23.26800
C  9.09200 2.10800 24.80900
C  6.75200 2.88700 22.28200
C  10.59300 2.47100 22.68100
C  11.22600 1.15200 22.20400
N  9.21900 1.75600 27.86600
C  9.89200 0.95700 26.93200
C  10.63500 -0.12700 27.68100
C  10.42700 0.20300 29.00900
C  9.35400 1.22500 29.03500
C  11.65500 -1.09300 27.15200
C  10.89100 -0.09100 30.41900
O  11.67500 -0.90800 30.93300
C  9.92500 0.72700 31.29800
C  9.24300 -0.28600 32.21400
O  8.24800 -0.92600 31.87900
O  9.82100 -0.30100 33.40400
C  9.32800 -1.46100 34.26800
H  5.80000 6.26600 30.06300
H  6.80000 5.59000 23.79400
H  10.24700 0.36800 24.92200
H  7.26100 2.49800 32.52100
H  7.69900 5.43900 31.90500
H  5.61500 5.69800 33.00900
H  5.38900 4.00300 33.25000
H  4.90800 4.62400 31.72000
H  9.96200 3.80200 32.34300
H  9.40200 2.68900 33.50300
H  7.86600 4.68500 34.37700
H  9.18800 5.67500 33.70200
H  4.27200 8.40500 28.09000
H  3.96400 7.16400 29.20600
H  3.05400 7.03300 27.70600
H  3.70900 9.00300 24.29600
H  3.96700 9.12600 26.03400
H  2.92700 7.82600 25.20800
H  8.54300 4.05800 22.22400
H  8.77000 1.27900 22.94800
H  5.93500 3.49900 22.66500
H  6.57500 1.82200 22.42800
H  6.91300 3.17500 21.24300
H  11.25400 2.84700 23.46200
H  10.61300 3.26500 21.93400
H  10.62000 0.32100 22.56500
H  12.23100 0.95400 22.57500
H  11.27900 0.90200 21.14400
H  12.14200 -1.73600 27.88600
H  12.35500 -0.53400 26.53100
H  11.15100 -1.83700 26.53500
H  10.64200 1.26400 31.91800
H  10.12500 -1.54800 35.00600
H  9.30300 -2.37000 33.66700
H  8.37400 -1.28700 34.76600
Mg 39.89600 10.51700 30.00000
C  41.72300 11.53100 32.64400
C  37.70700 8.86300 32.21400
C  38.30400 9.09400 27.31200
C  42.56700 11.31700 27.83600
N  39.90100 10.01200 32.29000
C  40.60700 10.81900 33.08600
C  40.11300 10.73200 34.53800
C  38.81000 9.82800 34.39700
C  38.79700 9.43600 32.88400
C  38.63800 8.65000 35.37500
C  39.81100 12.17600 35.24400
C  40.57200 12.36900 36.58100
H  39.66300 13.06400 37.58400
N  38.10800 9.38400 29.82800
C  37.39800 8.75100 30.83900
C  36.24500 8.10700 30.26600
C  36.38400 8.24700 28.83900
C  37.67300 8.94800 28.56100
C  35.20000 7.42300 31.11300
C  35.53500 7.59100 27.75600
O  35.88500 7.56700 26.59200
C  34.29600 6.79000 28.10100
N  40.45200 10.13200 27.88300
C  39.59300 9.61300 27.01000
C  39.90800 9.98600 25.49600
C  41.31400 10.75900 25.62800
C  41.51300 10.73800 27.15500
C  39.85000 8.85000 24.51000
C  41.35400 12.19400 24.95300
C  40.68500 13.40400 25.60800
N  41.74100 11.41000 30.12600
C  42.72400 11.67000 29.19300
C  43.84300 12.25000 29.83300
C  43.45600 12.31000 31.21600
C  42.20400 11.69000 31.32900
C  45.05400 12.75300 29.14600
C  43.94400 12.57900 32.54700
O  44.97100 13.16000 32.92800
C  42.82200 12.06000 33.55900
C  43.37200 11.07800 34.54100
O  43.74000 9.95500 34.31800
O  43.40900 11.68100 35.78800
C  43.71600 10.84600 36.95000
H  37.05300 8.35500 32.92400
H  37.65000 8.98800 26.44400
H  43.37700 11.63000 27.17400
H  40.86400 10.16900 35.09300
H  37.86900 10.36200 34.53200
H  38.63500 7.68200 34.87300
H  37.73300 8.80700 35.96200
H  39.49500 8.62300 36.04900
H  38.74700 12.12100 35.47600
H  40.06800 12.91900 34.48900
H  41.28600 13.15700 36.34100
H  40.92700 11.41200 36.96300
H  35.62500 7.14600 32.07800
H  34.92700 6.47600 30.64700
H  34.23100 7.91900 31.17900
H  33.59000 7.39500 28.66900
H  34.52500 5.95400 28.76300
H  33.87800 6.45700 27.15100
H  39.05400 10.63600 25.30800
H  42.08000 10.07400 25.26200
H  39.52600 7.89900 24.93200
H  40.81300 8.57200 24.08100
H  39.16700 9.16100 23.71900
H  40.88600 12.07600 23.97500
H  42.39400 12.50500 24.85400
H  40.07300 14.02600 24.95400
H  41.48300 14.06200 25.95000
H  40.12100 13.13100 26.50000
H  45.31400 13.68500 29.64800
H  45.02000 13.06900 28.10300
H  45.86500 12.09700 29.46100
H  42.37900 12.94200 34.02200
H  44.29100 11.43000 37.66900
H  44.24200 9.91400 36.74200
H  42.83000 10.59900 37.53600

