158

Mg 0.56100 7.42800 28.04900
C  1.06900 9.90200 30.26400
C  0.60500 5.14300 30.67200
C  0.54600 4.90600 25.74400
C  0.70000 9.76400 25.41600
N  0.75900 7.53600 30.23200
C  0.80200 8.69600 30.97000
C  0.77200 8.41300 32.46100
C  1.09600 6.88000 32.51500
C  0.71000 6.47600 31.09200
C  2.56900 6.54900 32.82100
C  -0.73700 8.78700 32.94900
C  -1.02400 8.94400 34.47300
H  0.10700 8.81800 35.48600
N  0.49400 5.37900 28.20300
C  0.47700 4.58800 29.32500
C  0.32500 3.18900 29.05300
C  0.15700 3.10800 27.59700
C  0.41600 4.46800 27.09800
C  0.42200 2.06400 30.08000
C  -0.17000 1.93300 26.70100
O  -0.18600 2.01500 25.48600
C  -0.36200 0.57000 27.37300
N  0.65700 7.35600 25.92300
C  0.68100 6.20500 25.21800
C  0.74700 6.39800 23.69400
C  0.60800 7.95300 23.61500
C  0.55800 8.37400 25.06600
C  2.03400 5.80000 23.08600
C  -0.61000 8.37100 22.64000
C  -0.40100 9.60700 21.68600
N  0.86000 9.44900 27.83200
C  0.86700 10.25000 26.74800
C  1.15900 11.64900 27.16900
C  1.27400 11.54900 28.54300
C  1.05600 10.19000 28.87900
C  1.15500 12.87600 26.27800
C  1.63000 12.18800 29.72100
O  2.08700 13.32100 29.91700
C  1.53600 11.21700 30.84400
C  2.85800 11.22300 31.56800
O  3.94500 10.98400 31.09900
O  2.55700 11.48800 32.89000
C  3.55000 11.30200 33.95500
H  0.51300 4.44400 31.50600
H  0.58700 4.08500 25.02500
H  0.90400 10.51000 24.64600
H  1.46300 9.00800 33.05900
H  0.43600 6.39900 33.23700
H  3.06900 5.79000 32.21900
H  2.58000 6.15300 33.83600
H  3.24200 7.38600 32.63600
H  -1.35900 8.00600 32.51200
H  -1.08000 9.76700 32.61500
H  -1.64000 8.11300 34.81800
H  -1.54400 9.89600 34.58000
H  1.13700 1.33500 29.70000
H  -0.56700 1.67500 30.32000
H  0.92100 2.53100 30.92900
H  -0.69500 -0.21100 26.69000
H  -1.20800 0.82100 28.01300
H  0.44700 0.25500 28.03300
H  -0.07700 5.87200 23.21100
H  1.53600 8.25000 23.12700
H  1.93500 4.71500 23.11400
H  2.85600 6.18700 23.68800
H  2.13100 6.18200 22.06900
H  -1.45400 8.69600 23.24800
H  -0.79300 7.56300 21.93200
H  -0.24800 9.26700 20.66100
H  0.47200 10.19800 21.96000
H  -1.29900 10.22100 21.75700
H  1.54000 12.53400 25.31700
H  1.84000 13.65000 26.62400
H  0.15100 13.29500 26.21500
H  0.66600 11.60800 31.37200
H  3.48900 10.29500 34.36800
H  3.28400 11.94300 34.79500
H  4.50800 11.69900 33.62000
Mg -11.97900 38.41600 42.01600
C  -10.02200 35.61800 41.31800
C  -10.11800 40.33000 40.01700
C  -14.48700 40.63900 42.05100
C  -14.34200 36.07300 43.45800
N  -10.40100 37.90200 40.65400
C  -9.61800 36.72500 40.60200
C  -8.37700 36.93500 39.73200
C  -8.32000 38.51600 39.50300
C  -9.67800 38.98000 40.14200
C  -7.12600 39.16800 40.17900
C  -8.34800 36.00700 38.48500
C  -7.05100 35.27500 38.13500
H  -6.30100 35.87600 36.97900
N  -12.15400 40.32800 41.33000
C  -11.28800 40.95500 40.56400
C  -11.72500 42.33700 40.25600
C  -13.07800 42.49000 40.87100
C  -13.32400 41.11800 41.47700
C  -10.87400 43.31800 39.58500
C  -14.00500 43.72200 40.70000
O  -13.50300 44.74800 40.22200
C  -15.43400 43.61600 41.11100
N  -14.23600 38.29400 42.31800
C  -14.84200 39.37300 42.51800
C  -16.37400 39.08600 42.78800
C  -16.23600 37.64800 43.33500
C  -14.87500 37.26600 42.96100
C  -17.09500 40.02800 43.68500
C  -17.34000 36.61500 42.76200
C  -18.46300 36.11300 43.74900
N  -12.17200 36.31100 42.39700
C  -13.06500 35.62200 43.16500
C  -12.51600 34.36500 43.53100
C  -11.29700 34.28000 42.79300
C  -11.17300 35.53800 42.13500
C  -13.11400 33.26000 44.39400
C  -10.22900 33.48100 42.53600
O  -9.77900 32.35700 42.81600
C  -9.44500 34.24600 41.43100
C  -7.99700 34.26300 41.75900
O  -7.11800 33.82900 40.99500
O  -7.72200 34.99300 42.95100
C  -6.32900 35.13800 43.28600
H  -9.52300 40.93000 39.32400
H  -15.32200 41.34100 42.09800
H  -14.96400 35.52200 44.16600
H  -7.54100 36.60300 40.34800
H  -8.24800 38.74500 38.43900
H  -6.47900 38.35900 40.51700
H  -7.41600 39.72200 41.07200
H  -6.60200 39.89200 39.55500
H  -8.57600 36.55400 37.57000
H  -9.14200 35.27400 38.62300
H  -7.42800 34.29400 37.84300
H  -6.33500 35.30000 38.95600
H  -9.86400 42.96100 39.78300
H  -11.10500 44.31100 39.97100
H  -10.97200 43.22800 38.50300
H  -15.92600 42.75700 40.65400
H  -15.93100 44.48800 40.68700
H  -15.64400 43.63200 42.18000
H  -16.97400 39.07600 41.87800
H  -16.40600 37.64300 44.41100
H  -16.55500 40.89200 44.07500
H  -17.26100 39.48800 44.61700
H  -18.08600 40.29400 43.31900
H  -16.83900 35.71500 42.40500
H  -17.78500 36.92600 41.81700
H  -18.63300 35.03700 43.76700
H  -19.40200 36.63900 43.57500
H  -18.14900 36.39700 44.75300
H  -14.06000 32.96000 43.94200
H  -13.36600 33.48400 45.43100
H  -12.35000 32.48300 44.37900
H  -9.50400 33.54800 40.59500
H  -6.39900 35.68500 44.22700
H  -5.91700 35.86200 42.58300
H  -5.76800 34.20400 43.31800

