158

Mg 40.37300 9.89800 29.00900
C  42.32700 11.18100 31.68400
C  38.11000 8.67900 31.35000
C  38.67600 8.47700 26.55600
C  43.04600 10.60300 26.86100
N  40.32200 9.72300 31.27800
C  41.15100 10.56400 32.08300
C  40.55100 10.52100 33.56600
C  39.41900 9.52000 33.42300
C  39.17600 9.34300 31.95300
C  39.71300 8.14300 34.19500
C  40.11300 11.96600 34.01700
C  40.44500 12.39600 35.48000
H  40.50100 13.94000 35.76700
N  38.62400 8.71700 28.90900
C  37.83600 8.34500 29.98400
C  36.74600 7.47900 29.47100
C  36.80000 7.58400 28.08400
C  38.03700 8.30000 27.77200
C  35.57400 7.02800 30.25800
C  35.77600 7.18100 26.97500
O  35.95500 7.45300 25.86700
C  34.44900 6.53900 27.42200
N  40.73900 9.72600 27.03500
C  39.89800 9.01800 26.24400
C  40.50800 8.74100 24.85300
C  41.92000 9.38900 24.90000
C  41.93100 9.93600 26.34700
C  40.57600 7.28400 24.33400
C  42.19100 10.53000 23.86700
C  41.82100 11.95200 24.27400
N  42.23600 10.80600 29.18000
C  43.23400 11.06600 28.25300
C  44.41700 11.77600 28.82100
C  44.05600 11.90500 30.12700
C  42.74000 11.23200 30.33200
C  45.68400 12.04600 28.14300
C  44.45500 12.34600 31.41400
O  45.53000 12.85000 31.77900
C  43.34700 12.01600 32.43400
C  43.92700 11.44700 33.63100
O  44.26600 10.30000 33.86100
O  43.88800 12.43100 34.59700
C  44.06200 11.83300 35.92200
H  37.41100 8.53000 32.17700
H  38.31100 7.82300 25.76100
H  43.98100 10.70800 26.30700
H  41.29200 10.14000 34.26800
H  38.55700 10.06400 33.81000
H  40.75400 8.04600 34.50200
H  39.63100 7.50200 33.31700
H  39.02000 7.81100 34.96800
H  39.04700 12.12800 33.86200
H  40.61100 12.66100 33.34000
H  41.46300 12.06600 35.68800
H  39.79000 11.82100 36.13500
H  35.80800 7.19800 31.30900
H  35.41900 5.95000 30.22000
H  34.67000 7.56500 29.96900
H  33.70900 7.20100 27.87000
H  34.56300 5.76600 28.18100
H  33.95200 6.03200 26.59500
H  39.91300 9.28500 24.12000
H  42.76100 8.70000 24.83000
H  40.08200 7.36600 23.36500
H  40.02700 6.65500 25.03400
H  41.57000 6.84200 24.39800
H  41.61400 10.36500 22.95800
H  43.27500 10.47800 23.76400
H  41.24100 12.52700 23.55200
H  42.69800 12.50900 24.60400
H  41.13800 11.89800 25.12200
H  45.87100 13.10400 28.32700
H  45.74700 12.13800 27.05900
H  46.45300 11.45500 28.64000
H  42.93100 13.00900 32.60700
H  45.05500 11.39500 36.02100
H  43.37100 11.00500 36.08000
H  43.99700 12.65800 36.63100
Mg 27.25100 50.13500 27.19100
C  25.13700 51.04900 29.79600
C  29.55800 49.19300 29.61200
C  29.47900 49.83600 24.73500
C  24.98200 51.59900 24.89900
N  27.31000 49.97500 29.34500
C  26.26100 50.42200 30.18200
C  26.59100 50.13100 31.64000
C  28.10900 49.74400 31.60900
C  28.35600 49.62800 30.11100
C  29.06000 50.77600 32.25300
C  25.60300 49.03600 32.26400
C  25.00100 49.27400 33.63700
H  25.32900 48.29700 34.81400
N  29.25600 49.62100 27.15600
C  29.98500 49.15100 28.23100
C  31.31600 48.72200 27.72300
C  31.30500 48.88500 26.35100
C  30.01400 49.51400 26.02100
C  32.33800 48.05500 28.68300
C  32.43400 48.59300 25.35000
O  32.35900 48.95300 24.20000
C  33.66300 47.96200 25.85100
N  27.26000 50.67300 25.12300
C  28.28600 50.37000 24.32100
C  28.02700 50.76000 22.84200
C  26.44400 51.08200 22.86800
C  26.21900 51.12700 24.40500
C  28.81500 51.97900 22.34200
C  25.58000 49.96500 22.12600
C  24.27300 50.49800 21.43200
N  25.41600 50.90700 27.30800
C  24.64800 51.57500 26.28600
C  23.46500 52.14500 26.93900
C  23.61700 51.99600 28.33400
C  24.79500 51.22600 28.50300
C  22.36800 52.83200 26.12400
C  23.04300 52.39800 29.56400
O  22.00600 53.00300 29.86700
C  23.98800 51.64500 30.60700
C  24.51800 52.72500 31.45400
O  25.51800 53.32600 31.24200
O  23.69100 52.81500 32.56400
C  23.99300 53.95100 33.42800
H  30.18900 48.83500 30.42800
H  30.24300 49.76000 23.95800
H  24.26400 51.93700 24.14900
H  26.42200 51.04000 32.21600
H  28.21000 48.83300 32.19900
H  28.52400 51.58100 32.75600
H  29.61000 51.24100 31.43500
H  29.62600 50.21900 33.00000
H  26.13700 48.08800 32.33000
H  24.88500 48.83800 31.46800
H  23.92700 49.18400 33.47500
H  25.14300 50.30200 33.97300
H  32.47000 46.99100 28.48600
H  32.13700 48.10100 29.75300
H  33.24800 48.64400 28.57000
H  34.37100 47.70700 25.06200
H  33.49900 46.98100 26.29900
H  34.13200 48.59100 26.60800
H  28.24300 49.85600 22.27200
H  26.24400 52.07500 22.46500
H  28.93500 52.59900 23.23000
H  28.39000 52.52700 21.50100
H  29.78700 51.62800 21.99500
H  25.15000 49.29700 22.87300
H  26.20700 49.41000 21.42900
H  24.09800 51.49800 21.82900
H  23.45300 49.80700 21.62700
H  24.39800 50.61000 20.35500
H  21.49000 52.88200 26.76800
H  22.12700 52.26500 25.22500
H  22.71200 53.83700 25.88000
H  23.55000 51.01900 31.38400
H  24.58800 53.60600 34.27400
H  23.06300 54.29000 33.88200
H  24.35100 54.84900 32.92300

