158

Mg 46.93500 24.66300 27.89700
C  47.47300 26.85700 30.55600
C  46.00900 22.23100 30.25100
C  46.41400 22.30000 25.35900
C  48.22500 26.81500 25.72200
N  46.52500 24.69200 30.13200
C  46.83500 25.70000 31.00600
C  46.57600 25.34300 32.50600
C  46.25600 23.79300 32.33700
C  46.37600 23.51200 30.79000
C  47.16800 22.85200 33.13900
C  45.45300 26.17800 33.13500
C  45.76400 26.65100 34.54900
H  44.69600 26.41100 35.65600
N  46.02400 22.70000 27.77700
C  45.77600 21.85000 28.84200
C  45.14500 20.58500 28.36500
C  45.31300 20.59800 26.95700
C  45.98300 21.92800 26.61100
C  44.64600 19.52200 29.35200
C  45.03600 19.48400 25.96300
O  45.36900 19.64900 24.80700
C  44.33400 18.15200 26.47200
N  47.21700 24.50800 25.84700
C  47.08500 23.49300 25.03200
C  47.55900 23.87400 23.60900
C  47.65800 25.46600 23.65600
C  47.66900 25.59900 25.18900
C  48.84900 23.12900 23.05300
C  46.51400 26.19200 22.91400
C  45.22100 26.61600 23.67900
N  47.89300 26.38900 28.08000
C  48.38000 27.15600 27.06600
C  48.90300 28.38700 27.69800
C  48.60700 28.28700 29.05500
C  47.92600 27.10200 29.21100
C  49.56200 29.48200 26.88700
C  48.73700 28.93600 30.28600
O  49.26300 30.03900 30.58000
C  48.02200 28.01800 31.34200
C  48.85000 27.51800 32.44200
O  49.76000 26.77300 32.27500
O  48.57500 28.05400 33.65800
C  49.47400 27.64100 34.71100
H  45.63700 21.51200 30.98400
H  46.35500 21.57200 24.54700
H  48.52300 27.60400 25.02800
H  47.50000 25.40400 33.08100
H  45.24500 23.52700 32.64500
H  47.36100 21.99700 32.49000
H  46.69500 22.44400 34.03300
H  48.07800 23.36500 33.44900
H  44.47700 25.69200 33.14400
H  45.27800 27.05700 32.51500
H  45.78900 27.74000 34.49700
H  46.73200 26.28900 34.89500
H  43.57000 19.39100 29.23200
H  44.70500 19.92000 30.36500
H  45.22400 18.61700 29.16500
H  43.43500 18.46400 27.00300
H  45.01000 17.46300 26.97900
H  44.04200 17.61300 25.57100
H  46.71300 23.54600 23.00600
H  48.60900 25.84900 23.28600
H  49.18000 22.43400 23.82500
H  49.56100 23.91600 22.80800
H  48.53800 22.53900 22.19000
H  46.28200 25.64300 22.00100
H  46.96800 27.15100 22.66200
H  45.02400 27.68700 23.73300
H  45.30700 26.15600 24.66300
H  44.42700 26.07300 23.16600
H  49.37800 30.49000 27.25900
H  49.21200 29.41500 25.85700
H  50.65000 29.46500 26.82200
H  47.26200 28.63700 31.81800
H  50.38400 27.06300 34.54900
H  48.97000 27.13800 35.53700
H  49.91500 28.56200 35.09200
Mg 8.48200 47.95800 27.88500
C  6.91900 46.92100 30.82200
C  11.33300 48.28600 29.56200
C  9.88200 49.02700 24.94000
C  5.39300 47.86300 26.24100
N  8.92500 47.82100 29.99000
C  8.15300 47.30900 31.03300
C  8.89700 47.35700 32.33100
C  10.28700 48.08800 31.84200
C  10.20700 48.00600 30.35200
C  10.53500 49.53600 32.28800
C  9.17100 46.04800 33.07100
C  9.07700 46.16500 34.60500
H  9.89000 45.23300 35.50400
N  10.38200 48.35600 27.35800
C  11.43400 48.44000 28.17800
C  12.62300 48.77100 27.40300
C  12.25300 48.99500 26.07300
C  10.74600 48.79100 26.04000
C  13.95600 48.85500 27.99200
C  13.08200 49.37800 24.89300
O  12.62300 49.54400 23.76400
C  14.64900 49.44800 25.06400
N  7.71800 48.45400 25.90200
C  8.52200 48.91100 24.88900
C  7.68400 49.23300 23.62500
C  6.31500 48.55400 23.97600
C  6.48100 48.22100 25.43700
C  7.71300 50.76900 23.19600
C  5.94400 47.30200 23.11700
C  6.98400 46.19700 22.91400
N  6.51600 47.60500 28.39200
C  5.38500 47.51600 27.62500
C  4.22500 47.10400 28.43200
C  4.73900 46.86500 29.68200
C  6.16000 47.11500 29.60100
C  2.86900 46.93700 27.94100
C  4.39200 46.49000 31.00000
O  3.35200 46.32300 31.52600
C  5.76400 46.54200 31.80400
C  5.87400 45.17200 32.36900
O  6.25700 44.12500 31.83700
O  5.55600 45.27700 33.71100
C  5.79100 44.04800 34.57000
H  12.17300 48.37600 30.25300
H  10.28400 49.29200 23.96100
H  4.42400 47.57800 25.82700
H  8.29100 47.98900 32.98000
H  11.13700 47.54600 32.25600
H  10.43700 50.24000 31.46100
H  11.57600 49.64600 32.59000
H  9.87000 49.91000 33.06700
H  10.11100 45.54900 32.83900
H  8.43800 45.27000 32.85900
H  8.03100 46.06900 34.89800
H  9.38700 47.18900 34.81300
H  14.42000 47.99500 27.50800
H  13.94200 48.66700 29.06500
H  14.35500 49.83000 27.71300
H  14.87400 50.21500 25.80600
H  15.06000 49.72700 24.09400
H  15.08300 48.47200 25.28300
H  8.14000 48.62900 22.84000
H  5.52800 49.29600 23.84000
H  8.31600 50.77400 22.28800
H  8.28900 51.35500 23.91200
H  6.78900 51.29100 22.94600
H  5.56500 47.59600 22.13800
H  5.07800 46.86300 23.61200
H  7.25800 46.22400 21.86000
H  6.47200 45.23800 22.99600
H  7.76500 46.29600 23.66800
H  2.24300 46.47300 28.70300
H  2.83100 46.25100 27.09600
H  2.36200 47.85900 27.65800
H  5.66000 47.35600 32.52200
H  5.25100 43.14400 34.28800
H  5.45700 44.17500 35.60000
H  6.82600 43.72800 34.68900

