158

Mg 55.17200 23.15800 44.63100
C  52.77700 25.43100 43.81300
C  53.20300 20.57500 43.52500
C  57.86700 21.09800 44.65300
C  57.27000 25.91400 45.65500
N  53.31200 22.97500 43.66200
C  52.46600 24.10300 43.45100
C  51.02600 23.67400 42.97900
C  51.04800 22.13500 43.34700
C  52.57800 21.81000 43.55000
C  50.19500 21.58400 44.50300
C  50.83600 23.87800 41.46600
C  49.50500 24.14100 40.91900
H  49.30800 23.82700 39.39100
N  55.46700 21.09600 44.18400
C  54.58200 20.20100 43.65000
C  55.12000 18.94400 43.53100
C  56.39900 19.03200 44.11000
C  56.65500 20.48500 44.37000
C  54.33000 17.78200 42.92000
C  57.26200 17.80500 44.48300
O  56.91100 16.67800 44.15200
C  58.56400 17.95600 45.24000
N  57.25500 23.44500 45.16700
C  58.13900 22.41200 45.03800
C  59.58600 22.83000 45.41500
C  59.35900 24.35700 45.95100
C  57.89800 24.66200 45.52800
C  60.38000 22.01900 46.43600
C  60.39700 25.30200 45.36000
C  61.35000 25.84200 46.46400
N  54.99300 25.23400 44.86100
C  55.86600 26.25800 45.27100
C  55.16200 27.54000 45.34200
C  53.91200 27.24700 44.80400
C  53.91600 25.87100 44.46300
C  55.80000 28.81900 45.92800
C  52.69200 27.81600 44.30700
O  52.41400 28.99200 44.31400
C  51.85800 26.66400 43.68900
C  51.67000 27.08600 42.33200
O  52.53900 27.00200 41.45200
O  50.35500 27.39600 42.12400
C  49.98600 28.04500 40.85200
H  52.49000 19.79700 43.24600
H  58.74700 20.45200 44.60100
H  57.81300 26.79600 46.00300
H  50.22900 24.09600 43.59200
H  50.78300 21.61800 42.42400
H  49.93400 22.37800 45.20300
H  50.67500 20.82400 45.12100
H  49.27400 21.23600 44.03600
H  51.41800 23.12000 40.94200
H  51.42200 24.79200 41.37700
H  49.26500 25.18700 41.10900
H  48.86300 23.50500 41.52800
H  53.63100 18.20600 42.19800
H  53.78800 17.24800 43.70100
H  55.06500 17.11100 42.47600
H  59.36700 18.28800 44.58300
H  58.98100 17.04500 45.67000
H  58.36400 18.50400 46.16100
H  60.19400 22.93700 44.51600
H  59.43500 24.35500 47.03900
H  61.26600 21.61200 45.94700
H  59.81900 21.17500 46.83800
H  60.55000 22.59800 47.34300
H  59.85600 26.04000 44.76900
H  61.03000 24.79100 44.63500
H  62.31000 25.33200 46.37600
H  61.02300 25.66600 47.48900
H  61.40900 26.93000 46.48900
H  56.39400 29.28100 45.14000
H  56.49800 28.58300 46.73200
H  54.96500 29.46500 46.19700
H  50.97400 26.51300 44.30900
H  50.80500 28.49300 40.28900
H  49.18600 28.77500 40.97800
H  49.62400 27.15900 40.33100
Mg 16.69800 51.98700 26.17300
C  18.46300 50.60600 28.94700
C  14.20100 52.92300 28.26500
C  15.12400 53.32500 23.47700
C  18.93500 50.37500 24.06500
N  16.35100 51.70700 28.29200
C  17.25100 51.27000 29.27900
C  16.86500 51.64500 30.67100
C  15.38600 52.14400 30.44700
C  15.33200 52.35500 28.90800
C  14.29900 51.12900 30.90300
C  17.90300 52.55700 31.33500
C  17.93500 52.70400 32.86700
H  16.85200 52.08100 33.65700
N  14.87200 53.00500 25.90000
C  13.94900 53.17600 26.85900
C  12.80500 53.84700 26.27900
C  13.04200 54.09600 24.87700
C  14.38600 53.49200 24.68200
C  11.54700 54.21600 27.07500
C  12.17500 54.69300 23.83900
O  12.54900 54.77000 22.66700
C  10.76500 55.13000 24.22600
N  17.05100 51.92900 24.05500
C  16.27400 52.56800 23.18100
C  16.74000 52.31800 21.79200
C  18.12600 51.58200 21.98200
C  18.08800 51.25600 23.46000
C  15.81300 51.61300 20.85400
C  19.27600 52.42200 21.63800
C  20.56100 51.67500 21.28200
N  18.41800 50.83100 26.40100
C  19.17000 50.18400 25.45000
C  20.18400 49.33300 26.12100
C  19.91600 49.48200 27.45800
C  18.89600 50.42300 27.60400
C  21.21200 48.49600 25.37900
C  20.34200 49.03500 28.79200
O  21.26000 48.31400 29.23300
C  19.41200 49.74500 29.81100
C  18.74400 48.89300 30.82500
O  17.92900 48.02000 30.64600
O  19.24200 49.20400 32.05500
C  18.77800 48.31900 33.17300
H  13.38900 53.21800 28.93300
H  14.70900 53.75800 22.56400
H  19.63800 49.84700 23.41700
H  16.86700 50.74100 31.28100
H  15.22700 53.03600 31.05300
H  13.91200 50.51500 30.09000
H  13.41100 51.52100 31.39800
H  14.64400 50.53000 31.74600
H  17.74400 53.58000 30.99500
H  18.86500 52.13900 31.03800
H  17.88500 53.77600 33.05800
H  18.91700 52.31700 33.14100
H  11.79200 54.29700 28.13400
H  10.76500 53.46000 26.99800
H  11.23100 55.24700 26.91300
H  10.21300 55.27400 23.29700
H  10.79100 56.00900 24.86900
H  10.12800 54.35800 24.65800
H  16.96600 53.31900 21.42400
H  18.17700 50.62100 21.47000
H  14.89700 51.34200 21.37800
H  16.33300 50.73600 20.47100
H  15.59200 52.26500 20.00800
H  19.63900 53.16000 22.35400
H  19.06100 53.00200 20.74100
H  21.16000 52.15300 20.50700
H  20.61800 50.60700 21.07000
H  21.17000 51.84100 22.17100
H  21.63000 47.95000 26.22500
H  21.93600 49.09000 24.82200
H  20.73000 47.82800 24.66600
H  20.02200 50.48300 30.33200
H  19.61800 48.29400 33.86600
H  18.65500 47.27000 32.90500
H  17.92900 48.69800 33.74200

