158

Mg 35.72400 2.91500 30.93800
C  33.12300 3.92200 32.93200
C  37.85800 2.93800 33.49400
C  38.26400 1.92900 28.79000
C  33.59200 3.38000 28.15100
N  35.42100 3.37800 32.93200
C  34.33700 3.62200 33.59600
C  34.57300 3.53600 35.09500
C  36.16200 3.47700 35.24600
C  36.53300 3.35000 33.76500
C  36.82300 4.75900 35.94100
C  33.87800 2.30100 35.72700
C  33.41100 2.54900 37.18500
H  34.09800 3.49300 38.14100
N  37.79400 2.48400 31.14900
C  38.49300 2.50000 32.30100
C  39.85900 2.03300 32.14000
C  39.91800 1.71300 30.77700
C  38.61600 2.01400 30.16800
C  40.85300 1.90300 33.27500
C  41.11400 1.04900 29.97700
O  41.12100 0.99500 28.77900
C  42.31700 0.41600 30.69700
N  35.94300 2.76000 28.73600
C  37.02500 2.19300 28.15700
C  36.86500 2.16800 26.61600
C  35.42800 2.72800 26.42600
C  34.93900 3.05000 27.83200
C  38.01300 3.00800 25.81500
C  34.54400 1.78900 25.52400
C  34.15100 0.46100 26.20000
N  33.68800 3.51300 30.55800
C  32.91300 3.66000 29.38700
C  31.63700 4.02200 29.72800
C  31.58800 4.08800 31.15100
C  32.88200 3.79100 31.58400
C  30.47900 4.25200 28.74000
C  30.73500 4.29500 32.30600
O  29.55200 4.46000 32.41800
C  31.76800 4.12800 33.55300
C  31.73700 5.42600 34.34800
O  31.73700 6.54900 33.88400
O  31.50300 5.19300 35.70900
C  31.21000 6.29300 36.58800
H  38.46800 2.76100 34.38300
H  39.02600 1.55900 28.10000
H  32.96000 3.56900 27.28000
H  34.18400 4.45300 35.53800
H  36.46400 2.51300 35.65400
H  37.67600 5.10900 35.36000
H  37.11600 4.44200 36.94200
H  36.03500 5.50900 35.99700
H  34.62600 1.51200 35.80100
H  33.05600 1.98000 35.08600
H  33.32300 1.57600 37.66900
H  32.35100 2.79200 37.25500
H  41.00700 0.85500 33.53300
H  40.47600 2.16100 34.26400
H  41.78300 2.45900 33.15800
H  43.06600 0.06600 29.98700
H  42.02100 -0.17800 31.56200
H  42.86000 1.23800 31.16200
H  36.90200 1.11000 26.35700
H  35.46900 3.73000 26.00000
H  37.66000 3.77600 25.12700
H  38.52200 2.33000 25.13000
H  38.71500 3.47900 26.50400
H  35.12000 1.52100 24.63900
H  33.69700 2.35000 25.13000
H  34.76000 0.27800 27.08500
H  34.18100 -0.40900 25.54400
H  33.13300 0.48700 26.58900
H  30.29300 3.28100 28.28200
H  30.77100 4.89000 27.90600
H  29.61000 4.72100 29.20200
H  31.47500 3.27200 34.16200
H  30.48800 5.99700 37.34800
H  30.64500 7.08100 36.08900
H  32.15600 6.68400 36.96300
Mg 42.83600 41.30100 26.24800
C  41.76600 43.57900 28.68600
C  44.03900 39.27000 28.58200
C  43.50300 39.29300 23.77300
C  41.51500 43.63300 23.80100
N  42.93600 41.46100 28.32300
C  42.31800 42.38300 29.16700
C  42.39700 42.01300 30.61200
C  43.39600 40.76200 30.49700
C  43.46800 40.42300 29.05200
C  44.78600 41.00000 31.08800
C  41.09200 41.81400 31.41900
C  40.91600 42.57400 32.69100
H  40.70500 41.75500 33.97100
N  43.87200 39.67000 26.14300
C  44.23400 38.89400 27.24100
C  44.80600 37.66400 26.83400
C  44.51100 37.53000 25.43400
C  43.95800 38.84400 25.01500
C  45.39800 36.72000 27.77700
C  44.64200 36.28500 24.48600
O  44.52600 36.35800 23.26600
C  45.18800 35.00400 25.09400
N  42.52500 41.49700 24.12000
C  42.89000 40.41300 23.34800
C  42.35200 40.45600 21.92800
C  41.78800 41.93300 21.93200
C  41.91300 42.39200 23.40000
C  43.34500 40.17600 20.83500
C  40.31000 41.99800 21.39300
C  40.16000 42.59600 19.94700
N  41.83700 43.21800 26.21800
C  41.54400 44.07100 25.11300
C  41.05100 45.38800 25.62700
C  41.07000 45.19000 27.04300
C  41.66600 43.93900 27.34000
C  40.54700 46.56900 24.97800
C  40.70500 45.87900 28.33900
O  40.24500 47.01500 28.58700
C  41.20900 44.82700 29.47000
C  42.26400 45.40700 30.34600
O  43.46700 45.41600 30.14500
O  41.62400 45.80800 31.51600
C  42.51400 46.41800 32.52000
H  44.16800 38.46300 29.30500
H  43.50500 38.46200 23.06500
H  41.10600 44.33400 23.07000
H  43.00700 42.76600 31.11100
H  43.03800 39.96000 31.14200
H  44.95800 40.66400 32.11000
H  45.04700 42.04800 30.94200
H  45.52400 40.50800 30.45500
H  41.16500 40.75700 31.67400
H  40.21800 41.92200 30.77600
H  40.14500 43.34400 32.68200
H  41.87000 43.02800 32.96000
H  44.69700 35.91900 28.01100
H  45.72300 37.18500 28.70800
H  46.34700 36.40300 27.34500
H  44.99200 34.16500 24.42600
H  44.53400 34.73100 25.92300
H  46.25700 35.05300 25.30000
H  41.61600 39.65400 21.86900
H  42.47100 42.60800 21.41500
H  42.86300 40.53600 19.92600
H  43.45400 39.10400 20.67200
H  44.35400 40.57400 20.94000
H  39.59400 42.44500 22.08300
H  39.94500 40.97100 21.38000
H  40.23600 41.70800 19.32000
H  40.95700 43.32200 19.78800
H  39.18900 43.06600 19.79200
H  41.38000 47.27200 24.96200
H  39.70000 46.99200 25.51700
H  40.28900 46.40700 23.93100
H  40.35700 44.49400 30.06200
H  42.19000 47.37800 32.92400
H  43.53000 46.52900 32.14200
H  42.47900 45.73700 33.37000

