158

Mg 41.62600 41.20000 27.34800
C  41.06900 43.52700 29.80300
C  42.41100 38.82100 29.74900
C  42.40600 39.14300 24.88500
C  41.03300 43.69300 24.87700
N  41.85800 41.30500 29.47400
C  41.31100 42.24400 30.29000
C  41.06300 41.82900 31.77400
C  41.54600 40.30000 31.62900
C  41.98300 40.11200 30.18000
C  42.71200 39.90300 32.54400
C  39.62600 42.05400 32.37100
C  39.43400 42.88600 33.67600
H  38.76500 42.13700 34.77300
N  42.30900 39.22700 27.31900
C  42.57300 38.40700 28.40700
C  42.94100 37.09900 27.93000
C  42.94000 37.12100 26.54200
C  42.57400 38.53100 26.15400
C  43.06300 35.91400 28.92700
C  43.16000 35.98100 25.56400
O  43.29700 36.19800 24.34600
C  43.52200 34.65400 26.03400
N  41.83200 41.49700 25.17400
C  42.03800 40.39000 24.38200
C  41.78400 40.71400 22.84400
C  41.15300 42.09100 22.97200
C  41.28200 42.44100 24.45500
C  43.16800 40.68400 22.06000
C  39.68700 42.08000 22.48500
C  38.54800 41.56600 23.43100
N  41.24600 43.26400 27.29500
C  41.00800 44.16600 26.24300
C  40.51100 45.37600 26.82700
C  40.48500 45.16500 28.19800
C  41.00700 43.90900 28.45500
C  40.00200 46.67300 26.17400
C  40.07900 45.72300 29.49700
O  39.54600 46.80600 29.74800
C  40.60100 44.74500 30.54900
C  41.69100 45.41400 31.23000
O  42.81100 45.70900 30.77700
O  41.27200 45.53400 32.51700
C  42.19000 46.22900 33.42400
H  42.48300 38.06100 30.53000
H  42.61900 38.46500 24.05600
H  40.63800 44.24700 24.02300
H  41.83900 42.47900 32.17800
H  40.69100 39.63700 31.76100
H  43.68200 40.03700 32.06500
H  42.52300 38.90700 32.94200
H  42.75400 40.44800 33.48700
H  39.17700 41.06600 32.47400
H  39.05700 42.63200 31.64200
H  38.77600 43.71400 33.41200
H  40.35400 43.33800 34.04800
H  42.11900 35.38000 29.03100
H  43.42200 36.35600 29.85600
H  43.91900 35.30600 28.63200
H  44.43100 34.80900 26.61500
H  43.76400 33.91400 25.27100
H  42.83800 34.23800 26.77300
H  41.20700 39.87000 22.46600
H  41.79900 42.81600 22.47700
H  43.39400 41.57500 21.47400
H  43.13200 39.88700 21.31700
H  44.01300 40.49800 22.72300
H  39.63200 41.55000 21.53400
H  39.40100 43.07300 22.13800
H  38.94400 41.12200 24.34400
H  38.08900 40.74900 22.87500
H  37.76600 42.31100 23.57700
H  40.77300 47.43800 26.27000
H  39.09300 46.82900 26.75500
H  39.81700 46.49200 25.11500
H  39.78500 44.60800 31.26000
H  42.45500 47.20700 33.02200
H  43.11700 45.65800 33.46000
H  41.57300 46.17000 34.32100
Mg -1.42600 34.92600 27.38500
C  -2.80600 32.99200 29.97600
C  -0.17200 37.01000 29.58000
C  -0.90900 37.08700 24.73000
C  -2.94100 32.74800 25.16700
N  -1.66800 35.04100 29.57300
C  -2.13500 34.13000 30.46200
C  -1.66300 34.41500 31.87900
C  -0.71100 35.72400 31.70900
C  -0.86400 35.93300 30.16500
C  -1.27700 36.94400 32.54100
C  -0.78800 33.22700 32.45900
C  -1.18900 32.35800 33.62200
H  -0.54200 32.61200 34.96800
N  -0.66600 36.85400 27.18600
C  -0.11000 37.49200 28.21200
C  0.54900 38.68300 27.79200
C  0.30200 38.76300 26.38600
C  -0.48100 37.55400 26.05100
C  1.23600 39.51100 28.76700
C  0.80100 39.78000 25.40300
O  0.49700 39.67500 24.19200
C  1.84200 40.76500 25.70700
N  -1.65300 34.82900 25.21600
C  -1.51700 35.86500 24.36600
C  -1.90200 35.48300 22.92000
C  -2.18800 33.96800 23.05000
C  -2.29200 33.82700 24.60800
C  -3.01700 36.21000 22.21300
C  -1.18700 32.90500 22.45300
C  0.29500 33.20400 22.50800
N  -2.59500 33.20600 27.48900
C  -3.13400 32.45200 26.50700
C  -3.82600 31.27800 27.02700
C  -3.75100 31.45500 28.41400
C  -3.01400 32.64800 28.60000
C  -4.57200 30.26300 26.24400
C  -4.11100 30.93800 29.67800
O  -4.75300 29.95400 30.04500
C  -3.47300 31.84500 30.75900
C  -4.60100 32.42100 31.62100
O  -5.52000 33.10800 31.21300
O  -4.44200 32.04200 32.99000
C  -5.51000 32.42200 33.89100
H  0.47000 37.58400 30.25200
H  -0.66100 37.70500 23.86500
H  -3.40300 32.10100 24.41800
H  -2.37400 34.70800 32.65100
H  0.30200 35.53100 32.06300
H  -1.34400 37.82600 31.90500
H  -0.52600 37.10300 33.31500
H  -2.18800 36.69000 33.08300
H  0.17800 33.68200 32.67600
H  -0.60200 32.62500 31.56900
H  -1.29700 31.29100 33.42400
H  -2.20500 32.67200 33.86000
H  1.77500 40.34500 28.31800
H  1.99800 39.09400 29.42500
H  0.43700 39.98300 29.33900
H  2.18700 41.33400 24.84300
H  2.69700 40.12000 25.90600
H  1.55200 41.47700 26.48000
H  -0.97500 35.70200 22.39000
H  -3.13600 33.64500 22.62100
H  -3.49100 36.96500 22.84100
H  -3.78600 35.52600 21.85500
H  -2.68700 36.72400 21.31100
H  -1.42600 32.64200 21.42300
H  -1.43800 31.95200 22.91800
H  0.79500 32.37700 23.01300
H  0.47500 34.10500 23.09500
H  0.69600 33.16300 21.49500
H  -4.81600 29.39200 26.85300
H  -4.02200 30.00200 25.34000
H  -5.49100 30.81200 26.04000
H  -2.82000 31.16000 31.30100
H  -5.14900 33.10700 34.65800
H  -6.02400 31.60000 34.39100
H  -6.29800 32.81100 33.24700

