158

Mg -1.73000 16.61700 25.79700
C  -1.78700 14.59000 28.55700
C  -2.09900 19.35800 28.01900
C  -1.94700 18.73000 23.15600
C  -1.94000 13.77300 23.68900
N  -1.90200 16.87400 28.06000
C  -1.87600 15.87100 28.98800
C  -2.08300 16.42900 30.40500
C  -2.19600 17.96800 30.13600
C  -2.10100 18.03400 28.58700
C  -3.43400 18.68800 30.76000
C  -0.96200 15.96200 31.37400
C  -0.40000 16.99400 32.42300
H  -0.25100 16.37000 33.87900
N  -1.77800 18.72900 25.67400
C  -1.96700 19.68700 26.70100
C  -1.88400 21.05300 26.04600
C  -1.84800 20.82300 24.64600
C  -1.81200 19.37500 24.43800
C  -1.78300 22.31400 26.85400
C  -1.57800 21.77900 23.49800
O  -1.54300 21.50300 22.27900
C  -1.41300 23.20400 23.84800
N  -2.12600 16.38400 23.78400
C  -2.09200 17.34100 22.88200
C  -2.28000 16.74600 21.43700
C  -2.06300 15.21300 21.63200
C  -2.01800 15.10100 23.14600
C  -3.64300 17.21600 20.81000
C  -0.77400 14.63100 21.03700
C  -0.80200 13.24600 20.38900
N  -1.84300 14.58500 25.98300
C  -1.91500 13.57800 25.03800
C  -1.90100 12.31700 25.75200
C  -1.87800 12.64200 27.10700
C  -1.78400 14.04600 27.23000
C  -1.98500 10.94500 25.15600
C  -2.00700 12.03700 28.42500
O  -2.11500 10.87100 28.77000
C  -1.79200 13.28000 29.44900
C  -0.42700 12.93700 30.04400
O  0.66100 13.39600 29.65900
O  -0.63900 12.02800 30.98800
C  0.42000 11.61600 31.83400
H  -1.95600 20.11400 28.79400
H  -1.92200 19.36100 22.26600
H  -1.89700 12.95500 22.96800
H  -3.07100 16.09300 30.71900
H  -1.31000 18.52200 30.44500
H  -4.02600 19.16600 29.97900
H  -3.04000 19.33500 31.54300
H  -4.10200 17.99500 31.27200
H  -0.09100 15.69300 30.77600
H  -1.35300 15.14100 31.97300
H  -0.99800 17.90500 32.47600
H  0.59800 17.25400 32.07000
H  -0.80100 22.78400 26.90800
H  -2.11400 22.08000 27.86600
H  -2.50300 23.05000 26.49400
H  -0.58200 23.26000 24.55100
H  -2.34000 23.68600 24.15700
H  -1.13800 23.82300 22.99400
H  -1.50400 17.13100 20.77600
H  -2.95200 14.60600 21.45900
H  -4.09000 17.96700 21.46200
H  -4.43100 16.46500 20.86500
H  -3.34300 17.63200 19.84800
H  -0.08100 14.59500 21.87700
H  -0.65000 15.38600 20.26000
H  -0.78500 13.19700 19.30000
H  -1.64500 12.62400 20.69200
H  0.00200 12.60200 20.74700
H  -2.86800 10.95600 24.51600
H  -2.06500 10.17300 25.92200
H  -1.05900 10.82400 24.59400
H  -2.54600 13.42300 30.22300
H  0.10300 11.63400 32.87700
H  1.35200 12.12600 31.59200
H  0.64300 10.56200 31.66400
Mg -1.73300 34.56600 26.33300
C  -3.28900 32.62600 28.86600
C  -0.67200 36.74900 28.73900
C  -0.74400 36.59000 23.89700
C  -3.45600 32.55800 23.98100
N  -2.21700 34.87200 28.59700
C  -2.60000 33.79700 29.37800
C  -2.35600 34.15000 30.83300
C  -1.68000 35.62700 30.73600
C  -1.44500 35.73600 29.27900
C  -2.46200 36.75400 31.37600
C  -1.40500 33.11200 31.53900
C  -2.04700 32.47600 32.76000
H  -1.11100 32.15900 33.97000
N  -0.79700 36.47800 26.28000
C  -0.35800 37.19400 27.33900
C  0.61900 38.19800 26.91000
C  0.55700 38.15600 25.46700
C  -0.33400 37.03400 25.17900
C  1.41800 39.04400 27.92100
C  1.37900 38.98800 24.37000
O  1.46000 38.76400 23.18300
C  2.17900 40.15800 24.84400
N  -2.18700 34.63100 24.15700
C  -1.61700 35.53700 23.41600
C  -1.81500 35.29600 21.85500
C  -2.39500 33.82200 21.95600
C  -2.69200 33.66300 23.46500
C  -2.49600 36.43900 21.02200
C  -1.47000 32.73800 21.40800
C  -0.14400 32.42300 22.17700
N  -3.09000 32.90300 26.30700
C  -3.60200 32.14500 25.33500
C  -4.21100 30.98600 25.82900
C  -4.16400 31.19900 27.21100
C  -3.44700 32.31300 27.48000
C  -5.05200 30.00800 25.11300
C  -4.54300 30.61100 28.47400
O  -5.18300 29.64700 28.75200
C  -3.92700 31.44700 29.58800
C  -4.92100 31.89700 30.57200
O  -5.77200 32.78000 30.43100
O  -4.74500 31.29200 31.76500
C  -5.60600 31.65400 32.92500
H  -0.19900 37.18800 29.62000
H  -0.49900 37.31200 23.11500
H  -3.88500 31.86300 23.25600
H  -3.32300 34.11300 31.33500
H  -0.68500 35.66400 31.17900
H  -3.30800 36.32900 31.91600
H  -2.90200 37.41400 30.62900
H  -1.85500 37.35200 32.05600
H  -0.44400 33.54200 31.82000
H  -1.23100 32.37300 30.75700
H  -2.50000 31.53700 32.44200
H  -2.85400 33.01800 33.25400
H  2.46200 39.08000 27.60900
H  1.42000 38.53400 28.88400
H  1.03000 40.06100 27.98800
H  1.50400 40.72900 25.48200
H  2.56200 40.64700 23.94800
H  2.94400 39.79300 25.53000
H  -0.77000 35.25600 21.54900
H  -3.35600 33.79300 21.44100
H  -1.95400 36.64600 20.09900
H  -2.46300 37.37500 21.58100
H  -3.53600 36.20800 20.78900
H  -1.21200 32.83200 20.35300
H  -1.99700 31.79300 21.53900
H  -0.17800 31.42600 22.61700
H  0.05300 33.04400 23.05100
H  0.62300 32.46300 21.40300
H  -5.00400 29.97900 24.02400
H  -6.10500 30.23300 25.27900
H  -4.76800 29.04600 25.53900
H  -3.27600 30.79900 30.17400
H  -4.94600 32.11400 33.66000
H  -6.10700 30.71300 33.15500
H  -6.33100 32.42900 32.67500

