158

Mg 53.43100 24.33500 43.95000
C  50.73500 26.70000 43.83600
C  51.20700 21.85100 43.40200
C  56.02000 22.22700 43.36500
C  55.64900 26.92900 44.33200
N  51.24800 24.33400 43.65100
C  50.35800 25.31700 43.66000
C  49.00000 24.79200 43.45200
C  49.14400 23.29800 43.84300
C  50.63300 23.08900 43.62900
C  48.69200 22.95800 45.23500
C  48.45000 25.01500 42.01700
C  49.22500 24.63600 40.75600
H  49.61500 25.69700 39.72300
N  53.58400 22.33000 43.50900
C  52.55200 21.49700 43.20600
C  53.06100 20.13500 42.92000
C  54.40700 20.23500 42.95200
C  54.76200 21.64500 43.32200
C  52.18500 18.92200 42.71700
C  55.47200 19.10200 42.69400
O  55.15400 18.00700 42.23900
C  57.02300 19.26200 42.94500
N  55.58400 24.62700 43.66100
C  56.41600 23.57800 43.54400
C  57.86500 23.98100 43.41800
C  57.77300 25.50700 43.85300
C  56.28100 25.71900 44.00200
C  59.04200 23.16500 44.07500
C  58.46700 26.40000 42.82000
C  57.69500 26.80700 41.51900
N  53.27000 26.41700 43.93100
C  54.20500 27.34000 44.32500
C  53.62500 28.66000 44.57700
C  52.25200 28.40800 44.26800
C  52.07800 27.05800 43.88400
C  54.28000 29.93800 45.09200
C  51.03000 29.14700 44.28100
O  50.76400 30.32600 44.46600
C  49.90700 28.02500 43.94900
C  49.32100 28.46400 42.61500
O  49.92200 28.70800 41.60900
O  47.97800 28.33700 42.63800
C  47.33600 28.88500 41.39900
H  50.65100 20.91500 43.32600
H  56.87400 21.62500 43.04900
H  56.23700 27.82300 44.55000
H  48.39400 25.41100 44.11400
H  48.55200 22.66400 43.18400
H  48.39400 23.81000 45.84500
H  49.48300 22.64900 45.91900
H  47.88000 22.23200 45.22800
H  48.28700 26.09000 41.94100
H  47.50100 24.47800 42.01200
H  48.72800 23.85700 40.17700
H  50.15600 24.12200 40.99300
H  52.73300 17.99800 42.53200
H  51.42300 19.10600 41.96000
H  51.63600 18.82600 43.65400
H  57.36600 19.92400 42.15000
H  57.31400 18.21200 42.92200
H  57.05400 19.66100 43.95900
H  58.07000 23.87000 42.35300
H  58.31200 25.71800 44.77600
H  59.79100 22.93400 43.31600
H  58.72000 22.32700 44.69200
H  59.53300 23.89900 44.71400
H  59.23800 25.71400 42.46800
H  59.02900 27.23300 43.24000
H  56.62200 26.78100 41.70700
H  57.76100 26.07000 40.71800
H  58.12300 27.73600 41.14100
H  54.06200 30.70500 44.34900
H  55.36500 29.97800 45.18700
H  53.73200 30.23800 45.98500
H  49.06700 28.02200 44.64400
H  47.55200 29.94700 41.28100
H  46.27800 28.64600 41.29300
H  47.73400 28.39800 40.50900
Mg -10.05900 38.28000 40.81400
C  -7.99800 35.46800 40.08600
C  -7.69300 40.23200 39.22900
C  -12.34900 40.81200 40.94500
C  -12.62600 35.96100 41.65000
N  -8.09300 37.85700 39.73900
C  -7.39800 36.70500 39.61600
C  -6.07300 36.87900 38.86900
C  -5.87400 38.41500 38.87100
C  -7.31600 38.86100 39.24000
C  -4.75000 39.04000 39.74000
C  -6.16300 36.28400 37.44300
C  -4.82100 35.56400 36.98600
H  -4.26900 35.79500 35.61200
N  -9.99600 40.23400 40.31800
C  -8.87100 40.91200 39.73600
C  -9.17100 42.29800 39.49300
C  -10.54800 42.43600 39.96500
C  -11.01800 41.14500 40.43800
C  -8.26200 43.34200 38.72400
C  -11.21600 43.82800 40.06000
O  -10.64500 44.77300 39.60600
C  -12.48400 44.02600 40.81900
N  -12.21300 38.34900 41.19700
C  -12.90800 39.53800 41.18500
C  -14.36700 39.27300 41.69500
C  -14.41300 37.72100 41.92200
C  -13.00000 37.32800 41.55800
C  -14.79800 40.07900 42.98900
C  -15.47300 36.99800 41.07900
C  -16.94000 37.34200 41.43800
N  -10.36600 36.13200 40.89000
C  -11.37800 35.38700 41.30300
C  -10.93800 34.05700 41.48400
C  -9.67700 33.96700 40.95400
C  -9.31000 35.31600 40.61300
C  -11.90300 32.92900 41.97100
C  -8.55000 33.19800 40.53500
O  -8.35800 32.03000 40.60300
C  -7.45400 34.11300 39.87500
C  -6.16700 33.91800 40.53600
O  -5.23600 33.34600 39.97600
O  -6.22000 34.22400 41.89000
C  -5.06600 33.83900 42.68500
H  -7.09200 40.95200 38.67000
H  -13.10400 41.60000 40.98400
H  -13.30700 35.25700 42.13400
H  -5.43300 36.42400 39.62500
H  -5.62000 38.61600 37.83000
H  -5.24000 39.48200 40.60800
H  -4.18000 39.68400 39.06900
H  -4.14100 38.36400 40.34000
H  -6.47700 37.03000 36.71300
H  -7.05300 35.66000 37.52800
H  -4.91000 34.48500 37.11300
H  -4.01600 35.79800 37.68200
H  -7.76300 43.94700 39.48100
H  -8.94300 43.92500 38.10300
H  -7.61100 42.81900 38.02400
H  -12.38100 43.66400 41.84200
H  -13.30900 43.51900 40.31900
H  -12.59900 45.10900 40.78000
H  -15.00100 39.63600 40.88600
H  -14.58600 37.45200 42.96500
H  -14.66600 41.15400 42.87100
H  -13.96400 39.96200 43.68300
H  -15.72800 39.75700 43.45700
H  -15.40900 35.91000 41.05600
H  -15.14200 37.32700 40.09400
H  -17.55200 37.47700 40.54600
H  -17.11000 38.16300 42.13600
H  -17.35300 36.49800 41.99000
H  -12.91200 33.07400 41.58400
H  -11.89500 32.82000 43.05500
H  -11.66900 31.95000 41.55200
H  -7.38000 33.70800 38.86600
H  -5.41100 33.96300 43.71100
H  -4.23200 34.53000 42.56800
H  -4.73200 32.80300 42.61800

