158

Mg 23.97700 -5.60800 46.51900
C  25.99000 -3.16100 44.78000
C  21.41300 -4.84800 44.39100
C  22.69700 -8.46800 47.35200
C  27.12700 -6.67900 48.02300
N  23.63300 -3.95300 45.05400
C  24.60800 -3.20100 44.39200
C  23.96100 -2.33500 43.27500
C  22.44600 -2.82500 43.29200
C  22.47900 -3.96600 44.28000
C  21.41900 -1.68900 43.58900
C  24.58100 -2.61900 41.82300
C  25.01200 -1.43500 41.01500
H  24.82100 -1.42400 39.56600
N  22.21900 -6.48200 46.10200
C  21.29800 -5.99200 45.22400
C  20.19600 -6.83900 45.12500
C  20.48200 -7.93200 45.98500
C  21.80800 -7.63000 46.61400
C  18.93500 -6.55300 44.31500
C  19.42600 -8.97800 46.36300
O  18.30700 -9.02200 45.75500
C  19.65400 -9.96400 47.50900
N  24.81300 -7.32300 47.61100
C  23.99500 -8.33700 47.84700
C  24.69100 -9.44200 48.76800
C  26.05200 -8.72800 49.07300
C  26.03700 -7.51000 48.12700
C  23.87700 -9.90700 50.04800
C  27.31300 -9.64300 48.91000
C  28.28300 -9.88600 50.11200
N  26.10200 -4.95100 46.58800
C  27.21900 -5.50800 47.21200
C  28.43100 -4.82800 46.76000
C  27.98900 -3.90500 45.84400
C  26.59000 -4.01600 45.75500
C  29.82900 -5.09300 47.26800
C  28.41800 -2.86300 44.92500
O  29.52100 -2.40800 44.79100
C  27.12300 -2.35100 44.21800
C  27.00500 -0.93700 44.63600
O  26.53100 -0.62400 45.72800
O  27.36300 -0.11800 43.60400
C  27.27000 1.33800 43.95800
H  20.66000 -4.53500 43.66500
H  22.33400 -9.47500 47.56400
H  28.11500 -6.98500 48.37400
H  23.97000 -1.26000 43.45500
H  22.03400 -3.11600 42.32600
H  20.72300 -2.07600 44.33400
H  20.78300 -1.44000 42.73900
H  21.88000 -0.79300 44.00600
H  23.95300 -3.27300 41.21700
H  25.49700 -3.19400 41.96100
H  26.06600 -1.34200 41.27700
H  24.45100 -0.61100 41.45500
H  19.00100 -6.96600 43.30800
H  18.77400 -5.48900 44.14500
H  18.02400 -6.98000 44.73300
H  18.75800 -10.42800 47.92100
H  20.08600 -9.36600 48.31100
H  20.32300 -10.76100 47.18500
H  24.89600 -10.29800 48.12500
H  26.11400 -8.29200 50.07000
H  22.88000 -9.46700 50.03600
H  24.48300 -9.65200 50.91800
H  23.87600 -10.99400 49.96900
H  27.91000 -9.28500 48.07200
H  26.87900 -10.60200 48.62500
H  29.29900 -9.58300 49.85600
H  28.50800 -10.94600 50.22500
H  27.99000 -9.35800 51.02000
H  30.57900 -4.33100 47.05700
H  30.23700 -5.98700 46.79600
H  29.78600 -5.22800 48.34900
H  27.40800 -2.50600 43.17800
H  27.55100 1.45200 45.00500
H  26.24000 1.68800 44.03300
H  27.74800 1.96900 43.20900
Mg 29.60800 57.54500 41.01900
C  26.65400 55.71100 39.91500
C  31.45100 55.16800 39.58400
C  32.00400 59.65200 41.38300
C  27.20100 60.12100 41.97900
N  29.03400 55.76400 39.70900
C  27.78100 55.19800 39.41700
C  28.00400 53.87200 38.67100
C  29.52700 53.57700 38.89900
C  30.03400 54.90800 39.41600
C  29.83700 52.37100 39.91500
C  27.59600 53.68400 37.13100
C  27.13800 54.95600 36.38900
H  27.50300 55.08700 34.86200
N  31.49600 57.45200 40.52300
C  32.12100 56.33900 40.00700
C  33.48800 56.72800 39.76100
C  33.72500 58.04100 40.35800
C  32.38900 58.44200 40.86100
C  34.44000 55.84900 39.01400
C  35.03300 58.77100 40.43600
O  36.01500 58.17700 40.03200
C  35.22500 60.19800 40.99200
N  29.54700 59.54500 41.61900
C  30.73400 60.22300 41.73400
C  30.55400 61.72100 41.86000
C  29.15600 61.77600 42.33100
C  28.57500 60.40800 42.03700
C  31.69000 62.39900 42.75900
C  28.32500 63.03100 41.81800
C  28.37400 64.12000 42.89700
N  27.42100 57.83700 41.16700
C  26.60800 58.92200 41.61600
C  25.15300 58.62800 41.50000
C  25.21200 57.36400 40.86800
C  26.58500 56.94800 40.69500
C  23.97900 59.37300 41.81600
C  24.28400 56.32400 40.37400
O  23.07600 56.14600 40.51800
C  25.20300 55.23800 39.75500
C  24.78400 53.95100 40.43400
O  24.79500 53.73000 41.64800
O  24.38200 53.18000 39.41900
C  24.14300 51.75700 39.58300
H  32.12900 54.37900 39.25200
H  32.72600 60.45400 41.21700
H  26.54000 60.94400 42.26100
H  27.54500 53.05100 39.22200
H  30.11200 53.39400 37.99800
H  28.94600 51.75700 40.04900
H  30.26100 52.86700 40.78800
H  30.65700 51.80800 39.47000
H  26.63700 53.16700 37.16800
H  28.34000 53.12300 36.56600
H  27.66300 55.77400 36.88200
H  26.06200 54.99600 36.55700
H  35.13000 55.62100 39.82600
H  34.95300 56.42300 38.24200
H  34.15600 54.87300 38.62000
H  34.88000 60.82800 40.17200
H  36.28000 60.39900 41.18200
H  34.73800 60.37900 41.95000
H  30.54300 62.22800 40.89500
H  29.06400 61.62300 43.40700
H  32.07900 61.68600 43.48500
H  31.30100 63.24700 43.32200
H  32.43300 62.91000 42.14500
H  27.26000 62.85600 41.66700
H  28.70100 63.49700 40.90700
H  27.37400 64.07600 43.32900
H  28.78000 65.07000 42.55100
H  29.09000 63.91700 43.69400
H  23.95100 60.34100 41.31500
H  24.10300 59.55700 42.88300
H  23.05500 58.86100 41.54600
H  24.93700 55.13300 38.70300
H  24.42200 51.17000 38.70800
H  23.05400 51.72600 39.56800
H  24.58800 51.37800 40.50400

