158

Mg 24.55600 -5.48700 45.71300
C  26.64700 -3.11200 44.22300
C  21.99000 -4.41100 43.52900
C  22.69900 -8.10400 46.68800
C  27.34500 -6.88800 47.29900
N  24.36800 -3.99400 44.14200
C  25.37600 -3.10100 43.68000
C  24.94400 -2.37200 42.44200
C  23.39000 -2.48900 42.50200
C  23.20500 -3.73500 43.43300
C  22.63900 -1.23000 42.92400
C  25.79300 -2.98700 41.19400
C  26.67300 -2.11600 40.38200
H  26.26500 -1.98300 38.89700
N  22.57300 -6.10400 45.26100
C  21.70100 -5.50300 44.37200
C  20.43300 -6.19000 44.46300
C  20.61200 -7.36500 45.30000
C  22.01600 -7.19600 45.83800
C  19.24000 -5.74400 43.64000
C  19.52300 -8.48800 45.52800
O  18.41600 -8.33300 45.23600
C  19.90000 -9.84000 46.20400
N  25.02500 -7.15200 46.91600
C  24.06200 -8.06100 47.19400
C  24.68600 -9.27600 47.88900
C  26.13900 -8.86100 48.28800
C  26.18500 -7.58000 47.41200
C  23.87300 -9.87800 48.99500
C  27.20800 -9.95300 47.83500
C  28.33100 -10.14300 48.92000
N  26.57500 -4.98800 45.96100
C  27.57800 -5.66100 46.62700
C  28.81300 -4.84800 46.44100
C  28.45000 -3.87600 45.49500
C  27.11000 -3.95700 45.32400
C  30.10200 -5.20700 47.05100
C  29.00800 -2.77000 44.73400
O  30.16100 -2.33900 44.59700
C  27.80100 -2.27200 43.81100
C  27.62900 -0.84800 44.08000
O  26.80100 -0.27300 44.78100
O  28.53600 -0.18600 43.27500
C  28.43200 1.24700 43.34800
H  21.22100 -4.12000 42.81000
H  22.18900 -9.03400 46.95000
H  28.24500 -7.33500 47.72800
H  25.17700 -1.31500 42.57600
H  23.06000 -2.85000 41.52800
H  23.07700 -0.31900 42.51500
H  22.76200 -1.23400 44.00700
H  21.55600 -1.26300 42.81100
H  25.05100 -3.32300 40.47000
H  26.35500 -3.86800 41.50500
H  27.68300 -2.49900 40.23900
H  26.72500 -1.08800 40.74100
H  19.18900 -6.17000 42.63800
H  19.22000 -4.68300 43.39100
H  18.34300 -6.04900 44.18000
H  19.05100 -10.52100 46.15500
H  20.19500 -9.60800 47.22700
H  20.69200 -10.29100 45.60600
H  24.59600 -9.98500 47.06600
H  26.28100 -8.49200 49.30400
H  22.92400 -9.36800 49.16100
H  24.43000 -9.88000 49.93100
H  23.65500 -10.88100 48.62700
H  27.65400 -9.71200 46.87000
H  26.74200 -10.93300 47.73000
H  29.31400 -9.78200 48.61700
H  28.36100 -11.18500 49.23800
H  28.10100 -9.56400 49.81400
H  30.43300 -6.16100 46.64100
H  29.98200 -5.34200 48.12500
H  30.87300 -4.45400 46.88600
H  28.05600 -2.36000 42.75500
H  29.32000 1.69700 42.90400
H  28.38700 1.63500 44.36600
H  27.55500 1.47100 42.74100
Mg 54.94600 23.47600 44.39500
C  52.31000 25.89100 43.42000
C  52.62600 21.09500 43.51800
C  57.48600 21.52100 44.50400
C  56.97300 26.30600 45.00800
N  52.72200 23.55300 43.50800
C  51.93500 24.58700 43.12200
C  50.53900 24.09300 42.66100
C  50.49700 22.65500 43.33600
C  52.03600 22.38100 43.51600
C  49.70700 22.53200 44.80800
C  50.46400 24.04600 41.10700
C  49.01800 24.51000 40.63300
H  48.67200 24.43500 39.12300
N  55.12700 21.56900 44.12600
C  54.02800 20.74200 43.69500
C  54.57300 19.44800 43.46100
C  56.01800 19.51700 43.71700
C  56.29200 20.92400 44.10500
C  53.73600 18.24200 43.14300
C  56.91500 18.28700 43.79800
O  56.44400 17.18700 43.54000
C  58.41900 18.47000 44.04300
N  56.91500 23.83900 44.78700
C  57.84000 22.82100 44.88800
C  59.27800 23.28200 44.99900
C  59.06400 24.85000 44.75400
C  57.56300 25.00700 44.90300
C  59.95100 23.03800 46.42100
C  59.65700 25.28400 43.35600
C  60.45700 26.54000 43.28700
N  54.70100 25.61400 44.45400
C  55.56400 26.59100 44.80900
C  54.91200 27.89500 44.70900
C  53.67700 27.60500 44.16200
C  53.58700 26.22300 44.01600
C  55.51200 29.23400 45.10200
C  52.45400 28.28900 43.78400
O  52.17200 29.48000 43.99400
C  51.56500 27.17900 43.15000
C  51.47800 27.42000 41.67400
O  52.42200 27.45800 40.92000
O  50.19100 27.72200 41.28700
C  50.13500 27.95100 39.85600
H  51.93100 20.30800 43.21900
H  58.35900 20.86700 44.45100
H  57.71000 27.10800 44.93300
H  49.72700 24.65900 43.11900
H  50.03700 21.88700 42.71500
H  50.37200 22.19500 45.60300
H  48.78700 21.95700 44.70200
H  49.61400 23.57700 45.10300
H  50.40700 22.99200 40.83200
H  51.24300 24.54100 40.52600
H  48.87500 25.49800 41.07000
H  48.35300 23.88700 41.23000
H  52.72900 18.55700 42.87100
H  53.71900 17.49100 43.93300
H  54.20800 17.78800 42.27200
H  58.88600 19.27900 43.48200
H  58.83900 17.47900 43.86800
H  58.49500 18.68900 45.10800
H  59.86500 22.95100 44.14200
H  59.45200 25.50700 45.53300
H  60.91500 23.51100 46.23200
H  60.04800 21.96200 46.56500
H  59.48700 23.57800 47.24600
H  58.86700 25.41300 42.61600
H  60.18200 24.43600 42.91600
H  61.44800 26.30500 42.90000
H  60.54500 26.95000 44.29300
H  59.94100 27.26400 42.65600
H  56.05700 29.09500 46.03500
H  54.64000 29.86800 45.25900
H  56.17100 29.47200 44.26600
H  50.56200 27.19100 43.57600
H  49.07100 27.91200 39.62300
H  50.59200 27.18200 39.23400
H  50.44400 28.95800 39.57500

