158

Mg 17.51400 -2.57400 27.44000
C  16.67600 -0.41300 30.15000
C  19.29700 -4.58800 29.75100
C  18.73600 -4.27400 24.84200
C  16.06100 -0.24700 25.30500
N  17.92400 -2.53800 29.74800
C  17.52800 -1.48200 30.56800
C  17.92400 -1.83700 32.03700
C  18.86000 -3.11700 31.87600
C  18.71600 -3.43800 30.37000
C  20.33400 -2.98400 32.42600
C  16.73600 -1.99900 33.01000
C  16.68500 -1.22500 34.29400
H  18.03000 -0.89500 35.00600
N  18.70900 -4.25900 27.30000
C  19.28000 -4.99800 28.39200
C  19.84600 -6.23400 27.83200
C  19.89000 -6.00700 26.40600
C  19.15800 -4.78400 26.13600
C  20.42600 -7.23000 28.70900
C  20.63600 -6.80500 25.35800
O  20.50000 -6.54300 24.16600
C  21.45200 -7.94800 25.77100
N  17.66500 -2.17200 25.39900
C  18.16500 -3.08800 24.51500
C  17.84700 -2.68500 23.08800
C  16.87900 -1.51800 23.26800
C  16.87100 -1.23300 24.78300
C  18.98600 -2.59400 22.16300
C  15.48900 -1.70100 22.62500
C  14.37300 -2.12600 23.58800
N  16.44300 -0.80300 27.63800
C  15.88600 0.02400 26.68000
C  15.08400 1.06100 27.32300
C  15.40000 0.90300 28.67400
C  16.25000 -0.21600 28.77900
C  14.29300 2.13800 26.75700
C  15.25600 1.53200 29.98700
O  14.61700 2.53400 30.25900
C  16.08500 0.66800 31.04100
C  16.97500 1.51700 31.78900
O  18.16300 1.70800 31.61200
O  16.27500 2.00500 32.88300
C  17.02800 3.10800 33.55500
H  19.85300 -5.20800 30.45800
H  18.85900 -4.96700 24.00700
H  15.45500 0.43500 24.70600
H  18.59400 -1.05400 32.39300
H  18.41100 -3.92800 32.45000
H  20.38600 -3.78800 33.16000
H  20.40100 -2.01200 32.91500
H  21.10300 -3.15600 31.67300
H  16.53200 -3.05600 33.18100
H  15.92000 -1.67400 32.36500
H  16.23900 -1.98100 34.94000
H  15.92200 -0.45700 34.17600
H  20.07000 -8.18900 28.33100
H  20.02800 -7.20800 29.72300
H  21.50900 -7.11100 28.73800
H  20.74600 -8.67700 26.17100
H  22.04500 -7.60200 26.61800
H  21.92200 -8.39300 24.89400
H  17.35800 -3.54600 22.63200
H  17.46400 -0.70800 22.83400
H  19.10700 -1.62800 21.67300
H  18.89800 -3.36800 21.40000
H  19.85100 -2.72800 22.81200
H  15.59800 -2.55100 21.95300
H  15.16600 -0.78700 22.12700
H  14.69500 -2.84300 24.34400
H  13.63600 -2.76400 23.10000
H  13.82100 -1.22200 23.84300
H  14.05800 1.82100 25.74100
H  15.00900 2.95200 26.64400
H  13.38700 2.31700 27.33500
H  15.31000 0.30400 31.71500
H  17.32800 3.97100 32.96200
H  17.91300 2.78200 34.10300
H  16.34900 3.37600 34.36400
Mg -9.54400 42.46400 42.48500
C  -8.32100 39.12600 41.72800
C  -6.51100 43.51700 40.94400
C  -10.78200 45.43300 42.24700
C  -12.53900 40.96400 43.48000
N  -7.51900 41.38200 41.56400
C  -7.30100 40.06000 41.40000
C  -6.02300 39.76100 40.62600
C  -5.32900 41.23800 40.63700
C  -6.53300 42.14700 41.10500
C  -4.04600 41.36500 41.41100
C  -6.23600 39.16000 39.21800
C  -5.39200 37.92200 38.82700
H  -4.32700 38.29200 37.76500
N  -8.69200 44.19600 41.72800
C  -7.47800 44.43800 41.12200
C  -7.35100 45.88700 40.93100
C  -8.56700 46.48400 41.32100
C  -9.41000 45.35100 41.81200
C  -6.21000 46.55500 40.21600
C  -8.86800 48.01500 41.28500
O  -7.98100 48.78000 40.90100
C  -10.23300 48.58600 41.57200
N  -11.44300 43.07900 42.77700
C  -11.71200 44.43800 42.73100
C  -13.05700 44.70800 43.54500
C  -13.57400 43.25000 43.98200
C  -12.46500 42.36100 43.37700
C  -12.78200 45.63900 44.80000
C  -15.04300 42.89400 43.55700
C  -16.07900 42.96000 44.68900
N  -10.26500 40.49200 42.72800
C  -11.51400 40.07900 43.07700
C  -11.59700 38.65000 42.99300
C  -10.41800 38.25000 42.44900
C  -9.60300 39.39800 42.25000
C  -12.79400 37.86000 43.31000
C  -9.69500 37.03500 42.03400
O  -10.00200 35.82500 42.09200
C  -8.30100 37.61200 41.56500
C  -7.27600 36.73300 42.21100
O  -6.91100 36.73200 43.40500
O  -6.62000 35.97500 41.23400
C  -5.74200 34.99900 41.82200
H  -5.52900 43.87000 40.62100
H  -11.09000 46.46500 42.42800
H  -13.38900 40.39600 43.86400
H  -5.37300 39.05600 41.14500
H  -5.18400 41.61800 39.62600
H  -3.42000 40.49000 41.23800
H  -4.43400 41.46700 42.42400
H  -3.66000 42.31500 41.03900
H  -5.95800 40.00600 38.58900
H  -7.29200 38.93700 39.06200
H  -6.06100 37.18900 38.37700
H  -4.88700 37.48500 39.68800
H  -5.69600 47.32900 40.78600
H  -6.67100 47.02400 39.34700
H  -5.52700 45.81400 39.80200
H  -10.28900 48.50400 42.65700
H  -10.93200 47.99000 40.98500
H  -10.42800 49.63500 41.34700
H  -13.83800 45.27500 43.03700
H  -13.49100 43.18000 45.06600
H  -11.85500 46.17200 44.59000
H  -12.70200 45.06000 45.72000
H  -13.54700 46.41500 44.78800
H  -15.08000 41.95000 43.01400
H  -15.35200 43.70600 42.89900
H  -16.70000 43.84400 44.54600
H  -15.61800 43.06500 45.67100
H  -16.81500 42.15600 44.67200
H  -12.42200 36.90000 43.66700
H  -13.41600 37.77400 42.41900
H  -13.27700 38.33400 44.16400
H  -8.27400 37.41900 40.49300
H  -4.96800 35.53800 42.36700
H  -5.21300 34.52500 40.99500
H  -6.27700 34.19400 42.32700

