158

Mg 30.97500 58.42200 41.33500
C  28.11100 56.74300 39.77400
C  32.96500 56.30900 39.69100
C  33.41300 60.41900 42.22100
C  28.50800 60.96200 42.37800
N  30.53800 56.79600 39.76600
C  29.35100 56.16100 39.39200
C  29.67600 55.03100 38.46200
C  31.23200 54.82400 38.62000
C  31.61300 56.10700 39.42600
C  31.65500 53.57800 39.47800
C  29.24300 55.35100 36.93300
C  28.14600 54.43600 36.19800
H  27.26100 55.11700 35.18100
N  32.92700 58.25800 41.18600
C  33.59100 57.33200 40.42000
C  34.99500 57.51600 40.59100
C  35.18400 58.69400 41.41400
C  33.80700 59.18900 41.67000
C  36.05500 56.55500 40.13200
C  36.41900 59.28600 41.89000
O  37.47900 58.69500 41.72300
C  36.43000 60.60500 42.56100
N  30.88600 60.42500 42.17000
C  32.09900 60.96800 42.47700
C  31.96000 62.35600 42.99800
C  30.41400 62.49700 43.28500
C  29.88600 61.19900 42.55900
C  32.90000 62.75400 44.09400
C  29.75900 63.76800 42.63600
C  28.58200 64.45100 43.37800
N  28.84100 58.72600 41.26500
C  28.05200 59.81800 41.67600
C  26.64900 59.47000 41.45800
C  26.64700 58.33800 40.64300
C  27.95300 57.83300 40.54400
C  25.41200 60.20000 41.86100
C  25.77000 57.38600 39.95300
O  24.56800 57.46800 39.75200
C  26.67000 56.27500 39.33700
C  26.24100 54.98700 39.87100
O  26.65900 54.47900 40.92800
O  25.32500 54.44200 39.01100
C  24.84200 53.05200 39.32700
H  33.61100 55.57600 39.20300
H  34.12500 61.16400 42.58200
H  27.67000 61.61100 42.63600
H  29.15100 54.14700 38.82500
H  31.74900 54.79200 37.66100
H  32.49900 52.98300 39.13000
H  30.85200 52.84800 39.58400
H  31.92100 53.91000 40.48100
H  30.09000 55.49400 36.26200
H  28.78800 56.34100 36.91600
H  27.57700 53.94200 36.98600
H  28.85500 53.79300 35.67800
H  36.71400 57.21500 39.56800
H  35.67300 55.77700 39.47200
H  36.63700 56.09200 40.92900
H  35.79200 60.52600 43.44100
H  35.99600 61.30100 41.84300
H  37.40500 60.90500 42.94400
H  32.20800 62.92900 42.10400
H  30.09300 62.38700 44.32100
H  33.68500 63.43900 43.77200
H  33.43300 61.90500 44.52100
H  32.24000 63.21000 44.83200
H  29.39000 63.47500 41.65300
H  30.48900 64.57000 42.52800
H  27.60800 64.03900 43.11500
H  28.55300 65.51500 43.14000
H  28.70200 64.23700 44.44000
H  24.70600 59.40400 42.09500
H  25.15200 60.74900 40.95600
H  25.39800 60.83700 42.74600
H  26.63000 56.16600 38.25400
H  25.66000 52.33400 39.27300
H  24.13300 52.66800 38.59400
H  24.31100 52.99700 40.27700
Mg -11.04700 37.89800 41.99800
C  -9.48400 34.86000 40.94600
C  -8.81700 39.63400 40.18000
C  -12.99500 40.48300 42.62000
C  -13.73800 35.58500 43.13000
N  -9.39700 37.27800 40.68400
C  -8.95400 35.98000 40.36500
C  -7.96300 36.06600 39.17600
C  -7.57600 37.58200 39.25000
C  -8.70300 38.25300 40.00200
C  -6.15400 37.98100 39.80100
C  -8.55000 35.57300 37.85800
C  -7.67400 34.68600 36.96100
H  -6.69600 35.34600 36.07700
N  -10.81300 39.85000 41.67500
C  -9.78000 40.37000 40.91300
C  -9.86000 41.75300 40.99300
C  -11.11200 42.09900 41.74900
C  -11.68900 40.82200 42.10700
C  -8.88200 42.75500 40.36400
C  -11.69700 43.48400 42.04100
O  -11.20600 44.52000 41.57500
C  -12.81800 43.64600 43.02500
N  -13.00200 37.96700 42.85200
C  -13.58100 39.21200 42.98000
C  -15.06500 39.15000 43.47700
C  -15.24500 37.60500 43.71300
C  -13.89800 37.00000 43.16200
C  -15.33400 40.00600 44.69400
C  -16.44700 36.94100 42.90300
C  -17.32900 35.89100 43.65500
N  -11.54900 35.66400 42.19100
C  -12.62000 34.94900 42.60700
C  -12.44600 33.55200 42.30800
C  -11.18600 33.40700 41.78000
C  -10.67200 34.77300 41.68500
C  -13.29000 32.43100 42.75800
C  -10.15500 32.48100 41.21700
O  -10.08400 31.28300 41.10600
C  -9.02500 33.44900 40.71300
C  -7.77400 33.17000 41.44000
O  -6.66600 33.28600 40.90400
O  -8.00000 32.98200 42.78900
C  -6.76700 33.27500 43.58600
H  -8.03500 40.08700 39.56700
H  -13.82300 41.19400 42.64800
H  -14.56400 34.92100 43.39200
H  -7.10900 35.42600 39.40100
H  -7.54700 38.02600 38.25500
H  -5.56500 38.55100 39.08300
H  -5.55500 37.11800 40.09100
H  -6.32000 38.58900 40.69100
H  -8.77600 36.41000 37.19700
H  -9.53900 35.12200 37.94300
H  -8.30100 33.92800 36.49000
H  -7.05700 34.00700 37.55000
H  -9.29900 43.10000 39.41700
H  -7.97500 42.19700 40.13200
H  -8.80100 43.49200 41.16300
H  -12.82900 44.50200 43.69800
H  -12.69600 42.85000 43.76000
H  -13.75200 43.61900 42.46400
H  -15.70500 39.45300 42.64800
H  -15.35100 37.54600 44.79700
H  -16.31100 40.42800 44.45800
H  -14.68300 40.87000 44.82500
H  -15.44300 39.53500 45.67100
H  -16.07500 36.51800 41.97000
H  -17.08700 37.78000 42.62800
H  -17.51500 34.98300 43.08200
H  -18.33200 36.31300 43.72800
H  -17.00900 35.58100 44.64900
H  -13.43000 31.72300 41.94100
H  -14.21800 32.84600 43.15000
H  -12.74400 31.88900 43.52900
H  -8.88000 33.17500 39.66800
H  -6.07200 32.43600 43.54200
H  -7.19000 33.58500 44.54200
H  -6.29200 34.19500 43.24700

