158

Mg 1.70500 -2.13800 43.76100
C  5.26800 -1.44800 43.92600
C  1.37800 0.77900 42.06100
C  -1.28900 -3.17600 43.08800
C  2.47800 -5.14600 45.42800
N  3.25500 -0.51400 43.05500
C  4.59000 -0.46800 43.19500
C  5.13500 0.73800 42.34700
C  3.83100 1.65000 42.18500
C  2.76500 0.54000 42.28300
C  3.62200 2.79900 43.27800
C  5.92400 0.37700 41.07900
C  5.24000 -0.48200 39.98700
H  4.92800 0.19900 38.70700
N  0.17400 -1.24100 42.88700
C  0.20700 -0.06200 42.23100
C  -1.05800 0.24300 41.76000
C  -1.92600 -0.86000 41.99600
C  -1.00600 -1.82400 42.64400
C  -1.41600 1.64200 41.18100
C  -3.40500 -1.05100 41.75600
O  -4.08600 -0.16800 41.26900
C  -4.22300 -2.20600 42.13800
N  0.77800 -3.90300 44.19100
C  -0.50100 -4.12700 43.79300
C  -1.02200 -5.49000 44.18600
C  0.13700 -6.08600 45.04200
C  1.22400 -5.00400 44.80600
C  -2.36800 -5.49300 44.88300
C  0.50500 -7.55400 44.55200
C  -0.00300 -8.68900 45.48200
N  3.47200 -3.16300 44.44900
C  3.61400 -4.35800 45.21800
C  5.01600 -4.65300 45.51800
C  5.64500 -3.48500 44.99800
C  4.68300 -2.61400 44.43000
C  5.56700 -5.83000 46.30600
C  6.91100 -2.82500 44.92000
O  8.00400 -3.25100 45.36000
C  6.79000 -1.50700 44.25600
C  7.22600 -0.35900 45.12100
O  6.58300 0.33300 45.91400
O  8.43800 0.01100 44.65800
C  8.96800 1.39500 44.79900
H  1.17100 1.75600 41.62100
H  -2.27200 -3.53800 42.78000
H  2.60600 -6.05300 46.02200
H  5.95200 1.17400 42.92200
H  3.90200 2.10600 41.19700
H  3.25000 3.74600 42.88700
H  4.42700 3.00400 43.98400
H  2.85300 2.35900 43.91300
H  6.83500 -0.16100 41.34300
H  6.21700 1.35400 40.69500
H  4.24100 -0.63700 40.39400
H  5.84800 -1.38300 39.90200
H  -0.78200 1.84900 40.31900
H  -1.41900 2.32000 42.03400
H  -2.42400 1.59500 40.77000
H  -5.29500 -2.06900 41.99500
H  -4.13300 -2.46600 43.19200
H  -3.77700 -2.93000 41.45600
H  -1.16600 -6.15600 43.33600
H  -0.02700 -5.98100 46.11400
H  -2.65600 -4.44600 44.97400
H  -2.23500 -6.02200 45.82800
H  -3.15700 -5.89900 44.25000
H  1.57900 -7.71600 44.46300
H  0.17000 -7.95800 43.59700
H  -0.73600 -8.31500 46.19700
H  0.90300 -9.05200 45.96800
H  -0.45000 -9.48700 44.88900
H  5.73500 -6.70100 45.67400
H  4.98400 -6.07500 47.19400
H  6.53100 -5.55400 46.73600
H  7.38300 -1.51600 43.34100
H  8.35800 1.88700 45.55600
H  8.80600 1.87900 43.83600
H  10.03300 1.48200 45.01500
Mg 51.09600 47.04100 42.06700
C  47.86400 48.23400 41.16700
C  50.17000 44.07500 40.73900
C  54.22600 46.13700 42.67600
C  51.84500 50.17600 43.40400
N  49.19800 46.29500 41.08800
C  48.05300 46.94600 40.77100
C  47.09500 46.10100 39.94600
C  47.80500 44.70600 39.97800
C  49.14400 45.05900 40.64800
C  47.05100 43.64600 40.86100
C  46.85500 46.75700 38.52900
C  45.33900 46.85600 38.41000
H  44.69500 46.15100 37.09500
N  52.08500 45.33800 41.72100
C  51.48400 44.19700 41.15200
C  52.51000 43.14500 41.08500
C  53.72400 43.72200 41.61500
C  53.38800 45.09700 42.08800
C  52.30200 41.75400 40.53600
C  55.05500 42.98900 41.72900
O  55.12300 41.84800 41.25100
C  56.20500 43.61700 42.44800
N  52.84900 48.09900 42.84300
C  54.02500 47.49000 42.96100
C  55.05100 48.37800 43.58400
C  54.29300 49.71500 43.77700
C  52.91600 49.33300 43.28500
C  55.76000 47.75000 44.84400
C  54.90400 50.88100 42.93800
C  54.41300 52.35200 43.36600
N  50.12500 48.88100 42.28600
C  50.52100 50.05300 42.88700
C  49.48800 51.06300 42.90000
C  48.41200 50.32100 42.22800
C  48.87000 49.05700 41.85600
C  49.42700 52.45600 43.42200
C  47.05000 50.49500 41.66100
O  46.27700 51.42800 41.69400
C  46.63400 49.12600 40.97900
C  45.47200 48.70900 41.76000
O  45.41900 48.18500 42.85800
O  44.37500 48.92700 40.99600
C  43.10500 48.39400 41.53000
H  49.71800 43.14100 40.39700
H  55.26900 45.90900 42.90600
H  52.02600 51.21600 43.68600
H  46.25500 45.98200 40.63000
H  47.95000 44.35400 38.95600
H  46.71100 42.84400 40.20600
H  46.14900 43.98700 41.37100
H  47.77800 43.28000 41.58600
H  47.31900 46.10400 37.78900
H  47.40900 47.68700 38.39800
H  45.06900 47.90400 38.27700
H  44.78900 46.50500 39.28300
H  53.13200 41.34400 39.96100
H  51.38800 41.82500 39.94600
H  52.15300 41.02400 41.33200
H  57.06200 42.96400 42.60900
H  55.87600 43.77900 43.47400
H  56.53200 44.51700 41.92700
H  55.72600 48.62700 42.76500
H  54.34000 50.01800 44.82300
H  55.47600 46.72400 45.08000
H  55.60400 48.42400 45.68600
H  56.83200 47.72000 44.64600
H  54.53800 50.65600 41.93600
H  55.96900 50.78100 42.72900
H  55.24800 52.98400 43.66600
H  53.78800 52.40600 44.25800
H  53.72500 52.69500 42.59400
H  49.47300 53.09000 42.53600
H  50.34800 52.51700 44.00000
H  48.51700 52.70000 43.97000
H  46.53200 49.25500 39.90100
H  43.06000 48.37900 42.61900
H  42.92200 47.36500 41.22000
H  42.29700 49.01700 41.14600

