158

Mg 3.00300 -1.53100 43.55300
C  6.43600 -0.87800 43.25600
C  2.44900 1.06400 41.22500
C  -0.23300 -2.44000 43.22800
C  3.61100 -4.47800 45.27800
N  4.33000 -0.14300 42.33700
C  5.64100 -0.05100 42.41900
C  6.16900 0.88500 41.35100
C  4.92000 1.74200 40.90400
C  3.80900 0.84200 41.53100
C  4.88600 3.22600 41.34200
C  6.83300 0.06900 40.17900
C  8.30200 0.44300 39.82300
H  8.44500 1.11100 38.49200
N  1.30600 -0.77600 42.47800
C  1.31100 0.37500 41.66100
C  -0.04100 0.66400 41.22100
C  -0.90700 -0.38500 41.67200
C  0.04600 -1.28700 42.43800
C  -0.44400 1.86900 40.49700
C  -2.44800 -0.50400 41.51200
O  -3.10800 0.49900 41.15700
C  -3.32700 -1.71700 41.86800
N  1.88600 -3.34000 43.98900
C  0.57700 -3.37100 43.94700
C  -0.02500 -4.55100 44.64200
C  1.23300 -5.20900 45.25400
C  2.34300 -4.25900 44.80400
C  -1.19200 -4.13100 45.59800
C  1.42800 -6.69400 44.90300
C  1.40600 -7.63300 46.05700
N  4.65700 -2.49200 44.19000
C  4.78800 -3.70800 44.87600
C  6.22500 -3.83400 45.23000
C  6.82900 -2.69000 44.57500
C  5.89600 -1.97400 43.95100
C  6.92500 -4.91800 45.96400
C  8.12300 -2.13200 44.38200
O  9.25100 -2.46600 44.76000
C  7.93400 -0.89200 43.48900
C  8.26500 0.32300 44.25100
O  7.97300 0.51100 45.37200
O  8.96800 1.21100 43.41900
C  8.89300 2.58700 43.84500
H  2.37500 1.99200 40.65300
H  -1.25700 -2.81800 43.25000
H  3.81100 -5.39200 45.84100
H  6.81800 1.55200 41.91800
H  4.90100 1.69600 39.81500
H  5.04800 3.93300 40.52800
H  5.59200 3.40700 42.15300
H  3.94000 3.42300 41.84600
H  6.26100 0.19500 39.25900
H  6.90100 -0.97400 40.48800
H  8.92600 -0.45200 39.82700
H  8.68300 1.08400 40.61800
H  -1.12700 2.50800 41.05800
H  -0.78500 1.57600 39.50400
H  0.37800 2.53500 40.23500
H  -4.36900 -1.53400 41.60600
H  -3.25800 -1.77500 42.95400
H  -2.91700 -2.63900 41.45700
H  -0.49700 -5.03200 43.78500
H  1.12700 -5.12300 46.33500
H  -1.04600 -3.06300 45.76300
H  -1.15000 -4.82500 46.43800
H  -2.12000 -4.29400 45.05000
H  2.44700 -6.81300 44.53400
H  0.79200 -7.11500 44.12400
H  0.78400 -8.51000 45.88000
H  1.03000 -7.19500 46.98100
H  2.40300 -7.99700 46.30400
H  7.72800 -5.34100 45.36000
H  6.26500 -5.78000 46.05900
H  7.13900 -4.55400 46.96900
H  8.57700 -1.03100 42.62000
H  8.90400 3.21700 42.95500
H  9.71400 2.88900 44.49400
H  7.91600 2.71300 44.31300
Mg 35.85200 49.10900 25.60300
C  36.17700 47.58900 28.66700
C  34.24500 51.87400 27.26700
C  35.16200 50.59200 22.58500
C  37.09800 46.39500 24.06700
N  35.22700 49.66200 27.78000
C  35.59000 48.88000 28.86000
C  35.17100 49.59200 30.14900
C  34.53100 50.96300 29.72600
C  34.65000 50.82500 28.14300
C  33.02100 51.08200 30.15700
C  36.45700 49.65500 31.14000
C  36.10200 49.50400 32.63900
H  34.62400 49.53400 33.08900
N  34.85400 51.00300 25.00400
C  34.34200 51.97600 25.84300
C  33.98700 53.15000 25.01700
C  34.25500 52.80300 23.62500
C  34.69900 51.40600 23.70000
C  33.59300 54.53100 25.69300
C  34.17500 53.69700 22.42300
O  34.54800 53.36000 21.29600
C  33.63600 55.12200 22.56200
N  35.99100 48.52700 23.58100
C  35.77600 49.33400 22.55500
C  36.24200 48.70500 21.27300
C  36.92800 47.33300 21.76500
C  36.74800 47.42600 23.20300
C  35.15400 48.47700 20.14000
C  38.39600 47.23000 21.40500
C  39.46800 48.03500 22.09200
N  36.53000 47.32600 26.18300
C  37.04100 46.26100 25.44400
C  37.40400 45.18100 26.27900
C  37.07700 45.65700 27.56300
C  36.51100 46.97400 27.47400
C  37.94900 43.83500 25.86900
C  36.98300 45.26900 28.99200
O  37.27100 44.23200 29.52800
C  36.48000 46.48900 29.71000
C  35.19800 46.12200 30.44200
O  34.13400 45.96100 29.88900
O  35.46900 45.76700 31.73500
C  34.43200 44.96400 32.42300
H  33.64400 52.63100 27.77600
H  34.90400 51.03300 21.62100
H  37.55100 45.53600 23.56900
H  34.41000 48.92100 30.54800
H  35.05500 51.80300 30.18200
H  32.88800 52.03200 30.67400
H  32.61300 50.38100 30.88500
H  32.33000 51.06100 29.31400
H  37.04400 50.56700 31.02800
H  37.15200 48.87300 30.83000
H  36.68100 50.19000 33.25700
H  36.48900 48.49700 32.79500
H  32.52500 54.75100 25.66100
H  34.14400 55.32500 25.18800
H  34.03100 54.54100 26.69100
H  33.55300 55.59800 21.58500
H  34.41200 55.64700 23.11900
H  32.75000 55.06700 23.19500
H  37.03200 49.34300 20.87600
H  36.43600 46.49100 21.28000
H  34.17100 48.55700 20.60500
H  35.34500 47.49900 19.69700
H  35.38100 49.26900 19.42700
H  38.44500 47.56900 20.37100
H  38.57300 46.17200 21.59900
H  39.56900 47.83800 23.15900
H  39.33800 49.09400 21.86500
H  40.44700 47.83400 21.65700
H  38.73300 44.06400 25.14700
H  37.13500 43.21800 25.48700
H  38.48800 43.43300 26.72700
H  37.22000 46.75800 30.46300
H  34.83200 43.96400 32.58900
H  33.48300 44.94400 31.88700
H  34.12800 45.50800 33.31800

