158

Mg 24.90800 1.16200 29.94800
C  26.97800 0.68700 32.62400
C  22.30400 1.04500 32.28000
C  22.64200 1.22700 27.39200
C  27.43700 0.63900 27.72000
N  24.71200 0.84500 32.24300
C  25.73300 0.98300 33.06100
C  25.22200 1.15600 34.51100
C  23.72100 0.89800 34.42500
C  23.56700 0.92700 32.86500
C  23.19800 -0.44300 35.02000
C  25.60900 2.42900 35.18600
C  26.20900 2.21400 36.57300
H  26.08600 3.28100 37.69300
N  22.85700 1.10300 29.85600
C  21.94000 1.03300 30.89900
C  20.57100 1.11000 30.37200
C  20.74200 1.15300 28.97500
C  22.14500 1.24400 28.68900
C  19.34500 1.23100 31.26800
C  19.65500 1.06900 27.89300
O  19.81800 0.96500 26.64600
C  18.15700 1.10300 28.30600
N  25.04600 0.94400 27.82500
C  23.99200 1.02500 26.93400
C  24.45000 1.07700 25.43100
C  25.99000 0.91200 25.58100
C  26.19800 0.81600 27.10900
C  23.70400 0.00900 24.57300
C  26.85300 1.97200 24.86700
C  26.60900 3.43200 25.27600
N  26.87200 0.76800 30.14400
C  27.80700 0.62000 29.11400
C  29.15500 0.39500 29.78100
C  28.82700 0.50400 31.14100
C  27.46500 0.66900 31.37800
C  30.51300 0.25300 29.13100
C  29.45800 0.44700 32.50300
O  30.60400 0.35900 32.96000
C  28.28100 0.72100 33.55900
C  28.24300 -0.31300 34.71100
O  27.69800 -1.37400 34.68600
O  29.13900 -0.02500 35.70000
C  29.05800 -0.90600 36.86800
H  21.35200 1.11600 32.81000
H  22.01000 1.50400 26.54600
H  28.24800 0.43500 27.01800
H  25.63200 0.28700 35.02500
H  23.13300 1.71700 34.84100
H  23.84200 -0.91200 35.76400
H  23.10400 -1.12600 34.17600
H  22.22200 -0.35300 35.49800
H  24.73900 3.07600 35.30000
H  26.30100 3.03800 34.60500
H  27.29100 2.10000 36.51100
H  25.77900 1.30000 36.98400
H  18.70000 2.00800 30.85800
H  19.50900 1.64800 32.26100
H  18.77900 0.30000 31.31800
H  17.97900 0.26800 28.98300
H  17.55100 0.97400 27.40900
H  17.84700 2.02600 28.79500
H  24.28900 2.10100 25.09300
H  26.32900 -0.07300 25.26100
H  24.35300 -0.74800 24.13300
H  23.44100 0.47300 23.62200
H  22.94100 -0.50000 25.16100
H  26.68400 1.83500 23.79900
H  27.90800 1.74200 25.01300
H  26.06400 3.39200 26.21900
H  26.06300 3.94100 24.48200
H  27.56400 3.92600 25.45700
H  30.68900 -0.81100 28.97500
H  31.14000 0.68200 29.91200
H  30.56900 0.79500 28.18600
H  28.48900 1.74400 33.87300
H  28.16300 -0.80100 37.48200
H  29.94000 -0.63600 37.44900
H  29.28400 -1.91200 36.51600
Mg 54.42500 25.25900 44.93800
C  51.67500 27.49600 44.37200
C  52.20000 22.72600 43.96700
C  57.02600 23.21900 44.69800
C  56.47000 27.91900 45.47600
N  52.15800 25.14700 44.28000
C  51.25000 26.19400 44.13900
C  49.87000 25.75100 43.57800
C  49.94200 24.23700 44.01300
C  51.52300 24.00300 44.00500
C  49.27200 23.83100 45.33400
C  49.67600 25.87800 42.07800
C  48.21700 25.83300 41.56500
H  47.99100 25.49700 40.07400
N  54.58400 23.21100 44.48600
C  53.54600 22.37300 44.07100
C  54.08100 20.99800 43.94200
C  55.46100 21.13600 44.31500
C  55.78700 22.57200 44.54200
C  53.16100 19.83000 43.71500
C  56.33900 19.86700 44.57800
O  56.01400 18.68300 44.33900
C  57.93100 19.97500 44.83600
N  56.51400 25.65800 44.84600
C  57.33600 24.62100 44.94200
C  58.78100 25.13200 44.97300
C  58.58100 26.57400 45.47200
C  57.14500 26.77500 45.24000
C  59.79200 24.26100 45.81100
C  59.49100 27.53900 44.65700
C  59.94000 28.75500 45.48400
N  54.16700 27.30400 45.07900
C  55.08900 28.21800 45.25500
C  54.48100 29.55400 45.27400
C  53.14700 29.33000 44.88200
C  52.96500 27.91400 44.79900
C  55.08700 30.90000 45.74200
C  51.83300 29.93600 44.62300
O  51.48800 31.12800 44.65500
C  50.84600 28.82800 44.18700
C  50.43600 29.14100 42.75300
O  51.20600 29.22000 41.79800
O  49.12100 29.32800 42.66200
C  48.74300 29.60300 41.21600
H  51.63700 21.79900 43.83900
H  57.83700 22.51300 44.89000
H  57.04100 28.82000 45.70500
H  49.05100 25.97900 44.26000
H  49.45600 23.68700 43.20700
H  48.29300 23.38100 45.17000
H  49.29700 24.72700 45.95300
H  49.90100 23.19600 45.95700
H  50.25300 25.12300 41.54600
H  50.09300 26.86100 41.85900
H  47.77700 26.81700 41.72700
H  47.71900 25.01500 42.08700
H  52.49000 19.81700 44.57400
H  53.67900 18.87600 43.81100
H  52.55500 19.92500 42.81400
H  58.40500 19.02900 44.57300
H  58.02900 20.37000 45.84700
H  58.33900 20.74600 44.18200
H  59.10200 25.08600 43.93200
H  58.84000 26.70500 46.52300
H  60.34300 23.63100 45.11200
H  59.34000 23.59700 46.54700
H  60.51800 24.84800 46.37200
H  58.85100 27.84600 43.82900
H  60.41300 27.05300 44.34000
H  59.72200 29.66400 44.92300
H  60.97900 28.73300 45.81300
H  59.35700 28.67100 46.40100
H  55.96400 31.10500 45.12800
H  55.23000 30.75400 46.81300
H  54.30500 31.62200 45.50600
H  49.95700 28.96100 44.80400
H  47.66700 29.43700 41.15700
H  49.12500 28.93000 40.44900
H  48.98200 30.64200 40.98900

