158

Mg 24.46000 -7.98100 47.81000
C  26.84200 -5.42500 46.80200
C  22.28900 -6.62700 45.55600
C  22.54100 -10.50200 48.52000
C  26.96100 -9.34400 49.93500
N  24.58800 -6.32400 46.28800
C  25.64000 -5.39500 46.08000
C  25.22200 -4.34300 45.03400
C  23.66100 -4.55500 44.88900
C  23.52300 -5.92500 45.64700
C  22.66100 -3.51800 45.50600
C  26.03200 -4.55500 43.65400
C  26.80300 -3.39000 43.07900
H  26.09100 -2.69900 41.95000
N  22.66800 -8.55400 47.11300
C  21.85000 -7.82000 46.21800
C  20.66600 -8.57400 46.01900
C  20.71700 -9.69500 46.82800
C  21.98700 -9.64800 47.57900
C  19.51800 -8.08200 45.24200
C  19.65000 -10.77100 46.93100
O  18.57000 -10.65200 46.36000
C  19.83400 -11.91800 47.76300
N  24.69200 -9.64200 49.08500
C  23.71300 -10.47500 49.25800
C  24.13300 -11.66800 50.16100
C  25.42300 -11.18200 50.70300
C  25.78400 -10.03900 49.80200
C  22.97200 -12.09600 51.12000
C  26.50700 -12.29700 50.95500
C  27.21300 -12.36900 52.32700
N  26.51000 -7.52400 48.28700
C  27.37900 -8.23800 49.14800
C  28.65300 -7.45900 49.13700
C  28.48400 -6.35900 48.24400
C  27.17200 -6.45800 47.76600
C  29.86300 -7.78800 49.91500
C  29.11900 -5.21400 47.63600
O  30.22100 -4.70900 47.79600
C  28.09500 -4.60800 46.61300
C  27.94200 -3.17400 46.89100
O  27.52300 -2.58000 47.91500
O  28.45600 -2.41400 45.90200
C  28.45500 -0.97300 45.96700
H  21.56100 -6.14700 44.89900
H  21.97900 -11.41500 48.72500
H  27.69500 -9.73500 50.64200
H  25.52400 -3.42700 45.54100
H  23.45500 -4.65900 43.82400
H  23.01900 -2.49900 45.64700
H  22.15300 -3.83800 46.41600
H  21.91900 -3.29100 44.74000
H  25.34200 -4.81100 42.85000
H  26.75400 -5.37200 43.67700
H  27.78100 -3.72800 42.73600
H  27.01900 -2.68500 43.88200
H  18.80500 -8.04400 46.06600
H  19.26200 -8.84500 44.50700
H  19.59000 -7.14500 44.68900
H  19.90100 -11.70900 48.83100
H  20.61700 -12.51800 47.30100
H  18.93600 -12.53100 47.68700
H  24.37700 -12.48700 49.48300
H  25.27600 -10.62600 51.62800
H  21.97700 -11.68200 50.95500
H  23.19800 -11.65000 52.08900
H  22.85700 -13.17100 51.25600
H  27.18200 -12.31500 50.10000
H  25.98400 -13.24800 50.84900
H  26.88900 -11.50600 52.90900
H  28.29700 -12.41100 52.22300
H  26.94500 -13.26100 52.89200
H  29.65300 -7.92000 50.97700
H  30.51600 -6.91600 49.91700
H  30.43600 -8.65200 49.58000
H  28.42500 -4.69100 45.57700
H  29.00400 -0.41500 45.20800
H  28.86600 -0.56200 46.88900
H  27.40100 -0.69400 45.96100
Mg -2.39200 34.55800 26.05300
C  -3.77100 32.36000 28.39800
C  -1.10500 36.47900 28.61300
C  -1.04900 36.46800 23.68800
C  -3.95400 32.52600 23.52800
N  -2.49900 34.42800 28.27000
C  -3.01000 33.37600 29.01300
C  -2.84200 33.63500 30.49000
C  -2.27000 35.14600 30.54200
C  -1.95500 35.40500 29.06200
C  -3.23800 36.23000 31.15600
C  -1.94600 32.55000 31.14100
C  -2.49300 31.90300 32.39600
H  -1.46900 32.06600 33.55200
N  -1.24700 36.28900 26.12300
C  -0.73100 36.82000 27.34400
C  0.01100 38.05900 26.92600
C  0.16300 38.04400 25.46700
C  -0.74000 36.88700 25.01200
C  0.69800 38.95100 27.89100
C  0.81600 39.09500 24.59200
O  0.82800 38.92800 23.36000
C  1.46200 40.35400 25.14400
N  -2.70000 34.71100 23.87900
C  -1.93200 35.51500 23.19400
C  -1.95600 35.17600 21.63600
C  -2.72800 33.86700 21.56400
C  -3.14900 33.65500 23.12100
C  -2.60200 36.34700 20.84300
C  -2.01800 32.57600 20.99100
C  -0.67900 32.74900 20.30600
N  -3.65500 32.88600 25.90900
C  -4.14000 32.12700 24.88200
C  -4.91100 31.02300 25.33400
C  -4.73300 31.05100 26.76600
C  -4.02800 32.22600 27.07000
C  -5.56000 30.00500 24.42700
C  -5.02800 30.35200 27.96000
O  -5.76800 29.38900 28.16800
C  -4.39600 31.15400 29.13700
C  -5.43800 31.58200 30.12400
O  -6.15500 32.54600 29.98500
O  -5.38200 30.70300 31.17900
C  -6.14200 30.97500 32.38100
H  -0.87800 37.12500 29.46400
H  -0.65200 37.01200 22.82900
H  -4.38900 31.89000 22.75500
H  -3.83100 33.59200 30.94700
H  -1.31500 35.23600 31.06000
H  -2.71000 36.78900 31.92800
H  -4.13400 35.80700 31.61100
H  -3.59800 36.94200 30.41400
H  -1.12800 33.14800 31.54300
H  -1.62600 31.73400 30.49300
H  -2.77400 30.86600 32.21300
H  -3.37400 32.39800 32.80400
H  1.76900 39.02000 27.69900
H  0.42700 38.56200 28.87200
H  0.24300 39.94100 27.86600
H  2.34600 40.15700 25.75100
H  0.76100 40.97300 25.70400
H  1.87900 41.03100 24.39900
H  -0.93000 35.12400 21.27100
H  -3.65700 34.06800 21.03100
H  -2.78500 37.31500 21.31100
H  -3.62800 36.07200 20.59800
H  -2.02000 36.57400 19.95000
H  -2.66200 32.01300 20.31500
H  -1.80100 31.88000 21.80200
H  -0.51500 33.68300 19.76700
H  -0.50800 31.91200 19.63000
H  0.02500 32.76700 21.13800
H  -6.24800 30.46000 23.71400
H  -6.10500 29.23300 24.97000
H  -4.77300 29.52200 23.84900
H  -3.70700 30.44500 29.59600
H  -5.66500 31.83600 32.85000
H  -6.09600 30.07500 32.99300
H  -7.18300 31.22000 32.17200

