158

Mg 45.10500 4.06000 47.00800
C  43.26500 7.12600 46.51300
C  42.37000 2.49600 45.91500
C  46.93500 1.29000 47.01700
C  48.06400 6.06800 46.96100
N  43.02100 4.74000 46.44400
C  42.50400 6.01300 46.39100
C  41.00300 5.99600 46.13000
C  40.75600 4.48700 45.93000
C  42.12100 3.87900 45.99400
C  39.91100 3.77600 47.11600
C  40.53200 6.85100 44.86000
C  41.45500 6.94600 43.57200
H  40.69000 6.80700 42.22900
N  44.66200 2.11300 46.75000
C  43.46000 1.65100 46.28900
C  43.56100 0.18300 46.15900
C  44.87800 -0.23200 46.33500
C  45.62800 1.05800 46.67200
C  42.44700 -0.69200 45.65300
C  45.48500 -1.66100 46.39400
O  44.78700 -2.61000 46.07600
C  46.94700 -2.01800 46.75800
N  47.17100 3.73100 46.86100
C  47.62400 2.46500 47.03800
C  49.16700 2.39600 47.04900
C  49.58400 3.93000 47.09900
C  48.20600 4.67500 46.88600
C  49.93900 1.58700 48.17800
C  50.68100 4.41200 46.12700
C  51.76100 5.29100 46.66800
N  45.59400 6.13300 46.88900
C  46.83000 6.75000 46.88600
C  46.61900 8.18400 46.98600
C  45.26100 8.38400 46.90500
C  44.64600 7.16300 46.75300
C  47.70100 9.22800 47.09700
C  44.19700 9.36500 46.87700
O  44.36700 10.59200 46.83700
C  42.81300 8.60000 46.67000
C  42.02100 8.70500 47.88600
O  41.99700 7.96700 48.82200
O  41.20900 9.82100 47.79000
C  40.19200 9.96100 48.83600
H  41.44400 2.05100 45.54300
H  47.69100 0.50200 46.98800
H  48.94200 6.71600 47.01400
H  40.57500 6.39500 47.05000
H  40.32000 4.21700 44.96800
H  39.38900 4.57000 47.65000
H  40.58800 3.15700 47.70400
H  39.18700 3.21800 46.52400
H  40.40000 7.87900 45.19600
H  39.58100 6.42700 44.53700
H  42.18000 6.13300 43.61300
H  41.96800 7.90400 43.48200
H  41.50500 -0.14600 45.70800
H  42.39200 -1.55600 46.31500
H  42.72200 -1.01600 44.64900
H  46.83700 -3.09600 46.87600
H  47.13300 -1.60200 47.74900
H  47.71500 -1.89700 45.99400
H  49.54200 1.99100 46.10900
H  49.91300 4.09300 48.12500
H  50.33400 0.68200 47.71600
H  49.14500 1.27800 48.85800
H  50.76000 2.04900 48.72700
H  50.08300 4.97100 45.40600
H  51.11800 3.53700 45.64600
H  51.73400 6.21300 46.08600
H  52.73700 4.81600 46.57300
H  51.59200 5.66200 47.67900
H  47.43600 9.61400 48.08100
H  47.65400 10.06700 46.40300
H  48.70100 8.80100 47.03000
H  42.25600 8.98700 45.81700
H  40.21200 9.33000 49.72400
H  39.29000 9.70200 48.28100
H  40.21800 10.99300 49.18800
Mg -11.80700 16.27500 42.33500
C  -8.97700 14.32600 42.19900
C  -9.92800 18.93100 40.89700
C  -14.65100 17.71500 41.51300
C  -13.57700 13.46500 43.70400
N  -9.75700 16.46600 41.46300
C  -8.80800 15.54300 41.57400
C  -7.54100 16.06700 41.05000
C  -7.68800 17.63900 40.87700
C  -9.21300 17.75000 41.11400
C  -6.92600 18.43800 41.88500
C  -7.17000 15.42600 39.72200
C  -5.71600 15.73800 39.21800
H  -5.49800 16.54900 37.93600
N  -12.26600 18.12800 41.43500
C  -11.36200 19.12200 40.99500
C  -12.06300 20.29700 40.50500
C  -13.41100 19.99500 40.79100
C  -13.53800 18.58500 41.25200
C  -11.42300 21.55500 39.92800
C  -14.60700 20.92800 40.66200
O  -14.41700 22.03100 40.33600
C  -16.09100 20.65100 40.98100
N  -13.81800 15.61100 42.43500
C  -14.78700 16.47300 42.17400
C  -16.12600 15.83100 42.25400
C  -15.79300 14.48700 42.98100
C  -14.27900 14.49800 43.11000
C  -17.29400 16.57400 43.01500
C  -16.27200 13.12300 42.39300
C  -16.69600 12.04200 43.42000
N  -11.36400 14.34600 42.97200
C  -12.19300 13.32100 43.54100
C  -11.28500 12.17600 43.85900
C  -9.95600 12.61500 43.42700
C  -10.11600 13.87100 42.78000
C  -11.64200 10.78600 44.33100
C  -8.63300 12.13300 43.28600
O  -8.21000 11.08100 43.67000
C  -7.90800 13.23100 42.47500
C  -6.66800 13.75700 43.15600
O  -6.66200 14.22000 44.26200
O  -5.60900 13.76200 42.30700
C  -4.22700 14.02200 42.88600
H  -9.41700 19.82900 40.54100
H  -15.62800 18.08300 41.19400
H  -14.12200 12.62900 44.14800
H  -6.65800 15.97000 41.68100
H  -7.47200 17.88800 39.83800
H  -6.54600 19.26300 41.28400
H  -6.09100 17.90800 42.34400
H  -7.49600 18.77100 42.75200
H  -7.90100 15.72100 38.97000
H  -7.32200 14.35400 39.84300
H  -5.08900 14.84700 39.17500
H  -5.19800 16.33100 39.97100
H  -11.20200 22.21800 40.76400
H  -12.03300 21.93900 39.11000
H  -10.52600 21.23200 39.40000
H  -16.12600 20.12700 41.93600
H  -16.41300 20.03100 40.14400
H  -16.61600 21.60600 41.00100
H  -16.38900 15.66600 41.21000
H  -16.21400 14.53800 43.98500
H  -16.90800 17.29000 43.74000
H  -17.95800 15.80200 43.40400
H  -17.85900 17.09400 42.24100
H  -15.49600 12.69000 41.76200
H  -17.07000 13.40700 41.70800
H  -16.05600 11.16500 43.32800
H  -17.68100 11.60100 43.26900
H  -16.63000 12.46900 44.42100
H  -10.72600 10.48600 44.83900
H  -11.86000 10.19700 43.44000
H  -12.48400 10.69300 45.01800
H  -7.66600 12.62200 41.60400
H  -3.43400 13.99500 42.13900
H  -4.04800 13.26100 43.64600
H  -4.18600 14.98700 43.39000

