158

Mg 29.43600 58.03400 41.09400
C  26.51300 56.50200 39.71400
C  31.29100 55.36800 39.84600
C  32.18100 59.90900 41.46100
C  27.37000 60.79400 41.88600
N  28.97300 56.27100 39.95500
C  27.74100 55.91000 39.42200
C  27.98600 54.67400 38.61800
C  29.19400 54.03900 39.19300
C  29.87500 55.25800 39.72800
C  28.85100 53.05700 40.38600
C  28.00700 55.03600 37.09400
C  27.03000 54.34200 36.12600
H  26.40300 55.17600 35.06600
N  31.50100 57.70200 40.79100
C  32.04400 56.54500 40.24400
C  33.45900 56.64900 40.22200
C  33.81500 57.94800 40.70400
C  32.50900 58.58800 41.02600
C  34.33700 55.54500 39.62400
C  35.10000 58.51600 40.75600
O  35.99800 57.89800 40.27400
C  35.39700 59.89200 41.17400
N  29.66900 60.12400 41.37600
C  30.95100 60.59900 41.61200
C  30.94700 62.04400 42.14900
C  29.43300 62.34700 42.24100
C  28.74100 61.02800 41.85400
C  31.75800 62.18000 43.46800
C  28.92600 63.45800 41.33100
C  28.00100 64.50500 41.96300
N  27.37200 58.52700 41.02900
C  26.68000 59.64000 41.48600
C  25.24700 59.47100 41.24600
C  25.19900 58.22100 40.55300
C  26.43400 57.66600 40.48200
C  24.27600 60.55900 41.53500
C  24.27500 57.24800 39.91600
O  23.09000 57.28400 39.97200
C  25.14600 56.06300 39.29900
C  24.69600 54.74200 39.73700
O  24.70600 54.29500 40.86900
O  24.32800 53.99000 38.56800
C  23.87200 52.59800 38.83300
H  31.72800 54.48600 39.37400
H  33.07300 60.48100 41.72600
H  26.82400 61.66500 42.25300
H  27.09800 54.05700 38.75300
H  29.85700 53.63800 38.42700
H  29.55500 53.25600 41.19400
H  28.83300 52.02700 40.03000
H  27.94900 53.24400 40.96900
H  28.97900 54.67500 36.75700
H  28.06600 56.11100 36.92700
H  26.23100 53.92300 36.73700
H  27.56500 53.52300 35.64600
H  33.76800 54.61900 39.53600
H  35.12700 55.41600 40.36400
H  34.74100 55.96800 38.70400
H  34.90800 60.67000 40.58800
H  36.47600 60.03000 41.23700
H  35.02600 60.06800 42.18400
H  31.42700 62.72500 41.44600
H  29.18800 62.56700 43.28000
H  32.44900 63.01800 43.38200
H  32.43900 61.34300 43.62900
H  31.08200 62.30400 44.31400
H  28.36800 63.06300 40.48200
H  29.73700 64.05600 40.91600
H  28.50200 65.43200 41.68500
H  27.86800 64.42500 43.04100
H  27.03900 64.54400 41.45100
H  23.99200 61.03100 40.59500
H  24.63700 61.36700 42.17300
H  23.38600 60.20300 42.05400
H  25.13900 56.15300 38.21300
H  24.63700 52.02500 39.35600
H  23.47100 52.08300 37.96000
H  23.03900 52.68000 39.53100
Mg -2.31800 33.74400 26.32600
C  -3.99900 32.13200 29.02100
C  -0.87200 35.81700 28.57600
C  -1.45900 35.60700 23.73800
C  -4.27400 31.73200 24.15400
N  -2.46700 34.04800 28.60400
C  -3.23000 33.25300 29.40500
C  -2.92000 33.62000 30.86500
C  -1.97600 34.87900 30.73700
C  -1.68100 34.86500 29.23100
C  -2.59900 36.22600 31.37100
C  -2.25500 32.34800 31.59800
C  -2.96100 31.92300 32.89500
H  -2.16800 31.82300 34.27400
N  -1.23300 35.42200 26.16100
C  -0.65200 36.15800 27.20300
C  0.12200 37.15400 26.67400
C  0.15300 37.01100 25.27200
C  -0.98300 36.06200 24.98400
C  0.82000 38.21500 27.57000
C  0.96700 37.58800 24.19900
O  0.87800 37.32500 23.02800
C  2.18100 38.44600 24.52200
N  -2.87000 33.72400 24.26100
C  -2.20200 34.49900 23.35800
C  -2.71300 34.12600 21.93700
C  -3.23600 32.74300 22.08400
C  -3.45800 32.67300 23.59400
C  -3.75800 35.19800 21.33200
C  -2.37900 31.68100 21.35100
C  -1.08000 31.23600 21.97600
N  -3.78300 32.34500 26.50700
C  -4.47700 31.58300 25.55700
C  -5.24500 30.51300 26.19200
C  -5.03300 30.78500 27.51500
C  -4.22900 31.91900 27.68000
C  -5.99200 29.44200 25.54100
C  -5.47000 30.19400 28.83400
O  -6.14800 29.21500 29.04700
C  -4.76200 31.14500 29.88700
C  -5.86300 31.77900 30.77600
O  -6.84500 32.41700 30.38400
O  -5.88300 31.21800 32.01500
C  -6.99800 31.57800 32.95500
H  -0.40400 36.51100 29.27800
H  -1.16700 36.26900 22.92000
H  -4.59800 30.86700 23.57000
H  -3.79400 33.98700 31.40300
H  -1.09200 34.76500 31.36400
H  -3.51600 35.95500 31.89400
H  -2.93100 36.88700 30.57000
H  -1.95100 36.77200 32.05600
H  -1.24800 32.64500 31.89200
H  -2.13100 31.54200 30.87400
H  -3.40100 30.96900 32.60500
H  -3.74300 32.62400 33.18700
H  1.69500 37.76200 28.03700
H  0.10900 38.55800 28.32200
H  1.23600 39.10100 27.09000
H  2.83900 38.52000 23.65700
H  2.71200 37.94600 25.33200
H  1.91500 39.46300 24.81000
H  -1.93900 34.17900 21.17100
H  -4.24600 32.59400 21.70000
H  -4.00900 35.93700 22.09300
H  -4.73100 34.72600 21.19300
H  -3.43000 35.70000 20.42200
H  -2.17800 31.93500 20.31000
H  -3.09000 30.85500 21.34400
H  -1.13400 30.16700 22.18100
H  -1.11600 31.72000 22.95200
H  -0.18300 31.37600 21.37200
H  -5.88300 29.37100 24.45900
H  -7.02700 29.64000 25.81800
H  -5.71400 28.47000 25.94800
H  -4.09600 30.49200 30.45100
H  -7.70800 32.27300 32.50800
H  -6.45300 32.07300 33.75900
H  -7.48700 30.66700 33.30100

