158

Mg 46.67400 35.16100 28.73500
C  45.08800 33.07000 31.19500
C  46.90300 37.54500 31.17200
C  47.65200 37.31200 26.39500
C  45.87200 32.74500 26.41900
N  46.26000 35.20000 30.98300
C  45.58600 34.22000 31.76000
C  45.45900 34.66400 33.19000
C  45.69200 36.21400 33.06700
C  46.34800 36.30600 31.67100
C  44.42800 37.00400 33.23000
C  46.48200 34.03900 34.16600
C  45.86900 33.89100 35.63600
H  46.14100 35.01200 36.63500
N  47.55800 37.11900 28.78900
C  47.59600 37.88900 29.94000
C  48.18700 39.16700 29.54400
C  48.29500 39.14300 28.11800
C  47.86600 37.79700 27.68300
C  48.38000 40.31100 30.53500
C  48.76800 40.20400 27.18000
O  48.83000 40.03700 25.97700
C  49.29800 41.54900 27.72600
N  46.61700 35.15200 26.66600
C  47.16900 36.11200 25.89500
C  46.87200 35.87500 24.37400
C  46.36400 34.34600 24.42000
C  46.29800 34.05000 25.98600
C  45.92600 36.96700 23.78200
C  47.32900 33.37400 23.60800
C  46.78500 32.45900 22.51800
N  45.84300 33.19700 28.74600
C  45.60200 32.36700 27.70500
C  45.01500 31.11100 28.16800
C  44.76400 31.37300 29.52500
C  45.25400 32.65500 29.82000
C  44.64300 29.89500 27.41900
C  44.18600 30.74400 30.69800
O  43.79000 29.62500 30.91200
C  44.20300 31.91900 31.77000
C  44.70500 31.39200 33.02500
O  45.63100 30.62000 33.23400
O  43.77600 31.74100 34.00200
C  43.85200 31.03200 35.27900
H  46.71700 38.31400 31.92400
H  47.91500 38.05200 25.63700
H  45.68400 32.03100 25.61500
H  44.48500 34.49500 33.64900
H  46.30800 36.63400 33.86100
H  43.58500 36.42100 33.59900
H  44.06800 37.35400 32.26300
H  44.63300 37.87700 33.85000
H  47.32100 34.73400 34.20500
H  46.83800 33.08300 33.78300
H  46.25100 33.01100 36.15500
H  44.79400 33.72000 35.58100
H  48.15100 41.32800 30.21500
H  49.43400 40.35800 30.80900
H  47.77100 40.20800 31.43300
H  49.93000 42.10400 27.03200
H  49.83000 41.39000 28.66400
H  48.41600 42.18500 27.80800
H  47.82100 35.92700 23.84000
H  45.35500 34.34800 24.00700
H  45.60600 37.71800 24.50400
H  45.05000 36.50500 23.32500
H  46.48300 37.50700 23.01700
H  47.86000 32.81800 24.38100
H  47.99700 34.02500 23.04400
H  45.78300 32.10000 22.75300
H  47.55300 31.68500 22.49500
H  46.84300 33.11300 21.64700
H  43.66800 30.05300 26.95900
H  44.54300 29.09300 28.15000
H  45.40000 29.57300 26.70400
H  43.22800 32.38500 31.91000
H  42.83000 31.21800 35.60700
H  44.55300 31.43700 36.00900
H  43.98200 29.94900 35.29600
Mg 6.32500 57.34100 41.54900
C  5.04700 54.02700 41.57100
C  9.45900 55.96400 40.91200
C  7.34800 60.47200 40.94500
C  3.01600 58.53200 41.85400
N  7.07400 55.30000 41.11900
C  6.43100 54.09400 41.29400
C  7.37600 52.88800 40.93800
C  8.80000 53.51400 41.29100
C  8.42000 55.03400 41.08100
C  9.32100 53.19200 42.70400
C  7.28700 52.50200 39.50500
C  7.90800 51.22700 38.97700
H  7.16200 50.32200 38.04500
N  8.14200 58.11900 41.02800
C  9.31800 57.41800 40.80600
C  10.36800 58.39200 40.62400
C  9.77700 59.70000 40.69000
C  8.36600 59.48200 40.88800
C  11.85700 58.06000 40.44500
C  10.50200 60.99700 40.43500
O  11.64700 60.87700 40.06500
C  9.90900 62.36200 40.66000
N  5.29700 59.17200 41.28500
C  5.94900 60.31500 41.19600
C  5.00400 61.57500 41.37400
C  3.62200 60.96900 41.77100
C  3.98000 59.49600 41.64000
C  5.63900 62.68900 42.28600
C  2.40300 61.56200 41.01800
C  2.51400 62.96300 40.39800
N  4.38300 56.51400 41.79100
C  3.16300 57.10400 41.87900
C  2.17200 56.09900 42.10500
C  2.88500 54.92100 42.06400
C  4.20100 55.13000 41.78500
C  0.69800 56.37000 42.39200
C  2.73700 53.50200 42.21600
O  1.69800 52.92500 42.48200
C  4.07200 52.85300 41.93200
C  3.84300 51.83700 40.81700
O  3.40200 52.09100 39.66200
O  4.15100 50.61800 41.16800
C  4.07200 49.58100 40.18800
H  10.42700 55.48400 40.75400
H  7.61300 61.53100 40.92000
H  2.02800 58.89800 42.14200
H  7.31600 52.02400 41.60100
H  9.57000 53.12000 40.62600
H  10.38200 52.94500 42.67300
H  8.87000 52.34300 43.21600
H  9.17800 54.01700 43.40200
H  7.73800 53.23400 38.83500
H  6.24300 52.35700 39.22700
H  8.14100 50.63100 39.85900
H  8.88300 51.33600 38.50100
H  12.56100 58.49000 41.15700
H  12.10400 58.49100 39.47400
H  11.96100 56.97600 40.41600
H  9.50700 62.52300 41.66000
H  9.16100 62.57600 39.89600
H  10.67900 63.08900 40.40200
H  4.88000 61.87900 40.33400
H  3.29500 61.22700 42.77800
H  4.85800 63.34400 42.67100
H  6.34100 63.27500 41.69300
H  6.08600 62.18000 43.14000
H  1.58200 61.65700 41.72900
H  2.07100 60.79300 40.32000
H  1.49200 63.25000 40.15200
H  3.11000 62.83300 39.49400
H  2.95700 63.70800 41.05900
H  0.33700 55.47800 42.90400
H  0.14200 56.45200 41.45800
H  0.56800 57.24400 43.02900
H  4.40700 52.24300 42.77100
H  3.03400 49.26900 40.30400
H  4.78800 48.80300 40.45300
H  4.35700 49.91000 39.18900

