158

Mg 24.38400 -5.63200 45.52600
C  26.43300 -3.27600 44.02300
C  21.76200 -4.43600 43.72000
C  22.55600 -8.58100 46.28400
C  27.15300 -7.28200 46.82200
N  24.19200 -4.01600 44.11100
C  25.10900 -3.10900 43.64300
C  24.50100 -2.12500 42.62900
C  22.94700 -2.27500 42.78400
C  22.90000 -3.59700 43.62100
C  22.12400 -1.04500 43.34400
C  25.09300 -2.25800 41.16400
C  25.39800 -0.97700 40.29500
H  25.34000 -1.05200 38.78400
N  22.29600 -6.36500 45.11200
C  21.39700 -5.65600 44.37000
C  20.19300 -6.45500 44.32800
C  20.43200 -7.61400 45.20500
C  21.80300 -7.54900 45.61500
C  18.98300 -5.96800 43.60200
C  19.29900 -8.62700 45.52300
O  18.25700 -8.56200 44.96900
C  19.44400 -9.62600 46.58900
N  24.77700 -7.67400 46.26500
C  23.86400 -8.66200 46.63200
C  24.47900 -9.90300 47.33700
C  25.88500 -9.33700 47.71200
C  25.95700 -7.99500 46.92000
C  23.62400 -10.43900 48.56000
C  27.11000 -10.34300 47.39000
C  28.08500 -10.54500 48.67000
N  26.38900 -5.38300 45.52500
C  27.40800 -6.08500 46.14600
C  28.70600 -5.39900 45.93900
C  28.30700 -4.24000 45.14900
C  26.93800 -4.35000 44.82700
C  29.96400 -5.73800 46.60900
C  28.86100 -3.06900 44.56700
O  29.96400 -2.59200 44.68300
C  27.73000 -2.51400 43.62900
C  27.41800 -1.03400 44.01700
O  27.38000 -0.54300 45.15100
O  27.25100 -0.36100 42.82000
C  26.92600 1.11200 42.90300
H  20.93100 -4.01800 43.14800
H  22.01700 -9.50000 46.51900
H  27.94900 -7.82500 47.33600
H  24.74900 -1.11700 42.96300
H  22.54100 -2.41900 41.78300
H  22.79400 -0.18600 43.38700
H  21.86600 -1.25900 44.38100
H  21.19200 -0.87500 42.80600
H  24.48800 -2.90700 40.53100
H  26.07300 -2.73300 41.22000
H  26.45700 -0.83600 40.51100
H  24.88400 -0.05200 40.55600
H  18.01800 -6.34700 43.94100
H  19.05100 -6.12100 42.52500
H  18.86700 -4.89000 43.71600
H  18.47300 -9.75100 47.06600
H  20.03900 -9.15800 47.37300
H  19.84600 -10.53900 46.15000
H  24.60800 -10.63400 46.53900
H  25.78100 -9.13100 48.77700
H  22.99600 -11.21400 48.12100
H  23.07500 -9.62200 49.02900
H  24.28000 -10.95600 49.26100
H  27.72200 -9.93700 46.58400
H  26.73400 -11.25000 46.91600
H  28.03500 -11.62300 48.82900
H  27.85500 -9.93100 49.54000
H  29.07800 -10.24100 48.34000
H  30.61800 -6.24700 45.90100
H  30.02300 -6.44900 47.43300
H  30.53500 -4.84200 46.85100
H  27.91800 -2.53600 42.55600
H  26.35600 1.37100 43.79500
H  26.34400 1.34200 42.01100
H  27.84100 1.70300 42.95000
Mg -1.91700 34.97800 26.82900
C  -3.67400 33.15000 29.22900
C  -0.65200 36.95700 29.30100
C  -0.58500 36.70300 24.39900
C  -3.69900 33.03800 24.33800
N  -2.02500 34.96700 29.01400
C  -2.77300 34.11300 29.76900
C  -2.50800 34.37200 31.32400
C  -1.66500 35.67800 31.29000
C  -1.40200 35.85100 29.74100
C  -2.38500 36.93500 31.91800
C  -1.91500 33.08600 32.10300
C  -2.81200 32.54600 33.34800
H  -2.10400 32.63000 34.75400
N  -0.71800 36.51100 26.84900
C  -0.33700 37.25800 27.94600
C  0.57900 38.31200 27.53100
C  0.71600 38.16900 26.17200
C  -0.23100 37.11900 25.70400
C  1.30900 39.35100 28.44000
C  1.52000 38.98900 25.17400
O  1.47000 38.68800 23.97500
C  2.43500 40.08700 25.48600
N  -2.27500 34.92200 24.68200
C  -1.52400 35.73500 23.95800
C  -1.69500 35.55700 22.47600
C  -2.79800 34.40800 22.39200
C  -2.99700 34.14200 23.84700
C  -1.97800 36.84200 21.58000
C  -2.50300 33.11700 21.59000
C  -1.16800 32.46500 21.92000
N  -3.39700 33.41100 26.73300
C  -4.02200 32.78600 25.68100
C  -4.80900 31.66200 26.21200
C  -4.65800 31.78500 27.60300
C  -3.86100 32.87000 27.87800
C  -5.54800 30.55600 25.41800
C  -5.12000 31.25900 28.88300
O  -5.92600 30.34700 29.10800
C  -4.49300 32.17300 30.00700
C  -5.55800 32.87100 30.81400
O  -6.02200 33.99900 30.63000
O  -6.00400 32.05600 31.82300
C  -7.02300 32.66400 32.72800
H  -0.29900 37.55000 30.14700
H  -0.31800 37.40500 23.60700
H  -4.18400 32.35200 23.64000
H  -3.46100 34.48300 31.84100
H  -0.66200 35.65100 31.71600
H  -1.71600 37.26400 32.71300
H  -3.24900 36.61400 32.49900
H  -2.62900 37.68000 31.16000
H  -1.00400 33.39200 32.61600
H  -1.78600 32.25600 31.40800
H  -2.99000 31.47900 33.21200
H  -3.77200 33.06200 33.32100
H  0.83200 40.32100 28.30400
H  2.33700 39.53600 28.13100
H  1.21200 39.15000 29.50700
H  2.73800 40.53900 24.54200
H  3.34700 39.67500 25.91900
H  1.94300 40.84200 26.09800
H  -0.77600 35.08700 22.12400
H  -3.70400 34.83800 21.96600
H  -2.31300 37.70000 22.16300
H  -2.73600 36.58600 20.84100
H  -1.11600 37.11100 20.96800
H  -2.47300 33.35600 20.52700
H  -3.30600 32.38000 21.60600
H  -1.33900 31.44500 22.26600
H  -0.53100 33.03100 22.59900
H  -0.56900 32.34200 21.01800
H  -5.75000 29.87900 26.24800
H  -4.96800 30.16200 24.58300
H  -6.45800 30.89900 24.92600
H  -3.86200 31.55000 30.64100
H  -6.51300 33.17000 33.54800
H  -7.64300 31.86500 33.13600
H  -7.65200 33.28000 32.08600

