158

Mg 1.18700 42.44100 25.86500
C  2.04800 42.67200 29.35600
C  -1.70100 40.96500 26.82600
C  0.67300 41.82000 22.57000
C  4.34500 43.75600 25.16000
N  0.37300 41.88400 27.81600
C  0.77400 42.09000 29.10100
C  -0.28800 41.91200 30.11600
C  -1.42900 41.16100 29.34500
C  -0.89800 41.28200 27.88100
C  -1.74300 39.68000 29.74300
C  -0.70500 43.23800 30.87900
C  -0.48400 43.21000 32.45800
H  -0.36100 41.88300 33.28900
N  -0.35600 41.58800 24.80000
C  -1.45300 40.95900 25.41600
C  -2.31900 40.54100 24.40500
C  -1.72000 40.85400 23.09000
C  -0.43700 41.48600 23.43600
C  -3.50000 39.69300 24.83500
C  -2.22300 40.54800 21.71000
O  -1.59200 40.89200 20.74000
C  -3.56700 39.95100 21.48800
N  2.29400 42.77900 24.14700
C  1.92000 42.43000 22.87400
C  2.97200 42.84600 21.83400
C  3.91400 43.66500 22.67700
C  3.48300 43.37500 24.08100
C  3.58300 41.65400 21.01000
C  3.90100 45.17900 22.19000
C  2.61600 45.98500 22.38400
N  2.92400 43.07000 26.91900
C  4.09900 43.63700 26.50800
C  4.94500 43.90100 27.58400
C  4.20100 43.50900 28.73800
C  2.99900 43.03500 28.29100
C  6.35000 44.32400 27.48700
C  4.17100 43.49000 30.14400
O  5.02800 43.79300 30.98600
C  2.81400 42.74900 30.58700
C  3.34200 41.41800 30.97100
O  3.97800 40.63700 30.28500
O  3.06600 41.34700 32.30000
C  3.51300 40.17600 33.01600
H  -2.65000 40.63300 27.25200
H  0.62200 41.59400 21.50300
H  5.31000 44.19200 24.89400
H  0.13200 41.28100 30.90000
H  -2.33900 41.74600 29.47900
H  -1.09400 39.39600 30.57100
H  -1.43900 39.09100 28.87800
H  -2.75000 39.40700 30.05900
H  -1.71300 43.54800 30.60100
H  -0.20700 44.07200 30.38500
H  -1.22900 43.84800 32.93400
H  0.44800 43.68900 32.76000
H  -4.27300 40.29900 25.30700
H  -3.06700 39.00600 25.56200
H  -3.92200 39.08100 24.03700
H  -3.40700 38.96500 21.92400
H  -3.77100 39.93400 20.41800
H  -4.31000 40.49900 22.06800
H  2.42300 43.40400 21.07600
H  4.92300 43.25200 22.65900
H  4.66400 41.51400 21.00500
H  3.18800 41.85800 20.01500
H  3.14700 40.72600 21.38000
H  4.10000 45.22800 21.11900
H  4.76600 45.62400 22.68200
H  1.71600 45.38600 22.52100
H  2.33700 46.46400 21.44600
H  2.68100 46.68500 23.21700
H  6.55700 44.93400 26.60700
H  6.93500 43.40500 27.47400
H  6.63600 44.88700 28.37600
H  2.47300 43.23100 31.50300
H  3.88300 40.48400 33.99400
H  4.36800 39.62800 32.62000
H  2.73500 39.41400 33.05900
Mg -5.52800 25.14500 26.30900
C  -3.88500 26.72800 29.14500
C  -7.35500 23.32800 28.49400
C  -6.96700 23.73100 23.73700
C  -3.54300 27.24400 24.28300
N  -5.62600 25.12000 28.59400
C  -4.96900 25.88900 29.51300
C  -5.50000 25.46100 30.85800
C  -6.27800 24.12800 30.63900
C  -6.42100 24.18000 29.18600
C  -5.50900 22.88100 31.15700
C  -6.34000 26.53500 31.52000
C  -6.22100 26.58500 33.05000
H  -5.71500 25.36300 33.84600
N  -6.96700 23.79400 26.13500
C  -7.67800 23.22300 27.13900
C  -8.69700 22.33700 26.65700
C  -8.51900 22.35000 25.25900
C  -7.42800 23.27900 24.98500
C  -9.80500 21.75600 27.51800
C  -9.26800 21.66600 24.15900
O  -9.03900 21.96200 23.00100
C  -10.37200 20.60800 24.50100
N  -5.32300 25.53700 24.31300
C  -6.00400 24.76300 23.38600
C  -5.50600 25.02400 21.92700
C  -4.66500 26.29600 22.17300
C  -4.52200 26.43400 23.70100
C  -4.57300 23.90400 21.40600
C  -5.24600 27.58500 21.54800
C  -4.54900 28.01200 20.18500
N  -3.86900 26.40800 26.59500
C  -3.19000 27.20800 25.67100
C  -2.27200 28.08200 26.34900
C  -2.48200 27.83800 27.66500
C  -3.51800 26.88200 27.78800
C  -1.19000 28.97900 25.74100
C  -2.06400 28.31200 28.98600
O  -1.18400 29.04600 29.35000
C  -2.99000 27.59300 29.98500
C  -2.15400 26.75500 30.93200
O  -1.44500 25.77500 30.63000
O  -2.29400 27.34400 32.19300
C  -1.41600 26.64700 33.15400
H  -7.79000 22.62000 29.20300
H  -7.36500 23.29800 22.81700
H  -2.85500 27.81800 23.65800
H  -4.67000 25.29600 31.54500
H  -7.26200 24.10200 31.10500
H  -5.23200 22.11100 30.43800
H  -6.16600 22.39600 31.88000
H  -4.54700 23.04100 31.64300
H  -7.37800 26.48600 31.19200
H  -6.09000 27.55500 31.23000
H  -7.24200 26.75000 33.39400
H  -5.57400 27.42500 33.30600
H  -10.75100 22.27500 27.36500
H  -9.58500 21.87200 28.57900
H  -9.94400 20.70400 27.26600
H  -10.63100 20.16500 23.53900
H  -11.24000 21.06700 24.97500
H  -10.03800 19.74600 25.07800
H  -6.34000 25.17800 21.24200
H  -3.61000 26.28200 21.90000
H  -4.61400 23.95900 20.31800
H  -4.79100 22.91000 21.79700
H  -3.55900 23.97600 21.80000
H  -5.24500 28.45300 22.20700
H  -6.29300 27.46200 21.27100
H  -3.91700 27.17600 19.88300
H  -3.91200 28.89600 20.16000
H  -5.20200 28.07700 19.31500
H  -1.72700 29.66900 25.09000
H  -0.58100 28.38900 25.05600
H  -0.57900 29.50400 26.47600
H  -3.56100 28.26400 30.62600
H  -0.39400 27.01500 33.06300
H  -1.47800 25.57700 32.95400
H  -1.88100 26.83000 34.12300

