158

Mg 1.90600 -2.33600 44.20300
C  5.30300 -1.40600 43.87100
C  0.95500 0.39900 42.52600
C  -1.15000 -3.73900 43.62400
C  3.02200 -5.54500 45.25100
N  3.04800 -0.76700 43.17500
C  4.40200 -0.49900 43.35000
C  4.74800 0.91300 42.86000
C  3.31400 1.59700 42.74200
C  2.34200 0.37700 42.87300
C  2.90200 2.69500 43.68600
C  5.66000 0.93100 41.65000
C  5.51100 -0.08200 40.56000
H  5.15000 0.54200 39.15600
N  0.10600 -1.70500 43.31900
C  -0.06500 -0.57900 42.63500
C  -1.44700 -0.37300 42.21700
C  -2.13600 -1.50600 42.68400
C  -1.07200 -2.34100 43.18200
C  -1.95600 0.83000 41.40200
C  -3.61800 -1.65500 42.61200
O  -4.32600 -0.81500 42.06200
C  -4.34000 -2.86700 43.14900
N  1.05800 -4.38900 44.45100
C  -0.24200 -4.63400 44.21300
C  -0.57900 -6.01600 44.67700
C  0.73700 -6.58800 45.17800
C  1.68900 -5.43400 45.04000
C  -1.85800 -6.02900 45.66500
C  1.16500 -7.81900 44.39900
C  2.02300 -8.90300 45.18500
N  3.81300 -3.30900 44.60800
C  4.08100 -4.60000 45.01800
C  5.55300 -4.75400 45.15900
C  6.07200 -3.52900 44.81100
C  5.01700 -2.65700 44.38700
C  6.21700 -5.91300 45.70400
C  7.27100 -2.71300 44.71600
O  8.44500 -2.93000 44.96900
C  6.81200 -1.36000 44.07800
C  7.10400 -0.27900 45.09300
O  6.38800 -0.20400 46.06100
O  8.14700 0.52000 44.80200
C  8.26500 1.79300 45.57400
H  0.53900 1.35600 42.20400
H  -2.14300 -4.18300 43.52200
H  3.39600 -6.47000 45.69400
H  5.30500 1.39500 43.66300
H  3.08400 1.99300 41.75300
H  3.82800 3.10400 44.09000
H  2.31700 2.37400 44.54800
H  2.53400 3.53200 43.09200
H  6.70200 0.88100 41.96700
H  5.44700 1.94900 41.32300
H  4.81100 -0.85800 40.87100
H  6.47900 -0.57700 40.48800
H  -2.59900 0.33600 40.67300
H  -1.16400 1.32100 40.83700
H  -2.60500 1.49600 41.97100
H  -5.40800 -2.76600 43.33900
H  -3.81600 -2.99600 44.09600
H  -4.20200 -3.75700 42.53500
H  -0.97200 -6.45400 43.75900
H  0.75500 -6.87400 46.23000
H  -1.73200 -6.60000 46.58500
H  -2.66900 -6.54700 45.15300
H  -1.98400 -4.95900 45.82800
H  1.71800 -7.55800 43.49700
H  0.28500 -8.42300 44.17500
H  2.85900 -9.18300 44.54500
H  1.39700 -9.76000 45.43200
H  2.39200 -8.48500 46.12200
H  6.31700 -6.71400 44.97200
H  5.82000 -6.35000 46.62100
H  7.23100 -5.60800 45.96100
H  7.40700 -1.22500 43.17500
H  7.29000 2.25900 45.71000
H  8.83700 2.51000 44.98500
H  8.84300 1.58500 46.47400
Mg 49.76200 46.05400 43.36400
C  46.59600 46.87600 42.12900
C  49.65500 43.05500 41.51200
C  53.12100 45.67900 43.77300
C  50.02400 49.42500 44.44100
N  48.31000 45.20000 41.85600
C  47.05200 45.63500 41.58600
C  46.33300 44.72400 40.67000
C  47.14000 43.38300 40.88800
C  48.48700 43.87000 41.47300
C  46.47600 42.22300 41.71400
C  46.15300 45.14200 39.14300
C  44.69800 44.86900 38.59200
H  44.68800 43.77000 37.52000
N  51.18300 44.60500 42.79700
C  50.88400 43.42600 42.09400
C  52.14300 42.65300 41.87700
C  53.18400 43.52900 42.38200
C  52.52800 44.68300 43.03100
C  52.33700 41.37500 41.16200
C  54.66800 43.20100 42.32900
O  55.02800 42.15300 41.82000
C  55.83200 44.05200 42.84700
N  51.39400 47.41800 43.92400
C  52.66300 46.95300 44.15900
C  53.46900 48.08500 44.82600
C  52.51000 49.30700 44.91600
C  51.19800 48.66000 44.51800
C  54.11100 47.65100 46.17000
C  52.81200 50.58300 44.00100
C  52.43700 51.90500 44.74500
N  48.54600 47.76000 43.38800
C  48.74400 49.02300 43.92000
C  47.52600 49.82700 43.76300
C  46.66600 48.99200 43.10400
C  47.35900 47.79200 42.88500
C  47.29400 51.27000 44.25400
C  45.27500 48.85400 42.59400
O  44.30200 49.64000 42.58800
C  45.22500 47.44100 41.90900
C  44.12500 46.75400 42.66100
O  44.01500 46.55200 43.85700
O  43.26100 46.17500 41.75400
C  42.32300 45.16300 42.31900
H  49.57600 42.02900 41.14500
H  54.18700 45.54400 43.97000
H  49.98500 50.40300 44.92600
H  45.31400 44.55400 41.01900
H  47.45600 42.90100 39.96400
H  47.13700 41.94000 42.53300
H  46.39400 41.30500 41.13200
H  45.56500 42.56300 42.20600
H  46.88800 44.63700 38.51700
H  46.33300 46.21700 39.12500
H  44.15300 45.77600 38.33100
H  44.11100 44.39500 39.37900
H  51.32800 41.08500 40.87100
H  52.60000 40.58600 41.86600
H  52.98700 41.44400 40.28900
H  56.81700 43.61400 42.68400
H  55.62000 44.19600 43.90700
H  55.76600 44.97900 42.27800
H  54.25100 48.28900 44.09500
H  52.46500 49.60100 45.96400
H  53.56800 48.04600 47.02800
H  55.16400 47.93000 46.12500
H  54.15500 46.56300 46.20900
H  52.38900 50.60100 42.99600
H  53.89600 50.68600 43.96200
H  53.34600 52.48800 44.89500
H  51.99300 51.67500 45.71400
H  51.55000 52.38700 44.33700
H  47.92800 51.96200 43.69900
H  47.62100 51.23900 45.29300
H  46.23200 51.47900 44.12100
H  45.03600 47.46600 40.83600
H  41.65000 45.75000 42.94300
H  42.84500 44.44700 42.95500
H  41.85000 44.74200 41.43200

