158

Mg 7.47500 54.46100 40.20200
C  6.87700 51.03900 40.31800
C  10.85400 53.84600 39.46100
C  7.96900 57.72600 39.46600
C  4.17500 55.13300 40.68500
N  8.65000 52.67100 39.73000
C  8.15100 51.35800 39.89000
C  9.33000 50.40000 39.66100
C  10.60700 51.31900 39.82000
C  10.08000 52.70500 39.67400
C  11.48100 51.09200 41.06800
C  9.30500 49.56000 38.29000
C  9.28400 50.55900 37.01100
H  7.82700 50.71100 36.39400
N  9.20600 55.56500 39.40900
C  10.50900 55.17400 39.37800
C  11.34600 56.29500 39.09600
C  10.54400 57.47900 39.09300
C  9.14900 56.93500 39.28100
C  12.88100 56.27200 38.87000
C  11.04200 58.97700 38.89200
O  12.21900 59.19400 38.66600
C  10.15500 60.15700 39.11400
N  6.22600 56.15700 39.99300
C  6.64200 57.42800 39.82600
C  5.53400 58.48900 39.90500
C  4.36300 57.63300 40.40300
C  4.97300 56.24100 40.43000
C  5.81000 59.79800 40.71800
C  3.15500 57.63600 39.41000
C  1.75100 57.46500 40.09600
N  5.76700 53.34400 40.40800
C  4.49200 53.70900 40.65100
C  3.73300 52.55800 41.06700
C  4.65000 51.51700 40.93300
C  5.84900 52.02500 40.46700
C  2.25100 52.52200 41.42500
C  4.82600 50.02700 41.13000
O  4.07900 49.18800 41.66000
C  6.27300 49.70200 40.67500
C  6.03100 48.71000 39.50500
O  5.55400 48.98000 38.40700
O  6.12300 47.42000 39.99500
C  6.04300 46.32700 39.02800
H  11.93600 53.69500 39.44700
H  8.10600 58.80000 39.32000
H  3.18100 55.25200 41.12000
H  9.27400 49.69200 40.48800
H  11.21800 51.14200 38.93500
H  11.08700 50.52400 41.91100
H  11.57900 52.11900 41.41900
H  12.49600 50.71600 40.94100
H  8.61300 48.72100 38.37200
H  10.29000 49.10800 38.17100
H  10.05600 50.21300 36.32300
H  9.56200 51.57700 37.28300
H  13.05400 56.80500 37.93500
H  13.20000 55.24900 38.67300
H  13.50000 56.69700 39.66000
H  9.33800 60.31100 38.40800
H  10.75000 61.05900 38.96700
H  9.78500 60.23900 40.13600
H  5.32200 58.78600 38.87800
H  4.05700 57.88000 41.41900
H  5.53500 60.56000 39.98900
H  6.81600 59.90900 41.12300
H  5.12500 59.80700 41.56600
H  3.28400 56.92600 38.59400
H  3.10700 58.60000 38.90300
H  1.89800 57.23400 41.15100
H  1.18100 56.78600 39.46100
H  1.13800 58.36500 40.09400
H  2.00800 51.69900 42.09700
H  1.70500 52.43700 40.48600
H  1.96800 53.40700 41.99400
H  6.87300 49.23400 41.45600
H  6.44200 45.38100 39.39500
H  6.69800 46.53700 38.18300
H  5.00600 46.14400 38.74600
Mg 8.78700 47.86600 26.99100
C  7.28800 47.54500 30.16000
C  11.76400 48.41500 28.52700
C  9.89900 48.85200 24.09000
C  5.46800 47.64300 25.65900
N  9.43700 47.97700 29.16300
C  8.68600 47.68900 30.22800
C  9.55000 47.80200 31.52300
C  10.95900 48.35200 30.98900
C  10.72300 48.26100 29.47500
C  11.42800 49.82300 31.44300
C  9.68800 46.53100 32.43400
C  9.48300 46.90300 33.91300
H  9.64100 45.84300 34.94800
N  10.56700 48.33900 26.35400
C  11.69400 48.58600 27.16200
C  12.79700 48.75100 26.24600
C  12.32400 48.79100 24.95200
C  10.89600 48.76000 25.04400
C  14.23700 48.69000 26.74700
C  13.09700 48.82600 23.55200
O  12.51400 48.90300 22.45900
C  14.58700 48.83000 23.59100
N  7.86000 48.03200 25.10200
C  8.54700 48.60500 24.07300
C  7.63100 48.92000 22.86500
C  6.23100 48.44600 23.35300
C  6.52400 47.96400 24.79900
C  7.74700 50.39000 22.34400
C  5.63800 47.37200 22.36800
C  5.12000 47.83700 21.03700
N  6.78800 47.62900 27.68600
C  5.61300 47.53900 27.04000
C  4.55300 47.49800 28.04300
C  5.20200 47.52900 29.24100
C  6.56900 47.64400 28.97700
C  3.07800 47.33700 27.76100
C  4.90900 47.56300 30.63000
O  3.85600 47.48000 31.19800
C  6.29900 47.43900 31.27600
C  6.33400 46.11100 31.95100
O  6.64400 45.01800 31.46400
O  5.96000 46.32800 33.17900
C  6.14300 45.23100 34.12700
H  12.73700 48.60000 28.98500
H  10.27000 49.19900 23.12400
H  4.45700 47.76600 25.26500
H  9.14400 48.60200 32.14100
H  11.75300 47.61800 31.12600
H  12.48700 49.79900 31.69900
H  10.89200 50.13800 32.33700
H  11.18300 50.60600 30.72500
H  10.67600 46.08300 32.32800
H  8.91600 45.83000 32.11400
H  8.49000 47.33500 34.03800
H  10.26500 47.63100 34.12700
H  14.59800 49.64300 26.36000
H  14.83600 47.82500 26.46400
H  14.25100 48.65800 27.83600
H  14.99300 49.58000 24.27000
H  15.03500 48.98000 22.60800
H  14.86600 47.83300 23.93100
H  7.94200 48.29100 22.03100
H  5.59400 49.32600 23.45100
H  8.32100 51.06000 22.98500
H  6.76200 50.73200 22.02600
H  8.17000 50.39400 21.33900
H  4.76900 46.96900 22.88800
H  6.28600 46.51300 22.19700
H  5.39300 48.88700 20.92700
H  4.03100 47.79200 21.01100
H  5.63800 47.30000 20.24200
H  2.64300 46.71900 28.54600
H  2.90400 46.76300 26.85100
H  2.76000 48.38000 27.75600
H  6.42400 48.27800 31.96100
H  6.27500 45.64900 35.12500
H  7.02500 44.63100 33.90600
H  5.30600 44.55600 34.30800

