158

Mg 35.72100 2.47500 30.45400
C  33.04300 3.33700 32.61800
C  37.79400 2.64400 33.15000
C  38.21400 1.58300 28.36300
C  33.58300 2.89400 27.68900
N  35.44600 2.92800 32.60900
C  34.28100 3.14200 33.26100
C  34.43900 3.18600 34.81200
C  35.99700 3.26400 34.94800
C  36.45900 2.93000 33.51400
C  36.55100 4.56800 35.55200
C  33.63800 1.96200 35.46700
C  32.83800 2.29400 36.70500
H  33.53400 3.23500 37.72700
N  37.62900 2.12800 30.69600
C  38.32200 2.12600 31.90400
C  39.73100 1.76200 31.65700
C  39.88200 1.71700 30.27100
C  38.55100 1.82300 29.69200
C  40.66900 1.49300 32.77300
C  41.21600 1.53800 29.51400
O  41.23600 1.50900 28.31500
C  42.45300 1.34900 30.30000
N  35.93300 2.37200 28.21600
C  37.09700 1.88100 27.67500
C  36.97400 1.96600 26.12500
C  35.34400 2.16900 25.95300
C  34.93600 2.59000 27.32400
C  37.83200 3.07500 25.50900
C  34.54800 0.84300 25.43600
C  33.14200 0.96900 24.78700
N  33.75000 3.05900 30.16100
C  33.05200 3.13200 28.98000
C  31.69100 3.44700 29.32700
C  31.62600 3.55200 30.72600
C  32.95700 3.31000 31.20000
C  30.49600 3.62100 28.37600
C  30.67100 3.93500 31.83000
O  29.47100 4.15500 31.86100
C  31.63600 3.66300 33.11400
C  31.47900 4.91000 33.86100
O  32.10400 5.93600 33.49000
O  30.70300 4.80700 35.01600
C  30.72700 5.99200 35.88700
H  38.45300 2.69600 34.01900
H  39.06500 1.28900 27.74400
H  32.85600 3.05600 26.89100
H  34.07400 4.12900 35.21800
H  36.18800 2.41000 35.59800
H  36.33200 4.77500 36.60000
H  36.28200 5.38800 34.88600
H  37.62700 4.48500 35.40300
H  34.33800 1.13700 35.60000
H  32.98800 1.54100 34.69900
H  32.61000 1.33200 37.16400
H  31.86600 2.60500 36.32000
H  40.24900 1.33400 33.76600
H  41.28600 2.39200 32.76400
H  41.33200 0.63600 32.66300
H  42.55500 2.20600 30.96600
H  43.27900 1.34800 29.59000
H  42.51000 0.43400 30.88900
H  37.16400 0.98100 25.69900
H  35.10500 3.04900 25.35600
H  37.31500 3.81100 24.89200
H  38.48800 2.52300 24.83600
H  38.42900 3.53900 26.29400
H  34.50500 0.12200 26.25200
H  35.19000 0.41500 24.66600
H  33.17800 0.84800 23.70400
H  32.62400 1.86800 25.11900
H  32.49600 0.21000 25.22900
H  29.55400 3.63800 28.92400
H  30.28100 2.83300 27.65500
H  30.43000 4.61200 27.92600
H  31.08800 2.94500 33.72400
H  29.95600 6.74700 35.73100
H  31.64900 6.57300 35.85900
H  30.59300 5.67600 36.92100
Mg 36.17800 48.42100 26.55300
C  36.40600 46.26900 29.40200
C  34.47400 50.68400 28.48300
C  35.46800 50.11500 23.69200
C  37.09600 45.62200 24.62300
N  35.36300 48.31600 28.61500
C  35.64600 47.46800 29.67900
C  35.36700 48.14500 31.06100
C  34.46800 49.39000 30.62500
C  34.76400 49.50500 29.12300
C  32.92700 49.24700 30.97200
C  36.74900 48.54700 31.78300
C  36.78500 48.33400 33.28900
H  36.52200 49.55600 34.12900
N  35.31100 50.25100 26.16700
C  34.64000 50.98100 27.11800
C  34.12000 52.16700 26.39500
C  34.39800 51.97500 25.05300
C  35.09300 50.73100 24.94300
C  33.45800 53.35600 27.12500
C  34.04000 52.92900 23.80600
O  34.28600 52.63900 22.64200
C  33.23000 54.16300 23.98200
N  36.27700 47.92400 24.39200
C  35.98100 48.85600 23.44600
C  36.05500 48.19600 22.05100
C  36.92900 46.88100 22.36700
C  36.79600 46.77400 23.92200
C  34.64700 47.95700 21.44900
C  38.36900 46.80500 21.80200
C  38.55800 45.84300 20.70500
N  36.76500 46.43000 26.82400
C  37.14800 45.35100 25.96000
C  37.51900 44.19900 26.62200
C  37.37700 44.50200 27.98600
C  36.85600 45.86200 28.09000
C  37.97600 42.91600 26.10200
C  37.51600 44.04200 29.37800
O  37.84700 42.94300 29.68500
C  37.07000 45.23900 30.31800
C  36.12300 44.72200 31.34100
O  34.95300 44.47000 31.10600
O  36.65400 44.73600 32.64700
C  35.55900 44.50100 33.66000
H  33.97500 51.44000 29.09200
H  35.06200 50.49000 22.75000
H  37.45300 44.82300 23.96900
H  34.76400 47.40100 31.58200
H  34.79900 50.28800 31.14500
H  32.70700 48.23800 31.32200
H  32.39500 49.38600 30.03100
H  32.57200 49.97600 31.70100
H  37.05100 49.57000 31.56200
H  37.49700 47.91700 31.30100
H  37.74500 47.88900 33.55300
H  36.06300 47.59200 33.63100
H  33.91100 54.31200 26.86200
H  33.49800 53.23400 28.20800
H  32.41200 53.31900 26.82200
H  32.36600 53.93300 24.60500
H  32.91200 54.57600 23.02500
H  33.75000 54.94200 24.53800
H  36.65400 48.79200 21.36200
H  36.45500 45.94000 22.08400
H  34.55500 48.26300 20.40700
H  33.93000 48.50700 22.05800
H  34.36500 46.90400 21.43200
H  39.16200 46.55200 22.50600
H  38.68400 47.79400 21.46900
H  39.59400 45.50700 20.76400
H  38.47600 46.35800 19.74800
H  37.89900 44.98300 20.82800
H  38.66600 42.36200 26.73700
H  38.46700 43.04900 25.13800
H  37.09500 42.27700 26.03900
H  38.00600 45.68600 30.65400
H  34.68600 45.13900 33.80000
H  36.03500 44.31400 34.62300
H  35.06000 43.55800 33.43600

