158

Mg 1.63200 8.42200 26.42700
C  1.74900 10.54100 29.08900
C  1.33600 5.69700 28.55600
C  2.06300 6.52200 23.79200
C  1.64500 11.42600 24.27800
N  1.49900 8.17000 28.57400
C  1.43900 9.17900 29.47100
C  1.29100 8.66400 30.93500
C  1.51800 7.11700 30.74200
C  1.45700 6.94500 29.21900
C  2.80500 6.51900 31.36700
C  -0.04800 9.12200 31.58300
C  -0.31100 8.62900 33.06300
H  0.87300 8.27900 33.97000
N  1.63400 6.48500 26.13600
C  1.43900 5.45700 27.17800
C  1.52900 4.14700 26.54600
C  1.87700 4.36400 25.23400
C  1.89400 5.84100 24.96700
C  1.16100 2.88700 27.32100
C  2.14900 3.38800 24.15900
O  2.50200 3.65200 23.00800
C  2.20100 1.86800 24.53200
N  1.86600 8.93700 24.37500
C  1.95000 7.90000 23.46500
C  2.01700 8.48700 22.02900
C  1.68200 9.95600 22.19400
C  1.71700 10.17700 23.71600
C  3.31400 8.16600 21.24000
C  0.32800 10.48900 21.64200
C  -0.84300 9.69700 22.19200
N  1.72800 10.55400 26.63100
C  1.80400 11.59300 25.64000
C  2.07700 12.79700 26.35900
C  2.09300 12.44900 27.75600
C  1.87900 11.07800 27.84000
C  2.26900 14.22300 25.86700
C  2.24900 12.93200 29.09400
O  2.51200 14.07700 29.52700
C  1.86800 11.77900 30.04000
C  2.89700 11.72900 31.15500
O  4.07000 11.31400 31.10500
O  2.31700 12.22400 32.26200
C  3.20100 12.16200 33.39600
H  1.25900 4.85700 29.24900
H  2.12000 5.97100 22.85100
H  1.55300 12.34100 23.68900
H  2.02600 9.04500 31.64400
H  0.69500 6.50500 31.11100
H  2.67900 5.48800 31.69800
H  3.07100 7.22700 32.15200
H  3.64900 6.49400 30.67800
H  -0.85300 8.85600 30.89900
H  0.01600 10.20800 31.65400
H  -0.97600 7.76800 32.98400
H  -0.99400 9.37500 33.46900
H  0.90500 3.07100 28.36500
H  1.90500 2.09100 27.33200
H  0.37200 2.32100 26.82600
H  1.26100 1.56200 24.99200
H  2.99700 1.72800 25.26300
H  2.58100 1.25900 23.71100
H  1.27400 7.84000 21.56200
H  2.43900 10.54000 21.67100
H  4.02700 8.98800 21.31100
H  3.01600 7.97700 20.20900
H  3.77000 7.22500 21.54700
H  0.40600 10.54200 20.55600
H  0.17300 11.53700 21.89600
H  -1.23400 10.06200 23.14100
H  -0.75100 8.61300 22.25300
H  -1.75800 9.85800 21.62100
H  1.67900 14.27400 24.95200
H  3.28600 14.45500 25.55300
H  1.94000 15.01600 26.53800
H  0.98300 12.09400 30.59400
H  4.05700 12.80600 33.19200
H  3.53500 11.14300 33.59600
H  2.70800 12.61000 34.25800
Mg 17.61000 -1.03700 28.25500
C  16.02000 1.03100 30.65400
C  19.27900 -2.55700 30.90100
C  19.52400 -2.42500 26.08500
C  16.13400 1.06000 25.75900
N  17.89300 -0.54400 30.44600
C  16.95500 0.14400 31.22200
C  17.22400 -0.05900 32.77900
C  18.37400 -1.12400 32.69000
C  18.55800 -1.43500 31.27300
C  19.62100 -0.75200 33.51600
C  16.04300 -0.58800 33.57200
C  15.63800 0.03500 34.90100
H  16.75600 0.17800 35.92900
N  19.06500 -2.42400 28.46000
C  19.56200 -3.03400 29.61500
C  20.53200 -4.12700 29.22800
C  20.60800 -4.04500 27.79600
C  19.74700 -2.83200 27.40700
C  21.18400 -5.05700 30.28900
C  21.55400 -4.85200 26.83200
O  21.61100 -4.65200 25.62900
C  22.56100 -5.76800 27.38800
N  17.76800 -0.76200 26.20300
C  18.75900 -1.38500 25.51500
C  18.78500 -1.01000 24.01700
C  17.68000 0.06900 23.94200
C  17.13000 0.13100 25.36200
C  20.09700 -0.51300 23.44100
C  16.64700 -0.12500 22.74700
C  16.77100 0.81000 21.50900
N  16.30000 0.71100 28.11800
C  15.70900 1.37700 27.03700
C  14.87900 2.52100 27.48400
C  14.93700 2.36500 28.90500
C  15.73600 1.24600 29.24800
C  14.14100 3.44200 26.54500
C  14.35700 2.88900 30.20200
O  13.47500 3.63900 30.48600
C  15.14600 2.05200 31.34000
C  16.03100 3.00700 32.07400
O  17.15200 3.33200 31.78100
O  15.29900 3.48700 33.13100
C  15.93800 4.18800 34.23400
H  19.62000 -3.12300 31.77000
H  20.17800 -2.83100 25.31100
H  15.72100 1.56400 24.88300
H  17.60100 0.87600 33.19400
H  18.12500 -2.10100 33.10300
H  19.38600 0.05200 34.21300
H  20.34800 -0.56500 32.72600
H  19.90200 -1.61700 34.11500
H  16.12400 -1.65600 33.77200
H  15.22600 -0.39200 32.87700
H  14.83400 -0.55900 35.33600
H  15.14000 0.98500 34.70600
H  22.22100 -4.79200 30.49800
H  21.17700 -6.09800 29.96700
H  20.79800 -4.88000 31.29300
H  22.18300 -6.33700 28.23700
H  23.44100 -5.20400 27.69900
H  22.73100 -6.40600 26.52100
H  18.52900 -1.94700 23.52200
H  18.19300 1.02900 23.87600
H  20.05700 0.54500 23.18200
H  20.37600 -1.05400 22.53700
H  20.84000 -0.57200 24.23600
H  15.61200 -0.01000 23.07100
H  16.81600 -1.13200 22.36700
H  17.66300 1.43600 21.49500
H  15.86500 1.40600 21.39900
H  16.79800 0.14000 20.64900
H  13.34000 2.79600 26.18900
H  14.94600 3.64300 25.83800
H  13.62700 4.29300 26.99300
H  14.43800 1.74000 32.10700
H  16.94200 4.53700 33.99000
H  15.89500 3.43900 35.02500
H  15.29600 4.93300 34.70400

