158

Mg 43.59800 3.92600 47.54400
C  41.78000 6.98500 47.26500
C  40.57000 2.34200 47.25600
C  45.11600 1.08100 46.67600
C  46.51100 5.74000 47.05100
N  41.40700 4.62100 47.05300
C  40.91100 5.90800 47.09000
C  39.41800 5.92800 47.07100
C  39.05900 4.38800 47.24600
C  40.44700 3.73100 47.16100
C  38.28900 3.98600 48.48100
C  38.75200 6.62500 45.83100
C  38.79200 5.80200 44.55100
H  38.92500 6.71500 43.35700
N  42.95400 1.90200 47.26600
C  41.65900 1.50100 47.17700
C  41.59700 0.09500 46.97600
C  42.90500 -0.41400 46.80600
C  43.70900 0.85700 46.99100
C  40.32200 -0.71000 46.78600
C  43.32700 -1.86600 46.59300
O  42.44000 -2.74200 46.59900
C  44.82800 -2.27500 46.55200
N  45.46700 3.47200 46.76300
C  45.97100 2.18500 46.64200
C  47.54700 2.12600 46.39500
C  47.84400 3.64900 46.73200
C  46.54200 4.34400 46.84400
C  48.36400 1.05000 47.28300
C  48.78900 4.27500 45.71700
C  50.14900 4.83700 46.22300
N  44.12500 5.92900 47.45800
C  45.35900 6.48900 47.23700
C  45.26300 7.98500 47.36000
C  43.87400 8.20100 47.46300
C  43.19600 6.90900 47.42100
C  46.37100 8.95000 47.29100
C  42.78300 9.22100 47.52400
O  42.79500 10.42900 47.75600
C  41.37700 8.47300 47.30100
C  40.38900 8.72200 48.39500
O  40.41900 8.20600 49.48000
O  39.32200 9.48300 47.88100
C  38.34500 9.82200 48.92000
H  39.58900 1.86400 47.24600
H  45.56700 0.13900 46.35500
H  47.39900 6.34400 46.85400
H  39.02500 6.45400 47.94100
H  38.47300 4.08800 46.37700
H  38.92400 3.73200 49.32900
H  37.54000 3.22600 48.25900
H  37.79900 4.91200 48.78300
H  39.41200 7.47600 45.66300
H  37.75200 7.02200 46.00700
H  37.81200 5.32400 44.53800
H  39.65000 5.14800 44.70800
H  40.43300 -1.66900 47.29100
H  40.09000 -0.94800 45.74700
H  39.48600 -0.19600 47.26000
H  45.42300 -1.84600 47.35800
H  45.34700 -1.96200 45.64600
H  44.82500 -3.36500 46.53600
H  47.53500 1.80300 45.35400
H  48.22400 3.84900 47.73400
H  48.03300 1.11200 48.32000
H  49.41000 1.35700 47.27600
H  48.26900 0.03400 46.89900
H  48.27700 5.08700 45.20000
H  49.06600 3.50100 45.00200
H  50.83300 4.02500 45.97400
H  50.10200 5.20500 47.24800
H  50.51200 5.69900 45.66400
H  46.13800 9.73500 48.01000
H  46.35900 9.48500 46.34100
H  47.32800 8.45400 47.45300
H  41.00900 8.90400 46.37000
H  38.22600 9.00900 49.63600
H  37.33400 9.77100 48.51500
H  38.57200 10.73500 49.47100
Mg -6.21100 25.21500 26.30700
C  -4.74300 27.10400 28.99900
C  -7.59600 23.07000 28.49300
C  -7.38900 23.42600 23.67200
C  -4.26400 27.21500 24.11600
N  -6.19300 25.19500 28.45300
C  -5.49300 25.98800 29.38700
C  -5.66900 25.45300 30.84900
C  -6.22700 23.97000 30.61700
C  -6.76000 24.11100 29.11000
C  -5.19600 22.92600 30.94600
C  -6.59300 26.37800 31.76200
C  -6.02700 26.86000 33.11900
H  -6.25700 26.04300 34.36900
N  -7.53800 23.67200 26.11800
C  -8.01400 22.94800 27.16900
C  -8.96800 21.94100 26.67200
C  -8.92700 22.02400 25.24200
C  -7.95500 23.09900 24.92000
C  -9.89200 21.23400 27.62300
C  -9.60500 21.18800 24.17600
O  -9.56400 21.50900 22.96900
C  -10.36800 19.99300 24.72100
N  -5.81000 25.27400 24.23800
C  -6.48900 24.45500 23.32900
C  -6.23000 24.91500 21.90000
C  -5.46100 26.24300 21.92300
C  -5.18600 26.27800 23.53400
C  -5.59800 23.79500 21.05800
C  -6.08000 27.46500 21.28000
C  -5.28300 28.14400 20.07500
N  -4.69000 26.79600 26.48100
C  -4.03200 27.48700 25.50600
C  -3.40100 28.65000 26.07700
C  -3.57600 28.49100 27.44900
C  -4.40700 27.39000 27.65500
C  -2.69800 29.74500 25.29900
C  -3.30200 29.12700 28.75500
O  -2.69700 30.15100 29.15500
C  -3.99300 28.14100 29.80200
C  -2.85800 27.42700 30.40900
O  -1.98600 26.89300 29.77500
O  -2.76800 27.69700 31.74700
C  -1.50800 27.40600 32.43500
H  -8.00200 22.35400 29.21100
H  -7.71600 22.91000 22.76600
H  -3.77200 27.89100 23.41400
H  -4.73000 25.41800 31.40100
H  -7.06300 23.82600 31.30100
H  -4.34600 23.31700 31.50600
H  -4.92300 22.39400 30.03500
H  -5.62000 22.19600 31.63500
H  -7.42200 25.79800 32.16700
H  -7.03700 27.18500 31.17900
H  -6.35900 27.88700 33.26500
H  -4.95200 26.74500 32.97700
H  -10.90400 21.00900 27.28500
H  -10.05200 21.69700 28.59600
H  -9.48900 20.26300 27.91100
H  -9.71500 19.45600 25.40900
H  -10.67400 19.36100 23.88700
H  -11.27300 20.27100 25.26100
H  -7.20800 25.02500 21.43200
H  -4.48300 26.02900 21.49200
H  -5.06800 23.07300 21.67800
H  -4.80400 24.20500 20.43300
H  -6.37100 23.34400 20.43600
H  -6.07700 28.23400 22.05300
H  -7.03800 27.15900 20.86100
H  -6.07100 28.02600 19.33100
H  -4.43500 27.58600 19.67800
H  -5.16300 29.21000 20.26500
H  -3.42100 30.53400 25.09500
H  -2.27300 29.44600 24.34100
H  -1.81700 30.06800 25.85500
H  -4.48600 28.47400 30.71500
H  -0.64600 27.99700 32.12500
H  -1.35800 26.34200 32.25400
H  -1.68400 27.60500 33.49200

