158

Mg 41.38000 8.85400 29.82400
C  43.56900 9.98900 32.36800
C  39.43700 7.51000 32.47200
C  39.60100 7.26800 27.57400
C  43.81900 9.64600 27.54600
N  41.49400 8.68300 32.18700
C  42.46700 9.30000 32.90500
C  42.05700 9.25000 34.43400
C  40.97800 8.20400 34.46300
C  40.60300 8.08500 32.93800
C  41.28500 6.90000 35.24400
C  41.63800 10.65800 34.96900
C  42.34300 10.94200 36.34100
H  41.63000 11.80800 37.39000
N  39.70300 7.62400 29.97600
C  38.99600 7.28900 31.15900
C  37.74600 6.69500 30.70000
C  37.74200 6.56800 29.27000
C  39.05400 7.15000 28.86400
C  36.53800 6.23100 31.65300
C  36.79400 6.02100 28.30600
O  36.88300 6.09100 27.09900
C  35.60000 5.43400 28.90300
N  41.74100 8.34500 27.89200
C  40.85200 7.69800 27.14500
C  41.21600 7.80000 25.67600
C  42.50900 8.56400 25.61500
C  42.70800 8.92000 27.14100
C  41.19800 6.52900 24.88600
C  42.36000 9.83100 24.64200
C  41.67900 11.13100 25.12900
N  43.29500 9.72500 29.84100
C  44.16900 9.98300 28.85600
C  45.29600 10.72000 29.31700
C  45.13200 10.74600 30.73900
C  43.90300 10.07300 30.99300
C  46.47400 11.06400 28.53500
C  45.81600 11.19900 31.99200
O  46.80800 11.86600 32.16500
C  44.73300 10.76400 33.05900
C  45.40800 9.99700 34.14600
O  45.56100 8.79900 34.16600
O  45.71700 10.83100 35.18900
C  46.27200 10.19000 36.38200
H  38.82300 7.15800 33.30400
H  38.97200 6.92700 26.74800
H  44.64500 9.86800 26.86700
H  42.91300 8.95000 35.03900
H  40.07300 8.57000 34.94800
H  41.03100 6.07800 34.57500
H  40.67300 6.89000 36.14600
H  42.35500 6.89600 35.45200
H  40.57600 10.86900 35.09700
H  41.99800 11.37000 34.22600
H  43.28000 11.40700 36.03400
H  42.63300 9.96200 36.72000
H  36.54700 5.15300 31.48600
H  35.56000 6.64500 31.40900
H  36.90300 6.54800 32.62900
H  35.82100 4.56000 29.51600
H  35.00200 5.12400 28.04600
H  34.89500 6.14200 29.33700
H  40.46400 8.46100 25.24600
H  43.38300 7.97000 25.34900
H  40.42800 6.36500 24.13200
H  41.14300 5.69900 25.59000
H  42.06900 6.30500 24.27000
H  41.89600 9.45000 23.73200
H  43.37700 10.15200 24.41300
H  40.90300 11.17800 24.36500
H  42.37200 11.95000 24.93300
H  41.22600 11.16200 26.11900
H  46.26700 11.93000 27.90700
H  46.67400 10.28800 27.79600
H  47.38100 11.12900 29.13600
H  44.24700 11.59100 33.57600
H  46.77700 9.24300 36.19200
H  45.37700 10.00800 36.97800
H  46.91800 10.89100 36.91000
Mg 16.93700 52.34300 26.90200
C  18.95700 50.64700 29.12500
C  14.65000 52.97000 29.28600
C  14.91500 54.03000 24.53000
C  18.90500 51.28100 24.22600
N  16.88300 51.82500 28.88400
C  17.75100 51.17600 29.63800
C  17.41800 51.42800 31.14100
C  15.92200 51.78700 31.13000
C  15.81300 52.22500 29.68300
C  15.04000 50.74600 31.68700
C  18.38200 52.52400 31.79000
C  18.81300 52.10500 33.19800
H  17.83400 51.46100 34.18700
N  15.03100 53.33000 27.00300
C  14.29600 53.44100 28.10200
C  13.18200 54.24300 27.78700
C  13.24900 54.65400 26.42500
C  14.47900 53.99700 25.93000
C  12.04700 54.52600 28.80700
C  12.39100 55.60500 25.64400
O  12.60500 55.88100 24.45800
C  11.07000 56.06800 26.31800
N  16.91200 52.55800 24.64700
C  15.98200 53.28500 23.98300
C  16.10000 53.13900 22.44100
C  17.58700 52.47400 22.34000
C  17.82500 52.07000 23.81700
C  15.08400 52.14000 21.78000
C  18.68600 53.41900 21.88200
C  19.62800 52.87900 20.81900
N  18.61100 51.15800 26.59600
C  19.28300 50.71500 25.48900
C  20.37500 49.81400 25.92700
C  20.29600 49.82700 27.31300
C  19.22300 50.67200 27.67600
C  21.36100 49.14500 24.92800
C  20.94600 49.22400 28.52800
O  21.88400 48.48800 28.80800
C  20.14000 49.91100 29.75100
C  19.68800 48.96600 30.80300
O  18.75400 48.13600 30.71100
O  20.36200 49.18600 31.97000
C  19.93500 48.39600 33.17300
H  14.08100 53.11900 30.20600
H  14.27900 54.55800 23.81600
H  19.43900 50.92500 23.34200
H  17.50500 50.49000 31.68900
H  15.66200 52.72800 31.61500
H  14.65800 51.01600 32.67200
H  15.51500 49.78400 31.87900
H  14.16800 50.65500 31.04000
H  17.95500 53.52000 31.67900
H  19.22100 52.55000 31.09600
H  19.17900 52.98700 33.72400
H  19.68800 51.46100 33.11100
H  11.08100 54.29000 28.36200
H  12.12500 55.55400 29.16200
H  12.24500 53.90300 29.67900
H  10.64900 56.60200 25.46600
H  11.35500 56.80000 27.07300
H  10.47300 55.18600 26.54900
H  15.94300 54.16400 22.10400
H  17.50900 51.58600 21.71200
H  15.58300 51.58100 20.98800
H  14.23600 52.58500 21.25800
H  14.75100 51.42800 22.53500
H  19.23800 53.71100 22.77500
H  18.19500 54.22000 21.33100
H  20.61600 52.65900 21.22400
H  19.82500 53.58100 20.00900
H  19.25800 51.97800 20.33100
H  21.01100 48.87200 23.93300
H  21.47300 48.19700 25.45400
H  22.37200 49.54500 24.99500
H  20.83600 50.61100 30.21300
H  20.14000 49.04400 34.02500
H  20.48700 47.49300 33.43300
H  18.86000 48.21700 33.14900

