158

Mg 24.68400 -7.11000 46.30100
C  26.83600 -4.81100 44.82000
C  22.18300 -6.22900 44.16600
C  23.06100 -9.70900 47.61200
C  27.82200 -8.42900 47.85000
N  24.67300 -5.77900 44.71300
C  25.58100 -4.83300 44.29400
C  24.98700 -3.86300 43.31800
C  23.43200 -4.30100 43.29700
C  23.40600 -5.52900 44.14700
C  22.54700 -3.20200 43.87900
C  25.77200 -4.00000 41.88900
C  26.04500 -2.62500 41.19900
H  24.96900 -2.25100 40.21700
N  22.86300 -7.84100 45.94200
C  21.96600 -7.37000 45.01300
C  20.73000 -8.04800 45.15400
C  20.91600 -9.06500 46.12800
C  22.32600 -8.91900 46.65800
C  19.44300 -7.78500 44.31300
C  19.81400 -9.99600 46.63000
O  18.67800 -9.88700 46.20600
C  20.07300 -11.07500 47.67300
N  25.31000 -8.72000 47.64900
C  24.44200 -9.67800 48.02200
C  25.11000 -10.83000 48.84100
C  26.63900 -10.58700 48.58000
C  26.59600 -9.06700 48.13500
C  24.57700 -10.95200 50.31700
C  27.21200 -11.48300 47.49000
C  27.68200 -12.92100 47.84000
N  26.84300 -6.69500 46.41800
C  27.92800 -7.30800 47.02300
C  29.11600 -6.52600 46.87800
C  28.71500 -5.43400 46.07500
C  27.37100 -5.61900 45.82500
C  30.40800 -6.74800 47.50500
C  29.14100 -4.24100 45.41200
O  30.25300 -3.71200 45.36100
C  27.97300 -3.72300 44.59300
C  27.55400 -2.35500 45.03700
O  27.34900 -1.37400 44.32600
O  27.37900 -2.26100 46.43000
C  27.20700 -0.92100 47.06500
H  21.34400 -5.78500 43.62600
H  22.62900 -10.59500 48.08200
H  28.62700 -8.93800 48.38400
H  25.15700 -2.85200 43.68800
H  23.12500 -4.44100 42.26000
H  23.10800 -2.27500 44.00300
H  22.09000 -3.52100 44.81600
H  21.78300 -2.96400 43.13900
H  24.98700 -4.48200 41.30600
H  26.60200 -4.70400 41.83500
H  26.99100 -2.60800 40.65800
H  26.05100 -1.89200 42.00600
H  19.79600 -7.59700 43.29900
H  19.00300 -6.85500 44.67200
H  18.81400 -8.65100 44.10300
H  20.21200 -10.59700 48.64300
H  20.88200 -11.70100 47.29900
H  19.18600 -11.70200 47.76100
H  24.94900 -11.83200 48.44300
H  27.21200 -10.53300 49.50600
H  23.54100 -11.29000 50.32700
H  24.54700 -10.02300 50.88600
H  25.24500 -11.61000 50.87400
H  27.96900 -10.89100 46.97700
H  26.42800 -11.63600 46.74800
H  28.34600 -13.40200 47.12100
H  26.86100 -13.60900 48.04100
H  28.33200 -12.90500 48.71400
H  30.98000 -7.52600 46.99900
H  30.23300 -7.05900 48.53500
H  31.04000 -5.86000 47.46300
H  28.25000 -3.73900 43.53900
H  26.50400 -0.98900 47.89600
H  26.72900 -0.18600 46.41800
H  28.22300 -0.69900 47.39000
Mg 15.86300 52.52800 25.36600
C  17.86200 51.24300 28.10100
C  13.57900 53.50000 27.56500
C  14.15800 53.47800 22.75000
C  18.38100 51.07000 23.23300
N  15.79200 52.41800 27.66200
C  16.73300 51.90600 28.60800
C  16.31200 52.11900 30.01000
C  14.84300 52.70700 29.79600
C  14.70600 52.92100 28.23700
C  13.71000 51.82500 30.38400
C  17.30000 53.16600 30.60700
C  16.84300 53.77900 31.96100
H  15.92700 53.01400 32.91700
N  14.10500 53.36200 25.21000
C  13.26200 53.74400 26.22000
C  12.07400 54.40200 25.66400
C  12.23900 54.40600 24.19600
C  13.52700 53.73600 23.98800
C  11.06700 55.05400 26.59200
C  11.37900 54.92300 23.11900
O  11.66800 54.78700 21.95100
C  10.07500 55.59800 23.52800
N  16.26900 52.31400 23.23900
C  15.35000 52.80600 22.41600
C  15.77300 52.61100 20.89000
C  17.29400 52.15700 21.09400
C  17.35600 51.75800 22.56200
C  14.97500 51.72700 20.06800
C  18.27700 53.36100 20.95600
C  19.13500 53.25900 19.64200
N  17.70700 51.40200 25.57700
C  18.57200 50.93600 24.60400
C  19.66800 50.33900 25.23200
C  19.44100 50.48300 26.60200
C  18.25800 51.15400 26.73700
C  20.94800 49.66400 24.62000
C  19.97500 50.07300 27.88400
O  20.91900 49.30800 28.16000
C  19.03600 50.76100 28.92800
C  18.53300 49.72100 29.89100
O  17.85600 48.74500 29.69300
O  18.98600 49.92500 31.16400
C  18.20300 49.12000 32.15800
H  12.79700 53.79900 28.26600
H  13.67500 53.73200 21.80400
H  19.14900 50.71900 22.54000
H  16.20200 51.15000 30.49700
H  14.63900 53.69100 30.21900
H  14.01100 50.98100 31.00400
H  13.04900 51.37000 29.64600
H  12.99200 52.43100 30.93800
H  17.33500 54.00600 29.91300
H  18.28800 52.77800 30.85200
H  16.38600 54.75300 31.78700
H  17.70100 53.93000 32.61600
H  10.05800 54.71900 26.35300
H  11.04600 56.13800 26.48400
H  11.21700 54.95100 27.66700
H  9.35000 54.85700 23.86500
H  9.59500 56.14400 22.71600
H  10.24600 56.30700 24.33800
H  15.82300 53.59500 20.42300
H  17.59000 51.28300 20.51400
H  14.41200 51.03600 20.69600
H  15.63400 51.19600 19.38100
H  14.34400 52.28100 19.37200
H  19.01700 53.39000 21.75500
H  17.85300 54.36500 20.96200
H  18.60900 52.59000 18.96100
H  20.17000 52.93000 19.73500
H  19.10000 54.26900 19.23300
H  21.71600 49.56200 25.38700
H  21.34600 50.31100 23.83700
H  20.70500 48.66600 24.25600
H  19.53800 51.52700 29.51900
H  18.66800 49.32400 33.12300
H  18.25000 48.08800 31.81000
H  17.17600 49.47900 32.22000

