158

Mg 24.89200 -6.51500 47.94900
C  27.31700 -4.32400 46.81800
C  22.64600 -5.23600 45.60700
C  22.96500 -9.15200 48.69100
C  27.48700 -8.06300 50.12100
N  25.00800 -4.90200 46.52100
C  26.06900 -4.12400 46.17600
C  25.68700 -3.12800 45.09600
C  24.17800 -3.34900 44.85200
C  23.89500 -4.54600 45.76700
C  23.24400 -2.07700 45.05400
C  26.57900 -3.22400 43.78700
C  27.39800 -1.99400 43.31700
H  27.01500 -1.50100 41.89400
N  22.98600 -7.04600 47.24500
C  22.24800 -6.40400 46.35700
C  20.97600 -7.10000 46.29700
C  21.04500 -8.28600 47.10100
C  22.37200 -8.20200 47.73000
C  19.89500 -6.60000 45.36700
C  19.87700 -9.33300 47.29400
O  18.89200 -9.34200 46.57200
C  19.98600 -10.50500 48.31500
N  25.14700 -8.26500 49.27900
C  24.15600 -9.10900 49.41200
C  24.35000 -10.23300 50.44000
C  25.77800 -9.85600 50.94900
C  26.19500 -8.66700 50.06700
C  23.24500 -10.37400 51.49900
C  26.74000 -11.10500 50.95800
C  27.10000 -11.57400 52.36600
N  26.99000 -6.30100 48.45200
C  27.81700 -6.92100 49.35900
C  29.06800 -6.15900 49.36000
C  28.90900 -5.13600 48.41700
C  27.66500 -5.31700 47.80300
C  30.40200 -6.54800 50.18800
C  29.55500 -3.96100 47.86300
O  30.67000 -3.51300 48.07300
C  28.55700 -3.47900 46.77500
C  28.19100 -2.04700 47.18800
O  27.41600 -1.77200 48.06900
O  28.91700 -1.12700 46.38100
C  28.59300 0.28700 46.72300
H  22.02000 -4.91300 44.77300
H  22.34600 -10.01000 48.96400
H  28.24600 -8.36200 50.84700
H  25.74400 -2.17700 45.62600
H  23.96500 -3.70400 43.84400
H  23.25500 -1.54500 44.10300
H  23.70900 -1.44300 45.80900
H  22.23100 -2.26700 45.40800
H  25.85200 -3.34200 42.98400
H  27.07900 -4.19100 43.73100
H  28.46000 -2.24100 43.31100
H  27.24200 -1.15000 43.98900
H  19.93600 -5.51000 45.38800
H  18.91400 -6.91000 45.72600
H  20.16600 -6.93400 44.36600
H  20.67100 -11.19000 47.81500
H  18.95700 -10.86600 48.29800
H  20.27500 -10.11400 49.29100
H  24.34100 -11.16100 49.86900
H  25.51900 -9.42000 51.91400
H  23.66300 -10.30000 52.50200
H  22.70400 -11.32100 51.52200
H  22.48200 -9.60200 51.39200
H  27.60200 -10.88600 50.32900
H  26.18200 -11.90000 50.46400
H  26.80600 -10.97300 53.22600
H  28.18200 -11.55100 52.49300
H  26.84700 -12.62300 52.52000
H  30.26100 -6.14200 51.18900
H  31.26300 -6.24200 49.59300
H  30.45900 -7.63500 50.22700
H  28.95200 -3.42900 45.76000
H  28.84200 0.31600 47.78400
H  27.51200 0.40800 46.66000
H  29.00600 0.96300 45.97500
Mg 0.48900 43.26400 25.98600
C  2.86600 43.02300 28.44200
C  -1.91000 42.09800 28.05500
C  -1.56400 43.04700 23.24700
C  3.21100 43.99100 23.62400
N  0.57200 42.57500 27.99100
C  1.53900 42.76700 28.86100
C  1.01000 42.69900 30.30200
C  -0.42100 42.11900 30.10300
C  -0.63400 42.19600 28.61100
C  -0.50400 40.58300 30.50700
C  1.14200 44.01400 31.14100
C  1.23800 43.96600 32.66200
H  0.86300 42.60000 33.29100
N  -1.53300 42.73400 25.73500
C  -2.33600 42.37900 26.71900
C  -3.71900 42.17900 26.15100
C  -3.61900 42.43800 24.70600
C  -2.16800 42.72700 24.48500
C  -4.98000 41.86600 27.01500
C  -4.62300 42.35500 23.72600
O  -4.44300 42.76700 22.61400
C  -5.96800 41.87700 24.12300
N  0.81300 43.37700 23.81300
C  -0.25500 43.38600 22.93600
C  0.16200 43.84800 21.51100
C  1.70800 44.08300 21.62300
C  1.93300 43.83200 23.11600
C  -0.15400 42.95400 20.26400
C  2.25900 45.46800 21.12000
C  2.33100 46.67100 22.00600
N  2.60300 43.51800 25.97300
C  3.53300 43.81600 24.98700
C  4.85200 43.81300 25.61000
C  4.64500 43.52100 26.93000
C  3.26400 43.31300 27.11900
C  6.12300 43.92500 24.85900
C  5.30500 43.23500 28.16500
O  6.49600 43.07800 28.46800
C  4.15500 43.05000 29.24900
C  4.43100 41.87200 30.07400
O  4.17900 40.70900 29.79500
O  4.86900 42.30600 31.30000
C  5.10800 41.35300 32.36500
H  -2.61900 41.66300 28.76200
H  -2.21000 43.13900 22.37100
H  3.98800 44.21500 22.89100
H  1.55900 41.94300 30.86400
H  -1.22100 42.63100 30.63600
H  0.40400 40.33100 31.05400
H  -0.48600 39.87100 29.68200
H  -1.43300 40.38500 31.04200
H  0.29400 44.62900 30.83900
H  2.01300 44.53600 30.74600
H  0.78400 44.78700 33.21600
H  2.29400 44.03200 32.92600
H  -4.86700 41.80600 28.09700
H  -5.25000 40.86100 26.68800
H  -5.78900 42.58400 26.88000
H  -5.83000 40.90200 24.58900
H  -6.59800 41.77500 23.23900
H  -6.46000 42.55500 24.82000
H  -0.29000 44.82900 21.36300
H  2.31700 43.34300 21.10400
H  -0.59900 41.98500 20.49300
H  0.70200 42.89300 19.59300
H  -0.88800 43.55100 19.72300
H  1.72700 45.78800 20.22300
H  3.29500 45.32400 20.81200
H  3.29000 46.73900 22.52000
H  1.61000 46.66400 22.82300
H  2.25500 47.50400 21.30800
H  6.31500 44.87300 24.35600
H  6.22500 43.24400 24.01500
H  6.86100 43.66900 25.62000
H  4.05400 43.98100 29.80600
H  5.34100 41.81300 33.32500
H  5.82500 40.57900 32.09200
H  4.20600 40.77900 32.57900

