158

Mg 0.53700 7.52900 26.03100
C  1.24700 9.40800 28.84800
C  0.30200 4.76600 28.09000
C  0.29200 5.57100 23.31400
C  1.29100 10.32500 24.04800
N  0.88800 7.17200 28.25400
C  1.10600 8.07000 29.21800
C  0.99200 7.50600 30.64700
C  0.89200 5.96900 30.31500
C  0.61700 5.99100 28.79200
C  2.08200 5.02400 30.61800
C  -0.28200 8.08300 31.35200
C  -0.30600 8.04400 32.89800
H  0.93700 7.62100 33.69400
N  0.17900 5.39700 25.75200
C  0.13600 4.47500 26.73500
C  -0.20000 3.23800 26.11000
C  -0.04600 3.40100 24.68500
C  0.14400 4.82900 24.52800
C  -0.54000 1.98600 26.94900
C  -0.12700 2.37100 23.55400
O  -0.07000 2.73600 22.34800
C  -0.65400 0.98200 23.91100
N  0.81300 7.82200 24.02800
C  0.52900 6.88300 23.07800
C  0.44900 7.50700 21.66100
C  0.52500 9.11500 21.93900
C  0.99500 9.06300 23.42100
C  1.40000 6.86300 20.60900
C  -0.86100 9.81800 21.82600
C  -0.88100 11.21700 21.08500
N  1.18800 9.52000 26.32200
C  1.46000 10.53400 25.43700
C  1.70200 11.81600 26.17800
C  1.62300 11.40500 27.49100
C  1.26900 10.01700 27.57600
C  1.83900 13.24100 25.64900
C  1.74700 11.77400 28.89400
O  1.98300 12.92500 29.29400
C  1.34900 10.59100 29.78800
C  2.42300 10.55800 30.77600
O  3.59200 10.21200 30.56900
O  1.99700 10.95600 31.95900
C  3.06800 11.26400 32.92600
H  0.15800 3.92400 28.77000
H  0.11100 4.97200 22.42000
H  1.38600 11.09900 23.28400
H  1.94400 7.83100 31.06700
H  -0.01700 5.67500 30.84000
H  2.56200 5.51500 31.46500
H  2.67800 4.87900 29.71700
H  1.62700 4.06000 30.84400
H  -1.12000 7.44400 31.07700
H  -0.47600 9.13500 31.14200
H  -0.99600 7.20300 32.97200
H  -0.66000 9.02900 33.20300
H  -0.11700 1.10000 26.47600
H  -1.62200 1.85400 26.95300
H  -0.10900 2.02600 27.95000
H  -0.94900 0.36400 23.06200
H  -1.57700 1.19900 24.44800
H  0.07100 0.38000 24.46000
H  -0.54900 7.36900 21.24600
H  1.35000 9.55000 21.37500
H  1.81500 5.93400 21.00000
H  2.24300 7.52700 20.42300
H  0.85400 6.61900 19.69700
H  -1.22000 10.01700 22.83600
H  -1.58600 9.20900 21.28600
H  -1.41300 11.05200 20.14800
H  0.15100 11.53000 20.93100
H  -1.38300 11.89300 21.77800
H  1.89400 13.37000 24.56800
H  2.67500 13.74500 26.13300
H  0.93100 13.70400 26.03700
H  0.40800 10.83700 30.27900
H  3.89900 11.79300 32.46000
H  3.35400 10.37500 33.48800
H  2.63300 11.87000 33.72100
Mg 43.22400 4.02900 47.22800
C  41.05200 6.68000 47.25900
C  40.40900 1.85500 47.29900
C  45.30300 1.40900 46.95300
C  45.88800 6.19300 46.91000
N  41.01500 4.27500 47.43900
C  40.40200 5.47000 47.33900
C  38.82700 5.25800 47.24600
C  38.61700 3.70200 47.34500
C  40.09300 3.22000 47.53000
C  37.65400 3.22100 48.47700
C  38.08900 5.84700 46.01500
C  38.75900 5.49800 44.62400
H  38.30900 6.30400 43.28500
N  42.89900 1.97100 47.13300
C  41.69100 1.26600 47.11800
C  41.97800 -0.07700 46.90000
C  43.39700 -0.26800 46.80200
C  43.92300 1.09400 46.98700
C  40.85800 -1.12000 46.73600
C  44.12000 -1.58500 46.56900
O  43.52900 -2.64000 46.38400
C  45.53800 -1.70200 46.48500
N  45.29600 3.76000 46.75900
C  45.95000 2.62500 46.86800
C  47.45800 2.79400 46.64600
C  47.61500 4.35700 46.79100
C  46.16400 4.82000 46.73900
C  48.34700 1.82600 47.44700
C  48.51400 5.08300 45.74900
C  49.64600 4.20600 45.15100
N  43.53400 6.10600 47.01700
C  44.62300 6.88800 46.97200
C  44.31100 8.34300 46.91100
C  42.92700 8.25700 47.06600
C  42.49900 6.87500 47.17600
C  45.21400 9.57500 46.90900
C  41.75600 9.10800 47.29400
O  41.63200 10.33100 47.34600
C  40.47500 8.11800 47.28000
C  39.61700 8.51100 48.44900
O  39.77600 8.03200 49.56600
O  38.51200 9.23100 48.09000
C  37.40300 9.32600 49.09000
H  39.48800 1.26900 47.24900
H  46.07700 0.66000 46.76900
H  46.80400 6.78300 46.83200
H  38.30300 5.63300 48.12500
H  38.27200 3.22700 46.42600
H  38.03600 2.38000 49.05500
H  36.72900 2.93800 47.97500
H  37.35100 3.98200 49.19700
H  37.97400 6.93000 46.06100
H  37.13100 5.32800 46.04500
H  38.61700 4.42600 44.48400
H  39.83100 5.61300 44.78000
H  40.67200 -1.23100 45.66800
H  39.97800 -0.72800 47.24500
H  41.12600 -2.05000 47.23800
H  46.04500 -1.70100 47.45000
H  45.94600 -1.00500 45.75300
H  45.75000 -2.67000 46.03200
H  47.64400 2.59700 45.59000
H  47.97500 4.72300 47.75200
H  48.84300 1.13200 46.76700
H  47.78100 1.23000 48.16200
H  49.06000 2.43300 48.00500
H  49.07700 5.87500 46.24300
H  47.96300 5.44300 44.88000
H  50.53200 4.84100 45.13100
H  49.29100 3.82300 44.19500
H  49.93000 3.43500 45.86700
H  45.32000 10.03200 47.89300
H  44.74800 10.33300 46.28100
H  46.13500 9.21600 46.45000
H  40.04900 8.18900 46.27900
H  37.47300 10.30100 49.57200
H  37.49800 8.62100 49.91600
H  36.43300 9.26800 48.59700

