158

Mg -0.03200 7.92900 24.76700
C  0.87700 9.34100 27.83100
C  0.30800 4.83800 26.40300
C  -0.58600 6.32900 21.89900
C  0.16000 10.93200 23.20100
N  0.77700 7.23800 26.90500
C  0.66800 7.93600 28.05200
C  0.83800 7.16100 29.35200
C  0.78000 5.75300 28.78100
C  0.55100 5.95900 27.27200
C  2.11700 4.96800 29.07000
C  -0.25900 7.54600 30.35900
C  -0.39000 6.89700 31.77200
H  -0.18900 7.69100 33.04500
N  -0.06800 5.84400 24.16700
C  0.04400 4.78800 24.99000
C  -0.04000 3.53500 24.20200
C  -0.32300 3.98000 22.84600
C  -0.36300 5.41600 22.95400
C  0.17100 2.12300 24.72000
C  -0.51600 3.19500 21.51000
O  -0.63000 3.66500 20.41100
C  -0.35400 1.72900 21.62200
N  -0.35900 8.58600 22.83700
C  -0.58200 7.73100 21.82900
C  -0.77200 8.44900 20.49300
C  -0.75600 9.96200 21.04100
C  -0.19500 9.85800 22.43700
C  0.21400 7.98500 19.35900
C  -2.13300 10.63200 20.98000
C  -2.43600 11.58000 19.87700
N  0.37200 9.78600 25.31900
C  0.52000 10.95500 24.55300
C  1.14300 11.93900 25.41100
C  1.22400 11.35000 26.69000
C  0.80100 10.05200 26.60400
C  1.38600 13.39200 25.11100
C  1.54500 11.76300 28.10800
O  1.82400 12.81600 28.67100
C  1.30400 10.45500 28.83300
C  2.66600 10.03500 29.39300
O  3.55700 9.58700 28.74000
O  2.56500 9.99900 30.78200
C  3.57900 9.21500 31.40700
H  0.37700 3.86200 26.88700
H  -0.74600 5.94400 20.89000
H  0.26800 11.88400 22.67700
H  1.83600 7.41900 29.70800
H  -0.06400 5.15800 29.13200
H  2.76700 5.09800 28.20500
H  1.92700 3.90300 29.20100
H  2.59000 5.19400 30.02500
H  -1.18000 7.42900 29.78800
H  -0.02000 8.60100 30.49300
H  0.14700 5.94800 31.77600
H  -1.44400 6.62500 31.73400
H  0.15300 2.01700 25.80500
H  1.14100 1.72500 24.42000
H  -0.70500 1.60700 24.32600
H  0.44500 1.53300 22.33800
H  0.01100 1.43700 20.63700
H  -1.22000 1.17100 21.97700
H  -1.77500 8.11200 20.23100
H  -0.06000 10.53400 20.42800
H  0.97100 7.31200 19.76200
H  0.73300 8.88500 19.02800
H  -0.42600 7.66700 18.53600
H  -2.25700 11.23100 21.88200
H  -2.93000 9.89400 21.07100
H  -1.74100 11.31400 19.08000
H  -2.18900 12.59600 20.18600
H  -3.48400 11.45900 19.60000
H  1.67500 13.49700 24.06500
H  2.24800 13.66800 25.71900
H  0.61600 14.11500 25.37900
H  0.65600 10.72200 29.66800
H  3.32700 9.11900 32.46300
H  4.46800 9.84300 31.34300
H  3.83600 8.29600 30.88100
Mg 10.03600 47.86700 25.78100
C  8.00800 48.27800 28.70200
C  12.58300 49.41800 27.55500
C  11.97700 47.77200 23.02100
C  7.28400 47.07500 23.92500
N  10.17000 48.87200 27.90600
C  9.31800 48.67300 28.93000
C  9.99400 49.15200 30.23800
C  11.37500 49.77900 29.79400
C  11.40400 49.29400 28.32700
C  11.55800 51.31600 29.81700
C  10.17900 48.03400 31.34700
C  9.62000 48.24800 32.76400
H  9.41700 46.93500 33.57500
N  12.02800 48.53900 25.36700
C  12.91900 49.11200 26.19800
C  14.21800 49.17400 25.55600
C  14.02600 48.85600 24.15800
C  12.67300 48.33700 24.15600
C  15.48900 49.55800 26.30800
C  14.95900 48.86000 22.90100
O  14.61200 48.60800 21.76900
C  16.41600 49.20200 23.14300
N  9.71300 47.48900 23.74400
C  10.65500 47.35600 22.85300
C  10.13500 46.86900 21.49200
C  8.56200 47.12200 21.68900
C  8.53800 47.13700 23.20300
C  10.62000 47.59700 20.20400
C  7.56400 46.04600 21.11600
C  6.33700 46.55000 20.46000
N  8.04900 47.58700 26.18000
C  6.98900 47.32300 25.29500
C  5.74200 47.46400 26.00100
C  6.10400 47.76200 27.34000
C  7.53300 47.87400 27.36500
C  4.34900 47.20500 25.51400
C  5.52900 47.95700 28.65300
O  4.40300 47.86700 29.02400
C  6.76100 48.13200 29.62600
C  6.86400 47.00800 30.59400
O  7.45200 45.95500 30.49600
O  5.89600 47.18000 31.55500
C  5.61100 46.09900 32.44600
H  13.46300 49.79600 28.08100
H  12.58900 47.66600 22.12200
H  6.38500 46.87300 23.33900
H  9.44300 49.95800 30.72200
H  12.26500 49.33400 30.23900
H  11.49400 51.57200 30.87400
H  10.80200 51.74100 29.15700
H  12.62100 51.46700 29.62600
H  11.22000 47.87900 31.63100
H  9.94400 47.08500 30.86600
H  8.66200 48.76200 32.68800
H  10.26600 49.00400 33.21000
H  15.32400 50.03600 27.27400
H  16.19400 50.20500 25.78700
H  15.89500 48.57300 26.54000
H  16.36700 50.11100 23.74200
H  16.96100 49.46000 22.23500
H  16.86000 48.35600 23.66800
H  10.25100 45.78700 21.42100
H  8.14900 48.09600 21.42500
H  11.07500 48.56300 20.42300
H  9.84800 47.86900 19.48400
H  11.36000 47.05000 19.62100
H  7.31300 45.39900 21.95600
H  8.19200 45.51000 20.40500
H  5.55700 45.96900 20.95200
H  6.44200 46.22600 19.42500
H  6.04900 47.59500 20.57800
H  4.22900 46.13300 25.35700
H  4.29400 47.79800 24.60200
H  3.60800 47.60000 26.20900
H  6.58100 49.08200 30.13000
H  5.45600 46.45500 33.46400
H  6.46200 45.45200 32.65900
H  4.68700 45.56100 32.23100

