158

Mg 47.43500 15.40200 28.76300
C  45.26400 15.05100 31.39800
C  49.11500 17.79400 30.58700
C  49.52400 15.86200 26.14900
C  45.14500 13.84200 26.64900
N  47.09600 16.43300 30.75100
C  46.30500 15.89100 31.74400
C  46.50600 16.57400 33.08100
C  47.58400 17.60900 32.70800
C  48.00400 17.29900 31.30100
C  47.26900 19.02900 32.98600
C  46.89100 15.52300 34.15300
C  47.68500 15.98400 35.34600
H  47.14900 17.06400 36.26100
N  49.09600 16.58200 28.41100
C  49.66300 17.44100 29.28800
C  51.01600 17.74800 28.86200
C  51.17200 17.20100 27.56900
C  49.89300 16.48700 27.33600
C  51.99500 18.47400 29.76600
C  52.38000 17.20600 26.60800
O  52.41000 16.62200 25.51400
C  53.59900 18.05100 26.88400
N  47.39500 14.90700 26.67600
C  48.37200 15.16000 25.80900
C  48.10000 14.51600 24.39500
C  46.67000 13.97800 24.58500
C  46.29800 14.29300 26.06300
C  48.23000 15.62900 23.33200
C  46.41600 12.55900 24.08900
C  47.05500 11.52200 25.07200
N  45.55800 14.59200 28.93700
C  44.73700 13.93000 28.02300
C  43.51100 13.49300 28.68000
C  43.72200 13.87400 30.00600
C  44.93000 14.58700 30.10000
C  42.41800 12.81900 28.02300
C  43.15000 13.92000 31.30700
O  42.13000 13.32700 31.80500
C  44.09600 14.68100 32.29000
C  43.30300 15.73600 32.98700
O  42.54900 16.50900 32.48500
O  43.43900 15.54800 34.31300
C  42.76900 16.53100 35.10600
H  49.84200 18.35200 31.18000
H  50.13900 16.01000 25.25900
H  44.42000 13.30100 26.03700
H  45.53500 17.02800 33.28400
H  48.38800 17.31400 33.38200
H  47.80500 19.40200 33.85900
H  46.19900 19.04700 33.19400
H  47.46800 19.54300 32.04600
H  47.45200 14.74400 33.63800
H  45.97300 15.13300 34.59100
H  48.68100 16.33100 35.07000
H  47.67100 15.14500 36.04100
H  52.79600 19.01200 29.26000
H  52.55700 17.82200 30.43400
H  51.51600 19.30400 30.28600
H  53.40400 19.12200 26.91600
H  54.26600 17.86500 26.04200
H  54.09200 17.75200 27.80900
H  48.77300 13.70600 24.11400
H  45.97600 14.66100 24.09600
H  47.39100 15.61900 22.63600
H  49.06500 15.56300 22.63600
H  48.23200 16.59900 23.82900
H  46.82400 12.52500 23.07800
H  45.37800 12.22700 24.07500
H  47.71500 10.90800 24.46000
H  46.24400 10.92400 25.48700
H  47.64700 12.00600 25.85000
H  42.81600 12.48000 27.06700
H  41.58400 13.51100 27.89900
H  42.04200 11.96800 28.59200
H  44.37000 14.08000 33.15800
H  41.77600 16.71500 34.69700
H  43.34900 17.40000 35.41700
H  42.67700 16.09200 36.10000
Mg 35.41800 49.82100 25.36500
C  35.51600 48.00800 28.41400
C  33.90300 52.33400 27.11700
C  34.78300 51.39900 22.40600
C  36.14700 46.85300 23.71300
N  34.71600 50.07900 27.61300
C  35.03600 49.28400 28.66200
C  34.79000 50.03700 30.00200
C  34.16200 51.39900 29.51800
C  34.15700 51.27300 28.00100
C  32.65700 51.62400 29.90100
C  36.11100 50.28100 30.84300
C  36.06800 50.02200 32.35300
H  34.79400 49.68400 33.08300
N  34.56300 51.62100 24.81900
C  34.04900 52.52200 25.68900
C  33.79600 53.76300 25.02200
C  34.09300 53.58400 23.60400
C  34.47100 52.13200 23.52200
C  33.22500 54.95600 25.79700
C  33.94900 54.46400 22.42100
O  34.27100 54.14800 21.29100
C  33.42200 55.83600 22.58500
N  35.25100 49.17000 23.31200
C  35.15300 50.04200 22.25300
C  35.58800 49.34900 20.95100
C  36.05700 47.95000 21.42200
C  35.80000 47.98500 22.90900
C  34.54900 49.32900 19.78100
C  37.59200 47.63900 21.19600
C  37.93100 46.29000 20.40000
N  35.76600 47.89200 25.92500
C  36.02600 46.78900 25.11200
C  36.17000 45.62000 25.90500
C  36.00700 46.07000 27.16000
C  35.77800 47.46800 27.18600
C  36.52000 44.25700 25.42700
C  36.11700 45.62200 28.49100
O  36.46100 44.53700 28.96700
C  35.74600 46.84800 29.36800
C  34.61000 46.42000 30.17900
O  33.45100 46.64500 29.86300
O  34.97600 45.96300 31.38800
C  33.91200 45.71800 32.34900
H  33.51700 53.19300 27.67000
H  34.79100 51.97200 21.47600
H  36.45000 45.99900 23.10400
H  34.14200 49.46400 30.66500
H  34.75500 52.28300 29.75500
H  32.28600 50.87600 30.60100
H  32.00700 51.41200 29.05200
H  32.46500 52.62800 30.27900
H  36.55600 51.26400 30.68800
H  36.76300 49.51900 30.41500
H  36.62700 50.83300 32.82000
H  36.77900 49.19900 32.42600
H  32.32100 54.52400 26.22600
H  32.92700 55.89100 25.32300
H  33.87600 55.23500 26.62600
H  32.35300 55.88200 22.79500
H  33.65000 56.47300 21.73100
H  33.87200 56.33500 23.44300
H  36.48000 49.88100 20.62000
H  35.44100 47.15300 21.00600
H  33.59100 49.58000 20.23500
H  34.45200 48.32600 19.36600
H  34.61400 49.97400 18.90400
H  38.13800 47.49100 22.12700
H  38.09500 48.44500 20.66200
H  38.12100 45.53900 21.16600
H  38.69400 46.36400 19.62500
H  37.01500 46.10500 19.83900
H  35.56300 44.10900 24.92700
H  36.67800 43.56300 26.25100
H  37.40100 44.35900 24.79200
H  36.59700 47.06200 30.01400
H  33.56200 44.68900 32.26400
H  33.14100 46.48700 32.30200
H  34.33600 45.70700 33.35300

