158

Mg 6.52700 52.76900 41.09800
C  5.80700 49.34300 40.78900
C  9.77500 51.94700 40.20200
C  7.15200 55.94000 40.54200
C  3.17200 53.38500 41.70700
N  7.60400 50.84700 40.57300
C  7.16100 49.57700 40.44000
C  8.17500 48.57500 40.02700
C  9.46400 49.42300 40.25200
C  8.89500 50.86600 40.23600
C  10.28500 49.13200 41.56900
C  8.02200 48.09100 38.52100
C  7.03000 48.88200 37.65900
H  6.44200 48.23200 36.41300
N  8.34900 53.83500 40.63400
C  9.50800 53.36900 40.32300
C  10.45400 54.40900 40.12300
C  9.74600 55.63700 40.20300
C  8.37400 55.17700 40.48400
C  12.01500 54.15900 39.98400
C  10.31700 57.00700 39.95900
O  11.52800 57.09800 39.69800
C  9.45900 58.16100 39.98300
N  5.27300 54.38600 41.03400
C  5.80500 55.61300 40.86700
C  4.72400 56.66600 40.99100
C  3.39100 55.83000 41.39100
C  3.98700 54.42900 41.38600
C  5.11700 57.84000 42.00200
C  2.09100 56.10200 40.60600
C  2.11100 55.71800 39.10700
N  4.67700 51.62700 41.12700
C  3.45800 52.03400 41.57200
C  2.70700 50.80600 41.82600
C  3.59100 49.71000 41.52100
C  4.77500 50.29200 41.10800
C  1.22300 50.82100 42.20600
C  3.72600 48.27700 41.55700
O  2.93600 47.40300 41.98700
C  5.16400 48.00400 41.11100
C  5.04700 47.14900 39.87100
O  4.39300 47.30900 38.87500
O  5.73300 45.99400 40.09300
C  5.81100 45.10100 38.97100
H  10.77000 51.61400 39.89600
H  7.23800 57.01400 40.36100
H  2.16600 53.68200 42.00900
H  8.16500 47.69500 40.66900
H  10.22400 49.43700 39.47100
H  11.33600 49.08000 41.28700
H  9.82500 48.25000 42.01400
H  10.07100 49.94400 42.26400
H  7.57200 47.10400 38.62600
H  8.93200 47.92200 37.94500
H  7.56400 49.74500 37.26000
H  6.25300 49.48100 38.13200
H  12.41500 54.24100 38.97300
H  12.23100 53.16100 40.36500
H  12.58700 54.90700 40.53300
H  10.00700 59.02600 39.60900
H  8.99600 58.42400 40.93500
H  8.61700 57.92200 39.33400
H  4.60500 57.12700 40.01000
H  3.12600 55.95400 42.44100
H  4.37100 57.99700 42.78100
H  5.12300 58.73300 41.37800
H  6.10900 57.73700 42.44200
H  1.81200 57.15500 40.56300
H  1.34200 55.48300 41.10000
H  1.16400 55.22300 38.89400
H  2.97600 55.19900 38.69300
H  2.16700 56.68500 38.60700
H  1.21200 50.51700 43.25300
H  0.59600 50.19500 41.57000
H  0.87000 51.84900 42.12600
H  5.81600 47.54700 41.85600
H  5.43900 45.40500 37.99300
H  5.40400 44.12300 39.22700
H  6.89900 45.07700 38.89900
Mg -11.38500 37.69600 41.87500
C  -9.38400 35.26100 40.48600
C  -9.42200 40.08500 40.26200
C  -13.85900 39.96400 42.42300
C  -13.41800 35.15100 43.26200
N  -9.68400 37.61100 40.41900
C  -8.93800 36.53000 40.13300
C  -7.62000 36.89300 39.44200
C  -7.60200 38.40400 39.56400
C  -9.01300 38.78800 40.11200
C  -6.39800 38.95000 40.41300
C  -7.60600 36.35300 37.96600
C  -6.40900 35.47600 37.58100
H  -5.68800 35.94200 36.33700
N  -11.50100 39.78800 41.67700
C  -10.58300 40.55000 40.88600
C  -11.08600 41.86800 40.84300
C  -12.41700 41.84400 41.40500
C  -12.65100 40.51800 41.90600
C  -10.29200 42.98700 40.17600
C  -13.23000 43.08800 41.47300
O  -12.87500 44.08800 40.87100
C  -14.49100 43.08800 42.29700
N  -13.35300 37.61400 42.70000
C  -14.17100 38.63800 42.74500
C  -15.52500 38.32500 43.38300
C  -15.34000 36.81000 43.72600
C  -13.93500 36.45900 43.23300
C  -16.00800 39.20700 44.53600
C  -16.48900 35.93800 43.19300
C  -17.05800 34.76900 44.13900
N  -11.48500 35.53400 41.82700
C  -12.20100 34.70100 42.70300
C  -11.70400 33.36400 42.53500
C  -10.60800 33.57400 41.60500
C  -10.50900 34.90500 41.21900
C  -12.25200 32.18100 43.13600
C  -9.63700 32.83000 40.89700
O  -9.46300 31.65000 40.74000
C  -8.77200 33.85900 40.15900
C  -7.32800 33.75500 40.61300
O  -6.44400 33.41000 39.87900
O  -7.18900 34.05900 41.96000
C  -5.81700 34.19000 42.42900
H  -8.70300 40.85800 39.98400
H  -14.74800 40.59300 42.51000
H  -14.07000 34.46200 43.80300
H  -6.81300 36.45700 40.03100
H  -7.52800 38.93100 38.61300
H  -6.21400 40.00200 40.19400
H  -5.51200 38.32900 40.28000
H  -6.64200 39.01900 41.47300
H  -7.63000 37.21400 37.29800
H  -8.52400 35.79600 37.77700
H  -6.77500 34.46300 37.41100
H  -5.79800 35.46100 38.48300
H  -10.70400 43.37600 39.24500
H  -9.28600 42.70400 39.86500
H  -10.20800 43.90900 40.75200
H  -14.68100 44.14000 42.51100
H  -14.23600 42.58600 43.23000
H  -15.28700 42.61800 41.72000
H  -16.20500 38.47700 42.54400
H  -15.28000 36.55200 44.78300
H  -16.22900 38.61900 45.42700
H  -16.98100 39.66500 44.35800
H  -15.32200 40.02700 44.74800
H  -16.21500 35.62500 42.18500
H  -17.37500 36.54400 43.00000
H  -16.62100 33.81300 43.84900
H  -18.13900 34.66500 44.05300
H  -16.74400 34.92200 45.17200
H  -12.73100 31.57600 42.36700
H  -13.02900 32.53300 43.81400
H  -11.48300 31.60700 43.65300
H  -8.83500 33.60400 39.10100
H  -5.42700 33.18100 42.30000
H  -5.72600 34.57000 43.44700
H  -5.22600 34.79200 41.73800

