158

Mg 35.50100 48.65100 25.54400
C  35.64800 47.00800 28.53700
C  33.99700 51.37100 27.15400
C  35.16200 50.30200 22.58100
C  36.50100 45.81700 24.00700
N  34.81300 49.07400 27.53600
C  35.21400 48.34400 28.66400
C  35.04500 49.05400 30.00400
C  34.17800 50.29600 29.54500
C  34.31700 50.26800 27.98100
C  32.71000 50.20700 29.95700
C  36.45000 49.26100 30.72900
C  36.44500 49.26800 32.29200
H  35.05900 48.98600 33.00300
N  34.75100 50.55700 24.94600
C  34.23400 51.53300 25.78200
C  33.98300 52.72400 25.04500
C  34.31200 52.47400 23.72400
C  34.70500 51.02500 23.65600
C  33.39100 54.01400 25.54300
C  34.27700 53.38600 22.49200
O  34.39100 52.96300 21.35600
C  33.91900 54.89000 22.56400
N  35.71700 48.04600 23.57100
C  35.65200 48.94900 22.55700
C  36.20500 48.35300 21.32100
C  36.77700 46.96300 21.83200
C  36.33500 46.95700 23.20500
C  35.27100 48.34900 20.04100
C  38.33600 46.80600 21.73900
C  39.03900 46.71200 20.42100
N  35.96000 46.74300 26.08200
C  36.31400 45.64400 25.32200
C  36.59500 44.52100 26.17900
C  36.30600 44.99300 27.46100
C  35.93400 46.34000 27.34300
C  36.98800 43.11600 25.69900
C  36.27900 44.64800 28.81900
O  36.47600 43.56700 29.36400
C  35.91300 45.99500 29.63000
C  34.78500 45.64800 30.57500
O  33.60100 45.99300 30.49000
O  35.31500 44.90200 31.53200
C  34.38900 44.42300 32.54200
H  33.54100 52.25800 27.60000
H  35.36200 50.89400 21.68500
H  36.78800 44.91200 23.46800
H  34.51500 48.35900 30.65500
H  34.68800 51.23200 29.77300
H  31.96600 50.37400 29.17800
H  32.51100 51.00200 30.67600
H  32.44900 49.27100 30.45200
H  36.95600 50.17200 30.40900
H  37.12800 48.52600 30.29600
H  36.69900 50.30600 32.50600
H  37.19100 48.56700 32.66500
H  32.48400 54.10300 24.94500
H  34.07600 54.78100 25.18300
H  33.17000 54.14600 26.60200
H  32.85700 55.13200 22.60500
H  34.35500 55.17100 21.60500
H  34.55100 55.47700 23.23100
H  37.09400 48.96000 21.14900
H  36.32300 46.20700 21.19200
H  35.85000 48.64700 19.16700
H  34.34700 48.92300 20.11500
H  34.87400 47.35100 19.85900
H  38.66700 45.95100 22.32900
H  38.78300 47.68200 22.21000
H  40.03300 47.14700 20.52500
H  38.33000 47.04300 19.66200
H  39.19300 45.64200 20.28300
H  36.22700 42.90200 24.94800
H  36.98300 42.42900 26.54500
H  37.94300 43.14600 25.17400
H  36.67100 46.26500 30.36500
H  33.70500 43.69400 32.10700
H  33.88200 45.24700 33.04300
H  35.01800 43.89900 33.26100
Mg -10.15300 16.93000 40.81600
C  -6.66500 16.65800 41.27900
C  -9.77700 20.32600 40.50000
C  -13.34800 17.04100 39.98700
C  -10.22000 13.48400 40.64200
N  -8.42100 18.26600 40.99300
C  -7.12500 17.98500 41.09800
C  -6.29300 19.24300 40.90200
C  -7.25000 20.44800 41.17300
C  -8.56400 19.66100 40.85800
C  -7.21200 21.11900 42.54000
C  -5.67200 19.32700 39.48400
C  -4.25400 18.94000 39.33600
H  -3.79600 18.16200 38.13000
N  -11.48300 18.51400 40.30100
C  -11.12200 19.82900 40.20800
C  -12.26900 20.56900 39.71200
C  -13.32600 19.60300 39.47400
C  -12.74500 18.34000 39.91700
C  -12.32300 22.09700 39.48300
C  -14.75800 19.87700 39.00200
O  -15.04100 21.06900 38.73200
C  -15.94900 18.86200 38.97100
N  -11.52800 15.41000 40.16100
C  -12.81600 15.75600 40.17100
C  -13.66100 14.47700 40.43400
C  -12.63100 13.34400 40.21600
C  -11.36800 14.12400 40.31900
C  -14.46500 14.52600 41.82500
C  -12.77500 12.63100 38.86900
C  -12.79400 11.10900 38.92200
N  -8.78000 15.33200 41.02200
C  -9.00900 13.98900 41.02100
C  -7.74500 13.32100 41.31800
C  -6.79000 14.34600 41.49800
C  -7.49500 15.53900 41.29900
C  -7.54000 11.86500 41.54800
C  -5.46500 14.66000 41.77500
O  -4.56500 13.90000 41.99000
C  -5.28000 16.12100 41.46800
C  -4.42000 16.73700 42.50500
O  -3.29000 17.13800 42.35300
O  -5.21200 16.99100 43.61800
C  -4.58200 17.60900 44.76300
H  -9.59900 21.39800 40.39500
H  -14.43200 16.98000 39.86900
H  -10.29800 12.40200 40.51500
H  -5.54900 19.37000 41.68800
H  -7.24000 21.13300 40.32400
H  -6.21100 21.15900 42.97000
H  -7.87400 20.63100 43.25400
H  -7.49500 22.14000 42.28300
H  -5.74600 20.38300 39.22300
H  -6.24400 18.68000 38.82000
H  -4.04800 18.28300 40.18200
H  -3.67700 19.84800 39.51100
H  -11.54800 22.40100 38.78000
H  -12.02800 22.71400 40.33100
H  -13.20500 22.45600 38.95300
H  -15.57600 18.17700 38.21000
H  -16.84600 19.33800 38.57300
H  -15.93600 18.47400 39.98900
H  -14.47800 14.47400 39.71200
H  -12.62000 12.63100 41.04000
H  -14.54400 13.48500 42.13700
H  -15.44300 15.00500 41.78800
H  -13.96400 15.07000 42.62600
H  -11.87200 12.88800 38.31500
H  -13.64200 12.92900 38.28000
H  -12.67500 10.74200 39.94100
H  -11.86600 10.81800 38.43000
H  -13.63700 10.73600 38.34100
H  -7.18700 11.24400 40.72500
H  -8.52200 11.56900 41.91700
H  -6.85100 11.78300 42.38900
H  -4.74100 16.23800 40.52800
H  -5.16600 17.25700 45.61400
H  -4.79900 18.67700 44.78600
H  -3.54700 17.33900 44.97400

