158

Mg 47.79600 16.21500 28.53300
C  45.96400 15.78400 31.49500
C  50.09100 18.08500 30.42900
C  49.26300 17.04100 25.67100
C  45.44400 14.37900 26.79400
N  47.99200 16.85200 30.73300
C  47.21100 16.44200 31.72900
C  47.70400 17.00000 33.10500
C  48.86100 17.94500 32.69700
C  49.02100 17.57000 31.18400
C  48.49100 19.39600 33.05500
C  48.04300 15.73800 34.06100
C  47.77600 15.89700 35.58800
H  47.64600 17.28200 36.23400
N  49.52100 17.34200 28.10900
C  50.27400 18.01100 28.97300
C  51.34500 18.66100 28.24500
C  51.21500 18.30600 26.88700
C  49.95300 17.55000 26.81800
C  52.47700 19.35100 28.87500
C  52.04700 18.80700 25.69900
O  51.79700 18.37300 24.56000
C  53.12300 19.87000 25.88200
N  47.50100 15.60100 26.53500
C  48.22100 16.14800 25.52000
C  47.79300 15.62600 24.14000
C  46.70300 14.60800 24.56800
C  46.54300 14.82000 26.03300
C  47.26500 16.79800 23.21700
C  46.85900 13.14000 24.23200
C  45.71800 12.55400 23.43800
N  46.05600 15.35900 29.01700
C  45.23500 14.55500 28.18300
C  44.02600 14.30300 28.84400
C  44.27900 14.64800 30.16000
C  45.53500 15.29200 30.22300
C  42.74300 13.82900 28.29300
C  43.72100 14.62800 31.51300
O  42.71600 14.13000 31.90900
C  44.82300 15.39200 32.45800
C  44.30200 16.52300 33.24900
O  43.94900 17.61300 32.80700
O  44.15000 16.17900 34.57800
C  43.41600 17.19500 35.40500
H  50.65200 18.80100 31.03300
H  49.66300 17.24800 24.67500
H  44.69900 13.70000 26.37500
H  46.89900 17.48600 33.65700
H  49.83600 17.69200 33.11400
H  48.74100 19.52000 34.10900
H  47.40400 19.46900 33.01100
H  49.01400 20.10100 32.40900
H  49.08400 15.47500 33.87500
H  47.41600 14.89000 33.78500
H  48.68300 15.40700 35.94300
H  46.94600 15.26400 35.89900
H  52.34000 20.42800 28.77600
H  53.42700 19.03600 28.44400
H  52.56200 19.02000 29.91000
H  53.40100 20.42200 24.98400
H  54.07100 19.47600 26.24900
H  52.63700 20.61200 26.51600
H  48.62600 15.16200 23.61200
H  45.81700 15.18100 24.29300
H  46.31700 16.40700 22.84700
H  47.87800 16.90600 22.32200
H  47.05700 17.73800 23.72900
H  46.94500 12.59900 25.17400
H  47.79300 12.92100 23.71300
H  46.13200 11.78500 22.78600
H  45.13300 13.24200 22.82800
H  45.04100 12.17500 24.20400
H  42.34000 14.38200 27.44400
H  41.95700 13.89200 29.04500
H  42.61500 12.77300 28.05600
H  45.20400 14.64200 33.15100
H  42.34200 17.33200 35.28100
H  43.89800 18.17300 35.40600
H  43.51500 16.85500 36.43600
Mg 9.67600 47.47400 26.58200
C  7.60500 47.78200 29.42500
C  12.23500 48.83800 28.38800
C  11.58700 47.52300 23.76100
C  6.73500 47.22600 24.58800
N  9.90000 48.26100 28.63300
C  8.96900 48.17200 29.68700
C  9.59800 48.51900 31.00500
C  10.88800 49.29800 30.53700
C  10.99100 48.81400 29.10900
C  10.77400 50.84200 30.65400
C  10.06200 47.33500 31.92000
C  10.17200 47.55100 33.46900
H  9.74600 46.36600 34.44300
N  11.65800 47.73900 26.26800
C  12.53400 48.30300 27.12700
C  13.82800 48.27400 26.54100
C  13.65200 47.79000 25.22700
C  12.25700 47.66800 25.03000
C  15.12700 48.65900 27.22100
C  14.65000 47.36500 24.16900
O  14.38000 47.04100 23.03700
C  16.07600 47.19700 24.47400
N  9.15400 47.43000 24.41700
C  10.16500 47.32100 23.53600
C  9.61900 46.95800 22.22200
C  8.09600 46.59100 22.49700
C  7.91600 47.12200 23.92400
C  9.86700 48.04100 21.10400
C  7.75700 45.10100 22.48200
C  8.79100 44.15100 23.14300
N  7.54400 47.53300 26.81700
C  6.49900 47.38200 25.90400
C  5.25400 47.24300 26.69000
C  5.71800 47.29500 28.06000
C  7.07800 47.55300 28.11200
C  3.88000 47.04400 26.23700
C  5.28700 47.11700 29.40000
O  4.19800 46.79000 29.79500
C  6.50300 47.48500 30.38600
C  6.74100 46.30400 31.20600
O  7.08400 45.21200 30.73100
O  6.41900 46.52700 32.44400
C  6.46600 45.35900 33.32300
H  13.00900 49.40500 28.90900
H  12.16500 47.44700 22.83800
H  5.79000 47.10900 24.05300
H  8.82100 49.06000 31.54500
H  11.74800 48.97900 31.12600
H  9.83000 51.21800 31.04700
H  10.90600 51.22800 29.64300
H  11.47000 51.26300 31.37900
H  11.03900 47.06300 31.52000
H  9.49500 46.44700 31.64000
H  9.50800 48.37900 33.71700
H  11.17200 47.82500 33.80600
H  14.81100 49.01100 28.20300
H  15.58400 49.51000 26.71700
H  15.83000 47.83800 27.36100
H  16.26500 46.36000 25.14600
H  16.49200 48.17000 24.73500
H  16.49900 46.80800 23.54700
H  10.15300 46.08900 21.83600
H  7.39100 47.10300 21.84200
H  10.68500 47.64500 20.50100
H  10.24600 48.96900 21.53000
H  8.96600 48.14200 20.49900
H  7.55700 44.72900 21.47800
H  6.94100 44.84300 23.15600
H  8.21600 43.63800 23.91400
H  9.67300 44.54700 23.64700
H  9.10700 43.38800 22.43100
H  3.34800 46.56500 27.06000
H  3.88400 46.29600 25.44500
H  3.32000 47.97400 26.13700
H  6.22800 48.28300 31.07600
H  7.06900 44.55700 32.89800
H  5.44000 45.09300 33.57800
H  6.93300 45.62900 34.27100

