158

Mg 47.61800 34.10900 27.42000
C  45.80300 32.66800 29.84600
C  47.98700 37.03400 29.24800
C  48.69700 35.66700 24.66800
C  47.04900 31.20200 25.49700
N  46.84300 34.85700 29.29000
C  46.36700 33.94300 30.24200
C  46.37700 34.55000 31.63800
C  46.88300 36.06400 31.32300
C  47.32700 35.99900 29.88300
C  45.86200 37.20500 31.68100
C  47.17000 33.77000 32.75700
C  47.98300 34.61400 33.70700
H  47.13800 35.61000 34.51300
N  48.33600 36.06300 26.99700
C  48.48400 37.03900 27.93100
C  49.32100 38.12300 27.33700
C  49.38300 37.88700 25.92100
C  48.77800 36.49000 25.74300
C  49.91100 39.21700 28.11200
C  50.07900 38.61900 24.83300
O  50.24500 38.14800 23.70700
C  50.66200 39.97900 25.07500
N  47.83900 33.57500 25.33000
C  48.30700 34.39800 24.44300
C  48.72900 33.56700 23.17000
C  48.17800 32.16400 23.53900
C  47.68900 32.29100 24.87900
C  48.09800 34.02800 21.83900
C  49.29800 31.09200 23.37900
C  50.15400 30.78600 24.61600
N  46.76400 32.25700 27.63600
C  46.61000 31.15600 26.82100
C  45.76600 30.17500 27.45800
C  45.35000 30.76400 28.56600
C  46.03400 31.95900 28.70300
C  45.32000 28.93800 26.85900
C  44.41700 30.64300 29.69600
O  43.64600 29.76200 29.97200
C  44.66800 31.89900 30.54700
C  44.87300 31.49300 31.96700
O  45.77600 30.69300 32.36500
O  43.82900 32.00100 32.72900
C  43.92300 31.83200 34.18000
H  48.15000 37.89300 29.90200
H  49.04600 36.17000 23.76400
H  46.91900 30.22400 25.03000
H  45.32900 34.59600 31.93200
H  47.83400 36.30400 31.80000
H  44.92900 36.79400 32.06600
H  45.68500 37.71800 30.73500
H  46.20300 37.92200 32.42800
H  47.94600 33.17200 32.27900
H  46.49400 33.16500 33.36200
H  48.79800 35.12700 33.19700
H  48.38600 33.93800 34.46200
H  49.55700 40.13400 27.64000
H  51.00100 39.20100 28.12100
H  49.56000 39.25100 29.14400
H  51.54000 39.88400 25.71300
H  49.96400 40.68700 25.52400
H  51.10800 40.29800 24.13300
H  49.81600 33.50700 23.11300
H  47.19800 31.89300 23.14600
H  47.47400 34.89700 22.05100
H  47.50800 33.33800 21.23600
H  48.97300 34.19100 21.21200
H  49.98800 31.35500 22.57800
H  48.70600 30.25100 23.01600
H  49.90400 31.38600 25.49100
H  51.19200 31.03500 24.39300
H  50.03600 29.72500 24.83700
H  45.83500 28.68400 25.93200
H  44.24400 28.86800 26.70100
H  45.55700 28.26300 27.68200
H  43.81800 32.58100 30.55300
H  44.55600 32.65100 34.52300
H  44.49700 30.95900 34.49200
H  42.95500 31.82100 34.68100
Mg 42.46200 41.85200 25.66000
C  42.03900 44.01200 28.30300
C  43.57100 39.49000 27.96200
C  43.10000 39.81600 23.07800
C  41.97400 44.54700 23.41600
N  42.69400 41.74800 27.88100
C  42.37800 42.73900 28.77200
C  42.58700 42.29600 30.27300
C  43.05800 40.78500 30.08300
C  43.08600 40.62100 28.54900
C  44.34300 40.40500 30.84400
C  41.31200 42.64800 31.07700
C  41.00400 41.73700 32.31600
H  40.54900 42.44300 33.57400
N  43.24800 39.91000 25.53300
C  43.60500 39.15600 26.57700
C  43.99100 37.83800 26.11200
C  43.82500 37.85200 24.67400
C  43.35500 39.22500 24.35900
C  44.54500 36.72300 27.02400
C  43.98900 36.82800 23.63100
O  43.80000 37.03700 22.46900
C  44.48700 35.49300 24.08600
N  42.60500 42.17000 23.60200
C  42.77600 41.14800 22.71000
C  42.66000 41.62700 21.21800
C  41.96200 43.00500 21.39300
C  42.15800 43.30400 22.89800
C  43.97300 41.65300 20.37700
C  40.40300 43.08100 20.99100
C  39.27200 42.79400 22.10100
N  42.12200 43.86500 25.77600
C  41.95900 44.83100 24.80300
C  41.65100 46.10000 25.49000
C  41.70300 45.82800 26.85200
C  41.96800 44.44100 26.97600
C  41.21900 47.33400 24.85400
C  41.43600 46.40900 28.23400
O  41.00700 47.47100 28.61600
C  41.81800 45.32200 29.17200
C  42.95700 45.77700 29.97000
O  44.11400 45.34800 29.87200
O  42.47500 46.54200 30.99400
C  43.56800 46.86200 31.92500
H  43.80200 38.64300 28.61200
H  43.12800 39.17500 22.19400
H  41.79300 45.34000 22.68800
H  43.38700 42.84500 30.77100
H  42.27300 40.12000 30.44200
H  45.27100 40.57600 30.29700
H  44.22400 39.34900 31.08700
H  44.43300 40.92300 31.79900
H  40.43000 42.66700 30.43600
H  41.44700 43.66800 31.43600
H  41.80800 41.04800 32.57700
H  40.21200 41.13400 31.87000
H  45.24000 37.13400 27.75500
H  45.03800 35.95700 26.42500
H  43.81900 36.33200 27.73800
H  43.76100 34.97100 24.71000
H  45.51100 35.38800 24.44300
H  44.47700 35.03000 23.10000
H  41.92800 41.05700 20.64600
H  42.54000 43.74200 20.83600
H  43.97400 40.65900 19.92800
H  44.70500 41.85000 21.16000
H  43.98700 42.47900 19.66600
H  40.17600 42.38700 20.18100
H  40.29300 44.12200 20.68800
H  39.78500 42.72900 23.06100
H  38.87700 41.78600 21.97400
H  38.47600 43.53900 22.09200
H  41.75200 47.42000 23.90700
H  41.51700 48.13400 25.53200
H  40.14800 47.30000 24.65200
H  40.98100 45.11800 29.84100
H  44.26900 47.60800 31.55100
H  44.23800 46.04500 32.19100
H  43.26900 47.27600 32.88900

