158

Mg 8.48500 3.86300 27.72100
C  10.05400 2.48900 30.40200
C  6.63600 5.86600 29.86200
C  7.10900 5.31500 24.94900
C  10.26200 1.76800 25.53900
N  8.42100 4.13200 29.85400
C  9.16500 3.46000 30.77700
C  8.94200 3.98100 32.21100
C  7.67800 4.98000 32.02300
C  7.51800 5.00800 30.49500
C  6.43400 4.75600 32.85000
C  10.17000 4.62800 32.89500
C  9.82100 5.16400 34.29000
H  10.69000 4.70000 35.42900
N  7.11900 5.41500 27.47200
C  6.46800 6.10900 28.47800
C  5.48900 7.01100 27.79200
C  5.61700 6.86700 26.38200
C  6.66100 5.80100 26.18300
C  4.52600 7.82000 28.60100
C  4.85200 7.60300 25.32200
O  4.88700 7.39800 24.13300
C  3.95400 8.67200 25.70800
N  8.65600 3.61500 25.53600
C  8.06300 4.39500 24.62200
C  8.39100 3.98900 23.11300
C  9.56300 3.00400 23.32000
C  9.46000 2.74800 24.89800
C  7.13600 3.52000 22.32000
C  10.94900 3.43100 22.83700
C  11.63100 4.62000 23.64100
N  9.80600 2.38400 27.84400
C  10.45000 1.60600 26.92000
C  11.27000 0.70100 27.66100
C  11.20200 0.94900 28.99000
C  10.31200 2.03300 29.07700
C  12.07300 -0.38800 26.97100
C  11.62300 0.60200 30.34200
O  12.34400 -0.31400 30.79700
C  10.99000 1.69900 31.30200
C  10.31300 0.97800 32.35600
O  9.15800 0.53800 32.14600
O  11.07000 0.88000 33.46100
C  10.53900 0.03700 34.59600
H  5.97500 6.27800 30.62800
H  6.54800 5.56900 24.04800
H  10.78000 1.19600 24.76600
H  8.72800 3.13100 32.85900
H  8.06400 5.93200 32.38900
H  5.73500 4.10900 32.31800
H  5.91100 5.69700 33.01900
H  6.70600 4.35000 33.82400
H  10.40700 5.51300 32.30500
H  11.04400 3.99700 33.05600
H  8.82300 4.89600 34.63500
H  9.82400 6.25400 34.28800
H  4.63600 7.51700 29.64200
H  3.50700 7.64200 28.25500
H  4.68400 8.89800 28.63100
H  3.01700 8.34200 26.15700
H  3.65000 9.38100 24.93700
H  4.47900 9.22100 26.48900
H  8.82900 4.86300 22.63000
H  9.38200 2.03700 22.85100
H  6.25300 3.89500 22.83800
H  6.96700 2.44900 22.20200
H  7.17000 3.97100 21.32900
H  10.86500 3.58700 21.76100
H  11.54300 2.53300 23.00600
H  12.10500 4.20100 24.52900
H  10.79300 5.26400 23.90900
H  12.25500 5.24000 22.99700
H  12.35600 -0.09000 25.96100
H  11.41300 -1.24700 26.84800
H  12.94800 -0.65900 27.56100
H  11.85800 2.29000 31.59300
H  10.02600 0.81800 35.15800
H  11.29100 -0.38500 35.26300
H  9.82800 -0.67300 34.17300
Mg -2.02700 34.92800 26.29900
C  -3.81300 33.61400 28.90700
C  -0.90400 37.39000 28.39900
C  -0.67000 36.15300 23.65400
C  -3.50100 32.48500 24.17400
N  -2.29300 35.42500 28.48000
C  -3.02000 34.70600 29.35400
C  -2.76100 35.13000 30.77100
C  -1.98300 36.54400 30.57400
C  -1.71200 36.48500 29.04800
C  -2.57000 37.90100 31.07400
C  -2.06900 33.95500 31.58000
C  -2.66700 33.67700 32.92400
H  -1.74200 33.50000 34.12000
N  -0.94200 36.47500 26.06700
C  -0.49800 37.40000 27.01900
C  0.26100 38.43800 26.33400
C  0.43000 37.99200 25.00200
C  -0.40400 36.84400 24.88500
C  0.88500 39.66300 27.01100
C  1.26600 38.63000 23.91400
O  1.33800 38.17500 22.76100
C  2.13000 39.88900 24.18200
N  -2.10200 34.33000 24.17600
C  -1.44000 35.10000 23.27800
C  -1.61700 34.59900 21.85600
C  -2.38900 33.24000 22.11000
C  -2.67400 33.36700 23.52600
C  -2.42300 35.64000 20.96500
C  -1.44700 32.00800 21.77400
C  -0.29400 31.70800 22.72900
N  -3.49500 33.40000 26.37100
C  -3.93100 32.44300 25.47900
C  -4.71200 31.43600 26.20300
C  -4.70600 31.82900 27.58100
C  -3.92700 33.05100 27.57700
C  -5.37500 30.20400 25.53800
C  -5.07400 31.50100 28.93000
O  -5.64200 30.52100 29.37500
C  -4.43500 32.51700 29.81600
C  -5.56800 33.06300 30.65700
O  -6.35700 33.87500 30.29900
O  -5.61700 32.40600 31.82800
C  -6.54800 32.85000 32.87900
H  -0.46300 38.11700 29.08400
H  -0.27100 36.60900 22.74500
H  -3.97100 31.71500 23.55900
H  -3.64000 35.45800 31.32600
H  -1.04600 36.39500 31.11000
H  -2.77600 38.55400 30.22500
H  -1.88700 38.35300 31.79300
H  -3.50900 37.68200 31.58300
H  -1.03900 34.21500 31.82400
H  -1.95500 33.04700 30.98800
H  -3.23700 32.75100 32.85700
H  -3.50900 34.29900 33.22700
H  1.96600 39.52900 26.97700
H  0.59200 39.76800 28.05500
H  0.73900 40.57700 26.43500
H  2.64600 39.96900 23.22500
H  2.76400 39.63400 25.03100
H  1.46400 40.73900 24.32900
H  -0.61900 34.42800 21.45400
H  -3.40000 33.13800 21.71500
H  -2.14200 36.64100 21.29100
H  -3.50500 35.58900 21.08800
H  -2.10300 35.42600 19.94500
H  -0.92900 32.16700 20.82800
H  -2.05000 31.11900 21.59100
H  -0.27700 32.46500 23.51300
H  0.58800 31.54800 22.10800
H  -0.55100 30.74800 23.17600
H  -4.72500 29.81900 24.75200
H  -6.33600 30.49200 25.11200
H  -5.51500 29.42400 26.28700
H  -3.73000 32.02200 30.48300
H  -7.34200 33.54500 32.61000
H  -6.04400 33.29000 33.74000
H  -7.01600 31.95900 33.29900

