158

Mg 2.05700 -1.50700 44.27000
C  5.47300 -0.93200 43.23800
C  1.08700 0.90600 42.13200
C  -1.13800 -2.68400 44.51500
C  3.07800 -4.03700 46.30900
N  3.17400 -0.28400 42.76900
C  4.51800 -0.14800 42.55300
C  4.84200 0.95700 41.51600
C  3.41200 1.60600 41.36900
C  2.47900 0.73200 42.24500
C  3.39200 3.12700 41.74000
C  5.41500 0.43600 40.16400
C  6.57100 1.13000 39.39800
H  6.29700 1.57700 37.89300
N  0.19500 -0.94900 43.46400
C  0.00100 0.13600 42.67600
C  -1.40900 0.29500 42.45400
C  -2.08000 -0.77700 43.10000
C  -1.03800 -1.48300 43.76200
C  -1.97400 1.49500 41.60800
C  -3.62600 -1.09500 43.09300
O  -4.35800 -0.31000 42.50200
C  -4.23700 -2.28900 43.70500
N  1.09500 -3.28700 45.12200
C  -0.21400 -3.52500 45.16200
C  -0.58600 -4.72600 46.10200
C  0.85600 -5.05200 46.67100
C  1.75300 -4.06800 46.00300
C  -1.66300 -4.37200 47.21400
C  1.25100 -6.52000 46.38800
C  2.18100 -7.16700 47.34000
N  3.91400 -2.25900 44.89600
C  4.13900 -3.27100 45.71200
C  5.55500 -3.47400 45.84900
C  6.08700 -2.57900 44.86900
C  5.04300 -1.87400 44.28900
C  6.29700 -4.50800 46.78000
C  7.35900 -2.01200 44.31700
O  8.52400 -2.21000 44.64100
C  6.90700 -0.99500 43.19600
C  7.59100 0.32900 43.44300
O  8.61700 0.53700 42.77100
O  7.21700 1.12500 44.52200
C  8.31600 1.87200 45.15600
H  0.86100 1.80400 41.55200
H  -2.06500 -3.23800 44.67000
H  3.27200 -4.83400 47.03000
H  5.44200 1.69300 42.05200
H  3.13900 1.56600 40.31500
H  2.57400 3.36700 42.41900
H  3.23100 3.80500 40.90200
H  4.19300 3.50700 42.37500
H  4.61100 0.33500 39.43400
H  5.74500 -0.57200 40.41400
H  7.44900 0.50200 39.24900
H  7.00000 1.90300 40.03500
H  -2.87800 1.25100 41.05100
H  -1.20400 1.74900 40.87900
H  -2.27200 2.27700 42.30700
H  -3.90200 -2.42400 44.73400
H  -4.05800 -3.07100 42.96700
H  -5.32700 -2.31400 43.71600
H  -1.02900 -5.47200 45.44200
H  0.85700 -4.98100 47.75900
H  -2.37600 -5.18500 47.34900
H  -2.24600 -3.52200 46.85800
H  -1.29000 -4.24800 48.23000
H  1.65900 -6.55400 45.37700
H  0.29600 -7.04500 46.41800
H  1.73500 -8.13500 47.56800
H  2.39700 -6.64200 48.27000
H  3.05400 -7.33800 46.71000
H  7.16100 -3.98400 47.18600
H  6.57800 -5.39500 46.21200
H  5.56200 -4.77700 47.53800
H  7.19900 -1.46000 42.25500
H  8.69200 2.61800 44.45600
H  9.14900 1.18100 45.29200
H  8.06100 2.34200 46.10600
Mg 40.37800 9.53300 29.63600
C  42.44800 10.66800 32.10800
C  38.16500 8.46700 31.99000
C  38.53200 8.38200 27.14200
C  42.93400 10.38900 27.26300
N  40.43800 9.37700 31.81400
C  41.25100 10.13900 32.61300
C  40.74000 10.26700 34.03700
C  39.50600 9.30500 33.99600
C  39.33800 9.06100 32.50300
C  39.69300 7.91100 34.75600
C  40.46000 11.64900 34.65100
C  41.03600 12.05800 36.03200
H  40.02600 12.55900 37.04100
N  38.59400 8.47900 29.60600
C  37.75000 8.24400 30.63400
C  36.54000 7.66900 30.18600
C  36.57800 7.71100 28.72700
C  37.98100 8.16100 28.41300
C  35.50500 7.11000 30.99200
C  35.51200 7.32600 27.71700
O  35.54200 7.50600 26.48100
C  34.27800 6.63100 28.22300
N  40.79800 9.24900 27.44800
C  39.74100 8.86700 26.63300
C  40.07300 8.97600 25.15800
C  41.58100 9.50000 25.19000
C  41.81000 9.70900 26.72100
C  40.01600 7.56600 24.38500
C  41.88000 10.71800 24.27800
C  41.41900 12.08800 24.70600
N  42.34900 10.39200 29.66600
C  43.20800 10.73300 28.63300
C  44.41500 11.37100 29.20400
C  44.12800 11.44400 30.58200
C  42.91800 10.81400 30.76800
C  45.62100 11.79300 28.46300
C  44.70700 11.84300 31.89000
O  45.76200 12.35400 32.20400
C  43.53600 11.36100 32.93000
C  44.19300 10.47300 33.88300
O  44.81800 9.43600 33.58800
O  44.13300 11.03200 35.11700
C  44.84700 10.15700 36.12600
H  37.40600 8.22100 32.73500
H  37.78900 8.22600 26.35700
H  43.72000 10.64600 26.55000
H  41.49800 9.87100 34.71300
H  38.63600 9.81700 34.40500
H  38.93100 7.82000 35.53000
H  40.71300 7.78900 35.11900
H  39.48500 7.07500 34.08800
H  39.40600 11.76200 34.90800
H  40.71700 12.33300 33.84200
H  41.59000 12.91300 35.64500
H  41.75700 11.36000 36.45800
H  34.53200 7.56500 30.81000
H  35.55300 7.21900 32.07500
H  35.30500 6.04000 30.92700
H  34.50300 5.74000 28.81000
H  33.71300 6.39900 27.32000
H  33.62700 7.27900 28.80900
H  39.47400 9.71900 24.63200
H  42.18300 8.64500 24.87900
H  40.95200 7.20200 23.96200
H  39.25400 7.56000 23.60600
H  39.91200 6.74200 25.09100
H  41.33800 10.51300 23.35600
H  42.95600 10.70900 24.10200
H  42.23500 12.73800 25.02100
H  40.78300 11.97100 25.58400
H  40.95100 12.54200 23.83200
H  46.35400 12.11000 29.20600
H  45.45000 12.59300 27.74300
H  46.09000 10.98900 27.89700
H  43.15600 12.27000 33.39700
H  45.91300 10.19100 35.90000
H  44.49000 9.12800 36.09000
H  44.71700 10.52900 37.14200

