158

Mg 8.37300 3.02000 27.58300
C  9.66800 1.59900 30.62700
C  6.70500 5.26800 29.53700
C  6.93600 4.14100 24.76700
C  9.73100 0.40000 25.89700
N  8.26000 3.41400 29.92600
C  8.92300 2.70600 30.88600
C  8.72800 3.42100 32.16900
C  7.67000 4.51900 31.87000
C  7.43900 4.42400 30.33700
C  6.33800 4.27100 32.64700
C  9.97700 3.96400 32.81700
C  9.90300 4.49900 34.23800
H  10.91500 4.00800 35.18600
N  7.11500 4.54900 27.20100
C  6.43400 5.32900 28.17600
C  5.69100 6.36700 27.43700
C  5.70300 5.96800 26.10300
C  6.57300 4.78400 25.98300
C  4.94900 7.46900 28.16400
C  5.04400 6.62700 24.87200
O  4.92600 6.07300 23.76300
C  4.55800 8.00900 25.03700
N  8.26900 2.33700 25.58000
C  7.65300 2.93000 24.57800
C  7.79400 2.17100 23.23000
C  8.87800 1.15300 23.59100
C  9.00200 1.33000 25.08700
C  6.44500 1.50000 22.80300
C  10.20800 1.29100 22.88500
C  10.86600 -0.01000 22.39200
N  9.53800 1.41400 28.13000
C  10.02500 0.42800 27.30000
C  10.88100 -0.54000 28.05000
C  10.69600 -0.06300 29.33200
C  9.85900 1.05900 29.36100
C  11.78700 -1.59900 27.50900
C  11.07900 -0.33300 30.71000
O  11.83900 -1.20400 31.11800
C  10.43500 0.73200 31.62700
C  9.77600 0.01400 32.68800
O  8.68700 -0.60500 32.61700
O  10.41500 0.23000 33.87100
C  9.76200 -0.17400 35.09700
H  6.23400 6.04600 30.14100
H  6.34700 4.39700 23.88400
H  9.91800 -0.50400 25.31400
H  8.28800 2.65400 32.80500
H  8.01700 5.51600 32.14200
H  5.84500 5.03100 33.25400
H  6.57700 3.45100 33.32400
H  5.53900 3.81600 32.06100
H  10.35300 4.83500 32.28000
H  10.84000 3.32300 32.63900
H  8.94300 4.25600 34.69100
H  10.21000 5.54200 34.16500
H  3.93400 7.63800 27.80500
H  5.45900 8.43200 28.14900
H  4.76300 7.27700 29.22100
H  5.36300 8.60800 25.46300
H  3.75000 7.88400 25.75700
H  4.37900 8.39200 24.03300
H  8.13900 2.90800 22.50400
H  8.61200 0.10400 23.46400
H  6.50600 0.41300 22.84700
H  6.19800 1.73200 21.76700
H  5.70700 1.85800 23.52100
H  10.93600 1.82600 23.49400
H  10.03500 2.08200 22.15600
H  11.47800 0.25700 21.53100
H  10.15100 -0.81800 22.23400
H  11.45900 -0.28500 23.26400
H  12.83900 -1.31500 27.47600
H  11.33000 -1.91300 26.57100
H  11.63300 -2.52100 28.07100
H  11.28200 1.20800 32.12100
H  8.73800 -0.52700 34.97200
H  9.83700 0.61100 35.84900
H  10.27900 -1.00300 35.58100
Mg -5.09800 24.63300 26.68400
C  -3.70200 26.36700 29.52200
C  -6.11300 22.14300 28.93500
C  -6.48000 23.09600 24.13300
C  -3.72900 27.06700 24.58100
N  -4.87100 24.33000 29.01500
C  -4.47600 25.23800 29.94600
C  -4.87000 24.81900 31.35300
C  -5.34300 23.26900 31.18300
C  -5.42800 23.22100 29.63000
C  -4.42000 22.22500 31.86000
C  -5.97200 25.74300 31.97300
C  -5.56400 26.39400 33.32000
H  -6.48200 25.91600 34.58700
N  -6.12400 22.92100 26.55900
C  -6.45400 21.95500 27.56900
C  -7.23800 20.80800 27.05300
C  -7.37200 21.15200 25.66800
C  -6.65700 22.41400 25.41400
C  -7.70400 19.61500 27.89000
C  -8.01000 20.37100 24.58300
O  -8.30600 20.80000 23.47300
C  -8.47200 18.93600 24.90400
N  -5.23600 25.12700 24.71500
C  -5.84300 24.30800 23.82600
C  -5.57400 24.69000 22.39700
C  -4.73400 25.98700 22.49800
C  -4.58300 26.13300 24.02900
C  -4.97900 23.58700 21.54700
C  -5.55400 27.25800 21.86300
C  -4.76800 28.10300 20.72000
N  -3.71900 26.23300 26.92800
C  -3.33300 27.18000 25.94900
C  -2.55400 28.22500 26.62300
C  -2.81300 27.99000 27.99900
C  -3.40400 26.73200 28.12600
C  -1.71900 29.35800 26.03400
C  -2.39200 28.46300 29.34800
O  -1.66000 29.39300 29.78700
C  -3.08100 27.46800 30.36000
C  -2.03500 26.94900 31.30200
O  -0.94600 26.57900 30.96500
O  -2.47500 27.07900 32.59000
C  -1.38400 26.91100 33.58300
H  -6.28600 21.33800 29.65200
H  -6.91400 22.63300 23.24400
H  -3.32400 27.85900 23.94800
H  -3.94900 24.82500 31.93600
H  -6.36100 23.10200 31.53600
H  -3.94100 21.58900 31.11500
H  -4.98800 21.61200 32.56100
H  -3.64700 22.62700 32.51500
H  -6.89500 25.19600 32.16700
H  -6.22100 26.57200 31.31000
H  -5.77000 27.46400 33.35800
H  -4.50500 26.32600 33.56700
H  -7.71300 19.74200 28.97300
H  -7.20000 18.67100 27.68300
H  -8.74200 19.45800 27.59500
H  -7.62000 18.31700 25.18500
H  -9.03200 18.48700 24.08300
H  -9.15600 18.98900 25.75100
H  -6.53500 24.86100 21.91000
H  -3.75100 25.85800 22.04600
H  -5.68000 23.16900 20.82400
H  -4.66700 22.69800 22.09500
H  -4.09700 23.98900 21.04800
H  -5.86900 27.99500 22.60100
H  -6.48500 26.95600 21.38400
H  -4.00100 27.42900 20.33800
H  -4.32800 29.01700 21.12100
H  -5.40200 28.28200 19.85200
H  -1.71900 30.24300 26.67000
H  -2.23000 29.70200 25.13400
H  -0.77900 28.87000 25.77600
H  -3.74400 28.08300 30.96800
H  -0.90300 25.95500 33.37700
H  -1.91800 26.79500 34.52600
H  -0.58100 27.64700 33.62200

