158

Mg 43.98900 2.77400 47.07600
C  43.40200 6.02700 46.18300
C  40.64200 1.90200 46.18300
C  44.66700 -0.53700 47.46400
C  47.43900 3.51600 47.14100
N  42.36400 3.83100 46.25300
C  42.28700 5.18200 45.92200
C  40.88600 5.53800 45.39600
C  40.01300 4.36000 45.93300
C  41.07600 3.27900 46.13900
C  39.22900 4.77400 47.21100
C  40.82100 5.71100 43.86500
C  40.15500 7.05700 43.45100
H  39.10100 6.95000 42.36400
N  42.78300 0.88400 46.83600
C  41.46600 0.77400 46.46500
C  41.11600 -0.59700 46.31600
C  42.29000 -1.34400 46.83200
C  43.27000 -0.33500 47.07700
C  39.79200 -1.20500 45.76900
C  42.39700 -2.85600 46.92500
O  41.50500 -3.53900 46.48300
C  43.58300 -3.51300 47.43900
N  45.78500 1.68400 47.31400
C  45.75800 0.32800 47.55300
C  47.24900 -0.21200 47.62000
C  48.07900 1.08900 47.49900
C  47.04700 2.21900 47.28800
C  47.46300 -0.98300 48.87600
C  49.12200 1.01300 46.29800
C  50.53800 1.53900 46.52800
N  45.25300 4.46000 46.86500
C  46.57300 4.58400 46.99700
C  46.89600 6.05000 47.04800
C  45.66100 6.64400 46.69800
C  44.74800 5.64700 46.57100
C  48.23300 6.56700 47.34200
C  44.91400 7.90800 46.48600
O  45.40900 9.03500 46.64500
C  43.44200 7.52300 46.03000
C  42.53000 8.39700 46.87300
O  42.27800 8.08100 47.97600
O  42.11000 9.55600 46.29500
C  41.03300 10.20000 47.05000
H  39.63300 1.69400 45.81900
H  45.01900 -1.54400 47.69400
H  48.51700 3.67800 47.06500
H  40.52900 6.43200 45.90800
H  39.34700 4.00500 45.14700
H  39.51700 5.74400 47.61800
H  39.41000 4.09600 48.04500
H  38.16200 4.84100 47.00100
H  40.29300 4.86000 43.43500
H  41.86400 5.69500 43.55000
H  40.94300 7.72700 43.10600
H  39.68500 7.54300 44.30600
H  39.17400 -1.35500 46.65400
H  39.94800 -2.15600 45.26000
H  39.50900 -0.45800 45.02800
H  43.75600 -3.11100 48.43700
H  44.36100 -3.31000 46.70200
H  43.40300 -4.57300 47.61700
H  47.37600 -0.88700 46.77400
H  48.49900 1.24200 48.49300
H  47.11100 -2.00500 48.73500
H  47.07100 -0.41100 49.71700
H  48.53100 -1.10600 49.05500
H  48.78000 1.55200 45.41400
H  49.19500 -0.01900 45.95400
H  50.61900 2.04300 47.49100
H  50.79000 2.17800 45.68200
H  51.17600 0.65500 46.52500
H  48.36700 7.24200 46.49800
H  49.06700 5.86600 47.35900
H  48.11400 7.16400 48.24600
H  43.32500 7.93900 45.03000
H  41.49500 10.87300 47.77300
H  40.41200 9.54300 47.65800
H  40.38000 10.78700 46.40500
Mg 36.16600 49.48200 25.98500
C  35.67600 47.61300 28.97700
C  35.84200 52.34500 27.65200
C  35.90900 51.00600 23.06700
C  36.54700 46.47200 24.26100
N  35.76500 49.93300 28.06300
C  35.64300 49.04000 29.14300
C  35.38800 49.82700 30.44100
C  35.70300 51.37800 30.01600
C  35.89200 51.17400 28.48800
C  34.53900 52.35600 30.47500
C  36.33100 49.37600 31.64000
C  35.70200 48.82000 32.86900
H  34.23700 49.17700 33.17900
N  35.85500 51.42200 25.42000
C  35.79400 52.45200 26.28900
C  35.64400 53.66800 25.55400
C  35.60100 53.34900 24.15000
C  35.83500 51.86200 24.16400
C  35.47500 55.01500 26.13700
C  35.41300 54.17600 22.90600
O  35.53800 53.78100 21.77900
C  35.33100 55.71300 23.05400
N  36.00800 48.78500 23.94700
C  35.89000 49.65500 22.94700
C  36.09000 48.97000 21.57300
C  36.50900 47.51200 21.96300
C  36.26700 47.58700 23.46500
C  34.92500 49.01800 20.50900
C  38.00400 47.15800 21.61200
C  38.12300 45.97700 20.60000
N  36.16400 47.38500 26.48200
C  36.39600 46.30900 25.65500
C  36.42600 45.10800 26.45800
C  36.13500 45.56500 27.83000
C  36.01000 46.97900 27.75000
C  36.67100 43.68300 26.08300
C  36.06200 45.12000 29.21100
O  36.27400 44.01600 29.75600
C  35.62500 46.53000 30.01600
C  34.33400 46.28700 30.66700
O  33.29300 46.69200 30.17000
O  34.49700 45.48600 31.78100
C  33.32600 45.18000 32.50000
H  35.92600 53.26500 28.23400
H  35.94400 51.52600 22.10700
H  36.75300 45.63400 23.59100
H  34.34200 49.77500 30.74500
H  36.61600 51.83500 30.39700
H  34.98900 53.16900 31.04600
H  33.93400 51.81200 31.20100
H  33.88500 52.70600 29.67700
H  36.94800 50.19900 31.99900
H  36.86700 48.52700 31.21500
H  36.23800 49.22300 33.72900
H  35.76400 47.73200 32.90100
H  36.29700 55.68100 25.87600
H  35.37700 55.02500 27.22200
H  34.59200 55.45500 25.67400
H  36.26500 56.04600 23.50500
H  34.43600 56.10500 23.53600
H  35.33900 56.05000 22.01700
H  36.94600 49.50600 21.16300
H  35.79700 46.83500 21.49000
H  34.96200 49.86600 19.82400
H  33.92200 49.07000 20.93200
H  35.00900 48.11400 19.90500
H  38.58500 46.90700 22.50000
H  38.42800 48.06600 21.18200
H  38.80700 46.36000 19.84200
H  37.20200 45.81400 20.04000
H  38.39700 45.03500 21.07700
H  37.70300 43.53200 26.40000
H  36.52900 43.48700 25.02100
H  36.04400 43.06200 26.72400
H  36.35700 46.56300 30.82300
H  32.82900 46.12100 32.73500
H  33.54300 44.59300 33.39300
H  32.60800 44.57500 31.94700

