158

Mg -2.41700 17.03200 25.43900
C  -2.65100 14.67900 28.15400
C  -3.06400 19.53600 27.67400
C  -2.47400 19.15200 22.85300
C  -2.17000 14.30300 23.24000
N  -2.76300 17.03100 27.71300
C  -2.72400 16.00900 28.58100
C  -3.08100 16.50500 29.99400
C  -3.21600 18.08400 29.79200
C  -2.94700 18.25600 28.28800
C  -4.64500 18.68400 30.23500
C  -2.00900 16.08300 31.02400
C  -1.98200 16.78500 32.38700
H  -1.36200 16.10700 33.61400
N  -2.54200 19.10700 25.31300
C  -2.73800 19.95500 26.36300
C  -2.70800 21.27900 25.81200
C  -2.42900 21.19600 24.47400
C  -2.41600 19.82100 24.14000
C  -3.07700 22.41700 26.71900
C  -2.29200 22.37300 23.57400
O  -2.38500 22.24700 22.37600
C  -1.94100 23.79700 24.16800
N  -2.68600 16.79200 23.37800
C  -2.58600 17.83700 22.49500
C  -2.53300 17.35500 21.03600
C  -2.09600 15.84400 21.18600
C  -2.34000 15.60800 22.70700
C  -3.75000 17.66200 20.20100
C  -0.63900 15.46700 20.75900
C  0.44300 15.66000 21.89100
N  -2.39500 14.92100 25.55200
C  -2.27000 13.91600 24.56700
C  -2.37400 12.62400 25.11100
C  -2.48800 12.86200 26.54100
C  -2.49700 14.28700 26.72700
C  -2.37800 11.30200 24.44000
C  -2.56000 12.26600 27.86000
O  -2.50300 11.08100 28.10500
C  -2.63900 13.36000 28.93900
C  -1.40400 13.21700 29.79500
O  -0.27900 13.64500 29.62000
O  -1.81100 12.61400 30.97000
C  -0.80300 12.53600 32.03900
H  -3.35600 20.37800 28.30500
H  -2.47400 19.80300 21.97700
H  -2.15700 13.46000 22.54600
H  -4.03800 16.04700 30.24700
H  -2.40700 18.59100 30.31700
H  -5.29200 19.01100 29.42000
H  -4.30400 19.58600 30.74300
H  -5.19500 18.05300 30.93300
H  -1.00500 16.17400 30.60900
H  -2.31000 15.05700 31.23400
H  -3.02400 17.06900 32.53300
H  -1.33500 17.65200 32.25000
H  -2.17900 22.82300 27.18600
H  -3.79400 22.06000 27.45900
H  -3.57200 23.23200 26.19200
H  -1.45800 24.34400 23.35800
H  -1.20200 23.61600 24.94800
H  -2.77300 24.30100 24.66100
H  -1.74400 17.91800 20.53700
H  -2.73100 15.19700 20.58000
H  -4.48900 18.18500 20.80800
H  -4.22200 16.79400 19.74000
H  -3.44800 18.31900 19.38600
H  -0.37300 16.20500 20.00300
H  -0.55100 14.42300 20.45800
H  -0.03500 16.29300 22.63900
H  1.31700 16.18300 21.50400
H  0.78700 14.70500 22.29000
H  -2.10200 11.45800 23.39700
H  -3.40900 10.95400 24.49200
H  -1.72900 10.57700 24.93100
H  -3.61700 13.27600 29.41400
H  0.01100 13.24200 31.87300
H  -0.42400 11.51500 32.00700
H  -1.25000 12.77300 33.00400
Mg 24.66200 -6.79400 46.93000
C  27.05200 -4.60400 45.78000
C  22.38800 -5.27600 44.81000
C  22.53200 -9.39100 47.31100
C  27.22000 -8.70800 48.41200
N  24.79900 -5.20900 45.31700
C  25.83500 -4.40300 45.19000
C  25.55100 -3.29600 44.27200
C  24.03500 -3.29000 44.17000
C  23.70200 -4.67500 44.80900
C  23.23200 -2.19700 44.87900
C  26.27700 -3.24800 42.88200
C  26.55000 -1.79100 42.24200
H  26.00000 -1.57600 40.82300
N  22.60300 -7.15000 46.33100
C  21.86800 -6.35000 45.51600
C  20.52600 -6.83000 45.55900
C  20.49900 -8.06100 46.29100
C  21.89700 -8.24200 46.71500
C  19.46400 -6.03900 44.82700
C  19.30200 -8.83200 46.63400
O  18.20000 -8.42200 46.21100
C  19.41800 -10.09000 47.50900
N  24.89300 -8.75700 47.73900
C  23.86000 -9.63800 47.72900
C  24.25000 -10.91400 48.44400
C  25.69200 -10.73900 48.97500
C  25.98400 -9.30000 48.34900
C  23.21200 -11.39400 49.54200
C  26.73700 -11.80400 48.53000
C  27.77900 -12.19300 49.63800
N  26.69800 -6.69200 47.22300
C  27.60400 -7.45500 47.95800
C  28.87200 -6.73900 48.07300
C  28.73500 -5.66500 47.17300
C  27.40200 -5.64900 46.68700
C  30.00600 -7.12100 48.90000
C  29.46900 -4.49200 46.69400
O  30.58100 -4.07300 47.01200
C  28.38200 -3.77700 45.66100
C  28.44900 -2.27200 45.75000
O  28.76400 -1.49500 44.83400
O  28.03800 -1.78000 46.98400
C  28.16400 -0.33100 47.23900
H  21.62100 -4.70500 44.28400
H  21.91200 -10.27800 47.45700
H  28.05300 -9.17900 48.93800
H  25.79400 -2.33700 44.73000
H  23.68600 -3.29600 43.13800
H  23.39500 -1.18100 44.52000
H  23.26000 -2.20200 45.96800
H  22.20000 -2.45900 44.64800
H  25.75000 -3.79800 42.10300
H  27.25100 -3.73200 42.82200
H  27.63000 -1.66900 42.31800
H  26.16800 -0.99300 42.87800
H  19.60200 -6.22100 43.76100
H  19.63500 -4.99500 45.09100
H  18.40800 -6.24000 45.00700
H  20.07100 -10.73100 46.91600
H  18.36600 -10.37200 47.53000
H  19.92400 -9.83200 48.43900
H  24.28100 -11.70600 47.69500
H  25.65400 -10.70100 50.06300
H  22.68500 -12.27200 49.16900
H  22.48000 -10.61600 49.76100
H  23.73800 -11.72900 50.43600
H  27.35100 -11.29200 47.79000
H  26.39700 -12.75700 48.12600
H  28.77600 -11.98300 49.24900
H  27.69400 -13.24200 49.92000
H  27.61100 -11.58000 50.52300
H  30.43100 -6.23600 49.37200
H  30.78200 -7.71200 48.41300
H  29.67100 -7.84700 49.64100
H  28.71800 -4.07400 44.66800
H  28.43800 0.26300 46.36700
H  28.90800 -0.03200 47.97700
H  27.23700 0.00100 47.70700

