158

Mg 47.62800 34.84100 28.33100
C  46.15000 33.02500 30.85900
C  47.70500 37.64900 30.60700
C  48.54600 36.87800 25.79000
C  46.80100 32.37400 26.01300
N  46.86100 35.30200 30.51000
C  46.51600 34.31600 31.36400
C  46.40500 34.87200 32.77100
C  46.61800 36.38700 32.62400
C  47.14200 36.49200 31.16800
C  45.28200 37.19800 32.79100
C  47.51000 34.25100 33.72800
C  47.11300 34.05900 35.25400
H  48.00400 34.83800 36.18100
N  48.17200 36.86100 28.28400
C  48.21600 37.82900 29.32600
C  48.76000 39.07700 28.79700
C  49.07800 38.77800 27.41400
C  48.56000 37.41200 27.10300
C  48.85500 40.33600 29.67700
C  49.67300 39.71300 26.36300
O  49.97700 39.39800 25.25300
C  50.06000 41.19800 26.73800
N  47.69100 34.64700 26.17800
C  48.10900 35.62300 25.37300
C  48.10200 35.18000 23.86900
C  47.54600 33.71500 23.94300
C  47.41200 33.49100 25.51400
C  47.12600 36.12800 23.00400
C  48.39800 32.59100 23.18700
C  49.64300 32.04500 23.91000
N  46.85600 32.98200 28.43200
C  46.49800 32.14800 27.39600
C  45.77100 30.97500 27.94500
C  45.70900 31.28400 29.35300
C  46.28500 32.55600 29.51600
C  45.24400 29.77300 27.19800
C  45.12800 30.79400 30.54700
O  44.60500 29.71000 30.81200
C  45.23300 32.04100 31.56300
C  45.77500 31.62800 32.87200
O  46.82700 31.03500 33.05300
O  44.68700 31.77100 33.76400
C  44.97800 31.25600 35.16300
H  47.82400 38.46100 31.32700
H  48.86000 37.44600 24.91200
H  46.42800 31.62100 25.31600
H  45.38500 34.66900 33.09600
H  47.23100 36.64700 33.48600
H  45.01300 37.34000 33.83800
H  44.43400 36.66100 32.36600
H  45.42300 38.20500 32.39800
H  48.40600 34.87100 33.70600
H  47.85700 33.34200 33.23700
H  47.12900 32.99200 35.47700
H  46.09100 34.27100 35.56900
H  49.59200 40.33100 30.47900
H  47.89500 40.44200 30.18100
H  49.09900 41.30000 29.23000
H  50.56000 41.69600 25.90700
H  50.90200 41.08300 27.42000
H  49.25300 41.77700 27.18700
H  49.10800 35.33300 23.47900
H  46.58700 33.61500 23.43500
H  47.10900 37.00200 23.65600
H  46.14900 35.67100 22.84600
H  47.70800 36.23400 22.08900
H  48.72900 33.00200 22.23300
H  47.76200 31.71000 23.09700
H  49.58000 31.08400 24.42000
H  49.81800 32.76600 24.70800
H  50.53800 31.98700 23.29000
H  44.80700 30.06200 26.24200
H  44.46500 29.42200 27.87600
H  45.97700 28.97100 27.10700
H  44.20000 32.37700 31.65500
H  44.70600 30.21100 35.31400
H  44.56400 31.98200 35.86300
H  46.03600 31.24000 35.42700
Mg -2.18100 35.01600 26.14300
C  -3.44300 33.07000 28.60300
C  -0.78500 37.04400 28.47700
C  -0.68300 36.84000 23.51700
C  -3.67800 32.93700 23.76400
N  -2.05300 34.94400 28.32200
C  -2.73900 34.07200 29.11500
C  -2.31400 34.25000 30.61100
C  -1.57300 35.64200 30.55700
C  -1.42100 35.87500 29.05200
C  -2.35300 36.88300 31.25600
C  -1.55400 33.08100 31.28200
C  -1.92100 32.96100 32.85200
H  -0.72800 33.15100 33.87600
N  -0.97800 36.74300 26.04800
C  -0.56900 37.47000 27.13100
C  0.17500 38.63000 26.67600
C  0.32800 38.54100 25.28900
C  -0.41400 37.30900 24.88500
C  0.85700 39.60100 27.59500
C  1.08600 39.45700 24.30500
O  1.18400 39.17800 23.13500
C  1.51500 40.81000 24.71800
N  -2.28200 35.01200 23.92600
C  -1.48800 35.74000 23.12500
C  -1.59200 35.23600 21.62600
C  -2.32400 33.88900 21.89300
C  -2.78500 33.92600 23.26300
C  -2.44600 36.24900 20.82300
C  -1.42500 32.63000 21.61000
C  -0.01800 32.82500 22.30800
N  -3.51000 33.56200 26.10000
C  -4.03200 32.74500 25.09400
C  -4.78800 31.70500 25.72100
C  -4.54800 31.73000 27.06700
C  -3.76600 32.91200 27.25300
C  -5.41600 30.54300 24.92000
C  -4.85400 31.07700 28.21900
O  -5.41100 29.99800 28.36800
C  -4.13500 31.89600 29.31000
C  -5.04600 32.42400 30.35200
O  -5.72900 33.43000 30.20700
O  -4.95900 31.65700 31.45600
C  -5.52800 32.22100 32.66100
H  -0.39300 37.80900 29.15100
H  -0.09500 37.26400 22.70100
H  -4.03000 32.22400 23.01700
H  -3.24100 34.34300 31.17700
H  -0.54900 35.62100 30.93200
H  -2.81700 37.45200 30.45100
H  -1.62500 37.54500 31.72400
H  -3.10200 36.51200 31.95600
H  -0.50100 33.34500 31.18400
H  -1.72500 32.10900 30.81800
H  -2.38300 32.00100 33.08100
H  -2.67500 33.65600 33.22200
H  1.05700 39.17500 28.57900
H  0.23300 40.48900 27.70300
H  1.83400 39.92900 27.24000
H  1.60000 41.42300 23.82100
H  2.49000 40.53300 25.11800
H  0.82600 41.20100 25.46700
H  -0.54700 35.21500 21.31600
H  -3.17600 33.76700 21.22400
H  -2.52300 37.15400 21.42500
H  -3.44000 35.82300 20.68400
H  -1.93400 36.55900 19.91300
H  -1.30700 32.63900 20.52700
H  -1.92600 31.69000 21.84100
H  0.09200 33.64400 23.01900
H  0.65400 32.89100 21.45200
H  0.10100 31.84200 22.76300
H  -4.58100 30.10100 24.37500
H  -6.19900 30.93500 24.27100
H  -5.72700 29.76800 25.62000
H  -3.36100 31.18900 29.61100
H  -5.48600 33.30900 32.69200
H  -4.85000 31.82300 33.41600
H  -6.56500 31.90500 32.76800

