158

Mg 44.60400 3.76700 46.62200
C  42.37200 6.45100 46.19300
C  41.82000 1.60000 46.44200
C  46.80800 1.25700 46.27800
C  47.21900 6.12300 46.15700
N  42.29100 3.95800 46.29300
C  41.68800 5.22000 46.14500
C  40.15100 4.95800 45.94200
C  39.96500 3.43900 46.29800
C  41.39200 2.95100 46.40200
C  39.20500 3.13800 47.64400
C  39.44600 5.24300 44.51100
C  38.57700 6.55300 44.45900
H  38.87200 7.55800 43.32800
N  44.33600 1.65300 46.42100
C  43.09900 0.99000 46.35200
C  43.38300 -0.41500 46.18500
C  44.83200 -0.55500 46.07000
C  45.42800 0.80200 46.24200
C  42.36400 -1.53100 46.09600
C  45.55400 -1.90200 45.90600
O  44.99000 -2.99200 45.83400
C  47.06200 -1.96300 45.75000
N  46.72400 3.74600 46.22100
C  47.34800 2.53600 46.34900
C  48.87700 2.70900 46.30400
C  49.00200 4.27000 46.34800
C  47.53600 4.73300 46.24900
C  49.45900 1.87100 47.50100
C  49.81300 4.80800 45.05200
C  51.07500 5.59200 45.46100
N  44.83100 5.87300 46.40200
C  45.91900 6.69100 46.27500
C  45.53000 8.11500 46.20100
C  44.16300 8.05100 46.25900
C  43.77600 6.65400 46.34800
C  46.40400 9.34400 45.85800
C  42.95300 8.82000 46.20000
O  42.86300 10.05800 46.29600
C  41.77400 7.84500 46.22000
C  40.79500 8.17300 47.21800
O  40.61900 7.55900 48.22900
O  40.04900 9.22900 46.83300
C  38.87100 9.62400 47.54400
H  41.01100 0.87100 46.36500
H  47.62300 0.56200 46.06200
H  48.09900 6.76900 46.12700
H  39.79400 5.59200 46.75300
H  39.42400 2.91500 45.51100
H  39.00300 4.06300 48.18400
H  39.68700 2.43400 48.32300
H  38.24600 2.66300 47.43900
H  38.78100 4.42100 44.24800
H  40.15100 5.15100 43.68400
H  38.67100 7.01300 45.44300
H  37.54300 6.26000 44.27600
H  42.37500 -1.75900 45.03000
H  41.40400 -1.24400 46.52500
H  42.60300 -2.45100 46.63000
H  47.29100 -1.62600 44.73900
H  47.43800 -2.98500 45.78900
H  47.47600 -1.37700 46.57000
H  49.33300 2.28600 45.40900
H  49.50600 4.58000 47.26400
H  48.90000 0.96600 47.73700
H  49.45700 2.58600 48.32400
H  50.49400 1.61800 47.27300
H  49.04300 5.46600 44.64800
H  50.11400 3.98400 44.40500
H  51.07000 6.30300 44.63500
H  52.00400 5.02400 45.43700
H  51.03200 6.14600 46.39900
H  45.78700 10.23300 45.98400
H  46.77700 9.31500 44.83400
H  47.17300 9.50300 46.61300
H  41.20500 8.06400 45.31700
H  38.69700 9.11200 48.49000
H  38.03500 9.40400 46.88000
H  38.85800 10.68800 47.77800
Mg 34.95900 3.17200 30.01700
C  32.54000 4.03000 32.38600
C  37.26500 3.42100 32.63600
C  37.38200 2.57100 27.71800
C  32.57300 3.35200 27.58500
N  34.79800 3.51100 32.26200
C  33.77600 3.91200 32.96500
C  34.04300 3.87700 34.44300
C  35.59100 4.06600 34.50200
C  35.90800 3.60900 33.05600
C  36.06400 5.50500 34.99200
C  33.46200 2.67800 35.18800
C  32.99600 2.87200 36.60500
H  33.54400 4.07500 37.42100
N  37.01300 3.09800 30.11400
C  37.78300 3.13100 31.32400
C  39.10800 2.79700 31.01100
C  39.26300 2.53000 29.60800
C  37.82600 2.73800 29.07100
C  40.26400 2.78500 32.06400
C  40.51000 2.05100 28.76300
O  40.35400 1.90500 27.58300
C  41.92100 1.83600 29.40400
N  34.91700 2.89200 27.95100
C  36.06500 2.60300 27.21000
C  35.74000 2.37700 25.70800
C  34.23000 2.78000 25.65200
C  33.88000 3.11700 27.17100
C  36.64200 3.16500 24.79200
C  33.37700 1.60300 25.00500
C  32.47000 2.00100 23.78100
N  32.90300 3.56300 29.96100
C  32.05800 3.60200 28.86900
C  30.75000 3.90600 29.32700
C  30.83800 4.09600 30.70500
C  32.23200 3.83600 31.02200
C  29.58400 4.24200 28.47400
C  30.15500 4.47500 31.92300
O  28.98600 4.77800 32.12100
C  31.22200 4.36300 33.11000
C  31.29800 5.59700 33.90900
O  31.73200 6.65200 33.43200
O  30.75300 5.43700 35.22500
C  30.16700 6.62600 35.86400
H  38.03600 3.46000 33.40800
H  38.16900 2.35900 26.99200
H  31.72100 3.44100 26.90800
H  33.55600 4.76800 34.83800
H  36.00600 3.39400 35.25200
H  36.22100 5.49100 36.07100
H  35.29000 6.24800 34.79700
H  36.95800 5.79000 34.43800
H  34.15600 1.83800 35.21500
H  32.55100 2.38200 34.66800
H  33.25100 1.97300 37.16600
H  31.90800 2.93600 36.62200
H  40.04000 3.17100 33.05800
H  41.06700 3.36500 31.60700
H  40.69300 1.79700 32.22900
H  42.47200 2.76600 29.53700
H  42.54600 1.34500 28.65800
H  41.85100 1.21300 30.29600
H  35.85200 1.31100 25.50800
H  34.22000 3.69700 25.06300
H  36.94800 4.06900 25.31700
H  36.06400 3.55600 23.95500
H  37.40900 2.50200 24.39100
H  32.65200 1.30100 25.76100
H  33.95500 0.76900 24.60600
H  32.60200 1.35700 22.91200
H  32.87500 2.93700 23.39500
H  31.43800 2.20100 24.07200
H  29.12800 5.09700 28.97400
H  28.87400 3.41800 28.41200
H  29.90700 4.53500 27.47500
H  30.96800 3.53200 33.76900
H  29.98800 7.29100 35.01900
H  30.66200 7.11100 36.70600
H  29.19900 6.25700 36.20100

