158

Mg 42.96800 42.80400 26.19900
C  41.88600 45.01400 28.68300
C  44.11500 40.65200 28.74600
C  44.31900 40.92100 23.84800
C  42.34300 45.33400 23.83600
N  42.98900 42.85200 28.44300
C  42.43100 43.80900 29.27900
C  42.41900 43.34100 30.79000
C  43.46200 42.18100 30.78900
C  43.63600 41.90400 29.24000
C  44.81000 42.36800 31.57900
C  40.97500 43.07400 31.27700
C  40.42300 43.69500 32.56200
H  41.38500 43.92800 33.69100
N  43.86100 40.97700 26.31400
C  44.31300 40.29100 27.40500
C  44.99500 39.11800 26.93500
C  44.91800 39.10700 25.56200
C  44.33000 40.35900 25.20300
C  45.64100 38.08800 27.88200
C  45.39500 38.02600 24.58400
O  44.94100 37.96100 23.48600
C  46.37400 37.01300 24.94700
N  43.38000 43.20100 24.13100
C  43.84800 42.18200 23.37500
C  43.72900 42.49200 21.93700
C  43.04700 43.89400 21.85100
C  42.84600 44.17000 23.33700
C  45.08200 42.28200 21.17200
C  41.74000 43.99300 20.96300
C  40.54100 43.20700 21.52900
N  42.23500 44.72500 26.21300
C  42.03100 45.61500 25.15900
C  41.56200 46.89600 25.68900
C  41.38100 46.67600 27.06500
C  41.88900 45.34200 27.36500
C  41.39700 48.13600 24.86500
C  40.94900 47.22900 28.31900
O  40.44200 48.30300 28.58400
C  41.20500 46.14100 29.43400
C  42.14200 46.75300 30.44700
O  43.19500 47.35400 30.20700
O  41.55800 46.71600 31.66400
C  42.00000 47.94300 32.43200
H  44.35300 39.99900 29.58800
H  44.65700 40.15600 23.14600
H  41.88500 46.01500 23.11500
H  42.84200 44.08000 31.47000
H  42.84600 41.32200 31.05400
H  45.60900 42.29700 30.84100
H  44.88900 41.69300 32.43100
H  44.76900 43.33300 32.08400
H  40.93100 41.98700 31.35300
H  40.25400 43.27300 30.48400
H  39.73000 42.92700 32.90700
H  39.84600 44.59700 32.35900
H  45.55900 38.49600 28.89000
H  46.66900 37.77200 27.70800
H  45.11700 37.13300 27.85200
H  47.17200 37.60700 25.39300
H  46.66200 36.61300 23.97500
H  46.00400 36.24000 25.61900
H  43.06200 41.76900 21.46800
H  43.73900 44.61400 21.41600
H  46.05700 42.39700 21.64500
H  45.27200 43.04500 20.41700
H  45.07200 41.30300 20.69400
H  41.97200 43.88700 19.90300
H  41.38900 45.00500 21.16600
H  39.79600 43.96800 21.76200
H  40.92700 42.69200 22.40900
H  40.11600 42.48600 20.83100
H  42.40300 48.52900 24.71300
H  40.77800 48.77700 25.49200
H  40.84100 47.85500 23.97100
H  40.25100 45.93200 29.91600
H  41.53800 47.91800 33.41900
H  41.71900 48.90700 32.01000
H  43.08800 47.99300 32.46600
Mg -12.22400 36.72000 42.31100
C  -9.61500 34.42700 42.00000
C  -10.21300 39.10700 40.76300
C  -14.84600 38.85500 42.13200
C  -14.27400 34.06600 43.05600
N  -10.12500 36.69700 41.39400
C  -9.28000 35.63400 41.35800
C  -7.98600 36.03500 40.71800
C  -8.00700 37.61000 40.78600
C  -9.54000 37.84900 41.00500
C  -7.11100 38.22000 41.84100
C  -7.91700 35.43800 39.31500
C  -6.52600 34.77000 39.01000
H  -5.60900 35.50000 38.05700
N  -12.48400 38.66600 41.65400
C  -11.48500 39.44800 41.13500
C  -12.02300 40.76000 40.94600
C  -13.36500 40.83700 41.37900
C  -13.63800 39.43000 41.71100
C  -11.13600 41.96200 40.38500
C  -14.34700 42.08800 41.50500
O  -13.86700 43.15100 41.11400
C  -15.71100 42.04600 41.94200
N  -14.23100 36.53100 42.63200
C  -15.19800 37.54800 42.48300
C  -16.63400 37.05100 42.83700
C  -16.35800 35.50900 43.07000
C  -14.86600 35.33900 42.90800
C  -17.32100 37.69500 44.09600
C  -17.33600 34.53500 42.15700
C  -17.90100 33.33200 42.92100
N  -11.99200 34.74500 42.60200
C  -12.92200 33.79400 42.91600
C  -12.24300 32.53500 43.20000
C  -10.96800 32.75300 42.83500
C  -10.84700 34.12000 42.42400
C  -12.71400 31.29100 43.76300
C  -9.73800 32.09000 42.69000
O  -9.37300 30.93100 42.83700
C  -8.79200 33.18700 42.12100
C  -7.66600 33.36400 43.03100
O  -6.51700 32.98700 42.92000
O  -8.05200 33.95600 44.20700
C  -7.09100 33.86600 45.34800
H  -9.44200 39.85200 40.55600
H  -15.74000 39.47900 42.06000
H  -15.02000 33.29900 43.27500
H  -7.21600 35.56600 41.33000
H  -7.60700 38.01800 39.85800
H  -6.24500 37.59200 42.05100
H  -7.65000 38.39600 42.77100
H  -6.78100 39.21400 41.53900
H  -7.95900 36.23200 38.56900
H  -8.72900 34.74300 39.09900
H  -6.68100 33.74000 38.68700
H  -5.96000 34.68100 39.93700
H  -10.74000 42.46000 41.27000
H  -11.68700 42.70800 39.81300
H  -10.30600 41.58600 39.78700
H  -15.97000 43.09900 42.05900
H  -15.68300 41.65800 42.96000
H  -16.36700 41.46400 41.29600
H  -17.13300 37.20600 41.88000
H  -16.60200 35.18800 44.08300
H  -17.78200 38.66900 43.93500
H  -16.61500 37.84300 44.91300
H  -18.07000 37.00800 44.49100
H  -16.67200 34.05600 41.43800
H  -18.11700 35.16800 41.73600
H  -18.97200 33.51200 42.82400
H  -17.62300 33.27800 43.97300
H  -17.54100 32.39400 42.49800
H  -12.04300 31.03100 44.58200
H  -12.67300 30.51400 42.99900
H  -13.72300 31.44100 44.14700
H  -8.39100 32.91500 41.14500
H  -6.66500 32.86500 45.41600
H  -7.51500 34.03100 46.33800
H  -6.35600 34.64400 45.14100

