158

Mg 23.68400 -5.79100 45.98300
C  25.86100 -3.55700 44.38600
C  21.10900 -4.68800 44.06800
C  21.99000 -8.63500 46.77700
C  26.61800 -7.18200 47.50400
N  23.54900 -4.45000 44.29600
C  24.54800 -3.52300 43.98100
C  24.05300 -2.50800 42.89300
C  22.49200 -2.80200 42.99200
C  22.35600 -4.04300 43.85500
C  21.60800 -1.60400 43.61400
C  24.64000 -2.79400 41.51900
C  25.26200 -1.62300 40.76200
H  25.11000 -1.57600 39.25300
N  21.76500 -6.56500 45.54400
C  20.80300 -5.91600 44.78000
C  19.56900 -6.68900 44.69600
C  19.92000 -7.94800 45.27000
C  21.27400 -7.82000 45.88400
C  18.29200 -6.25800 43.89000
C  19.06800 -9.16000 45.29400
O  17.93100 -9.09700 44.95400
C  19.65400 -10.53300 45.61600
N  24.29500 -7.70700 46.89700
C  23.33400 -8.63900 47.23100
C  23.92800 -9.68300 48.12400
C  25.36000 -9.12500 48.52300
C  25.49200 -7.97300 47.54000
C  23.11100 -10.05800 49.29600
C  26.35800 -10.25800 48.28400
C  27.46500 -10.27800 49.36100
N  25.82600 -5.38500 46.02800
C  26.82100 -6.00400 46.78400
C  28.04400 -5.26500 46.58300
C  27.75600 -4.27800 45.65300
C  26.40000 -4.44500 45.25100
C  29.40800 -5.51500 47.19500
C  28.36500 -3.18900 44.83800
O  29.45100 -2.63900 44.77300
C  27.08300 -2.67400 43.98500
C  26.80500 -1.25600 44.36400
O  26.39000 -0.92900 45.47100
O  27.17200 -0.51600 43.32400
C  27.13100 0.98100 43.56000
H  20.25400 -4.24400 43.55300
H  21.43200 -9.46900 47.20700
H  27.42700 -7.54600 48.14100
H  24.38500 -1.51300 43.18900
H  22.10500 -3.03600 42.00000
H  21.02400 -1.22600 42.77400
H  22.32000 -0.81300 43.84600
H  20.97800 -1.87100 44.46200
H  23.87300 -3.24100 40.88700
H  25.43700 -3.53600 41.52000
H  26.32500 -1.49300 40.96300
H  24.88100 -0.71700 41.23300
H  18.19100 -7.18700 43.32900
H  18.41300 -5.45100 43.16600
H  17.46500 -5.98600 44.54500
H  19.00200 -11.26700 45.14400
H  19.52100 -10.67300 46.68900
H  20.67400 -10.68700 45.26400
H  24.09100 -10.57900 47.52500
H  25.40600 -8.68900 49.52100
H  22.16600 -9.51400 49.30400
H  23.64200 -9.78400 50.20700
H  22.99300 -11.14100 49.31300
H  26.80300 -10.29800 47.29000
H  25.95200 -11.27000 48.31200
H  27.39100 -11.32700 49.64800
H  27.29500 -9.59700 50.19500
H  28.39700 -10.03400 48.85000
H  29.62200 -6.54800 46.92200
H  29.18700 -5.46300 48.26100
H  30.13100 -4.80000 46.80200
H  27.41000 -2.72200 42.94700
H  26.18500 1.23400 44.03800
H  27.21900 1.58000 42.65300
H  27.94900 1.16100 44.25700
Mg -10.18000 16.73900 40.89400
C  -6.74500 16.25400 41.24000
C  -9.67600 19.99300 40.01100
C  -13.41400 16.87900 40.11300
C  -10.61600 13.11300 41.25400
N  -8.34700 17.88000 40.49100
C  -7.05600 17.54600 40.81900
C  -6.14600 18.60100 40.37700
C  -7.08000 19.87900 40.38400
C  -8.46100 19.27000 40.30500
C  -6.83300 20.92000 41.52900
C  -5.58000 18.22000 39.00700
C  -4.13000 17.61000 38.99700
H  -3.92300 16.20600 38.40500
N  -11.37700 18.28000 40.10800
C  -10.98200 19.53900 39.87200
C  -12.21900 20.30200 39.55000
C  -13.31500 19.42100 39.38700
C  -12.73200 18.12000 39.83200
C  -12.06900 21.77900 39.15200
C  -14.69100 19.67200 38.90300
O  -14.87300 20.79400 38.40600
C  -15.94500 18.74000 38.86600
N  -11.79800 15.19300 40.86700
C  -13.01100 15.60500 40.58300
C  -14.00800 14.42400 40.46400
C  -13.20600 13.31400 41.04500
C  -11.76400 13.90800 40.97000
C  -15.27500 14.61400 41.38500
C  -13.35700 11.95000 40.26500
C  -13.87100 10.81200 41.12400
N  -9.01000 15.02100 41.30600
C  -9.32500 13.64800 41.36900
C  -8.09900 12.93800 41.69500
C  -7.09100 13.92000 41.73100
C  -7.68900 15.11300 41.32500
C  -8.01300 11.41600 41.94400
C  -5.73200 14.12900 42.01400
O  -4.91300 13.37700 42.47700
C  -5.39900 15.63200 41.71500
C  -5.10000 16.28400 42.99800
O  -5.74300 16.12400 44.02600
O  -4.01200 17.14300 42.86600
C  -3.40500 17.41600 44.17700
H  -9.64200 21.06700 39.81800
H  -14.47800 16.98800 39.89200
H  -10.72200 12.03000 41.34300
H  -5.39000 18.71900 41.15300
H  -7.01900 20.41300 39.43500
H  -7.68300 20.97200 42.21000
H  -6.63600 21.90600 41.10700
H  -5.95500 20.69000 42.13200
H  -5.50600 19.06200 38.31900
H  -6.29600 17.53700 38.55100
H  -3.68300 17.65200 39.99000
H  -3.58200 18.26300 38.31800
H  -11.33900 22.34800 39.72800
H  -12.92400 22.37700 39.46700
H  -11.88000 21.91600 38.08700
H  -16.83100 19.18600 38.41400
H  -16.25500 18.53700 39.89100
H  -15.58800 17.86300 38.32600
H  -14.19400 14.37300 39.39100
H  -13.37500 13.19300 42.11500
H  -15.41900 13.82500 42.12300
H  -16.15400 14.59300 40.74100
H  -15.14000 15.55800 41.91200
H  -12.40800 11.54900 39.91000
H  -14.01700 12.09900 39.41100
H  -14.85800 10.45700 40.82700
H  -13.91900 11.11800 42.16900
H  -13.15100 9.99600 41.17700
H  -8.92500 10.87000 42.18500
H  -7.24200 11.12000 42.65600
H  -7.67600 10.98000 41.00400
H  -4.62500 15.83200 40.97300
H  -3.97500 18.12900 44.77300
H  -2.58700 18.06000 43.85300
H  -3.11600 16.53400 44.74800

