158

Mg 46.83000 24.32600 27.35800
C  47.82200 26.27800 30.02400
C  46.12800 21.87900 29.69500
C  46.26500 22.16900 24.78700
C  47.91800 26.67300 25.13000
N  46.96100 24.09900 29.60200
C  47.32800 25.07700 30.49400
C  46.93900 24.68100 31.94000
C  46.64000 23.14600 31.81600
C  46.53800 23.03500 30.26800
C  47.68900 22.33300 32.40700
C  45.89400 25.52300 32.65200
C  45.48900 25.01600 34.06000
H  46.02300 25.76200 35.29500
N  46.23800 22.30100 27.29800
C  46.02400 21.42300 28.35500
C  45.87900 20.14100 27.79700
C  45.90400 20.20300 26.39800
C  46.03900 21.60500 26.09400
C  45.64500 18.88500 28.78200
C  45.99100 19.05500 25.46600
O  46.05500 19.18900 24.24100
C  45.99400 17.57100 26.03200
N  46.97000 24.40900 25.26500
C  46.69800 23.39200 24.45000
C  46.95100 23.82300 22.96100
C  47.36200 25.23600 23.04100
C  47.37500 25.49300 24.53800
C  48.00100 22.89200 22.24900
C  46.31400 26.12000 22.29900
C  44.93200 26.21800 22.90700
N  47.67100 26.16800 27.47300
C  48.06000 27.05500 26.44600
C  48.64100 28.20700 27.05700
C  48.53500 27.98000 28.47800
C  47.96300 26.70000 28.67800
C  49.31200 29.32700 26.43300
C  48.83000 28.51400 29.78200
O  49.38000 29.52300 30.10700
C  48.22400 27.47900 30.81000
C  49.25100 27.15300 31.74900
O  50.05600 26.25100 31.79200
O  49.08400 27.95700 32.84400
C  49.79100 27.55500 34.09200
H  45.83800 21.12600 30.43000
H  46.14100 21.45100 23.97400
H  48.17600 27.40400 24.36000
H  47.89000 24.78400 32.46200
H  45.71700 22.80600 32.28600
H  48.10700 22.78400 33.30700
H  48.51300 22.16100 31.71400
H  47.25900 21.36000 32.64200
H  45.02200 25.64000 32.00800
H  46.32000 26.52400 32.72200
H  45.78800 23.97900 34.21300
H  44.41200 25.17100 34.12500
H  46.44300 18.14300 28.73700
H  44.69600 18.43200 28.49300
H  45.43100 19.13400 29.82100
H  45.04100 17.48700 26.55400
H  46.88400 17.33500 26.61400
H  45.93100 16.93500 25.14900
H  46.02500 23.79700 22.38700
H  48.34700 25.45000 22.62700
H  47.57500 22.51300 21.32000
H  48.34300 22.01800 22.80200
H  48.83700 23.52000 21.93900
H  46.29700 25.85100 21.24300
H  46.71900 27.12700 22.20100
H  44.23200 25.99900 22.10100
H  44.69500 27.25400 23.14900
H  44.75400 25.50400 23.71200
H  49.18600 30.20500 27.06600
H  48.76100 29.45700 25.50200
H  50.38200 29.18900 26.28000
H  47.41800 28.07900 31.23200
H  49.71800 26.46900 34.14800
H  49.19300 27.99800 34.89000
H  50.83700 27.86100 34.11200
Mg -0.08100 43.58500 26.20600
C  2.13500 43.41100 28.98700
C  -2.53600 42.55100 28.41700
C  -2.17100 43.56000 23.64300
C  2.57900 44.20300 24.12100
N  -0.09400 42.95400 28.56600
C  0.87900 43.08600 29.47200
C  0.31900 42.94200 30.90400
C  -1.16100 42.46700 30.59900
C  -1.32200 42.76700 29.09300
C  -1.55000 41.00100 31.02400
C  0.40600 44.24700 31.75200
C  0.84500 44.19600 33.24500
H  0.73000 42.91300 33.99600
N  -2.07200 43.12000 26.04700
C  -2.91900 42.77500 27.09600
C  -4.32600 42.67100 26.59400
C  -4.26200 43.07100 25.20100
C  -2.80900 43.33700 24.94100
C  -5.48400 42.21800 27.45100
C  -5.35100 43.17300 24.13300
O  -5.10400 43.43800 22.99000
C  -6.78200 42.87500 24.50500
N  0.19100 43.80700 24.10800
C  -0.84400 43.86700 23.24800
C  -0.40100 44.26300 21.87000
C  1.09200 44.64300 22.13000
C  1.30300 44.23900 23.52700
C  -0.56400 43.08600 20.93100
C  1.44600 46.13700 21.75800
C  1.31600 47.10800 22.98600
N  1.94200 43.66600 26.47000
C  2.89200 43.89000 25.48800
C  4.26800 43.81800 26.13200
C  4.02900 43.67300 27.53100
C  2.56100 43.61300 27.66400
C  5.49200 44.01200 25.32700
C  4.63600 43.47400 28.84400
O  5.77200 43.52100 29.21800
C  3.39300 43.43700 29.77600
C  3.57200 42.24300 30.54100
O  3.28400 41.10900 30.25600
O  4.08800 42.53600 31.77000
C  4.36200 41.36700 32.65700
H  -3.30300 42.21300 29.11700
H  -2.81200 43.62900 22.76200
H  3.36800 44.27600 23.36900
H  0.98300 42.20800 31.36100
H  -1.91100 43.10400 31.06800
H  -2.47200 41.02400 31.60500
H  -0.78900 40.40900 31.53300
H  -1.73000 40.38900 30.14000
H  -0.57600 44.72100 31.74800
H  1.03100 45.00700 31.28500
H  0.12900 44.82700 33.77200
H  1.82200 44.66500 33.35600
H  -6.44000 42.41700 26.96600
H  -5.48100 42.90300 28.29900
H  -5.44800 41.27200 27.99100
H  -7.45800 43.01100 23.66100
H  -7.10500 43.50100 25.33700
H  -6.89600 41.83500 24.80800
H  -1.02300 45.12200 21.61700
H  1.77800 43.98900 21.59200
H  -0.56000 43.38300 19.88300
H  -1.54100 42.64800 21.13600
H  0.14400 42.26800 21.06700
H  0.77700 46.35700 20.92600
H  2.45700 46.28300 21.37700
H  0.92100 48.05900 22.62900
H  2.37300 47.24900 23.21000
H  0.72000 46.73300 23.81900
H  5.46500 44.79700 24.57100
H  5.70400 43.08300 24.79700
H  6.27700 44.31200 26.02100
H  3.51200 44.23100 30.51300
H  4.86800 40.58800 32.08700
H  3.44200 40.97700 33.09300
H  4.91600 41.65000 33.55200

