158

Mg 36.15400 3.11400 29.84600
C  33.45600 3.83500 32.04000
C  38.18500 3.11600 32.56000
C  38.47000 2.88600 27.59000
C  33.71800 3.20400 27.18500
N  35.87100 3.40100 32.05300
C  34.65600 3.61800 32.73200
C  34.85000 3.69200 34.23400
C  36.41800 3.64300 34.34300
C  36.87100 3.38500 32.91400
C  37.11300 4.91100 34.90200
C  34.09700 2.51300 34.93300
C  33.71700 2.89500 36.41500
H  34.38000 3.98700 37.36000
N  38.09200 2.91000 30.06500
C  38.79800 2.93300 31.28000
C  40.15800 2.62100 30.96000
C  40.28100 2.54100 29.50900
C  38.90900 2.82500 28.97300
C  41.24100 2.36100 31.95600
C  41.50300 2.24100 28.54300
O  41.39400 2.08200 27.33900
C  42.93000 2.12600 29.15800
N  36.14300 2.88600 27.68800
C  37.24400 2.75100 26.98200
C  36.89400 2.62200 25.41200
C  35.35200 2.32000 25.43100
C  35.03000 2.75500 26.90200
C  37.20100 3.93800 24.64900
C  35.04500 0.82200 25.06300
C  34.04200 0.51600 23.92400
N  34.05300 3.60500 29.58500
C  33.23400 3.58900 28.47400
C  31.83100 3.92300 28.87900
C  31.90800 4.10000 30.30900
C  33.23800 3.83700 30.62800
C  30.65900 4.24900 27.95900
C  31.14500 4.41400 31.48000
O  29.95600 4.69000 31.59300
C  32.12000 4.13400 32.63100
C  32.01200 5.40400 33.38200
O  32.30500 6.50500 32.90600
O  31.45600 5.18000 34.62600
C  31.29900 6.36800 35.41600
H  38.81700 2.93900 33.43300
H  39.22800 2.85300 26.80500
H  33.03900 3.18400 26.33000
H  34.49600 4.68300 34.51900
H  36.78800 2.78000 34.89700
H  37.78700 5.28400 34.13200
H  37.78900 4.49300 35.64800
H  36.42800 5.69800 35.21900
H  34.59900 1.54600 34.89800
H  33.18200 2.33100 34.37000
H  33.75400 1.95100 36.95800
H  32.69800 3.28200 36.45000
H  42.04200 3.09200 31.84400
H  41.74300 1.43100 31.68900
H  40.79900 2.23600 32.94500
H  43.01500 2.80500 30.00700
H  43.61000 2.48200 28.38500
H  43.22700 1.10200 29.38200
H  37.48500 1.77200 25.07200
H  34.88000 2.95100 24.67800
H  36.29100 4.47000 24.37000
H  37.81500 3.73000 23.77300
H  37.79900 4.60000 25.27600
H  34.68000 0.51700 26.04400
H  35.87400 0.15000 24.84000
H  33.55600 1.37300 23.45900
H  33.23300 -0.15500 24.21500
H  34.63700 0.01400 23.16100
H  29.67500 4.23700 28.42700
H  30.55300 3.57700 27.10800
H  30.73700 5.29600 27.66500
H  31.60900 3.36400 33.21000
H  30.90200 7.21900 34.86200
H  32.14100 6.49000 36.09800
H  30.50400 6.13400 36.12400
Mg 47.50800 16.49200 28.87800
C  45.62300 16.03600 31.66700
C  49.62500 18.43000 30.74300
C  49.47000 16.95200 26.12700
C  44.96300 15.23900 26.92600
N  47.55100 17.22100 30.91600
C  46.68400 16.89700 31.87800
C  47.27700 17.25800 33.25900
C  48.34000 18.30600 32.90300
C  48.43700 18.05800 31.41000
C  47.92600 19.75300 33.23500
C  47.93900 15.99100 33.95100
C  48.06400 16.00800 35.54600
H  47.83600 17.32000 36.33500
N  49.35100 17.41300 28.52100
C  50.09500 18.00500 29.48600
C  51.32000 18.48700 28.87800
C  51.38800 17.93900 27.59100
C  50.05600 17.39100 27.33800
C  52.32600 19.34400 29.69300
C  52.52500 17.80300 26.65000
O  52.48700 17.16500 25.58900
C  53.89300 18.30500 27.07600
N  47.19300 16.36600 26.72600
C  48.21100 16.38100 25.84000
C  47.64700 16.03100 24.34800
C  46.26100 15.35200 24.68800
C  46.06900 15.70000 26.18200
C  47.62500 17.22500 23.35300
C  46.10900 13.82900 24.45900
C  45.05700 13.40000 23.43500
N  45.67400 15.72200 29.15100
C  44.77500 15.19700 28.30500
C  43.68200 14.61200 29.01300
C  43.95600 14.88400 30.37200
C  45.22800 15.53300 30.39700
C  42.60900 13.90700 28.33900
C  43.52000 14.67300 31.73200
O  42.45600 14.18700 32.17100
C  44.64800 15.40000 32.63700
C  43.99800 16.35600 33.54300
O  43.26900 17.23700 33.13500
O  44.18600 16.08300 34.84500
C  43.75300 17.14000 35.80700
H  50.21500 19.08200 31.39100
H  50.12100 16.91500 25.25100
H  44.21200 14.71500 26.33100
H  46.42900 17.71300 33.77000
H  49.27900 18.02900 33.38300
H  48.69500 20.09600 33.92700
H  46.98800 19.77500 33.79100
H  47.95300 20.36600 32.33400
H  48.87900 15.68300 33.49300
H  47.25200 15.16200 33.77700
H  49.08600 15.65100 35.66800
H  47.38100 15.24600 35.92200
H  52.63600 20.14300 29.01900
H  53.19400 18.75600 29.99100
H  51.97900 19.82500 30.60800
H  53.95600 19.39300 27.07900
H  54.66400 17.93000 26.40200
H  54.21200 18.13200 28.10400
H  48.34000 15.30400 23.92200
H  45.56100 15.96200 24.11700
H  48.32800 17.05000 22.53900
H  47.86700 18.14400 23.88700
H  46.64000 17.40200 22.92100
H  45.96700 13.29800 25.40000
H  47.05900 13.40400 24.13700
H  45.11100 14.17200 22.66700
H  44.04000 13.26800 23.80300
H  45.31600 12.41100 23.05800
H  42.00200 13.42100 29.10300
H  43.04600 13.13900 27.70100
H  41.96000 14.56600 27.76100
H  44.98700 14.54600 33.22200
H  42.66900 17.23300 35.75400
H  44.09700 18.10100 35.42600
H  44.22500 16.89500 36.75900

