158

Mg 8.39400 3.91200 27.70300
C  9.40700 2.05100 30.36200
C  6.19900 5.67000 29.87200
C  7.01200 5.45400 25.05300
C  9.57200 1.43300 25.45900
N  7.64900 3.68900 29.88400
C  8.54400 3.11200 30.73900
C  8.30300 3.60900 32.22700
C  7.16400 4.65500 32.07300
C  6.93600 4.65400 30.54100
C  5.83000 4.41000 32.94500
C  9.58200 4.09000 32.93000
C  9.47500 5.22100 33.95600
H  10.36100 5.13800 35.26500
N  6.96400 5.46900 27.49600
C  6.25000 6.07500 28.46700
C  5.51000 7.14700 27.93600
C  5.83000 7.20900 26.51500
C  6.65000 6.00600 26.32000
C  4.62000 8.07100 28.76500
C  5.45500 8.19600 25.42800
O  5.93000 8.21700 24.35100
C  4.67800 9.45900 25.85400
N  8.33700 3.56400 25.48400
C  7.69300 4.36700 24.63000
C  7.65700 3.86200 23.16000
C  8.71000 2.64900 23.24300
C  8.81400 2.46500 24.79800
C  6.26500 3.31100 22.66900
C  10.16600 3.06000 22.76400
C  10.82300 1.95400 21.94300
N  9.44300 2.06200 27.75800
C  9.88500 1.22100 26.81800
C  10.63800 0.18100 27.51400
C  10.54500 0.47500 28.89200
C  9.82300 1.66700 29.01700
C  11.24600 -0.93000 26.82000
C  10.95500 0.08000 30.23600
O  11.73300 -0.78100 30.64000
C  10.20200 1.08400 31.22500
C  9.39600 0.24700 32.16200
O  8.32600 -0.30200 31.97300
O  9.99000 0.33700 33.37700
C  9.43700 -0.41700 34.55100
H  5.77500 6.37100 30.59400
H  6.65700 5.92900 24.13600
H  10.06200 0.76200 24.75100
H  7.81300 2.79600 32.76300
H  7.55300 5.64800 32.29700
H  6.13800 4.01000 33.91100
H  5.18400 3.74400 32.37300
H  5.32100 5.34900 33.16200
H  10.24100 4.40000 32.11800
H  10.05200 3.20600 33.36000
H  8.44900 5.32700 34.30800
H  9.82100 6.10800 33.42400
H  4.60300 7.77000 29.81200
H  3.59100 8.02200 28.40900
H  4.88900 9.12600 28.80200
H  5.10700 9.67300 26.83400
H  3.61700 9.24200 25.97100
H  4.81500 10.26300 25.13100
H  8.09500 4.57100 22.45800
H  8.23800 1.78000 22.78400
H  5.48500 3.74700 23.29400
H  6.02500 2.25100 22.75400
H  6.30000 3.74500 21.67000
H  10.82900 3.34900 23.57900
H  10.07000 3.93100 22.11500
H  10.19900 1.06200 21.88100
H  11.82900 1.64200 22.22100
H  10.93500 2.25500 20.90200
H  12.28900 -0.69500 26.60600
H  10.82300 -1.19900 25.85200
H  11.19600 -1.68900 27.60000
H  10.89600 1.63300 31.86200
H  10.19500 -1.07300 34.97900
H  8.52500 -0.98900 34.38200
H  9.15800 0.38600 35.23400
Mg 16.86300 53.48700 27.00900
C  18.77500 51.65000 29.23900
C  14.46600 53.95200 29.47100
C  14.64700 54.46300 24.70000
C  19.13700 52.68900 24.50000
N  16.59100 52.76300 29.02400
C  17.54700 52.13100 29.78300
C  17.27600 52.25200 31.30800
C  15.82100 52.60000 31.28300
C  15.58900 53.16800 29.85100
C  14.79100 51.51600 31.62100
C  18.08100 53.47200 31.91400
C  17.99100 53.85500 33.36900
H  17.07100 52.97900 34.31300
N  14.85100 54.30500 27.15300
C  14.05700 54.45900 28.20800
C  12.73700 55.02100 27.78700
C  12.84000 55.21300 26.35900
C  14.16300 54.59300 25.99300
C  11.66600 55.30500 28.70100
C  11.82900 55.82900 25.43900
O  11.94800 55.87200 24.19800
C  10.47200 56.23000 25.99500
N  16.83300 53.33700 24.91700
C  15.85100 53.96200 24.22100
C  16.16700 53.98700 22.72000
C  17.67500 53.57000 22.66100
C  17.96600 53.26700 24.13100
C  15.13700 53.09700 21.93500
C  18.65400 54.44800 21.84900
C  18.61400 55.93600 22.04700
N  18.65900 52.41100 26.81800
C  19.48900 52.15700 25.72200
C  20.64000 51.38200 26.16500
C  20.46200 51.21700 27.55200
C  19.20100 51.78500 27.87200
C  21.70600 50.79700 25.32900
C  21.01500 50.64400 28.77900
O  21.96800 50.03000 28.96600
C  20.06100 51.11900 29.89800
C  19.84300 49.96500 30.78800
O  19.40500 48.92500 30.35900
O  19.95400 50.32400 32.10600
C  19.74700 49.21100 33.00800
H  13.91700 54.07400 30.40700
H  13.98800 54.72100 23.86800
H  19.85300 52.66100 23.67600
H  17.50900 51.35100 31.87500
H  15.63800 53.34700 32.05500
H  15.42100 50.81200 32.16500
H  14.31600 50.97100 30.80500
H  13.98900 51.82800 32.29000
H  17.92900 54.31300 31.23700
H  19.13300 53.27100 31.71300
H  17.55500 54.85200 33.42500
H  18.94600 53.90600 33.89000
H  10.72500 54.80800 28.46700
H  11.53000 56.38600 28.72800
H  11.83100 54.97600 29.72700
H  10.04600 55.47900 26.66100
H  9.83600 56.32300 25.11500
H  10.42100 57.14900 26.57900
H  16.06300 55.02400 22.40200
H  17.86500 52.57200 22.26600
H  14.77800 53.57600 21.02400
H  14.24400 52.94000 22.53900
H  15.59100 52.15100 21.63900
H  18.57400 54.13300 20.80900
H  19.64500 54.19800 22.22900
H  19.61300 56.35600 21.93000
H  18.21700 56.40800 22.94600
H  18.04100 56.32300 21.20400
H  21.58100 49.71400 25.35000
H  22.66500 50.98500 25.81200
H  21.77000 51.13100 24.29300
H  20.57100 51.80500 30.57400
H  20.20400 49.57400 33.92800
H  20.32400 48.35200 32.66400
H  18.67800 49.04100 33.14000

