158

Mg 46.24400 17.06200 28.61300
C  44.35300 16.51100 31.47300
C  48.21800 19.27800 30.51200
C  47.65700 18.19400 25.79500
C  43.92400 15.19700 26.80100
N  46.37500 17.66700 30.73500
C  45.63000 17.16200 31.74100
C  46.12200 17.53200 33.14000
C  47.24300 18.59400 32.76700
C  47.35000 18.44900 31.23000
C  46.88500 20.05500 33.28100
C  46.60600 16.24900 33.86000
C  46.92300 16.26300 35.36100
H  46.86100 17.55300 36.10200
N  47.59400 18.63400 28.21100
C  48.31900 19.40200 29.13200
C  49.16300 20.33800 28.38200
C  49.00200 20.01400 27.03900
C  47.96200 18.91100 26.99500
C  50.00400 21.45000 29.02100
C  49.68200 20.66300 25.77000
O  49.35600 20.41600 24.62900
C  50.68800 21.73000 25.98800
N  45.89600 16.78700 26.57600
C  46.70200 17.19000 25.59400
C  46.26600 16.70300 24.21200
C  45.07000 15.73300 24.57700
C  44.93300 15.92500 26.10800
C  45.79700 17.82200 23.28400
C  45.35500 14.31600 24.02800
C  44.55700 13.69700 22.82700
N  44.49900 15.97000 28.97400
C  43.60000 15.33700 28.18700
C  42.36300 14.97800 28.90200
C  42.68900 15.40500 30.20100
C  43.95400 16.00400 30.20700
C  41.13900 14.47300 28.26600
C  42.13300 15.56500 31.57400
O  41.04000 15.26500 32.04000
C  43.34100 15.99000 32.38900
C  42.83300 17.05500 33.31700
O  42.15100 18.03200 32.96300
O  43.19400 16.85800 34.61200
C  42.67300 17.90600 35.52200
H  48.79700 19.97300 31.12300
H  48.15700 18.49000 24.87100
H  43.22800 14.59000 26.21900
H  45.45300 18.09900 33.78800
H  48.11500 18.31000 33.35600
H  45.90100 20.26300 33.70300
H  46.90400 20.64500 32.36500
H  47.54100 20.40100 34.08000
H  47.45400 15.86400 33.29400
H  45.74800 15.59200 33.71400
H  47.95800 15.96400 35.52900
H  46.37300 15.50700 35.92100
H  49.58700 21.67000 30.00300
H  49.96600 22.37600 28.44800
H  51.01700 21.07200 29.16500
H  51.47700 21.60500 26.72900
H  49.99800 22.52300 26.27500
H  51.04100 22.12500 25.03500
H  47.18000 16.26600 23.81000
H  44.13400 16.05700 24.12200
H  44.74500 17.66500 23.04700
H  46.42500 17.72400 22.39900
H  45.85900 18.79200 23.77900
H  45.26300 13.61500 24.85800
H  46.42000 14.22500 23.81600
H  44.01100 12.83600 23.21300
H  45.31700 13.32400 22.14100
H  43.88900 14.42500 22.36700
H  41.27300 13.39800 28.14400
H  40.92100 14.86900 27.27400
H  40.39700 14.64200 29.04700
H  43.56700 15.14900 33.04600
H  41.60000 18.09100 35.58700
H  43.15500 18.80500 35.13900
H  42.88400 17.84400 36.59000
Mg 50.61900 44.83600 42.29300
C  47.37500 45.22300 41.07900
C  50.39700 41.38400 41.28000
C  53.92500 44.49200 42.53600
C  51.02200 48.37400 42.05000
N  49.07200 43.49600 41.20000
C  47.82900 43.91200 40.90600
C  47.08200 42.78200 40.22400
C  47.94600 41.47400 40.65300
C  49.27500 42.14300 40.95900
C  47.45800 40.63400 41.91200
C  47.11000 43.02900 38.67400
C  45.80500 42.65000 37.90200
H  46.01600 42.28600 36.43100
N  51.94600 43.13000 42.08200
C  51.62000 41.84600 41.78600
C  52.84600 41.04900 41.93700
C  53.86700 41.88200 42.41100
C  53.26300 43.23300 42.42800
C  52.95600 39.60400 41.49300
C  55.35600 41.43400 42.64500
O  55.74900 40.27000 42.58500
C  56.32700 42.43100 43.13000
N  52.21500 46.27700 42.14900
C  53.50900 45.84800 42.44400
C  54.44800 47.08700 42.50900
C  53.45600 48.22600 42.32200
C  52.12200 47.63100 42.20100
C  55.29900 47.20800 43.85500
C  53.76900 49.10300 41.00700
C  53.56800 50.62700 41.20900
N  49.41500 46.45200 41.86400
C  49.69700 47.86400 41.82700
C  48.50400 48.57100 41.47600
C  47.59200 47.62500 41.16000
C  48.17900 46.32700 41.40500
C  48.42800 50.09100 41.48900
C  46.23800 47.36300 40.62300
O  45.39400 48.09300 40.17300
C  46.00200 45.80600 40.65100
C  44.86100 45.37900 41.41400
O  43.96900 44.68700 40.98300
O  44.79600 46.05600 42.56700
C  43.42200 46.15900 43.15100
H  50.25000 40.31500 41.11000
H  55.00300 44.33600 42.62200
H  51.08200 49.46100 41.97600
H  46.02900 42.73700 40.50100
H  48.15900 40.77800 39.84200
H  46.38900 40.79300 42.05400
H  47.89100 40.93600 42.86600
H  47.58000 39.56300 41.74900
H  47.93900 42.49700 38.20700
H  47.22700 44.10800 38.57600
H  45.08200 43.46600 37.90300
H  45.32300 41.82600 38.42600
H  51.95200 39.24500 41.26700
H  53.38400 39.04200 42.32300
H  53.69400 39.33600 40.73600
H  55.72200 42.89100 43.91100
H  56.60800 43.11900 42.33300
H  57.15300 42.04400 43.72700
H  55.05700 46.97100 41.61200
H  53.39900 48.92500 43.15600
H  56.27600 47.64400 43.64600
H  55.57600 46.24500 44.28300
H  54.89200 47.87300 44.61700
H  53.20000 48.80700 40.12500
H  54.83300 49.07100 40.77100
H  54.50000 51.08400 40.87700
H  53.41700 50.99100 42.22500
H  52.77500 51.01600 40.57000
H  49.00100 50.48900 42.32700
H  47.36400 50.32000 41.55100
H  48.77000 50.40700 40.50400
H  45.66800 45.46900 39.67000
H  43.48000 45.59600 44.08300
H  42.59100 45.79100 42.55000
H  43.22500 47.16300 43.52600

