158

Mg 48.29000 16.32100 28.19900
C  46.09700 16.04000 30.94500
C  50.42900 18.18600 30.20900
C  50.23000 16.53100 25.68900
C  45.57800 15.24600 26.12100
N  48.21000 17.03400 30.29900
C  47.29400 16.75300 31.24500
C  47.67300 17.35200 32.63500
C  48.89600 18.23100 32.30100
C  49.21500 17.81200 30.85000
C  48.76000 19.73800 32.47900
C  48.03100 16.17400 33.63100
C  47.58900 16.35500 35.01900
H  47.67300 17.81600 35.61100
N  50.13700 17.10100 28.01400
C  50.94200 17.73700 28.93700
C  52.22500 18.01500 28.34500
C  52.15400 17.52000 27.03800
C  50.80600 17.05700 26.81300
C  53.36800 18.48200 29.23400
C  53.28900 17.49700 25.95800
O  53.10900 16.94000 24.91600
C  54.64700 18.23700 26.05500
N  47.89500 16.11600 26.15800
C  48.97400 16.06400 25.34400
C  48.69100 15.33100 23.96400
C  47.10200 15.10200 24.08100
C  46.81600 15.53000 25.52900
C  49.10100 15.95200 22.55800
C  46.53300 13.67100 23.73300
C  46.79100 12.60500 24.73200
N  46.21800 15.76800 28.42700
C  45.28100 15.28500 27.49500
C  44.09700 14.82700 28.19000
C  44.37600 15.13700 29.52900
C  45.66300 15.73600 29.62600
C  42.80300 14.23800 27.69700
C  43.78200 15.15400 30.85200
O  42.63400 14.86600 31.22100
C  44.85500 15.78700 31.86400
C  44.28700 17.08300 32.32900
O  44.20800 18.10500 31.68700
O  43.94500 16.87900 33.67900
C  43.12700 18.02700 34.18500
H  51.05300 18.90100 30.74900
H  50.77400 16.45300 24.74600
H  44.85900 14.88900 25.38200
H  46.79100 17.86200 33.02200
H  49.77300 17.99600 32.90400
H  48.97500 20.29500 31.56800
H  49.41900 20.07300 33.28000
H  47.72100 19.95600 32.72900
H  49.06800 15.83900 33.60500
H  47.42200 15.33400 33.29700
H  48.20900 15.65000 35.57300
H  46.54600 16.04100 35.02100
H  53.79600 19.41800 28.87500
H  54.26400 17.87400 29.10700
H  53.08200 18.61900 30.27700
H  55.40300 17.75600 25.43400
H  55.15500 18.15600 27.01500
H  54.45900 19.28200 25.80700
H  49.08600 14.31500 23.98600
H  46.57400 15.80700 23.43900
H  48.23700 16.06800 21.90400
H  49.85500 15.32600 22.08100
H  49.55400 16.93300 22.69900
H  46.90000 13.32000 22.76900
H  45.47000 13.79900 23.52900
H  47.37200 11.76200 24.35700
H  45.90700 12.17300 25.20100
H  47.40000 12.95700 25.56500
H  42.27400 13.71000 28.49100
H  43.05400 13.49600 26.93900
H  42.01700 14.85100 27.25600
H  44.98800 15.04900 32.65600
H  42.76700 18.68600 33.39500
H  43.72800 18.57800 34.90900
H  42.21300 17.83000 34.74600
Mg -1.63100 34.88000 27.94500
C  -3.67900 32.93100 29.86700
C  -0.76800 36.65900 30.66600
C  0.08100 36.87800 25.86600
C  -2.79700 33.04500 25.04000
N  -2.39600 35.01200 29.93700
C  -3.05100 33.99300 30.56300
C  -2.99600 34.18000 32.09000
C  -2.28300 35.54400 32.30900
C  -1.81200 35.82100 30.91000
C  -3.13100 36.72200 32.89200
C  -2.20900 32.99500 32.77500
C  -2.90500 32.45400 34.05000
H  -2.19700 32.44500 35.42400
N  -0.48700 36.54400 28.21900
C  -0.23100 37.10000 29.42900
C  0.70600 38.11200 29.25600
C  0.92500 38.22300 27.88800
C  0.15500 37.20200 27.23500
C  1.19900 38.81200 30.52900
C  1.83400 39.23400 27.22900
O  2.04300 39.39700 26.04100
C  2.58400 40.12000 28.17700
N  -1.33300 34.83700 25.77900
C  -0.53500 35.84200 25.20000
C  -0.36600 35.52600 23.69300
C  -1.35900 34.35700 23.35900
C  -1.82300 34.02500 24.79900
C  -0.63900 36.77500 22.76100
C  -0.70700 33.07800 22.74800
C  -1.61000 32.29300 21.76500
N  -2.91100 33.35300 27.48300
C  -3.31100 32.72700 26.31000
C  -4.35800 31.75200 26.61500
C  -4.38200 31.75600 28.01400
C  -3.58000 32.74500 28.49700
C  -5.13900 31.08600 25.61500
C  -5.04300 31.04800 29.11000
O  -5.85000 30.14000 29.05300
C  -4.60300 31.87200 30.34100
C  -5.78000 32.51400 30.96200
O  -6.62300 33.18400 30.43900
O  -5.90400 32.00500 32.25000
C  -6.94900 32.57300 33.15200
H  -0.45700 37.15900 31.58600
H  0.79600 37.46700 25.28800
H  -3.12400 32.52600 24.13600
H  -4.01100 34.32600 32.45900
H  -1.47600 35.43300 33.03400
H  -3.66300 36.18700 33.67900
H  -3.66300 37.16500 32.05000
H  -2.49500 37.43200 33.42100
H  -1.17200 33.25100 32.99600
H  -2.00600 32.17900 32.08100
H  -3.08100 31.41200 33.78100
H  -3.85600 32.96000 34.21700
H  1.86500 38.10600 31.02500
H  0.40100 38.92500 31.26200
H  1.69900 39.78000 30.49300
H  3.13600 39.54700 28.92100
H  1.86000 40.85000 28.53900
H  3.20000 40.82800 27.62200
H  0.66600 35.24000 23.49000
H  -2.22800 34.68500 22.78800
H  -1.48200 36.60600 22.09100
H  0.23400 37.06500 22.17800
H  -0.96000 37.61800 23.37200
H  -0.47600 32.46300 23.61800
H  0.22500 33.35300 22.25500
H  -1.79700 31.35000 22.27900
H  -1.13400 31.94400 20.84900
H  -2.59200 32.71200 21.54800
H  -4.47800 30.51700 24.96100
H  -5.76000 31.83000 25.11700
H  -5.82300 30.37000 26.07100
H  -4.15400 31.31500 31.16400
H  -6.71200 33.42800 33.78600
H  -7.35000 31.75200 33.74600
H  -7.83000 32.90500 32.60100

