158

Mg 2.14300 -1.70100 43.81000
C  5.21700 -0.65800 43.27300
C  0.94300 0.90900 42.01000
C  -1.02800 -3.13200 43.65500
C  3.41700 -4.74400 44.93000
N  2.99200 -0.21600 42.48700
C  4.32200 0.07600 42.48600
C  4.67700 1.39900 41.73700
C  3.27600 2.06300 41.60700
C  2.37700 0.87700 42.00000
C  3.00700 3.39300 42.34200
C  5.37200 0.98800 40.38500
C  6.76400 1.56700 40.10500
H  6.93100 2.30400 38.74300
N  0.12400 -1.01800 43.15800
C  -0.04900 0.00200 42.35500
C  -1.45700 0.17900 42.11000
C  -2.05800 -0.91100 42.83300
C  -0.97200 -1.77300 43.23300
C  -2.10600 1.19500 41.21600
C  -3.53600 -1.09900 42.89400
O  -4.36200 -0.28800 42.51400
C  -4.17200 -2.36900 43.46300
N  1.37300 -3.62300 44.22200
C  -0.00400 -3.91500 44.11800
C  -0.20400 -5.41400 44.61000
C  1.28700 -5.94800 44.89500
C  2.05400 -4.68000 44.79800
C  -1.21600 -5.63100 45.70100
C  1.68600 -7.07900 43.82900
C  1.56500 -8.51200 44.33000
N  3.97400 -2.51600 44.20000
C  4.32000 -3.70900 44.68800
C  5.75600 -3.77300 44.95600
C  6.12800 -2.56400 44.39400
C  4.97700 -1.86200 43.98100
C  6.52000 -4.68000 45.80700
C  7.31400 -1.74100 44.15300
O  8.47500 -1.82800 44.45200
C  6.73800 -0.42100 43.41900
C  7.06300 0.81100 44.17300
O  6.51300 1.11700 45.23200
O  8.16500 1.42300 43.60200
C  8.81200 2.47100 44.41900
H  0.61300 1.84100 41.54600
H  -1.97100 -3.66500 43.51300
H  3.95500 -5.62600 45.28300
H  5.29800 2.09000 42.30700
H  3.06500 2.44300 40.60700
H  3.09400 4.24500 41.66800
H  3.90200 3.48800 42.95700
H  2.07900 3.47100 42.90900
H  4.78600 1.36400 39.54600
H  5.37700 -0.09400 40.25600
H  7.54000 0.82800 40.30200
H  6.89200 2.36400 40.83800
H  -2.74300 1.98000 41.62300
H  -2.64800 0.71900 40.39800
H  -1.43100 1.83000 40.64100
H  -4.10300 -3.29000 42.88500
H  -5.19100 -2.12000 43.75800
H  -3.69100 -2.68100 44.39000
H  -0.54500 -5.85200 43.67100
H  1.58000 -6.46900 45.80600
H  -0.83900 -6.16300 46.57400
H  -2.07500 -6.10400 45.22500
H  -1.59200 -4.65800 46.01700
H  2.67700 -6.79100 43.47900
H  1.14600 -6.98900 42.88600
H  2.52600 -9.00400 44.47400
H  1.07800 -8.98500 43.47700
H  1.01900 -8.55700 45.27200
H  7.53000 -4.27400 45.74800
H  6.64000 -5.67500 45.37800
H  6.02100 -4.61100 46.77400
H  7.25800 -0.27600 42.47300
H  9.84200 2.15400 44.58200
H  8.34300 2.80200 45.34600
H  8.77100 3.39600 43.84300
Mg 48.65000 34.48500 27.53400
C  46.74100 33.09000 29.98100
C  48.86400 37.36100 29.58100
C  50.25800 36.13300 25.07800
C  48.23800 31.76500 25.49400
N  47.83400 35.11900 29.48400
C  47.20500 34.33100 30.34900
C  47.25100 34.90000 31.79500
C  47.59000 36.43000 31.46700
C  48.18300 36.27900 30.09700
C  46.40500 37.47900 31.66800
C  48.35500 34.19100 32.55500
C  48.20000 34.03000 34.10700
H  49.00100 35.07000 34.90200
N  49.59100 36.33400 27.38400
C  49.59900 37.38900 28.33600
C  50.43800 38.50300 27.82200
C  50.86700 38.05900 26.53900
C  50.20900 36.81300 26.26200
C  50.70200 39.74600 28.68000
C  51.80800 38.75900 25.54800
O  52.28100 38.27900 24.48600
C  52.25400 40.26600 25.77600
N  49.10800 34.04900 25.50800
C  49.76200 34.85900 24.74500
C  49.88200 34.27300 23.30500
C  49.56300 32.76300 23.58400
C  48.94600 32.81200 24.91600
C  48.93800 34.94100 22.20200
C  50.75000 31.78300 23.56500
C  51.17500 31.34200 22.19800
N  47.63600 32.75500 27.61500
C  47.56900 31.62200 26.76100
C  46.72800 30.60000 27.36500
C  46.34200 31.15300 28.59300
C  47.04200 32.42200 28.73500
C  46.54500 29.23400 26.85400
C  45.58700 30.86600 29.82100
O  44.97200 29.88900 30.18400
C  45.75400 32.14800 30.69000
C  46.10200 31.75800 32.05600
O  47.16200 31.33700 32.51000
O  45.03600 32.12700 32.89100
C  45.01900 32.03900 34.35000
H  48.84000 38.29700 30.14300
H  50.72900 36.56900 24.19500
H  48.25500 30.82200 24.94200
H  46.36100 34.92500 32.42300
H  48.29400 36.74600 32.23700
H  46.70300 38.50200 31.89600
H  45.60100 37.25700 32.36900
H  45.95000 37.60500 30.68500
H  49.34800 34.49800 32.22800
H  48.51400 33.16900 32.21100
H  48.43300 33.07200 34.57200
H  47.17200 34.27300 34.37300
H  50.14000 40.61600 28.33900
H  51.78400 39.86800 28.71900
H  50.39700 39.61900 29.71800
H  52.70500 40.40400 26.75900
H  51.32900 40.84100 25.73100
H  52.97000 40.47800 24.98200
H  50.87400 34.39500 22.86900
H  48.85700 32.48600 22.80100
H  48.40600 34.20000 21.60500
H  49.49400 35.58900 21.52300
H  48.12200 35.45200 22.71200
H  50.49100 30.83500 24.03700
H  51.62600 32.26400 23.99900
H  52.18900 31.59800 21.88800
H  50.63400 31.94300 21.46700
H  51.03500 30.27800 22.01100
H  45.48700 28.99300 26.74700
H  46.94700 28.58700 27.63400
H  47.05600 28.90200 25.95000
H  44.77800 32.63200 30.71300
H  45.40600 31.09300 34.72800
H  43.97100 32.00400 34.64700
H  45.51000 32.82000 34.93100

