158

Mg 49.13000 45.11200 43.49300
C  45.72000 45.17900 42.36800
C  49.28600 41.81600 42.44600
C  52.39200 45.24000 43.57200
C  48.90300 48.55200 43.79700
N  47.73000 43.77100 42.41600
C  46.35900 43.95200 42.14400
C  45.75400 42.70500 41.41500
C  46.69200 41.65600 41.97300
C  48.01000 42.42600 42.30000
C  46.19200 40.86400 43.24100
C  45.61000 42.87700 39.84300
C  44.25000 42.45500 39.14100
H  44.37100 41.42100 37.98700
N  50.61500 43.74800 43.16200
C  50.53000 42.42900 42.77900
C  51.75200 41.77300 42.68300
C  52.74600 42.73000 42.87000
C  51.96600 43.98600 43.25200
C  51.89600 40.30900 42.28000
C  54.18700 42.44500 42.67700
O  54.61500 41.36000 42.22300
C  55.26800 43.49300 42.93800
N  50.45300 46.66300 43.49900
C  51.76700 46.41000 43.82100
C  52.42500 47.66600 44.42600
C  51.30600 48.75000 44.38100
C  50.11300 47.88100 43.94100
C  53.16500 47.37300 45.78700
C  51.61700 49.95100 43.33600
C  51.61700 51.34200 43.98500
N  47.59600 46.60500 43.39600
C  47.63900 47.93900 43.55700
C  46.35000 48.59400 43.43100
C  45.55900 47.47400 43.01400
C  46.36700 46.28800 42.92100
C  46.11000 50.09800 43.52400
C  44.20500 47.06300 42.58200
O  43.15900 47.74100 42.43800
C  44.31200 45.61000 42.09900
C  43.19800 44.72800 42.69800
O  42.49400 43.91500 42.11700
O  43.03800 45.03700 44.08200
C  41.95600 44.28200 44.69100
H  49.21000 40.76000 42.17900
H  53.45200 45.11800 43.80200
H  48.88100 49.59900 44.10600
H  44.76300 42.37400 41.72500
H  46.79500 40.81900 41.28300
H  46.09200 39.79100 43.07900
H  45.16300 41.13400 43.48100
H  46.95500 41.01700 44.00500
H  46.44600 42.35000 39.38300
H  45.94900 43.87500 39.56600
H  43.86700 43.36300 38.67600
H  43.47900 42.19400 39.86600
H  52.19900 40.20100 41.23800
H  51.01800 39.73600 42.57900
H  52.68500 39.85000 42.87600
H  56.28100 43.22300 42.64000
H  55.22800 43.53900 44.02600
H  55.17300 44.52000 42.58600
H  53.15200 47.99900 43.68400
H  51.11000 49.01900 45.41900
H  53.01100 46.33400 46.08000
H  52.86500 48.09900 46.54200
H  54.22800 47.56000 45.64000
H  50.84400 50.01200 42.56900
H  52.59000 49.86600 42.85300
H  50.77700 51.94900 43.64800
H  52.46400 51.93700 43.64200
H  51.65000 51.19300 45.06400
H  46.27200 50.56300 42.55200
H  46.74000 50.66400 44.21000
H  45.08100 50.30900 43.81600
H  44.22900 45.67900 41.01400
H  41.17100 44.40700 43.94500
H  41.67100 44.63900 45.68000
H  42.18500 43.21700 44.65000
Mg 42.25900 41.88400 26.13000
C  41.64600 44.30300 28.37600
C  43.30900 39.85300 28.69800
C  43.05900 39.73800 23.77200
C  41.71700 44.34700 23.49000
N  42.27300 42.00500 28.29700
C  41.93300 43.08900 29.00400
C  41.86900 42.80100 30.52400
C  42.78500 41.54500 30.62200
C  42.77600 41.08400 29.13100
C  44.22800 41.91300 31.05900
C  40.36300 42.68800 31.05000
C  40.15200 43.22300 32.56400
H  40.80400 42.41500 33.67000
N  42.91100 40.03200 26.26000
C  43.40100 39.38300 27.36800
C  43.90100 38.08400 26.98900
C  43.81100 38.01100 25.56700
C  43.23400 39.28500 25.13900
C  44.40800 36.97400 27.97100
C  43.91600 36.85500 24.66600
O  43.53200 36.86700 23.50400
C  44.16000 35.54600 25.27600
N  42.46500 42.08700 23.87900
C  42.66800 41.00200 23.13800
C  42.70400 41.25400 21.72700
C  42.09600 42.66000 21.64100
C  42.05800 43.05300 23.14100
C  44.11900 41.06700 21.08300
C  40.67100 42.73700 21.01900
C  39.56700 41.79300 21.61400
N  41.79600 43.91600 25.92800
C  41.62200 44.73100 24.84300
C  41.33000 46.06200 25.29900
C  41.32200 46.01300 26.68400
C  41.56100 44.63200 26.99500
C  41.08800 47.30900 24.37800
C  41.06800 46.65400 27.94000
O  40.68000 47.77400 28.20100
C  41.26200 45.59000 29.07400
C  42.10400 46.11500 30.17200
O  43.33400 46.13600 30.15600
O  41.34000 46.41900 31.26100
C  41.92600 46.95200 32.52900
H  43.66000 39.07600 29.38000
H  43.32900 39.11800 22.91500
H  41.43100 45.12000 22.77300
H  42.36700 43.61400 31.05400
H  42.38700 40.73900 31.23900
H  44.14900 42.67200 31.83700
H  44.74400 42.22100 30.15000
H  44.61300 41.04100 31.58800
H  40.07800 41.63900 30.96900
H  39.64300 43.20100 30.41200
H  39.08300 43.17600 32.77200
H  40.33900 44.29200 32.65800
H  44.66600 37.37900 28.94900
H  45.28100 36.39000 27.67700
H  43.50100 36.37200 28.02800
H  44.00200 34.76600 24.53100
H  43.47100 35.34600 26.09700
H  45.19100 35.63200 25.61800
H  42.09000 40.52600 21.19600
H  42.77000 43.37600 21.17200
H  44.44800 41.98400 20.59500
H  44.11500 40.27000 20.34000
H  44.75500 40.82900 21.93500
H  40.75100 42.42900 19.97700
H  40.39400 43.79100 21.03700
H  39.06600 41.28700 20.78900
H  38.84200 42.50200 22.01300
H  39.83600 41.06800 22.38200
H  41.84200 47.42300 23.60000
H  41.12800 48.26100 24.90600
H  40.16000 47.22400 23.81300
H  40.23600 45.56700 29.44100
H  41.82200 46.24300 33.35000
H  41.31600 47.82500 32.76200
H  42.93700 47.35900 32.52300

