158

Mg 35.79400 1.96100 29.61400
C  33.89400 3.28200 32.13200
C  38.70200 2.36600 31.69800
C  37.65600 0.98700 27.06100
C  33.02800 2.22200 27.40900
N  36.21900 2.88000 31.54200
C  35.22600 3.06400 32.47900
C  35.76500 3.12500 33.94100
C  37.27800 3.28200 33.61900
C  37.43900 2.79200 32.20200
C  37.85000 4.67900 33.70900
C  35.40600 1.80200 34.72100
C  34.93100 1.87000 36.19100
H  35.14900 3.15500 37.01900
N  37.86200 1.62100 29.40400
C  38.87100 1.84600 30.36700
C  40.13600 1.46000 29.85100
C  39.94000 1.21900 28.46800
C  38.41800 1.23800 28.24200
C  41.25600 1.48400 30.68100
C  40.97500 0.92500 27.40700
O  40.64600 0.65500 26.28300
C  42.42300 0.98500 27.71800
N  35.38400 1.69500 27.50400
C  36.30600 1.09600 26.76800
C  35.83100 0.87200 25.29800
C  34.26300 1.24800 25.42400
C  34.17600 1.67500 26.87000
C  36.58000 1.65000 24.13900
C  33.40300 0.04600 25.10900
C  33.00100 -0.16500 23.63900
N  33.85900 2.48500 29.70200
C  32.82800 2.48400 28.79700
C  31.62900 2.93200 29.47300
C  31.99400 3.19400 30.80200
C  33.37900 2.95900 30.84100
C  30.28300 3.03500 28.89700
C  31.51200 3.59000 32.09000
O  30.33200 3.66800 32.47600
C  32.76300 3.75900 33.04100
C  32.80100 5.12300 33.55700
O  33.52400 5.99600 33.17000
O  32.04800 5.11100 34.78100
C  32.09500 6.43900 35.55800
H  39.44800 2.34200 32.49600
H  38.21000 0.62000 26.19400
H  32.25100 2.13900 26.64600
H  35.38900 4.03800 34.40300
H  37.91600 2.68900 34.27300
H  37.21100 5.43000 34.17300
H  38.07600 5.09900 32.72900
H  38.79400 4.67700 34.25500
H  36.29000 1.16600 34.77400
H  34.70200 1.18200 34.16500
H  35.40900 1.05100 36.72900
H  33.88400 1.60500 36.33300
H  41.42700 2.47300 31.10600
H  42.22300 1.22000 30.25200
H  41.04200 0.90500 31.57900
H  42.62700 0.03600 28.21500
H  42.64700 1.90200 28.26300
H  42.88400 1.01800 26.73100
H  35.86500 -0.20000 25.10600
H  34.03600 2.21700 24.98000
H  36.94000 0.93500 23.39900
H  37.42100 2.21600 24.53800
H  35.96400 2.38500 23.62200
H  32.47500 -0.03500 25.67500
H  33.88200 -0.89500 25.37900
H  32.01200 0.28300 23.53300
H  33.10600 -1.20700 23.33800
H  33.70100 0.40400 23.02700
H  29.53300 2.48400 29.46500
H  30.21100 2.87200 27.82200
H  30.03100 4.05700 29.17900
H  32.63400 3.08300 33.88600
H  32.89600 6.35800 36.29300
H  31.24700 6.41900 36.24300
H  32.22800 7.36700 35.00200
Mg -11.83900 16.73100 41.68000
C  -8.15900 16.33000 41.39700
C  -11.23500 20.02700 40.91400
C  -14.99200 16.89000 41.01300
C  -12.01800 13.14900 41.67700
N  -9.88100 17.95800 41.12900
C  -8.55900 17.64900 41.23900
C  -7.70200 18.91100 41.08800
C  -8.69600 20.07100 41.35100
C  -10.04100 19.30500 41.22000
C  -8.38100 20.74200 42.67800
C  -7.07100 19.02900 39.61800
C  -5.52100 18.82000 39.49400
H  -5.13800 17.92600 38.34200
N  -12.93100 18.35800 41.12800
C  -12.51000 19.59900 40.78900
C  -13.70500 20.37500 40.45100
C  -14.87600 19.54800 40.53100
C  -14.34700 18.20700 40.88700
C  -13.68100 21.87900 40.19100
C  -16.29400 19.94500 40.35500
O  -16.58600 21.10700 40.08500
C  -17.40000 18.95700 40.54500
N  -13.31800 15.21500 41.42900
C  -14.52200 15.59300 41.32900
C  -15.52900 14.38600 41.57800
C  -14.54700 13.16800 41.64500
C  -13.21600 13.87500 41.48000
C  -16.43800 14.60600 42.78900
C  -14.86600 12.11300 40.59400
C  -14.53800 10.66200 40.99100
N  -10.44600 15.15700 41.75200
C  -10.73100 13.77400 41.84800
C  -9.42900 13.11900 42.13600
C  -8.45800 14.06100 42.04500
C  -9.08300 15.29600 41.74800
C  -9.31000 11.69100 42.46000
C  -7.01400 14.22800 42.01400
O  -6.12500 13.43700 42.16900
C  -6.73800 15.77400 41.59700
C  -6.17100 16.41300 42.77800
O  -6.78100 16.73200 43.81800
O  -4.78900 16.51100 42.62500
C  -3.97000 17.15800 43.68300
H  -11.09100 21.08200 40.67300
H  -16.07600 17.01800 40.96800
H  -12.01300 12.06400 41.55400
H  -6.88500 18.82900 41.80400
H  -8.61800 20.86600 40.60800
H  -7.62200 21.51700 42.57600
H  -8.12600 19.94200 43.37200
H  -9.25700 21.26100 43.06800
H  -7.28100 20.07200 39.38500
H  -7.51400 18.34800 38.89100
H  -5.12400 18.36400 40.40100
H  -5.04000 19.77700 39.29300
H  -14.46900 22.21500 39.51600
H  -12.67800 22.01100 39.78500
H  -13.77100 22.45500 41.11300
H  -18.38300 19.41500 40.43900
H  -17.35200 18.56100 41.55900
H  -17.33400 18.11100 39.86100
H  -16.17500 14.55600 40.71700
H  -14.49900 12.69200 42.62500
H  -16.20700 15.58000 43.21900
H  -16.30500 13.89100 43.60100
H  -17.46300 14.61600 42.42000
H  -14.32100 12.39000 39.69200
H  -15.91000 12.23000 40.30500
H  -13.77600 10.58800 41.76600
H  -14.20100 10.09400 40.12400
H  -15.44500 10.29800 41.47400
H  -8.69800 11.25500 41.67000
H  -10.31900 11.27900 42.43800
H  -8.83300 11.48600 43.41900
H  -6.05200 15.86300 40.75500
H  -3.82000 16.35700 44.40700
H  -4.51800 17.95900 44.17800
H  -2.96100 17.43500 43.37900

