158

Mg 26.35700 -0.04300 29.41600
C  28.16500 -0.31500 32.41900
C  23.48200 0.23600 31.27500
C  24.71800 -0.20500 26.62400
C  29.35200 -0.45400 27.67800
N  25.88900 0.08400 31.59200
C  26.81300 0.00200 32.64100
C  26.15200 0.01400 34.05100
C  24.58200 0.08000 33.59400
C  24.64400 0.05800 32.07600
C  23.74700 -1.13900 34.15900
C  26.62400 1.30200 34.83300
C  25.84100 1.89200 36.00600
H  26.62200 2.39100 37.20800
N  24.34400 0.03200 28.92200
C  23.35500 0.35800 29.83700
C  22.13100 0.69000 29.10500
C  22.40000 0.44900 27.69400
C  23.83900 -0.04100 27.71800
C  20.82800 1.01600 29.81600
C  21.54400 0.79100 26.45700
O  22.04000 0.80500 25.31600
C  20.06900 1.15000 26.60800
N  26.98000 -0.40200 27.42800
C  26.10500 -0.37900 26.45600
C  26.84200 -0.41300 25.08400
C  28.33200 -0.08300 25.45800
C  28.19700 -0.31800 26.95500
C  26.63600 -1.79600 24.31700
C  28.65500 1.40600 25.14800
C  29.65500 1.63100 23.96700
N  28.33300 -0.29700 29.86700
C  29.43600 -0.52900 29.09300
C  30.55400 -0.87800 29.91900
C  30.12000 -0.83500 31.24500
C  28.77400 -0.42000 31.16400
C  31.90400 -1.28900 29.53200
C  30.53800 -0.89000 32.67000
O  31.66900 -1.04400 33.17200
C  29.27400 -0.44000 33.45100
C  29.05600 -1.44600 34.51700
O  28.57900 -2.56200 34.44000
O  29.41700 -0.88400 35.69900
C  29.39500 -1.75500 36.86800
H  22.59100 0.40200 31.88300
H  24.22600 -0.09000 25.65600
H  30.20600 -0.49100 26.99900
H  26.50400 -0.89100 34.54700
H  24.14200 1.00100 33.97700
H  22.84800 -0.80600 34.67800
H  24.36300 -1.70700 34.85600
H  23.50400 -1.79600 33.32400
H  26.89500 2.08100 34.12100
H  27.59500 1.05000 35.25900
H  25.05900 1.23200 36.37900
H  25.29300 2.78400 35.70300
H  20.14800 0.25500 29.43300
H  20.52700 2.02100 29.52300
H  20.79000 0.95000 30.90300
H  19.55400 1.24900 25.65300
H  19.98100 2.11000 27.11800
H  19.49800 0.45000 27.21800
H  26.32900 0.30600 24.44500
H  29.00300 -0.83500 25.04500
H  27.57000 -2.26700 24.00900
H  25.95600 -1.57000 23.49700
H  26.22400 -2.56000 24.97700
H  29.22400 1.83500 25.97300
H  27.76300 2.01300 24.99100
H  30.61700 1.80700 24.44900
H  29.31200 2.46400 23.35300
H  29.73500 0.79300 23.27500
H  32.09600 -1.34100 28.46000
H  32.01400 -2.27300 29.98700
H  32.58200 -0.61000 30.04800
H  29.40800 0.52700 33.93700
H  29.37600 -2.84200 36.78900
H  28.47900 -1.50000 37.40100
H  30.22600 -1.38700 37.47000
Mg 47.10300 34.57000 27.74300
C  45.37000 32.91900 30.15400
C  47.59800 37.24000 29.93100
C  48.32800 36.45200 25.24400
C  46.41700 32.06400 25.50000
N  46.59100 35.02400 29.81000
C  45.86700 34.11500 30.61500
C  46.02700 34.57100 32.14300
C  46.23500 36.11300 31.90000
C  46.82500 36.17300 30.44400
C  44.91800 36.97200 32.04800
C  47.17200 33.81900 32.82200
C  47.02500 33.68200 34.35500
H  46.02800 34.54300 35.13900
N  47.91100 36.57600 27.59100
C  48.05600 37.45700 28.63400
C  48.66600 38.65900 28.06900
C  48.81100 38.42700 26.70600
C  48.30700 37.17200 26.45800
C  49.02400 39.78000 28.97900
C  49.40300 39.31500 25.67900
O  49.28200 39.17300 24.47700
C  49.94800 40.59300 26.17700
N  47.22600 34.35300 25.63800
C  47.86400 35.20300 24.86800
C  48.15200 34.68700 23.46100
C  47.72800 33.19600 23.64300
C  47.06800 33.15600 25.02900
C  47.43500 35.46600 22.38500
C  48.79100 32.13900 23.68800
C  48.67300 30.90500 22.72800
N  46.03100 32.82200 27.73100
C  45.84100 31.84300 26.75500
C  45.24800 30.69400 27.32400
C  44.91700 31.15600 28.64900
C  45.45400 32.38900 28.89100
C  45.04700 29.35600 26.72500
C  44.33800 30.70800 29.84700
O  43.73900 29.67600 30.17500
C  44.44200 31.89400 30.83000
C  44.77900 31.40100 32.21500
O  45.68400 30.57200 32.47700
O  43.94600 31.85000 33.09900
C  44.15600 31.46500 34.46700
H  47.65800 38.02100 30.69200
H  48.67500 36.93000 24.32600
H  46.33500 31.23200 24.79800
H  45.09100 34.53000 32.70000
H  47.00200 36.45300 32.59600
H  43.94300 36.49300 31.97100
H  44.88300 37.72800 31.26300
H  45.00100 37.58900 32.94300
H  48.11000 34.32500 32.59600
H  47.24900 32.82400 32.38500
H  48.00400 34.01500 34.69900
H  46.90600 32.63200 34.62500
H  50.05800 40.12200 28.91900
H  48.68900 39.68800 30.01200
H  48.42300 40.67600 28.82700
H  49.21200 41.11400 26.78800
H  50.02200 41.19700 25.27300
H  50.93300 40.57400 26.64500
H  49.23300 34.68900 23.32100
H  47.05200 32.91600 22.83400
H  46.83500 36.23700 22.86900
H  46.71400 34.89200 21.80200
H  48.11600 35.71000 21.57000
H  48.99600 31.64300 24.63700
H  49.69000 32.65900 23.35600
H  47.74000 30.87500 22.16500
H  48.70800 29.92400 23.20200
H  49.49000 31.02100 22.01700
H  45.67800 29.08200 25.87900
H  44.01800 29.26000 26.38000
H  45.23400 28.73400 27.60100
H  43.47000 32.38800 30.83400
H  44.14600 30.41700 34.76800
H  43.41000 31.96800 35.08200
H  45.15400 31.76800 34.78500

