158

Mg 7.55400 2.95000 27.66800
C  9.15200 1.94000 30.68900
C  5.46500 4.78700 29.82100
C  6.48400 4.48000 24.95300
C  9.68700 0.88400 25.83900
N  7.46200 3.37600 29.99100
C  8.20600 2.82800 30.96200
C  8.01300 3.51100 32.30000
C  6.63400 4.31300 32.05000
C  6.44900 4.07800 30.53200
C  5.47100 3.74400 33.00100
C  9.16100 4.46500 32.67200
C  9.10000 5.05500 34.07200
H  9.93900 4.49700 35.29900
N  6.03500 4.32800 27.35200
C  5.27900 4.91300 28.37600
C  4.30000 5.91600 27.70900
C  4.61800 5.84100 26.33100
C  5.70900 4.89700 26.11900
C  3.31300 6.76600 28.53900
C  4.00000 6.68000 25.26000
O  4.31800 6.57700 24.05800
C  3.07100 7.84200 25.57600
N  7.89500 2.60800 25.71600
C  7.38500 3.43500 24.77400
C  7.95100 3.06800 23.33300
C  9.05200 1.99000 23.65000
C  8.89600 1.82400 25.12300
C  6.79500 2.57000 22.42500
C  10.48200 2.24800 23.11700
C  10.94200 1.59300 21.83700
N  8.96100 1.50000 28.12300
C  9.75800 0.77100 27.24500
C  10.64700 -0.10300 28.03100
C  10.47000 0.44800 29.39900
C  9.48300 1.39200 29.35400
C  11.64300 -1.09800 27.46700
C  10.95700 0.33100 30.77700
O  11.84300 -0.47000 31.17200
C  10.09000 1.23600 31.64600
C  9.25300 0.36800 32.61100
O  8.22600 -0.23400 32.37100
O  9.83200 0.37200 33.83100
C  9.18200 -0.19600 35.01400
H  4.92000 5.43600 30.51000
H  6.16600 5.02700 24.06300
H  10.34700 0.24500 25.24900
H  7.96100 2.79100 33.11700
H  6.84700 5.32400 32.39600
H  4.53700 3.76500 32.43900
H  5.36500 4.46600 33.81100
H  5.70100 2.75000 33.38300
H  9.19300 5.29000 31.96100
H  10.05100 3.83900 32.61600
H  8.11100 4.88600 34.49600
H  9.25500 6.12400 33.92300
H  3.16200 6.32400 29.52400
H  2.34700 6.60200 28.06100
H  3.53900 7.83200 28.54800
H  2.57500 8.15800 24.65900
H  3.68400 8.59400 26.07400
H  2.27000 7.50000 26.23100
H  8.38800 3.97600 22.91800
H  8.72700 1.03400 23.24000
H  5.81000 2.54900 22.89100
H  6.94000 1.61600 21.91800
H  6.69700 3.30100 21.62100
H  11.20100 1.98700 23.89300
H  10.62800 3.30700 22.90300
H  10.18100 0.98700 21.34500
H  11.75700 0.90000 22.04500
H  11.27600 2.41600 21.20500
H  11.51900 -2.02900 28.02000
H  12.62200 -0.65200 27.63800
H  11.50100 -1.39200 26.42700
H  10.66900 2.00000 32.16300
H  9.78500 0.30600 35.77100
H  9.20600 -1.27400 35.17000
H  8.15800 0.17300 35.06300
Mg 1.39900 41.92900 25.19400
C  2.58400 41.64700 28.42800
C  -1.73000 40.52800 26.35200
C  0.37900 41.64100 22.09400
C  4.61300 43.02300 24.15700
N  0.57600 41.21300 27.21700
C  1.22400 41.31200 28.35500
C  0.34300 41.06200 29.58100
C  -1.11100 40.63900 28.90700
C  -0.79300 40.75000 27.38300
C  -1.63400 39.19100 29.21200
C  0.25500 42.28700 30.60800
C  -1.11500 42.66700 31.28700
H  -1.73200 41.51000 32.10700
N  -0.40100 41.19900 24.36800
C  -1.57400 40.70000 24.95700
C  -2.57600 40.52000 23.88800
C  -1.96300 40.78300 22.67300
C  -0.60700 41.24900 22.98100
C  -3.92900 40.09000 24.24100
C  -2.43400 40.36600 21.26700
O  -1.67800 40.54500 20.30000
C  -3.77100 39.74700 21.00800
N  2.43000 42.10400 23.34600
C  1.74700 42.01200 22.19300
C  2.64000 42.27400 20.99300
C  3.89300 42.96100 21.67400
C  3.64300 42.69400 23.20600
C  2.77800 41.04200 20.14300
C  4.21100 44.40400 21.25300
C  3.05000 45.42100 21.41600
N  3.28900 42.31100 26.07200
C  4.45400 42.84200 25.53400
C  5.46200 42.88800 26.60200
C  4.81700 42.40000 27.75100
C  3.45800 42.10300 27.35400
C  6.80800 43.55600 26.50300
C  4.95900 42.15400 29.07700
O  5.87600 42.28200 29.78700
C  3.55100 41.60200 29.60100
C  3.81900 40.23500 30.19400
O  4.59700 39.41400 29.75500
O  3.12900 40.09400 31.34200
C  2.98300 38.80400 31.93900
H  -2.71400 40.20100 26.69800
H  0.21700 41.64900 21.01400
H  5.58000 43.37700 23.79200
H  0.63200 40.20500 30.19000
H  -1.88600 41.37600 29.11600
H  -0.84400 38.63700 29.72000
H  -1.83200 38.64600 28.28900
H  -2.49800 39.34700 29.85800
H  0.65800 43.16500 30.10300
H  0.99700 42.06500 31.37500
H  -1.93800 42.94000 30.62600
H  -0.95500 43.43300 32.04600
H  -4.37000 40.89400 24.83000
H  -3.90400 39.27600 24.96500
H  -4.57000 39.97700 23.36600
H  -4.06300 38.95700 21.70100
H  -3.75500 39.34100 19.99700
H  -4.39300 40.63800 20.93000
H  2.24600 43.05600 20.34400
H  4.77000 42.34700 21.46900
H  2.31600 40.21700 20.68500
H  3.82600 40.87100 19.89400
H  2.22900 41.05200 19.20200
H  4.55400 44.27100 20.22700
H  5.11400 44.76300 21.74700
H  2.59200 45.36900 22.40300
H  2.35200 45.51800 20.58400
H  3.46500 46.42500 21.32500
H  6.93800 44.35700 27.23000
H  6.91200 43.92300 25.48200
H  7.54500 42.77500 26.68500
H  3.14500 42.26100 30.36800
H  1.90400 38.65300 31.97100
H  3.45300 38.94300 32.91300
H  3.59000 38.04000 31.45200

