158

Mg 26.89500 50.26800 26.02900
C  24.78100 51.51600 28.51500
C  28.90800 49.06800 28.49900
C  28.94200 49.22600 23.57100
C  24.73500 51.84700 23.63900
N  26.83400 50.32000 28.25400
C  25.85500 50.83800 29.03100
C  26.06900 50.57500 30.55700
C  27.51000 49.98600 30.52100
C  27.81100 49.86000 29.00500
C  28.68100 50.78100 31.22800
C  25.00400 49.53400 31.13100
C  24.46400 49.93800 32.55000
H  25.46500 50.57600 33.58200
N  28.63200 49.23200 25.99300
C  29.28700 48.79500 27.13300
C  30.57100 48.28000 26.76600
C  30.56900 48.28500 25.32900
C  29.29500 48.93200 24.90300
C  31.59500 47.79800 27.75300
C  31.56100 47.71400 24.39800
O  31.48200 47.76400 23.14900
C  32.85100 47.05600 24.89400
N  26.74100 50.39500 23.94600
C  27.73000 49.86300 23.17900
C  27.41100 50.01800 21.68200
C  26.06700 50.84500 21.71700
C  25.80400 51.06700 23.20600
C  28.59800 50.85100 20.97300
C  24.75300 50.30200 20.99100
C  24.03600 49.14900 21.65900
N  25.10800 51.47600 26.02400
C  24.38600 51.97900 25.01600
C  23.22700 52.73400 25.53300
C  23.33900 52.58400 26.91700
C  24.51700 51.83000 27.18100
C  22.25900 53.44000 24.72000
C  22.69000 52.97900 28.14700
O  21.69300 53.66200 28.28600
C  23.54700 52.21600 29.21800
C  23.95900 53.24600 30.22500
O  24.95800 53.93600 30.17100
O  23.10400 53.36500 31.29700
C  23.50200 54.30800 32.36200
H  29.59800 48.82400 29.30900
H  29.56300 48.83500 22.76200
H  24.16600 52.35900 22.86000
H  26.11600 51.55400 31.03400
H  27.63400 49.01100 30.99400
H  28.40500 51.78000 31.56800
H  29.53500 50.84800 30.55500
H  29.00800 50.28800 32.14300
H  25.40800 48.52200 31.16300
H  24.16000 49.38000 30.45900
H  23.92500 49.10400 33.00000
H  23.76100 50.75700 32.40100
H  32.61500 48.09600 27.51200
H  31.51600 46.71100 27.79600
H  31.40500 48.11100 28.77900
H  33.54700 46.70000 24.13400
H  32.56300 46.28300 25.60600
H  33.38500 47.84500 25.42200
H  27.15700 49.03300 21.29200
H  26.38500 51.82100 21.35000
H  29.36000 51.29500 21.61300
H  28.25400 51.68500 20.36200
H  29.04600 50.11900 20.30000
H  25.24600 50.00500 20.06500
H  24.04200 51.11800 20.86400
H  23.13800 49.61300 22.06800
H  24.65500 48.72600 22.45100
H  23.96900 48.34500 20.92600
H  21.78300 52.83900 23.94600
H  22.72000 54.27200 24.18700
H  21.53500 53.90400 25.39000
H  22.79600 51.63000 29.74800
H  24.11900 55.15800 32.07200
H  24.19400 53.81700 33.04600
H  22.55300 54.64500 32.77800
Mg 16.66700 52.12100 26.39700
C  18.39400 50.64300 28.88300
C  14.26400 52.96700 28.69000
C  14.90500 53.39800 23.89200
C  19.07800 51.09900 24.09400
N  16.30700 51.62400 28.64600
C  17.29900 51.33500 29.43200
C  16.92500 51.34900 30.88600
C  15.37900 51.85400 30.82900
C  15.27800 52.18600 29.36300
C  14.27500 50.73800 31.33600
C  17.77100 52.22700 31.87900
C  17.86900 51.68200 33.27200
H  16.92100 52.33400 34.25400
N  14.96700 53.13000 26.38600
C  14.02600 53.29400 27.38600
C  12.83700 54.00300 26.85900
C  13.04900 54.28300 25.49300
C  14.33500 53.61600 25.19300
C  11.61000 54.28100 27.80700
C  12.21500 54.95600 24.41800
O  12.59700 55.18200 23.32200
C  10.90000 55.50400 24.81300
N  16.81700 51.94600 24.27900
C  15.96700 52.70100 23.53800
C  16.53100 52.78800 22.00500
C  17.97100 52.47900 22.25300
C  17.99300 51.88100 23.64700
C  15.68800 51.94000 21.03600
C  18.80400 53.79400 22.33600
C  19.83300 54.02100 21.22500
N  18.33900 50.97900 26.42100
C  19.25100 50.63000 25.42500
C  20.30200 49.92600 26.00700
C  19.99900 49.88300 27.34900
C  18.81000 50.59900 27.54700
C  21.56600 49.46800 25.31100
C  20.56800 49.46600 28.60300
O  21.62900 48.86100 28.85900
C  19.53400 50.01100 29.68000
C  19.25800 48.88300 30.61800
O  18.51100 47.93700 30.33700
O  19.78900 49.09100 31.80500
C  19.49900 48.26200 33.00000
H  13.54000 53.29800 29.43700
H  14.27600 53.84400 23.11900
H  19.87600 51.05800 23.35000
H  16.84500 50.31200 31.21300
H  15.30100 52.73700 31.46400
H  14.29300 50.32100 32.34300
H  14.51100 49.87800 30.70900
H  13.30700 51.09600 30.98700
H  17.24300 53.18000 31.90700
H  18.73500 52.44000 31.41800
H  18.91600 51.77000 33.56300
H  17.69200 50.60700 33.27000
H  11.34400 55.33500 27.73800
H  11.80200 54.05200 28.85600
H  10.67400 53.76000 27.60500
H  10.06100 54.80900 24.77500
H  10.58100 56.25400 24.08900
H  10.77000 55.93600 25.80600
H  16.45900 53.79900 21.60300
H  18.41600 51.89200 21.44900
H  14.95500 52.50100 20.45700
H  15.14500 51.17500 21.59300
H  16.34600 51.41000 20.34800
H  19.34900 53.80800 23.28000
H  18.19100 54.69500 22.33900
H  19.74200 55.00900 20.77300
H  19.74700 53.24500 20.46500
H  20.80500 54.00500 21.71700
H  21.63300 49.95600 24.33900
H  21.76200 48.40100 25.42300
H  22.42500 49.84000 25.86900
H  20.02100 50.79100 30.26500
H  19.90400 47.27500 32.77600
H  18.42900 48.11400 33.14600
H  20.12600 48.50600 33.85800

