158

Mg 53.94500 25.17300 44.27200
C  51.31200 27.57200 43.61200
C  51.86100 22.76700 43.06900
C  56.67900 23.24300 44.16200
C  55.97300 27.98000 45.20300
N  51.89100 25.25600 43.26400
C  51.00500 26.32400 43.09000
C  49.69800 25.85400 42.43600
C  49.85200 24.29300 42.61100
C  51.30500 24.04100 42.95100
C  48.87400 23.78900 43.74400
C  49.48500 26.22400 40.92100
C  50.75000 26.56000 40.09300
H  50.95200 25.64000 38.84400
N  54.25300 23.19200 43.65300
C  53.21800 22.33600 43.36000
C  53.79800 21.01700 43.17700
C  55.21700 21.12100 43.51100
C  55.47000 22.53400 43.84000
C  53.03900 19.77100 42.79500
C  56.19300 20.00300 43.54800
O  55.69100 18.84400 43.35500
C  57.60800 20.15300 43.89400
N  56.01100 25.59300 44.56600
C  56.94900 24.58300 44.43700
C  58.37400 25.10900 44.59900
C  58.10400 26.66600 44.68400
C  56.61100 26.78600 44.83400
C  59.27700 24.53600 45.75700
C  58.58300 27.52300 43.50100
C  59.28600 28.86600 43.83200
N  53.65100 27.33900 44.55700
C  54.56200 28.27400 45.07400
C  53.81300 29.52200 45.30900
C  52.60700 29.23000 44.74100
C  52.52000 27.92800 44.22500
C  54.44200 30.74200 45.80400
C  51.35100 29.79500 44.45600
O  51.04600 30.93100 44.70900
C  50.47600 28.77800 43.72000
C  50.10600 29.30000 42.35400
O  50.86600 29.28500 41.38600
O  48.75300 29.67500 42.35500
C  48.19000 30.11700 40.99600
H  51.31100 21.86400 42.79700
H  57.68500 22.82400 44.23400
H  56.54000 28.89300 45.39700
H  48.91500 26.25300 43.08100
H  49.80700 23.76300 41.66000
H  48.71900 24.51500 44.54200
H  49.34900 22.85600 44.04600
H  47.92200 23.62300 43.24000
H  48.87600 27.12700 40.87400
H  48.89300 25.50200 40.36000
H  51.72500 26.56300 40.58000
H  50.56600 27.59200 39.79300
H  52.17500 20.08300 42.20900
H  52.62400 19.33900 43.70600
H  53.62300 19.03000 42.24900
H  58.11000 19.28700 44.32600
H  57.80400 20.83100 44.72400
H  58.13000 20.57100 43.03300
H  58.94500 24.87200 43.70100
H  58.42300 27.08900 45.63600
H  58.64500 23.95400 46.42700
H  59.75400 25.27900 46.39600
H  60.07600 23.89400 45.38700
H  57.86600 27.60900 42.68400
H  59.36800 26.91400 43.05300
H  59.33500 29.42500 42.89700
H  60.27400 28.67200 44.25100
H  58.78200 29.43000 44.61700
H  55.09400 30.36900 46.59300
H  53.86200 31.63400 46.04200
H  54.99800 31.00800 44.90400
H  49.53200 28.62600 44.24500
H  48.44700 29.37700 40.23800
H  48.58400 31.10500 40.75700
H  47.10400 30.20400 41.04500
Mg 7.10400 54.04300 41.11500
C  5.85000 50.67800 40.72900
C  9.97200 52.99900 39.81700
C  7.95200 57.32100 40.97800
C  3.82000 54.88700 42.08600
N  7.77300 52.06100 40.16500
C  7.13900 50.81200 40.16600
C  8.19800 49.75200 39.72800
C  9.58800 50.49000 39.82600
C  9.08600 51.94400 39.93300
C  10.40900 50.01800 41.06300
C  7.94600 49.20100 38.37600
C  7.45900 50.09800 37.22000
H  8.20200 50.18200 35.80700
N  8.82300 55.03700 40.54100
C  9.86800 54.39400 39.94600
C  10.86000 55.48800 39.62700
C  10.26500 56.72900 40.00700
C  8.93600 56.39300 40.52800
C  12.18400 55.13700 39.00100
C  10.84000 58.10600 39.80800
O  11.97900 58.23900 39.40000
C  10.18400 59.36200 40.02300
N  6.06000 55.84600 41.62300
C  6.68900 57.07900 41.51800
C  5.74300 58.16300 41.99900
C  4.42600 57.44700 42.45500
C  4.77200 55.95300 42.05200
C  6.40000 59.12100 42.99300
C  3.16500 58.06500 41.68800
C  2.08200 58.43000 42.69300
N  5.20200 53.02500 41.43500
C  4.01900 53.49000 41.88400
C  3.00500 52.47900 42.13600
C  3.81900 51.34600 41.79400
C  5.10900 51.69900 41.32500
C  1.51200 52.55400 42.45600
C  3.77300 49.93900 41.68400
O  2.91800 49.18400 41.94700
C  5.02200 49.45400 41.00600
C  4.70100 48.61600 39.79700
O  4.13400 49.00700 38.80700
O  5.04700 47.34000 40.04200
C  4.76000 46.30300 39.05300
H  10.95800 52.64700 39.50900
H  8.15800 58.39300 41.01400
H  2.87900 55.15000 42.57400
H  8.23800 48.95700 40.47300
H  10.24500 50.37600 38.96300
H  10.59600 50.89200 41.68700
H  11.40500 49.70600 40.74800
H  9.95700 49.23400 41.67000
H  7.28500 48.33700 38.45200
H  8.91000 48.81700 38.04200
H  7.29600 51.10800 37.59500
H  6.51100 49.65700 36.91300
H  12.18900 54.65100 38.02600
H  12.56500 54.39300 39.70000
H  12.86400 55.98400 39.08900
H  10.87100 60.14800 39.70700
H  10.07100 59.57800 41.08500
H  9.21700 59.37500 39.52200
H  5.48000 58.75800 41.12500
H  4.40000 57.47100 43.54400
H  7.45200 58.84100 43.05400
H  5.96500 59.24100 43.98500
H  6.38000 60.07700 42.47000
H  2.81600 57.39200 40.90500
H  3.44100 59.01600 41.23300
H  2.23700 57.99600 43.68000
H  1.11200 57.99200 42.45800
H  1.98900 59.51600 42.66500
H  0.99100 51.60000 42.53700
H  0.99900 53.18800 41.73300
H  1.39900 53.07900 43.40400
H  5.50500 48.83400 41.76200
H  5.05700 46.72500 38.09300
H  3.68900 46.09900 39.04400
H  5.30500 45.43400 39.42000

