158

Mg -3.00500 17.02100 25.93200
C  -3.20200 14.59900 28.36600
C  -2.99500 19.40000 28.21200
C  -2.90400 19.19900 23.26300
C  -3.22100 14.30700 23.47800
N  -3.24500 16.99700 28.04900
C  -3.25300 15.87000 28.91500
C  -3.33700 16.39700 30.44600
C  -3.42000 17.94800 30.21300
C  -3.24800 18.15200 28.73100
C  -4.64100 18.64800 30.83600
C  -2.06700 15.97100 31.27800
C  -1.56100 16.76800 32.53600
H  -0.83500 15.85100 33.52800
N  -2.99500 19.04100 25.77200
C  -2.94700 19.87800 26.88300
C  -3.00000 21.22000 26.45200
C  -2.82500 21.15900 24.99700
C  -2.91800 19.75400 24.60800
C  -3.16500 22.38300 27.38500
C  -2.43700 22.33000 23.99300
O  -2.19500 22.13900 22.82800
C  -2.19400 23.70800 24.44900
N  -3.02300 16.71600 23.64100
C  -2.97100 17.82800 22.86800
C  -2.96500 17.44400 21.40100
C  -3.39000 15.92700 21.42200
C  -3.15700 15.61500 22.93500
C  -4.01600 18.27000 20.43100
C  -2.53600 15.06300 20.48600
C  -3.20500 14.56500 19.16000
N  -3.10500 14.94000 25.86000
C  -3.21400 13.95100 24.85000
C  -3.46800 12.69500 25.43300
C  -3.34100 12.92100 26.76700
C  -3.12600 14.23500 27.01700
C  -3.71800 11.42500 24.72200
C  -3.39700 12.23700 27.99700
O  -3.48700 11.01800 28.14800
C  -3.34900 13.28000 29.06500
C  -2.31400 12.91300 29.96100
O  -1.10900 13.19400 29.73300
O  -2.74500 12.27200 31.10600
C  -1.65100 11.67400 31.95700
H  -2.83700 20.17200 28.96700
H  -2.79700 19.89100 22.42500
H  -3.45500 13.61500 22.66700
H  -4.18600 15.92700 30.94100
H  -2.68700 18.48000 30.81900
H  -4.30100 19.27400 31.66000
H  -5.31400 17.92700 31.30100
H  -5.28200 19.28900 30.23100
H  -1.19800 15.94900 30.62100
H  -2.31600 14.98400 31.66800
H  -2.30800 17.35600 33.07000
H  -0.87700 17.50800 32.12100
H  -3.20900 22.11200 28.44000
H  -4.05800 22.88100 27.00500
H  -2.33300 23.06900 27.22600
H  -2.19600 24.34700 23.56600
H  -1.20000 23.81100 24.88400
H  -2.94900 24.17400 25.08200
H  -1.97100 17.56500 20.97000
H  -4.46700 15.75900 21.37900
H  -4.83800 17.74100 19.94900
H  -3.26800 18.68800 19.75800
H  -4.37500 19.10700 21.02900
H  -2.12300 14.30400 21.15000
H  -1.62700 15.52800 20.10400
H  -4.28100 14.70200 19.04900
H  -3.06900 13.48400 19.19300
H  -2.77900 15.09400 18.30700
H  -4.47300 11.05700 25.41500
H  -2.89700 10.71000 24.76700
H  -4.15000 11.44700 23.72100
H  -4.33500 13.23300 29.52800
H  -1.03300 10.84000 31.62900
H  -2.21000 11.30000 32.81500
H  -0.95300 12.39700 32.38000
Mg -5.79200 25.26100 26.71800
C  -3.84200 26.60800 29.23500
C  -7.30000 23.15400 29.01800
C  -7.20000 23.59900 24.17200
C  -3.86300 27.20800 24.34600
N  -5.34900 24.73400 28.78600
C  -4.67600 25.56800 29.64700
C  -5.05300 25.25700 31.11900
C  -5.90300 23.95300 30.99200
C  -6.25100 23.93000 29.49000
C  -5.22200 22.62600 31.42900
C  -5.83600 26.39100 31.76600
C  -5.83200 26.55400 33.31600
H  -5.81800 25.32700 34.19500
N  -7.07900 23.63500 26.59800
C  -7.70500 22.95300 27.66600
C  -8.68500 21.97300 27.08800
C  -8.70700 22.23300 25.65600
C  -7.65700 23.21300 25.44300
C  -9.50400 21.06100 27.87800
C  -9.57200 21.50300 24.53100
O  -9.51300 21.81200 23.35600
C  -10.46100 20.36200 24.83600
N  -5.52500 25.43500 24.62300
C  -6.22900 24.62700 23.75500
C  -5.73500 24.76500 22.27800
C  -4.78900 25.93200 22.37600
C  -4.75200 26.25100 23.87000
C  -5.18400 23.48900 21.53800
C  -5.14000 27.22900 21.50700
C  -4.38500 27.29500 20.14100
N  -4.14800 26.73400 26.75000
C  -3.52900 27.46900 25.75300
C  -2.55800 28.34300 26.39100
C  -2.62100 28.05100 27.78900
C  -3.59900 27.07800 27.91200
C  -1.63100 29.37400 25.67600
C  -2.13000 28.24300 29.14500
O  -1.20100 28.96600 29.55300
C  -3.03100 27.44300 30.12000
C  -2.15600 26.60100 30.94800
O  -1.58500 25.54400 30.66600
O  -1.97200 27.18300 32.17000
C  -1.13700 26.42800 33.06100
H  -7.91000 22.52100 29.66600
H  -7.56400 22.94100 23.38000
H  -3.21000 27.74200 23.65200
H  -4.10500 25.16200 31.64900
H  -6.85800 24.06200 31.50800
H  -5.01600 22.08600 30.50500
H  -5.99700 22.06400 31.95100
H  -4.37400 22.77500 32.09700
H  -6.89500 26.24100 31.55500
H  -5.49700 27.26900 31.21500
H  -6.69500 27.18200 33.54000
H  -4.97300 27.18900 33.53500
H  -10.56500 21.03600 27.63100
H  -9.50600 21.19600 28.95900
H  -8.99200 20.09800 27.85100
H  -9.77800 19.63700 25.27900
H  -10.83300 20.00800 23.87500
H  -11.36000 20.61400 25.39800
H  -6.68100 24.99000 21.78600
H  -3.81300 25.53700 22.09600
H  -4.81800 22.86500 22.35400
H  -4.27300 23.70200 20.97800
H  -5.83000 23.09100 20.75600
H  -4.90500 28.14900 22.04100
H  -6.18800 27.28300 21.21000
H  -3.64800 26.50000 20.25800
H  -3.83900 28.23800 20.09500
H  -5.02600 27.08500 19.28500
H  -2.16900 29.83200 24.84600
H  -0.73500 28.85500 25.33500
H  -1.43900 30.23300 26.31800
H  -3.65900 28.13700 30.67800
H  -1.27300 26.92000 34.02400
H  -0.05700 26.53400 32.95200
H  -1.25900 25.34500 33.06500

