158

Mg 36.51000 49.51900 24.85800
C  36.28400 47.80800 27.97400
C  35.58900 52.35700 26.72100
C  36.63300 51.24900 22.05800
C  37.14500 46.57000 23.29300
N  35.89000 49.97100 27.10700
C  36.01900 49.14600 28.17000
C  35.86400 49.91900 29.48800
C  35.26600 51.30100 29.03300
C  35.61900 51.22400 27.53700
C  33.77000 51.44600 29.27800
C  37.25700 49.89000 30.27900
C  37.16700 49.56900 31.78100
H  35.90700 50.09300 32.51000
N  36.13600 51.47400 24.44600
C  35.86600 52.50100 25.35400
C  35.71000 53.75800 24.65400
C  36.08100 53.52600 23.28500
C  36.27700 52.03100 23.14900
C  35.40000 55.07000 25.23000
C  36.15200 54.49400 22.16900
O  36.27100 54.10000 21.00300
C  36.04300 55.98400 22.27400
N  36.81200 48.96900 22.95800
C  36.82400 49.87200 21.94400
C  37.12600 49.25500 20.55100
C  37.42600 47.73400 20.93500
C  37.10700 47.72100 22.47400
C  35.98800 49.43900 19.55400
C  38.90800 47.27300 20.56800
C  39.99000 47.87800 21.47900
N  36.62500 47.58100 25.42700
C  36.93800 46.43600 24.63200
C  37.02200 45.32300 25.45900
C  36.82400 45.81400 26.76600
C  36.52700 47.14300 26.70000
C  37.37000 43.97000 24.98900
C  36.75400 45.47000 28.14300
O  36.93000 44.34200 28.68500
C  36.43400 46.74700 28.98100
C  35.12000 46.41700 29.58500
O  34.04100 46.38400 29.01800
O  35.31200 46.30100 31.00300
C  34.07200 45.82500 31.76500
H  35.33400 53.25400 27.28800
H  36.65300 51.78700 21.10800
H  37.57100 45.72000 22.75600
H  35.11000 49.38800 30.07000
H  35.85300 52.18400 29.28400
H  33.25900 50.73300 28.63100
H  33.48100 52.42200 28.88800
H  33.60200 51.31500 30.34700
H  37.67600 50.89500 30.31200
H  37.96800 49.20900 29.81200
H  38.13000 49.90300 32.16800
H  37.05600 48.48600 31.83700
H  34.66600 55.69100 24.71500
H  36.30800 55.67100 25.27100
H  34.80300 54.97700 26.13800
H  35.09600 56.22600 22.75500
H  36.07200 56.36700 21.25400
H  36.87100 56.33100 22.89200
H  38.05000 49.70100 20.18500
H  36.70700 47.06400 20.46600
H  35.04000 49.13800 20.00100
H  36.13900 48.80300 18.68100
H  35.88600 50.49000 19.28400
H  39.18200 47.71100 19.60800
H  38.90900 46.18300 20.60600
H  40.73800 47.09600 21.35400
H  39.74700 48.16800 22.50200
H  40.31300 48.81100 21.01700
H  38.19900 43.97100 24.28100
H  36.51200 43.47500 24.53400
H  37.65800 43.35500 25.84100
H  37.11400 47.01200 29.79000
H  33.40700 45.44000 30.99300
H  33.57400 46.70100 32.18100
H  34.48000 45.13400 32.50300
Mg 25.14400 51.73100 25.66000
C  23.50400 52.63200 28.56400
C  28.11400 51.79200 27.65500
C  27.26000 51.60800 22.78200
C  22.72400 52.74200 23.77000
N  25.66700 52.08300 27.92600
C  24.77700 52.34400 28.89500
C  25.42700 52.29100 30.27500
C  26.99900 52.15800 29.97600
C  26.91700 51.98200 28.44400
C  27.95700 53.32600 30.43400
C  24.82400 51.20000 31.21000
C  24.34900 51.64500 32.62300
H  25.32000 52.20500 33.59000
N  27.30500 51.59500 25.32000
C  28.32300 51.68900 26.26800
C  29.63100 51.59600 25.67400
C  29.45700 51.63400 24.27500
C  27.94400 51.58400 24.09000
C  30.96500 51.57700 26.41600
C  30.43000 51.68900 23.15000
O  30.06600 51.95800 22.01000
C  31.90500 51.51000 23.50200
N  25.03500 52.03000 23.55400
C  25.93600 51.75200 22.55700
C  25.24700 51.76100 21.19600
C  23.77600 52.08300 21.50300
C  23.79500 52.27100 23.06600
C  25.82700 52.70900 20.15100
C  22.91000 50.91300 20.89100
C  21.65900 51.30100 20.07600
N  23.46900 52.44200 26.00900
C  22.46700 52.76400 25.13800
C  21.34800 53.19500 25.80000
C  21.62400 53.07200 27.17500
C  22.96200 52.63200 27.26600
C  20.15700 53.72300 25.15600
C  21.10400 53.25600 28.56800
O  19.99400 53.55600 29.02900
C  22.32200 52.89300 29.44100
C  22.43300 54.08500 30.27700
O  23.02300 55.10200 29.99600
O  21.75200 53.90800 31.47400
C  21.91600 54.90300 32.56200
H  28.99800 51.89300 28.28700
H  27.80800 51.66500 21.83900
H  21.79600 52.94500 23.23000
H  25.31500 53.27200 30.73700
H  27.36700 51.25500 30.46400
H  27.48100 53.96400 31.17900
H  28.30800 53.93700 29.60200
H  28.77000 52.92000 31.03600
H  25.55900 50.41400 31.38400
H  23.93100 50.82200 30.71200
H  23.90100 50.74100 33.03500
H  23.56400 52.37400 32.42300
H  30.88500 51.24200 27.45100
H  31.37400 52.58500 26.48200
H  31.78600 50.95200 26.06400
H  32.51600 51.42500 22.60300
H  32.05200 50.49000 23.85800
H  32.25700 52.27700 24.19100
H  25.40900 50.72500 20.89900
H  23.49300 53.04000 21.06600
H  26.67000 53.29500 20.51700
H  25.04300 53.34800 19.74600
H  26.06600 52.05300 19.31400
H  22.48900 50.41600 21.76600
H  23.51900 50.22500 20.30400
H  20.73800 51.02400 20.58900
H  21.68700 50.73700 19.14400
H  21.78700 52.34600 19.79300
H  20.37300 54.65900 24.64100
H  19.33800 54.07900 25.78000
H  19.87200 53.06700 24.33300
H  22.11000 52.00100 30.03100
H  22.28200 55.84800 32.16100
H  22.66100 54.57100 33.28600
H  20.97200 55.09100 33.07300

