158

Mg 46.24000 24.81400 28.61800
C  47.10400 27.24000 31.14200
C  45.63300 22.58200 31.11100
C  45.52800 22.54600 26.32000
C  47.64100 26.87800 26.32000
N  46.15900 25.01300 30.85700
C  46.58200 26.06100 31.60100
C  46.33300 25.83000 33.07200
C  46.00200 24.26700 33.09500
C  45.97100 23.88000 31.61400
C  46.99000 23.45700 34.01800
C  45.16100 26.77600 33.56500
C  45.30600 27.49400 34.87700
H  45.73800 26.70600 36.15300
N  45.63900 22.87800 28.70700
C  45.41400 22.09800 29.80200
C  44.98400 20.87000 29.44800
C  44.67800 20.88300 28.11900
C  45.25200 22.16000 27.61000
C  44.95600 19.68900 30.46500
C  43.97900 19.87200 27.36900
O  43.55600 20.15500 26.25000
C  43.66500 18.53600 27.94200
N  46.66700 24.64900 26.60300
C  46.29800 23.63100 25.79000
C  46.54200 23.86000 24.36000
C  47.13400 25.32100 24.37200
C  47.21600 25.63500 25.88200
C  47.40100 22.73700 23.60800
C  46.25900 26.29900 23.49400
C  45.20900 27.20700 24.14100
N  47.07000 26.70600 28.63700
C  47.65000 27.39100 27.60900
C  48.07100 28.56700 28.13900
C  47.93900 28.55600 29.50600
C  47.27700 27.41500 29.77200
C  48.70100 29.71100 27.34100
C  48.25800 29.25400 30.74300
O  48.80500 30.32500 30.95800
C  47.59000 28.51000 31.85200
C  48.55700 28.30900 32.89700
O  49.52300 27.57000 32.87100
O  48.22800 29.22300 33.87700
C  48.95700 28.98200 35.17900
H  45.36500 21.87800 31.90100
H  45.08700 21.77000 25.69100
H  48.11000 27.50600 25.56000
H  47.32800 26.12500 33.40500
H  45.00200 24.01400 33.44800
H  47.62100 24.14500 34.58000
H  47.63200 22.90000 33.33500
H  46.47400 22.66500 34.56100
H  44.33900 26.12900 33.87200
H  44.90600 27.51100 32.80200
H  44.38600 28.05200 35.05000
H  46.19200 28.05400 34.58000
H  45.52500 18.87400 30.01700
H  43.93400 19.38700 30.69600
H  45.40800 19.81500 31.44900
H  43.22300 17.89100 27.18200
H  42.97200 18.66500 28.77400
H  44.52000 17.92200 28.22300
H  45.59200 23.89200 23.82600
H  48.19200 25.25300 24.11900
H  48.44900 22.99700 23.45900
H  47.03500 22.79400 22.58300
H  47.35900 21.73200 24.02700
H  45.89100 25.77000 22.61500
H  47.02700 26.99800 23.16500
H  45.16000 27.05800 25.21900
H  44.16900 27.11000 23.82800
H  45.52400 28.24000 23.99000
H  48.20200 29.65300 26.37400
H  49.76900 29.53500 27.21200
H  48.38200 30.67500 27.73700
H  46.73400 29.01900 32.29400
H  48.94500 29.89900 35.76700
H  50.02000 28.74200 35.16100
H  48.32500 28.27600 35.71700
Mg 7.31800 54.50200 41.99600
C  6.90100 51.01200 41.47600
C  10.54100 54.15400 40.78200
C  7.50700 57.69100 42.22600
C  3.82700 54.60500 42.98800
N  8.49400 52.81700 40.95800
C  8.13600 51.50500 41.01700
C  9.28300 50.61500 40.46800
C  10.53600 51.58700 40.54700
C  9.85600 52.96400 40.76700
C  11.50000 51.26000 41.71200
C  9.02500 50.11700 38.96400
C  8.32900 51.08600 38.02500
H  7.33100 50.49000 37.01700
N  8.85100 55.77200 41.61500
C  10.05900 55.47600 41.11200
C  10.83000 56.75100 41.06900
C  9.96600 57.75700 41.49000
C  8.70000 57.11800 41.78200
C  12.23300 56.85200 40.55000
C  10.34600 59.23900 41.75700
O  11.43400 59.72000 41.41700
C  9.46000 60.18900 42.48600
N  5.81600 55.90300 42.44700
C  6.20500 57.20600 42.44200
C  4.97300 58.12100 42.69400
C  3.81600 57.16200 43.15500
C  4.44700 55.82200 42.81900
C  5.25400 59.28900 43.67100
C  2.45200 57.29300 42.35700
C  1.20500 57.05000 43.18600
N  5.64000 53.14800 42.12600
C  4.38100 53.26000 42.72000
C  3.74900 51.94900 42.78400
C  4.74700 51.02600 42.40200
C  5.84200 51.83500 41.94100
C  2.35900 51.61100 43.26800
C  5.12700 49.59900 42.22300
O  4.51800 48.59000 42.40100
C  6.46400 49.57500 41.52700
C  6.00000 49.02100 40.17800
O  5.26200 49.56000 39.35700
O  6.54200 47.78700 40.00200
C  6.02200 46.97500 38.91100
H  11.62900 54.12600 40.68700
H  7.55900 58.77400 42.35100
H  2.82800 54.40900 43.38300
H  9.45600 49.73300 41.08500
H  11.05500 51.65800 39.59100
H  11.19100 50.50700 42.43600
H  11.67900 52.14900 42.31800
H  12.49900 50.91100 41.45200
H  8.58300 49.12400 39.04500
H  10.02100 49.93900 38.55900
H  9.08100 51.51500 37.36300
H  7.64300 51.70700 38.60000
H  12.53900 57.87900 40.34800
H  12.26400 56.40300 39.55700
H  12.76800 56.36300 41.36400
H  8.68700 60.66600 41.88300
H  10.08200 60.97400 42.91700
H  8.94800 59.73900 43.33500
H  4.77000 58.68200 41.78200
H  3.71400 57.24900 44.23700
H  4.55100 59.17500 44.49600
H  4.99400 60.19800 43.12800
H  6.30700 59.24800 43.94800
H  2.51800 56.67900 41.45900
H  2.31700 58.35900 42.17100
H  0.35500 57.52000 42.69100
H  1.26100 57.47900 44.18600
H  0.99600 55.98000 43.17100
H  2.48100 50.58700 43.62000
H  1.70800 51.56700 42.39500
H  1.89800 52.20900 44.05400
H  7.19900 48.88800 41.94600
H  6.62500 46.07600 38.78800
H  6.03000 47.48200 37.94700
H  4.98700 46.65500 39.03000

