158

Mg -1.87500 17.84800 26.51300
C  -2.33200 15.49500 29.11100
C  -2.26400 20.36000 28.69500
C  -2.44700 19.94700 23.85300
C  -2.30500 15.12300 24.23000
N  -2.42300 17.87000 28.69500
C  -2.31300 16.84900 29.56000
C  -2.41100 17.37600 31.04200
C  -2.53100 18.90500 30.85500
C  -2.41500 19.09500 29.33300
C  -3.76500 19.52900 31.49600
C  -1.30600 16.74300 31.97600
C  -0.89600 17.52700 33.24500
H  -0.66000 16.70000 34.53800
N  -2.02900 19.92400 26.32800
C  -2.22000 20.79000 27.36400
C  -2.26700 22.14100 26.89700
C  -2.25700 22.04900 25.43200
C  -2.31400 20.57300 25.16600
C  -2.43500 23.35400 27.80700
C  -2.39400 23.05300 24.23600
O  -2.36200 22.83600 23.09300
C  -2.57400 24.50700 24.69200
N  -2.03600 17.65000 24.37700
C  -2.39600 18.61900 23.50300
C  -2.65700 18.11300 22.06900
C  -2.37700 16.58300 22.27200
C  -2.28300 16.43700 23.77700
C  -3.86900 18.58100 21.25800
C  -1.13400 16.15200 21.40600
C  0.19900 15.77600 22.14300
N  -2.07000 15.68000 26.55100
C  -2.18300 14.78600 25.56700
C  -2.19800 13.47700 26.09000
C  -2.21200 13.70700 27.47200
C  -2.16900 15.06800 27.73800
C  -2.17600 12.12800 25.41600
C  -2.33400 13.05900 28.74900
O  -2.50700 11.84200 29.00900
C  -2.42800 14.17200 29.84300
C  -1.40900 13.83400 30.82200
O  -0.19800 13.90500 30.64800
O  -2.08600 13.36600 31.83900
C  -1.25400 12.87800 32.90600
H  -2.19100 21.19800 29.39100
H  -2.92400 20.60000 23.11900
H  -2.57900 14.28600 23.58500
H  -3.30200 16.82900 31.34800
H  -1.67600 19.42000 31.29300
H  -4.39500 20.05400 30.77700
H  -3.49600 20.32500 32.19000
H  -4.32100 18.82300 32.11200
H  -0.41200 16.47500 31.41300
H  -1.67400 15.80500 32.39100
H  -1.48800 18.41900 33.44900
H  0.06400 17.91600 32.90300
H  -1.47700 23.87300 27.78000
H  -2.62200 22.83400 28.74600
H  -3.24400 24.00000 27.46600
H  -1.82200 24.65500 25.46700
H  -3.61600 24.40500 24.99300
H  -2.42900 25.07800 23.77500
H  -1.93200 18.59200 21.41100
H  -3.15200 15.90700 21.91300
H  -4.29600 19.44100 21.77300
H  -4.61900 17.80100 21.12400
H  -3.54000 18.82000 20.24700
H  -0.94500 16.88700 20.62400
H  -1.43100 15.20100 20.96500
H  0.25100 14.68800 22.14500
H  0.37100 16.11400 23.16600
H  1.09000 16.04900 21.57800
H  -1.30100 12.08800 24.76600
H  -3.15600 12.17700 24.94300
H  -2.06700 11.32500 26.14500
H  -3.44300 14.21100 30.23900
H  -0.93200 11.86600 32.66000
H  -1.92900 12.76300 33.75300
H  -0.38400 13.48700 33.15300
Mg 48.90000 45.33300 42.86100
C  45.64600 45.15400 41.47200
C  49.24800 41.90700 42.03500
C  52.11500 45.47600 43.46800
C  48.42700 48.55100 43.43200
N  47.50900 43.73900 41.96900
C  46.28600 43.96300 41.36600
C  45.85200 42.68100 40.60500
C  46.72500 41.67600 41.32700
C  47.93500 42.45200 41.81200
C  46.05500 40.93500 42.56300
C  45.98200 42.89200 39.01000
C  44.71000 42.55400 38.13800
H  44.87100 41.77600 36.84200
N  50.46900 43.85800 42.79900
C  50.47300 42.55000 42.40700
C  51.75100 41.96100 42.56700
C  52.54200 42.91500 43.19300
C  51.71000 44.13400 43.20300
C  52.13500 40.58600 42.08900
C  53.94000 42.79100 43.79200
O  54.52300 41.73600 43.66200
C  54.64300 43.89400 44.56000
N  50.15500 46.84900 43.20100
C  51.46900 46.70800 43.53400
C  52.13200 48.05700 43.72100
C  50.93700 49.01700 44.00400
C  49.76200 48.09400 43.59400
C  53.31700 48.14500 44.79600
C  51.03100 50.34800 43.27000
C  50.86800 51.62800 44.13600
N  47.40600 46.67700 42.55700
C  47.28400 47.92700 42.93500
C  45.99000 48.45700 42.61700
C  45.29200 47.39700 42.00700
C  46.23500 46.32400 42.04500
C  45.50400 49.88800 42.82700
C  44.05100 47.04700 41.37800
O  43.05100 47.64700 40.98900
C  44.34400 45.57400 40.92800
C  43.16200 44.81000 41.35200
O  42.27100 44.33900 40.61600
O  43.22100 44.68500 42.74500
C  41.95700 44.21400 43.26700
H  49.30400 40.81700 42.07900
H  53.17900 45.66700 43.62500
H  48.29200 49.60900 43.66700
H  44.77800 42.62100 40.78000
H  46.92600 40.97100 40.52100
H  46.08400 39.85100 42.45600
H  44.99200 41.17100 42.51800
H  46.39500 41.26700 43.54400
H  46.74900 42.20200 38.65800
H  46.27900 43.92000 38.80300
H  44.24400 43.51200 37.90800
H  44.04900 41.96100 38.77000
H  52.97200 40.63000 41.39200
H  51.34500 39.96500 41.66700
H  52.46100 39.99400 42.94300
H  55.16500 44.50200 43.82200
H  55.35500 43.32700 45.15900
H  54.05400 44.52400 45.22600
H  52.58200 48.31800 42.76300
H  50.93900 49.13200 45.08800
H  53.13500 48.82900 45.62500
H  54.23500 48.43800 44.28700
H  53.40900 47.12900 45.17900
H  50.13800 50.31300 42.64600
H  51.89900 50.50700 42.63200
H  51.73800 52.26100 43.96100
H  50.73000 51.24000 45.14500
H  50.01100 52.19500 43.77100
H  45.49200 50.16100 43.88300
H  44.51400 50.05000 42.39900
H  46.27700 50.51100 42.37800
H  44.38200 45.65800 39.84200
H  42.02600 44.51400 44.31300
H  41.79500 43.13700 43.22200
H  41.09500 44.73900 42.85600

