158

Mg 8.67200 48.07000 27.62100
C  7.05800 47.44000 30.77100
C  11.62900 48.28600 29.54800
C  10.31800 48.68200 24.81500
C  5.62400 48.03200 26.05400
N  9.14400 47.93600 29.93000
C  8.40200 47.65100 30.98000
C  9.08000 47.75700 32.40000
C  10.56400 48.17600 31.89500
C  10.45700 48.08400 30.37100
C  11.21300 49.48000 32.42200
C  9.11400 46.64900 33.45000
C  8.84300 47.02000 34.93600
H  9.57900 46.12900 36.00500
N  10.63500 48.37300 27.20300
C  11.72600 48.40500 28.14600
C  12.90600 48.63900 27.48400
C  12.59700 48.83800 26.09800
C  11.13800 48.64600 25.96100
C  14.30400 48.71000 28.06400
C  13.56200 49.12800 24.89600
O  13.14100 49.23500 23.77300
C  15.10500 49.18400 25.09300
N  8.05500 48.22700 25.74900
C  8.87900 48.48900 24.76100
C  8.17600 48.58700 23.33600
C  6.66700 48.49600 23.76300
C  6.74600 48.22900 25.25600
C  8.46300 49.85700 22.58500
C  5.87000 47.42300 23.05300
C  5.86100 47.55800 21.53000
N  6.79600 47.77700 28.17800
C  5.66300 47.82700 27.45000
C  4.53800 47.65000 28.24700
C  5.05100 47.47700 29.54300
C  6.42300 47.57400 29.47000
C  3.09800 47.70700 27.87900
C  4.62300 47.21400 30.86700
O  3.52900 47.08700 31.41200
C  5.98700 47.15500 31.70800
C  6.09300 45.81300 32.22000
O  6.48300 44.87300 31.57300
O  5.82500 45.68200 33.61500
C  5.90900 44.28700 34.05900
H  12.53400 48.51200 30.11700
H  10.72000 49.03000 23.86100
H  4.64900 48.11000 25.56800
H  8.62800 48.67600 32.77100
H  11.23600 47.37700 32.20600
H  10.53100 49.88900 33.16700
H  11.32100 50.18400 31.59700
H  12.19700 49.30600 32.85900
H  10.06600 46.13600 33.31700
H  8.41000 45.88100 33.13100
H  7.77700 46.95200 35.15400
H  9.11800 48.05500 35.13900
H  14.75400 47.80400 27.65700
H  14.36600 48.66900 29.15100
H  14.90600 49.58400 27.81800
H  15.48200 50.02400 25.67600
H  15.54500 49.26800 24.09900
H  15.43600 48.20300 25.43600
H  8.52000 47.78400 22.68400
H  6.12300 49.42300 23.58700
H  8.79900 50.71200 23.17100
H  7.58300 50.16700 22.02200
H  9.28400 49.64900 21.89800
H  4.84200 47.46300 23.41500
H  6.23500 46.42200 23.28600
H  6.80800 47.33500 21.03700
H  5.65800 48.61000 21.32800
H  5.06600 46.93900 21.11500
H  2.86800 46.84400 27.25400
H  2.93700 48.70700 27.47700
H  2.50600 47.75300 28.79400
H  5.99800 48.02000 32.37000
H  6.85500 43.81400 33.79500
H  5.05600 43.71300 33.69700
H  5.77000 44.24900 35.14000
Mg -4.37100 25.48200 26.21800
C  -2.74500 26.97900 28.96000
C  -5.43000 22.94600 28.32400
C  -5.42900 23.79400 23.54200
C  -2.75100 27.81400 24.12100
N  -4.19700 25.09400 28.39100
C  -3.52900 25.88200 29.32800
C  -3.94400 25.43000 30.67400
C  -4.35100 23.94600 30.43400
C  -4.64800 23.97100 28.91500
C  -3.35100 22.84800 30.88500
C  -5.15600 26.24500 31.29000
C  -5.07700 26.53500 32.76700
H  -4.69600 25.28800 33.66700
N  -5.33000 23.70900 25.94400
C  -5.71200 22.78000 26.95400
C  -6.37800 21.63000 26.27200
C  -6.08600 21.75000 24.91600
C  -5.57200 23.13700 24.76200
C  -6.89100 20.43000 27.07400
C  -6.36700 20.81400 23.83400
O  -5.99000 21.00300 22.67000
C  -7.07200 19.49900 24.09800
N  -4.24100 25.80000 24.19200
C  -4.85100 25.02000 23.31200
C  -4.74600 25.56500 21.86600
C  -3.91200 26.86900 21.95800
C  -3.57200 26.88000 23.50500
C  -4.19600 24.57900 20.82100
C  -4.68100 28.12900 21.55800
C  -4.78700 28.44100 20.05000
N  -3.10100 27.17300 26.49600
C  -2.44500 27.93200 25.53100
C  -1.53400 28.84300 26.18200
C  -1.63100 28.52100 27.52800
C  -2.57900 27.49900 27.65900
C  -0.53700 29.69100 25.40400
C  -1.04000 28.74700 28.85700
O  -0.17300 29.55200 29.14300
C  -1.82000 27.81300 29.82200
C  -0.83100 27.15500 30.81100
O  -0.31700 26.08500 30.65100
O  -0.69900 27.98100 31.88400
C  -0.14100 27.30200 33.05600
H  -5.63200 22.09100 28.97200
H  -5.91600 23.24300 22.73500
H  -2.28900 28.51200 23.42000
H  -3.09200 25.49500 31.35000
H  -5.31000 23.78500 30.92600
H  -2.38000 23.30100 31.08600
H  -3.22200 21.99500 30.22000
H  -3.58300 22.25100 31.76600
H  -6.06600 25.75200 30.94800
H  -5.24200 27.16200 30.70700
H  -6.09400 26.83600 33.01800
H  -4.40900 27.38900 32.87600
H  -7.98000 20.45000 27.03500
H  -6.70300 20.50000 28.14600
H  -6.45200 19.48200 26.76300
H  -6.38800 18.80100 24.57900
H  -7.41100 18.97700 23.20300
H  -7.86700 19.59600 24.83700
H  -5.70800 25.83700 21.43200
H  -2.95000 26.82900 21.44800
H  -3.41400 25.05200 20.22700
H  -4.86200 24.27800 20.01100
H  -3.91200 23.71500 21.42200
H  -4.22700 29.04000 21.94900
H  -5.70300 28.08500 21.93700
H  -4.13600 27.78100 19.47500
H  -4.57500 29.48400 19.81700
H  -5.84600 28.28500 19.84500
H  -0.02600 30.53200 25.87200
H  -1.16000 30.17200 24.65000
H  0.17100 29.05700 24.86800
H  -2.46200 28.46500 30.41500
H  -0.81700 27.37700 33.90800
H  0.77300 27.82300 33.33800
H  0.03700 26.22700 33.09700

