158

Mg 2.50500 -2.38300 44.33100
C  5.93500 -1.80700 43.60100
C  1.73900 0.19700 42.06200
C  -0.68700 -3.39800 44.25300
C  3.54100 -5.35200 45.78500
N  3.72400 -1.19700 42.79600
C  5.07400 -0.90300 42.95600
C  5.46100 0.33000 42.07800
C  4.09200 0.95100 41.68800
C  3.11400 -0.03800 42.24200
C  3.93300 2.41400 42.13100
C  6.28800 -0.01100 40.82400
C  7.52800 0.85700 40.39900
H  7.55700 1.65400 39.01600
N  0.72300 -1.55600 43.38000
C  0.61400 -0.53100 42.52500
C  -0.78600 -0.30500 42.25500
C  -1.52300 -1.41000 42.82300
C  -0.47300 -2.17400 43.50000
C  -1.21200 0.91700 41.40200
C  -3.03400 -1.61900 42.67800
O  -3.78800 -0.95500 42.01900
C  -3.62200 -2.78200 43.48800
N  1.63300 -4.14600 44.85400
C  0.27900 -4.34900 44.78700
C  -0.21800 -5.55000 45.71800
C  1.17800 -6.30400 45.68900
C  2.20600 -5.20600 45.52600
C  -0.52600 -5.09400 47.17800
C  1.30000 -7.39200 44.65600
C  1.23700 -8.82600 45.27200
N  4.35900 -3.39800 44.77200
C  4.57100 -4.51300 45.51400
C  5.96800 -4.71400 45.71200
C  6.57300 -3.54900 45.09300
C  5.51600 -2.91500 44.42000
C  6.74400 -5.81400 46.43600
C  7.81300 -2.85800 44.80400
O  8.96000 -3.12300 45.08500
C  7.43600 -1.78100 43.76800
C  8.03700 -0.50800 44.20100
O  7.98000 0.01700 45.27900
O  8.93400 -0.07300 43.24300
C  9.61800 1.18000 43.68900
H  1.38700 1.13200 41.62100
H  -1.68700 -3.80600 44.41600
H  3.87100 -6.21700 46.36300
H  6.09400 0.90200 42.75600
H  3.86400 1.01500 40.62400
H  4.66000 2.79100 42.85000
H  3.09300 2.54100 42.81500
H  3.76500 3.06200 41.27100
H  5.73000 0.04700 39.88900
H  6.46000 -1.08300 40.92200
H  8.23000 0.02500 40.34600
H  7.87800 1.45500 41.24000
H  -0.76100 0.68900 40.43600
H  -0.69200 1.79200 41.79400
H  -2.28900 1.08100 41.37600
H  -4.69500 -2.83200 43.30300
H  -3.54100 -2.62000 44.56200
H  -3.06000 -3.65100 43.14400
H  -0.83900 -6.28500 45.20600
H  1.44400 -6.86200 46.58700
H  0.12000 -4.23800 47.37200
H  -0.19000 -5.96000 47.74900
H  -1.58600 -4.85000 47.23400
H  2.16600 -7.16700 44.03300
H  0.49900 -7.29300 43.92300
H  0.36100 -9.34500 44.88400
H  1.07500 -8.81000 46.35000
H  2.04900 -9.48800 44.96900
H  6.09500 -6.46900 47.01800
H  7.47200 -5.40600 47.13700
H  7.34400 -6.38800 45.73000
H  8.02100 -2.06300 42.89200
H  10.20100 1.07600 44.60400
H  8.90600 2.00200 43.75900
H  10.33000 1.32700 42.87800
Mg 26.77000 50.28100 27.02400
C  24.68100 51.42600 29.57000
C  29.06900 49.59900 29.47100
C  28.89700 49.44200 24.60400
C  24.57000 51.58500 24.60600
N  26.84700 50.55700 29.17500
C  25.83200 50.91200 30.02700
C  26.21600 50.67800 31.44100
C  27.75600 50.43100 31.43400
C  27.97700 50.25500 29.91600
C  28.69300 51.52600 32.11500
C  25.27100 49.63100 32.05600
C  24.74800 50.13700 33.41900
H  25.78200 50.50400 34.54700
N  28.70400 49.51600 27.06800
C  29.46900 49.23300 28.12600
C  30.73900 48.61300 27.66000
C  30.69800 48.58700 26.26800
C  29.40300 49.20300 25.92700
C  31.83900 48.09200 28.67600
C  31.81400 48.22500 25.20700
O  31.75000 48.41200 24.04100
C  33.07100 47.54600 25.66100
N  26.62900 50.30600 24.90000
C  27.68500 49.93000 24.15200
C  27.31400 49.96400 22.63000
C  25.81100 50.48600 22.67300
C  25.64500 50.85300 24.14400
C  28.29500 50.74000 21.79500
C  24.71500 49.49000 22.09300
C  23.52100 50.03800 21.33100
N  24.98600 51.30400 27.01000
C  24.16700 51.65700 25.94700
C  22.93700 52.23200 26.40700
C  23.07100 52.19700 27.86000
C  24.40200 51.67000 28.15200
C  21.81100 52.77500 25.56700
C  22.50900 52.53500 29.18400
O  21.54400 53.11100 29.52000
C  23.52200 52.09000 30.32700
C  23.98300 53.15500 31.25300
O  25.10600 53.70500 31.26000
O  23.02800 53.35500 32.17100
C  23.46400 54.34700 33.21900
H  29.78200 49.20900 30.20200
H  29.62500 49.17700 23.83300
H  23.86200 52.00900 23.89100
H  26.01300 51.61400 31.96100
H  27.93300 49.54900 32.04900
H  29.20100 51.00200 32.92500
H  28.04300 52.32300 32.47600
H  29.46300 51.93900 31.46300
H  25.71400 48.64800 32.21500
H  24.40000 49.48900 31.41600
H  24.13400 49.36000 33.87400
H  24.06300 50.95600 33.19700
H  31.61700 48.35900 29.71000
H  32.77800 48.62100 28.51500
H  32.17200 47.07600 28.46400
H  33.79100 48.35400 25.79600
H  33.47100 46.92800 24.85700
H  33.02200 46.92000 26.55200
H  27.35500 48.88900 22.45200
H  25.83200 51.46400 22.19100
H  29.14500 51.07700 22.38700
H  27.88500 51.47500 21.10300
H  28.61400 49.98100 21.08100
H  24.21400 49.12200 22.98900
H  25.12000 48.75300 21.40000
H  23.52700 49.49900 20.38400
H  23.73800 51.07500 21.07100
H  22.55400 49.82200 21.78500
H  21.48300 52.18000 24.71500
H  22.10800 53.75600 25.19700
H  20.97900 52.88500 26.26300
H  23.01700 51.31400 30.90200
H  23.82000 55.26100 32.74300
H  24.28300 53.92900 33.80400
H  22.59800 54.58900 33.83400

