158

Mg 8.67100 46.90100 25.53600
C  6.75300 46.69900 28.42500
C  11.26300 48.06100 27.42200
C  10.42200 47.29000 22.73700
C  5.72000 46.42600 23.70000
N  8.97900 47.32200 27.76000
C  8.05400 47.21800 28.78100
C  8.64400 47.84700 30.08700
C  9.95900 48.52700 29.58800
C  10.09500 47.92400 28.20600
C  10.10100 50.12000 29.69500
C  8.91600 46.86700 31.27600
C  8.20400 47.25100 32.60400
H  8.19200 46.06600 33.64400
N  10.60900 47.47000 25.15100
C  11.55900 47.73300 26.11400
C  12.87500 47.73800 25.46200
C  12.70500 47.50500 24.04400
C  11.20500 47.43000 23.92000
C  14.17600 48.10600 26.16400
C  13.66000 47.40200 22.87300
O  13.23000 47.39800 21.69700
C  15.12100 47.14500 23.17300
N  8.17100 46.71300 23.52700
C  9.03500 47.07700 22.53800
C  8.41700 47.28300 21.15300
C  6.95400 46.88300 21.51800
C  6.92300 46.66000 22.97400
C  8.54800 48.69000 20.52000
C  6.57500 45.51900 20.77600
C  5.13400 45.44500 20.23300
N  6.65400 46.59500 25.88500
C  5.60200 46.29800 25.09700
C  4.40700 46.05500 25.82100
C  4.83800 46.21100 27.13800
C  6.17600 46.49600 27.14800
C  3.02600 45.91300 25.24200
C  4.41400 46.21500 28.51800
O  3.31800 46.07200 29.00000
C  5.67900 46.60300 29.39000
C  5.81900 45.56500 30.40400
O  6.23900 44.45000 30.21400
O  5.25100 45.95100 31.57200
C  4.86300 44.98100 32.56700
H  12.09200 48.40300 28.04500
H  10.98200 47.35700 21.80200
H  4.81000 46.27500 23.11500
H  7.97300 48.60000 30.49900
H  10.76400 48.06800 30.16200
H  9.14000 50.63400 29.69300
H  10.70200 50.47200 28.85600
H  10.64800 50.36900 30.60500
H  9.96400 46.71900 31.53400
H  8.44900 45.93400 30.95900
H  7.18100 47.60600 32.48000
H  8.73900 48.03800 33.13500
H  14.76500 48.75100 25.51300
H  14.73500 47.21900 26.46200
H  14.02500 48.73200 27.04400
H  15.42600 48.18800 23.25900
H  15.72500 46.71700 22.37300
H  15.30800 46.67300 24.13800
H  8.92300 46.60100 20.46800
H  6.22900 47.62500 21.18400
H  7.60000 49.18800 20.72100
H  8.70800 48.72000 19.44200
H  9.31200 49.38400 20.87100
H  6.63600 44.62300 21.39400
H  7.19700 45.46700 19.88200
H  4.60300 46.29500 20.66000
H  4.73200 44.47700 20.53300
H  5.05700 45.48700 19.14600
H  3.03500 45.46400 24.24900
H  2.54600 46.88900 25.32600
H  2.52700 45.13900 25.82500
H  5.53500 47.52900 29.94700
H  3.77500 45.04500 32.55200
H  5.24900 45.26400 33.54600
H  5.25100 43.96900 32.44800
Mg -10.14400 17.54500 42.65300
C  -6.72300 16.53400 42.24600
C  -9.22600 20.65300 41.89100
C  -13.36800 18.00700 41.99900
C  -10.86900 13.95100 42.76000
N  -8.13500 18.44500 41.93500
C  -6.89100 17.90700 41.99300
C  -5.79000 19.10800 41.85700
C  -6.66100 20.33400 41.98000
C  -8.09000 19.78600 41.96200
C  -6.52500 21.40500 43.13600
C  -4.97800 19.04500 40.55400
C  -5.72000 18.52700 39.32000
H  -5.38700 19.01500 37.88900
N  -11.15900 19.14200 42.04700
C  -10.62700 20.36100 41.76800
C  -11.64700 21.26500 41.37200
C  -12.87700 20.50600 41.39800
C  -12.51300 19.18500 41.85600
C  -11.34900 22.69000 40.97900
C  -14.14400 21.12400 40.95800
O  -14.16400 22.25500 40.55700
C  -15.52200 20.44000 40.90600
N  -11.88700 16.17500 42.63000
C  -13.10500 16.69900 42.34000
C  -14.18800 15.59600 42.30200
C  -13.27600 14.33000 42.17700
C  -11.90200 14.86100 42.59800
C  -15.13700 15.46200 43.52000
C  -13.13700 13.71100 40.69900
C  -14.36900 12.89800 40.28000
N  -9.06200 15.62200 42.74500
C  -9.50900 14.30500 42.80600
C  -8.33600 13.49400 42.99900
C  -7.23500 14.34200 42.88200
C  -7.72800 15.63600 42.63700
C  -8.29900 12.07000 43.21000
C  -5.72300 14.42600 42.88500
O  -4.93100 13.55000 43.03200
C  -5.40300 15.88400 42.61400
C  -4.82600 16.51200 43.81100
O  -5.37800 16.76600 44.89800
O  -3.52200 16.89600 43.60100
C  -2.81800 17.50400 44.73200
H  -8.86500 21.66400 41.69600
H  -14.43600 18.12100 41.80000
H  -11.15100 12.89800 42.82900
H  -5.18300 19.06800 42.76200
H  -6.51300 20.96700 41.10500
H  -5.60100 21.16300 43.66200
H  -7.36600 21.34600 43.82700
H  -6.46100 22.43000 42.77000
H  -4.07400 18.46300 40.73300
H  -4.77400 20.09200 40.33100
H  -6.79600 18.51800 39.49400
H  -5.38000 17.50900 39.12700
H  -11.35600 22.79800 39.89400
H  -10.35500 23.02300 41.27800
H  -12.05800 23.42600 41.35800
H  -15.95500 20.46600 41.90600
H  -15.28400 19.48000 40.44900
H  -16.12300 20.98300 40.17700
H  -14.79100 15.68900 41.39900
H  -13.59700 13.54700 42.86400
H  -15.00200 14.52700 44.06400
H  -16.19700 15.55700 43.28700
H  -14.88500 16.31600 44.14900
H  -12.18100 13.21100 40.54600
H  -13.25900 14.53100 39.99100
H  -14.87400 13.54100 39.55800
H  -15.03700 12.63100 41.09900
H  -14.03600 11.93300 39.90000
H  -7.32000 11.59500 43.15000
H  -8.93500 11.63600 42.43900
H  -8.62400 11.83900 44.22400
H  -4.71400 15.97300 41.77400
H  -2.51000 18.39700 44.18900
H  -2.08300 16.75100 45.01700
H  -3.41500 17.76800 45.60500

