158

Mg 0.80800 7.07800 25.63500
C  1.35000 9.02000 28.40100
C  0.82500 4.28000 27.55100
C  -0.43200 5.27900 23.05800
C  1.16100 9.81800 23.56600
N  1.06900 6.66800 27.71000
C  1.17000 7.66200 28.70000
C  1.16500 6.99900 30.07000
C  1.27500 5.45500 29.75100
C  1.02900 5.46700 28.21900
C  2.62400 4.78700 30.13600
C  -0.12000 7.39000 30.88300
C  0.20100 7.77900 32.38800
H  1.43200 7.31800 33.10200
N  0.37700 5.03200 25.28500
C  0.42500 4.08100 26.26100
C  0.09500 2.82500 25.62000
C  -0.41400 3.12700 24.33800
C  -0.22300 4.54900 24.15600
C  0.35700 1.52400 26.32000
C  -1.12400 2.20900 23.32100
O  -1.45300 2.43500 22.15400
C  -1.62200 0.84900 23.83300
N  0.62600 7.45200 23.59100
C  -0.00900 6.55700 22.75400
C  -0.18600 7.14200 21.39100
C  0.28000 8.62200 21.58200
C  0.82000 8.63900 22.99500
C  0.58800 6.41600 20.23600
C  -0.85400 9.70500 21.34300
C  -0.69400 10.55300 20.07500
N  1.36000 9.00900 25.86600
C  1.34300 10.07900 24.95300
C  1.52900 11.33100 25.67700
C  1.60700 10.90700 26.96800
C  1.43000 9.52900 27.05300
C  1.56700 12.72800 25.08800
C  1.83300 11.44700 28.36800
O  2.19200 12.60200 28.70900
C  1.55800 10.22800 29.29700
C  2.56400 10.07900 30.39600
O  3.63800 9.53000 30.35700
O  2.24700 11.01500 31.31000
C  3.32700 11.33800 32.22000
H  0.82200 3.40300 28.20000
H  -0.97000 4.79800 22.23900
H  1.20700 10.69300 22.91400
H  2.03600 7.30300 30.65000
H  0.46800 4.93200 30.26500
H  2.41400 3.77800 30.49000
H  3.16100 5.26000 30.95800
H  3.37600 4.70500 29.35100
H  -0.86000 6.59800 30.76600
H  -0.45100 8.27500 30.34000
H  -0.73000 7.48500 32.87200
H  0.19900 8.86800 32.42700
H  -0.57600 1.15700 26.74700
H  1.17500 1.56200 27.04000
H  0.74600 0.86000 25.54800
H  -0.81300 0.12600 23.73200
H  -2.32300 0.49000 23.08000
H  -2.15200 0.93500 24.78100
H  -1.27000 7.14100 21.27300
H  1.20100 8.89200 21.06500
H  1.40100 6.06100 20.86800
H  0.79300 7.10900 19.42000
H  0.06100 5.50200 19.96300
H  -0.96700 10.42300 22.15500
H  -1.84300 9.24500 21.35100
H  -1.69700 10.64300 19.65800
H  -0.09800 9.96800 19.37400
H  -0.25100 11.51000 20.34900
H  1.99000 12.72400 24.08400
H  2.13400 13.26100 25.85200
H  0.57900 13.15500 24.91600
H  0.63400 10.40700 29.84600
H  2.90400 11.99400 32.98100
H  4.29800 11.58900 31.79300
H  3.46300 10.35500 32.67200
Mg 47.27300 24.60400 28.66100
C  47.81400 26.93400 31.31200
C  46.36900 22.35900 31.20400
C  47.06500 22.30600 26.42600
C  48.61800 26.94900 26.47600
N  47.15500 24.62100 31.03500
C  47.37700 25.70600 31.85400
C  47.04400 25.37600 33.31300
C  46.77000 23.85700 33.33000
C  46.76500 23.54200 31.80100
C  47.76400 22.96600 34.14600
C  45.83300 26.26700 33.80600
C  46.21600 27.06400 35.04000
H  46.35600 26.24700 36.31200
N  46.64700 22.65200 28.74400
C  46.28000 21.93000 29.85500
C  45.88500 20.59300 29.33900
C  46.09100 20.46300 27.95400
C  46.72900 21.78700 27.66500
C  45.11800 19.59800 30.30900
C  45.61500 19.38900 27.04100
O  45.84500 19.28500 25.80600
C  44.66900 18.41600 27.49300
N  47.75200 24.70800 26.73800
C  47.48100 23.59600 26.00100
C  47.78900 23.85300 24.51500
C  48.17800 25.37600 24.56500
C  48.32300 25.70200 26.00800
C  48.93800 22.93200 24.02300
C  47.13800 26.39200 23.98500
C  45.80900 26.60600 24.86300
N  48.03100 26.58600 28.78800
C  48.54600 27.38700 27.80000
C  48.85000 28.65500 28.32000
C  48.50400 28.56800 29.68600
C  48.12200 27.22800 29.92500
C  49.39900 29.86800 27.52800
C  48.41900 29.34200 30.98600
O  48.73800 30.48900 31.27800
C  47.98800 28.21000 32.06400
C  49.12400 28.20600 33.10500
O  49.93600 27.38700 33.18800
O  48.94400 29.22600 34.02200
C  49.90000 29.34300 35.12100
H  45.98900 21.65600 31.94800
H  46.89400 21.47700 25.73600
H  48.88700 27.66000 25.69200
H  47.98100 25.57400 33.83300
H  45.74700 23.70600 33.67700
H  47.39600 22.58500 35.09800
H  48.58800 23.60800 34.45600
H  48.15000 22.14900 33.53600
H  45.03200 25.61900 34.16100
H  45.39500 26.89400 33.03000
H  45.42900 27.80200 35.19300
H  47.03800 27.76500 34.89700
H  44.07300 19.65400 30.00300
H  45.14300 19.87200 31.36400
H  45.31400 18.52600 30.28700
H  43.80200 18.99100 27.81800
H  44.98300 17.77400 28.31600
H  44.45200 17.68200 26.71600
H  46.88900 23.58300 23.96200
H  49.11100 25.62100 24.05800
H  49.01600 22.09500 24.71700
H  49.76800 23.60900 23.81600
H  48.68800 22.50400 23.05200
H  46.96000 25.96600 22.99700
H  47.58700 27.37800 23.87300
H  45.81400 26.51200 25.94900
H  45.06400 25.86500 24.57200
H  45.35300 27.58300 24.70200
H  48.88100 30.78500 27.80900
H  49.18000 29.86100 26.46100
H  50.48600 29.91000 27.59800
H  47.13300 28.57400 32.63300
H  50.90000 29.06600 34.78700
H  49.63400 28.66400 35.93100
H  49.93900 30.32800 35.58600

