158

Mg 2.39800 -0.09300 44.41200
C  5.94700 0.35800 43.98400
C  1.91900 2.55700 42.26300
C  -0.70000 -1.04600 43.93600
C  3.17100 -3.42600 45.69000
N  3.82400 1.26100 43.24100
C  5.19100 1.32600 43.26900
C  5.63100 2.51800 42.48900
C  4.30700 3.29300 42.20800
C  3.26600 2.22200 42.49900
C  4.00400 4.62000 43.01700
C  6.41800 2.10100 41.16700
C  5.53600 1.42200 40.05600
H  5.36500 2.19300 38.78800
N  0.78400 0.83100 43.53400
C  0.79500 1.98900 42.78000
C  -0.66000 2.34400 42.59000
C  -1.45000 1.32900 43.20400
C  -0.45400 0.28900 43.59300
C  -1.12600 3.52500 41.73300
C  -2.88100 1.39100 43.39700
O  -3.53200 2.29400 42.95500
C  -3.61900 0.18200 43.85800
N  1.35500 -1.99300 44.86700
C  0.09100 -2.15100 44.34200
C  -0.40000 -3.60400 44.42900
C  0.73900 -4.27500 45.25500
C  1.85800 -3.15800 45.33200
C  -1.91800 -3.81400 44.92400
C  1.25900 -5.63400 44.60800
C  0.90900 -6.90200 45.42600
N  4.11700 -1.21900 44.93900
C  4.28100 -2.47400 45.52700
C  5.71200 -2.74400 45.77900
C  6.34900 -1.62700 45.19400
C  5.37800 -0.78200 44.69000
C  6.35600 -3.95400 46.34600
C  7.65100 -1.07600 45.01600
O  8.70800 -1.55700 45.45500
C  7.45700 0.12700 44.05400
C  8.31800 1.27400 44.46200
O  8.95900 1.94100 43.65900
O  8.31600 1.40500 45.80100
C  9.27800 2.36700 46.33800
H  1.85000 3.47600 41.67800
H  -1.67000 -1.36900 43.55200
H  3.49000 -4.38500 46.10400
H  6.25100 3.18400 43.09000
H  4.43900 3.61500 41.17500
H  3.06700 4.50100 43.56100
H  3.91100 5.28200 42.15600
H  4.82700 4.76500 43.71700
H  7.19200 1.39500 41.46700
H  6.78700 3.05000 40.77700
H  4.56500 1.22100 40.50800
H  6.01000 0.48800 39.75400
H  -1.51700 3.15500 40.78500
H  -0.24100 4.10900 41.48300
H  -1.96400 4.11600 42.10300
H  -3.26100 -0.33100 44.75100
H  -3.64800 -0.49700 43.00600
H  -4.64600 0.46800 44.08500
H  -0.34900 -4.01800 43.42200
H  0.49300 -4.49800 46.29300
H  -2.68000 -4.03200 44.17500
H  -2.31500 -2.94400 45.44700
H  -2.00100 -4.67300 45.59000
H  2.31500 -5.71900 44.34900
H  0.87200 -5.77900 43.59900
H  0.52200 -6.59700 46.39800
H  1.77600 -7.55800 45.51000
H  0.08200 -7.45000 44.97300
H  6.15200 -4.87900 45.80600
H  5.88900 -4.13300 47.31500
H  7.43300 -3.78800 46.38000
H  7.74300 -0.29000 43.08900
H  8.99800 2.22200 47.38200
H  9.03200 3.37900 46.01700
H  10.32300 2.10700 46.16900
Mg 8.78100 47.85800 25.22000
C  6.99400 48.02100 28.14500
C  11.27300 49.65400 26.84900
C  10.44600 48.01900 22.20700
C  5.90100 46.80300 23.42800
N  9.01100 48.80300 27.17700
C  8.26400 48.63400 28.28500
C  8.83800 49.27000 29.59800
C  9.90200 50.18600 28.95800
C  10.07000 49.55200 27.54200
C  9.44300 51.67200 28.88700
C  9.35700 48.35500 30.64400
C  9.11100 48.87900 32.06900
H  8.65600 47.77700 33.16700
N  10.71400 48.54100 24.74000
C  11.55200 49.20400 25.56800
C  12.76700 49.37000 24.82100
C  12.50100 49.08100 23.47100
C  11.15300 48.49900 23.42600
C  14.13500 49.89300 25.32500
C  13.43300 49.13600 22.25800
O  13.09900 48.79600 21.12800
C  14.88000 49.56600 22.46600
N  8.28800 47.36400 23.13600
C  9.09400 47.52300 22.12400
C  8.43000 47.00200 20.82100
C  7.08000 46.43100 21.23600
C  7.07800 46.81300 22.72700
C  8.44200 48.02700 19.60000
C  6.73500 44.92900 21.03400
C  5.36200 44.63900 20.54200
N  6.87200 47.36600 25.63400
C  5.81100 47.03800 24.81800
C  4.60800 47.13300 25.59900
C  5.05900 47.29900 26.91200
C  6.42400 47.48700 26.91100
C  3.21900 46.96700 25.19400
C  4.65800 47.45500 28.27500
O  3.46700 47.38800 28.65500
C  5.91300 47.74400 29.11500
C  6.15900 46.57500 29.95500
O  7.20300 45.99000 30.01800
O  4.98700 46.34600 30.66200
C  5.01800 45.11900 31.51600
H  11.94300 50.43600 27.21200
H  11.02800 48.04900 21.28300
H  4.94500 46.42800 23.05600
H  8.08800 49.84200 30.14300
H  10.87700 50.15000 29.44400
H  8.36300 51.81100 28.94100
H  9.72300 52.20600 27.97900
H  9.88100 52.24600 29.70300
H  10.43000 48.19000 30.55000
H  8.85500 47.38800 30.61800
H  8.50100 49.78000 32.13700
H  10.11400 49.20300 32.34700
H  15.00900 49.27400 25.12300
H  14.13200 50.04900 26.40400
H  14.32900 50.86700 24.87400
H  15.03500 50.51000 22.98700
H  15.31200 49.69800 21.47400
H  15.41800 48.80900 23.03600
H  8.80100 46.07500 20.38400
H  6.34000 47.10100 20.79800
H  9.14300 48.84500 19.77000
H  7.43100 48.43200 19.56100
H  8.78500 47.48500 18.71800
H  6.91200 44.24500 21.86400
H  7.36500 44.58300 20.21500
H  4.82000 44.02800 21.26400
H  5.36100 44.10500 19.59100
H  4.79800 45.56400 20.42200
H  2.74800 47.80400 24.67900
H  2.77900 46.83100 26.18200
H  3.00800 46.04800 24.64700
H  5.67200 48.59100 29.75800
H  5.77000 44.33800 31.39800
H  4.03400 44.67700 31.35900
H  5.10200 45.49400 32.53600

