158

Mg 56.08900 24.03900 43.93100
C  53.57300 26.19400 42.67700
C  54.46300 21.36800 42.78400
C  59.01600 22.17800 44.33200
C  57.89900 26.87200 44.82300
N  54.28700 23.84700 42.75500
C  53.37400 24.84900 42.28800
C  52.38100 24.18300 41.35000
C  52.36000 22.74500 41.96100
C  53.79000 22.60800 42.60200
C  51.30200 22.44800 43.06100
C  52.77500 24.18400 39.82300
C  51.81600 25.03900 38.88000
H  51.42400 24.47100 37.55800
N  56.63700 22.00500 43.66800
C  55.77900 21.09400 43.27800
C  56.42900 19.77200 43.35100
C  57.76700 19.97600 43.70200
C  57.86100 21.46200 43.90600
C  55.65300 18.56000 42.89200
C  58.80900 18.83900 43.85100
O  58.55600 17.67200 43.53400
C  60.22600 19.17300 44.40800
N  58.11700 24.43200 44.67600
C  59.10900 23.47100 44.73800
C  60.45300 24.11200 45.07300
C  60.08700 25.64300 45.22400
C  58.57800 25.66500 44.95500
C  61.08000 23.44100 46.31100
C  60.84500 26.53200 44.22600
C  62.25900 26.83100 44.74900
N  55.77600 26.10000 43.95800
C  56.56500 27.12800 44.48200
C  55.81700 28.36000 44.35500
C  54.67500 27.98300 43.69800
C  54.65000 26.62800 43.51600
C  56.19500 29.71900 44.72800
C  53.50000 28.61600 43.07600
O  53.18000 29.77300 43.01400
C  52.83100 27.47800 42.28800
C  52.77900 27.80700 40.96200
O  53.74600 27.74700 40.21400
O  51.51500 28.19200 40.59500
C  51.48700 28.69600 39.19200
H  53.82500 20.52700 42.50400
H  59.90500 21.57200 44.51900
H  58.51500 27.72300 45.12100
H  51.48500 24.79900 41.42900
H  52.36700 21.91800 41.25100
H  51.51100 22.99700 43.97900
H  51.34700 21.38100 43.28200
H  50.29800 22.68800 42.71300
H  52.67200 23.16600 39.44700
H  53.81200 24.45500 39.62500
H  52.38500 25.96000 38.74900
H  50.93700 25.14500 39.51600
H  55.69000 18.60500 41.80400
H  54.61000 18.71000 43.17100
H  55.89600 17.66500 43.46600
H  60.79300 19.79000 43.71000
H  60.73600 18.24100 44.65100
H  60.06400 19.79000 45.29200
H  61.15700 23.91600 44.26500
H  60.20200 26.01800 46.24100
H  60.30500 22.91500 46.87000
H  61.43800 24.21500 46.98900
H  61.94700 22.84000 46.03600
H  60.40700 27.52900 44.18300
H  61.00400 26.04700 43.26200
H  62.54900 27.87500 44.85800
H  63.02100 26.43300 44.07900
H  62.36300 26.20600 45.63700
H  55.39100 30.36000 44.36600
H  57.14200 30.02900 44.28600
H  56.36200 29.74400 45.80500
H  51.85400 27.43700 42.77100
H  50.62700 28.29100 38.65700
H  52.33500 28.42500 38.56200
H  51.51400 29.78500 39.15600
Mg 0.45000 42.95200 26.24600
C  2.42400 42.71700 29.19700
C  -2.32500 42.57600 28.26400
C  -1.21500 42.26200 23.47600
C  3.44900 43.41200 24.43500
N  0.19500 42.36200 28.40200
C  1.05600 42.59500 29.43000
C  0.33600 42.63500 30.80500
C  -1.14100 42.25400 30.45300
C  -1.08200 42.48100 28.92200
C  -1.69700 40.86300 30.78400
C  0.54000 43.99000 31.61700
C  1.25100 43.81200 33.02500
H  0.85600 42.58000 33.83600
N  -1.55200 42.53400 25.92200
C  -2.58700 42.50400 26.85100
C  -3.80300 42.26000 26.16800
C  -3.50100 42.13500 24.76700
C  -2.02200 42.31100 24.66100
C  -5.03200 42.24500 27.00500
C  -4.41400 41.86800 23.64200
O  -4.01900 41.79400 22.47200
C  -5.89600 41.71700 23.86500
N  1.12000 42.75300 24.28800
C  0.17500 42.49500 23.34500
C  0.68300 42.58100 21.93000
C  1.99400 43.35700 22.20200
C  2.28700 43.13900 23.72200
C  0.77400 41.17200 21.21200
C  2.09800 44.87800 21.81800
C  2.76500 45.44100 20.60700
N  2.51800 43.18400 26.70200
C  3.58700 43.33500 25.82200
C  4.80800 43.34900 26.60000
C  4.43700 43.03100 27.91100
C  3.01800 42.97600 27.88200
C  6.18000 43.51600 26.12400
C  4.90400 42.84500 29.22700
O  6.05200 42.86200 29.66800
C  3.65000 42.76200 30.13200
C  3.67800 41.61300 31.05600
O  3.17600 40.59700 30.80000
O  4.49500 41.80100 32.10400
C  4.65300 40.71800 33.01700
H  -3.26200 42.56200 28.82400
H  -1.81700 42.33200 22.56700
H  4.31300 43.69900 23.83300
H  0.70600 41.82000 31.42800
H  -1.84800 42.97500 30.86400
H  -2.14700 40.33600 29.94200
H  -2.60400 41.00200 31.37200
H  -1.06700 40.23900 31.41700
H  -0.37500 44.54200 31.82900
H  1.17100 44.68100 31.05700
H  0.97100 44.73800 33.52800
H  2.34000 43.85900 33.01400
H  -5.09300 43.20100 27.52600
H  -4.97800 41.48500 27.78400
H  -5.99600 42.14200 26.50600
H  -6.09800 40.84600 24.48800
H  -6.34800 41.57400 22.88400
H  -6.26700 42.64900 24.29200
H  -0.05900 43.18500 21.40800
H  2.80000 42.81300 21.70900
H  1.37900 40.41200 21.70800
H  1.36300 41.51600 20.36200
H  -0.27400 40.96600 20.99600
H  2.56900 45.25900 22.72400
H  1.07000 45.23900 21.81400
H  2.20500 46.18500 20.04000
H  3.06800 44.65300 19.91700
H  3.67200 46.01600 20.79500
H  6.29800 43.88800 25.10700
H  6.67700 42.54600 26.08300
H  6.87300 44.12600 26.70400
H  3.69300 43.72700 30.63600
H  5.66200 40.40800 32.74600
H  3.99800 39.85900 32.87400
H  4.54300 40.93700 34.08000

