158

Mg 50.02600 45.86000 41.94600
C  47.02300 47.54800 40.87200
C  48.88800 43.10000 40.26900
C  53.18400 44.73800 42.15000
C  51.23700 49.10500 42.69600
N  48.12400 45.38700 40.71300
C  47.02000 46.16200 40.52900
C  45.94900 45.37300 39.66600
C  46.58000 43.93200 39.69300
C  47.93100 44.09500 40.33000
C  45.66500 42.90800 40.39200
C  45.65500 45.85900 38.24400
C  44.19100 45.73800 37.81600
H  43.84400 45.43600 36.29800
N  50.87300 44.14800 41.43300
C  50.26800 43.10700 40.67100
C  51.16900 41.97600 40.55000
C  52.40800 42.41400 41.09200
C  52.21000 43.84000 41.65800
C  50.87100 40.60400 39.89700
C  53.69100 41.61800 41.02300
O  53.69800 40.50600 40.53200
C  55.11400 42.20700 41.26500
N  51.94600 46.82800 42.24400
C  53.03200 46.08200 42.46000
C  54.23500 46.88000 43.04200
C  53.57100 48.28600 43.01700
C  52.16600 48.00900 42.72600
C  54.73800 46.24700 44.35200
C  54.15500 49.39800 42.04700
C  55.25300 50.26800 42.59300
N  49.22800 47.84800 42.08000
C  49.88300 49.06000 42.37200
C  48.92600 50.18800 42.30800
C  47.71900 49.61800 41.76800
C  48.04800 48.25300 41.55700
C  49.23200 51.58300 42.55800
C  46.38700 49.92000 41.32200
O  45.77100 50.97700 41.32500
C  45.82900 48.55800 40.65700
C  44.58500 48.11400 41.19500
O  44.51700 47.46200 42.21000
O  43.56800 48.48400 40.33500
C  42.22100 48.13400 40.81900
H  48.46400 42.16400 39.89900
H  54.23500 44.44500 42.17800
H  51.54600 50.08600 43.06400
H  45.02600 45.40400 40.24400
H  46.64400 43.51100 38.69000
H  45.96800 42.66700 41.41100
H  45.72400 41.88900 40.00700
H  44.66100 43.33200 40.38400
H  46.26900 45.40100 37.46900
H  45.94300 46.91000 38.27900
H  43.65700 46.63400 38.13400
H  43.80300 44.85600 38.32400
H  51.39400 40.58700 38.94100
H  49.84800 40.51900 39.52900
H  51.28200 39.80100 40.51000
H  55.08900 42.40900 42.33600
H  55.24000 43.14900 40.73100
H  55.88200 41.48400 40.98900
H  54.97100 46.60100 42.28700
H  53.54400 48.77300 43.99200
H  54.65800 46.95600 45.17500
H  55.76200 45.89800 44.21700
H  54.22100 45.29300 44.46100
H  53.45600 50.12500 41.63300
H  54.43800 48.89900 41.12000
H  55.01300 51.32500 42.70800
H  56.20500 50.29100 42.06200
H  55.46400 49.97800 43.62200
H  49.92200 51.92800 41.78700
H  49.74000 51.72700 43.51100
H  48.31500 52.15200 42.70300
H  45.68400 48.63000 39.57900
H  42.04500 47.06000 40.75300
H  41.42500 48.72100 40.36100
H  42.15600 48.50400 41.84200
Mg -12.39100 16.16000 43.15000
C  -9.39400 14.62100 42.14300
C  -11.31000 18.96000 41.60800
C  -15.54000 17.46200 43.53200
C  -13.55300 13.04600 44.10800
N  -10.55600 16.65100 41.92500
C  -9.38900 15.95800 41.76200
C  -8.26400 16.82200 41.23700
C  -8.91000 18.22800 41.37900
C  -10.35600 18.00000 41.63900
C  -8.23300 19.22500 42.30400
C  -7.92800 16.42500 39.73200
C  -6.47000 16.35400 39.51600
H  -5.98800 16.91000 38.19300
N  -13.35100 18.06100 42.65500
C  -12.68500 19.03800 41.98600
C  -13.54500 20.18200 41.86000
C  -14.85400 19.79600 42.42000
C  -14.63000 18.38400 42.89300
C  -13.17600 21.38200 41.03900
C  -16.09800 20.69100 42.37900
O  -16.03000 21.79500 41.91700
C  -17.44700 20.17100 42.86400
N  -14.29200 15.26700 43.54200
C  -15.36400 16.09200 43.79200
C  -16.55800 15.28500 44.46600
C  -15.96700 13.83100 44.60800
C  -14.51300 14.02300 43.99600
C  -17.14900 15.86300 45.77400
C  -16.90400 12.77900 43.88000
C  -16.43700 12.05900 42.63900
N  -11.54100 14.28300 43.43800
C  -12.15500 13.07100 43.79400
C  -11.23600 11.94000 43.58100
C  -10.10000 12.54600 43.03900
C  -10.40400 13.91500 42.87200
C  -11.48200 10.49800 44.00600
C  -8.76800 12.34600 42.56000
O  -8.07100 11.31500 42.61600
C  -8.24600 13.65600 41.96700
C  -7.01200 14.09800 42.67400
O  -6.90100 14.59700 43.81300
O  -5.92900 13.81700 41.83900
C  -4.62300 14.47900 42.08200
H  -10.82500 19.85300 41.20900
H  -16.55300 17.84900 43.65500
H  -13.98600 12.06100 44.29600
H  -7.37300 16.71500 41.85600
H  -8.96800 18.77200 40.43700
H  -7.19600 18.89000 42.31900
H  -8.57400 19.22200 43.33900
H  -8.19900 20.22300 41.86700
H  -8.30900 17.08000 38.94900
H  -8.34800 15.43100 39.57700
H  -6.12900 15.32000 39.58200
H  -5.87800 16.99000 40.17300
H  -12.09200 21.46100 40.95100
H  -13.60200 22.19300 41.62900
H  -13.75600 21.43600 40.11700
H  -17.40900 19.79000 43.88500
H  -17.71100 19.39400 42.14600
H  -18.24200 20.91400 42.93300
H  -17.35700 15.34800 43.72800
H  -15.76800 13.41600 45.59600
H  -16.48000 15.76000 46.62800
H  -18.05400 15.27000 45.90600
H  -17.52200 16.88500 45.70900
H  -17.90900 13.13700 43.66000
H  -17.21100 11.94800 44.51500
H  -15.58000 12.63000 42.28000
H  -17.21500 11.98300 41.87900
H  -16.06000 11.05100 42.81200
H  -10.90700 9.86900 43.32800
H  -12.53900 10.27800 44.15900
H  -10.93700 10.30500 44.93000
H  -7.90600 13.51100 40.94200
H  -4.50700 15.15700 41.23600
H  -3.81600 13.75600 42.19600
H  -4.58200 15.20700 42.89200

