158

Mg 52.71800 23.78800 44.17900
C  50.15900 26.08800 43.47200
C  50.80700 21.32500 42.68900
C  55.45800 21.87200 43.99900
C  54.53400 26.42600 45.49700
N  50.75100 23.77900 43.05700
C  49.95000 24.84900 42.89500
C  48.84800 24.36000 41.93100
C  48.80300 22.83500 42.08200
C  50.22700 22.61900 42.64400
C  47.67500 22.29800 43.07400
C  48.94000 24.77300 40.39800
C  50.33900 25.11900 39.87900
H  50.44300 25.95400 38.64600
N  53.07800 21.77200 43.46000
C  52.18400 20.90600 43.01300
C  52.81300 19.58600 42.98400
C  54.18200 19.78900 43.13600
C  54.30500 21.18000 43.60300
C  52.23600 18.22200 42.61000
C  55.28300 18.72700 42.96900
O  54.99000 17.65700 42.55600
C  56.64500 19.11600 43.01800
N  54.74600 24.22500 44.40800
C  55.68500 23.25900 44.30700
C  57.05400 23.70700 44.79700
C  56.73500 25.07800 45.41300
C  55.26900 25.32300 45.12500
C  57.80100 22.76900 45.81400
C  57.40300 26.32900 44.81100
C  57.86500 27.38400 45.78000
N  52.40800 25.85700 44.48400
C  53.21000 26.72600 45.13400
C  52.56400 27.99600 45.22800
C  51.27800 27.79200 44.70900
C  51.26900 26.48300 44.20700
C  53.11100 29.25300 45.82500
C  49.97600 28.37500 44.47000
O  49.59900 29.48300 44.79900
C  49.24300 27.29000 43.54900
C  48.98000 27.87100 42.18500
O  49.85700 28.00600 41.32100
O  47.72100 28.27200 42.09000
C  47.34800 29.12500 40.98600
H  50.20700 20.51900 42.26300
H  56.42300 21.36400 43.92900
H  55.05800 27.16800 46.10300
H  47.85000 24.68900 42.22000
H  48.67300 22.26400 41.16300
H  47.12900 21.50900 42.55700
H  46.92000 23.01100 43.40500
H  48.25600 21.92000 43.91600
H  48.39400 25.69400 40.19200
H  48.55600 23.90300 39.86600
H  50.80700 24.15600 39.67600
H  50.88500 25.55100 40.71800
H  52.38600 17.90700 41.57700
H  51.19900 18.38200 42.90700
H  52.46400 17.40700 43.29700
H  56.86800 19.37000 44.05400
H  56.86000 19.96900 42.37500
H  57.38700 18.37100 42.73000
H  57.69600 23.71900 43.91600
H  56.76800 25.12600 46.50100
H  57.05300 22.05500 46.15800
H  58.26200 23.30500 46.64400
H  58.54000 22.30000 45.16400
H  56.88300 26.80500 43.98000
H  58.28600 25.99800 44.26400
H  58.87300 27.67300 45.48500
H  57.89900 27.03900 46.81400
H  57.25100 28.26800 45.60700
H  52.42800 29.74100 46.52000
H  53.38700 30.06300 45.14900
H  54.04100 29.16500 46.38600
H  48.31600 27.05100 44.07000
H  48.24700 29.69800 40.75700
H  46.57300 29.86500 41.19000
H  47.14000 28.57300 40.06900
Mg -1.98400 35.09900 26.97700
C  -3.41200 33.09000 29.34700
C  -0.29600 36.94300 29.26300
C  -0.69900 37.00800 24.38700
C  -3.98900 33.45900 24.52600
N  -1.83200 34.97500 29.07100
C  -2.53300 34.08100 29.86100
C  -2.26600 34.43300 31.35000
C  -1.33800 35.71500 31.31400
C  -1.20300 35.91800 29.77000
C  -1.83700 37.01000 32.07400
C  -1.63800 33.20100 32.03100
C  -2.28400 32.73900 33.33600
H  -1.37500 32.37900 34.54700
N  -0.66100 36.67100 26.86600
C  0.02700 37.21600 27.88500
C  0.91300 38.20500 27.44400
C  0.78000 38.27800 26.01300
C  -0.23900 37.32600 25.69500
C  1.73600 39.02400 28.45200
C  1.39700 39.29800 25.01100
O  1.21000 39.15000 23.84000
C  2.20900 40.33700 25.52500
N  -2.48900 35.34300 24.83700
C  -1.74500 36.19000 23.94800
C  -2.04800 35.90400 22.38100
C  -3.06900 34.73200 22.55900
C  -3.19700 34.52300 24.05700
C  -2.56900 37.07600 21.55400
C  -2.65100 33.36600 21.83900
C  -2.09200 32.19900 22.69300
N  -3.36200 33.55800 26.84300
C  -4.18700 33.08900 25.86300
C  -5.01500 32.05500 26.41400
C  -4.76800 32.04800 27.76100
C  -3.77200 33.00600 27.95400
C  -5.88500 31.23100 25.63800
C  -5.16500 31.31600 28.98500
O  -6.02400 30.43700 29.15200
C  -4.27400 31.98300 30.13100
C  -5.21300 32.68400 30.99600
O  -5.79800 33.73400 30.74100
O  -5.18800 31.99200 32.23000
C  -6.06900 32.53500 33.30600
H  0.11000 37.51900 30.09700
H  -0.32800 37.54400 23.51200
H  -4.52600 32.89900 23.75700
H  -3.16900 34.75700 31.86600
H  -0.40200 35.41400 31.78600
H  -2.82400 36.89700 32.52100
H  -1.82900 37.83000 31.35600
H  -1.16300 37.14600 32.92000
H  -0.60400 33.37600 32.32900
H  -1.74200 32.27800 31.46100
H  -2.73700 31.76900 33.12700
H  -2.98900 33.46800 33.73600
H  2.77000 39.09600 28.11400
H  1.75200 38.60300 29.45800
H  1.29000 40.01600 28.38800
H  2.40000 41.10800 24.77900
H  3.09000 39.99700 26.07000
H  1.70800 40.86500 26.33600
H  -1.11100 35.53400 21.96500
H  -3.99800 34.99400 22.05300
H  -2.20900 36.98100 20.52900
H  -2.31500 38.02200 22.03200
H  -3.65700 37.02400 21.50300
H  -1.96900 33.58700 21.01800
H  -3.46200 32.95900 21.23600
H  -1.73900 32.54900 23.66300
H  -1.24400 31.67300 22.25400
H  -2.90700 31.48200 22.78400
H  -5.62400 31.35500 24.58700
H  -6.91300 31.53600 25.83200
H  -5.71400 30.19200 25.91900
H  -3.60400 31.23700 30.55800
H  -5.72100 33.50300 33.66600
H  -5.96800 31.92600 34.20500
H  -7.12000 32.57300 33.02200

