158

Mg 54.98500 23.76300 45.12500
C  52.48000 26.00800 44.08200
C  52.88700 21.16900 43.91100
C  57.50300 21.51400 45.38100
C  57.10600 26.47600 45.86100
N  52.89200 23.66900 44.00500
C  52.08600 24.68000 43.80300
C  50.72900 24.16800 43.21400
C  50.75500 22.67500 43.64800
C  52.22900 22.47000 43.83000
C  49.82100 22.27200 44.85300
C  50.42000 24.42200 41.70400
C  48.99600 24.36500 41.19000
H  48.97200 24.16700 39.63100
N  55.15400 21.66100 44.72200
C  54.17300 20.78500 44.30400
C  54.63400 19.41700 44.13000
C  55.99500 19.46000 44.57000
C  56.34200 20.87800 44.89200
C  53.79700 18.21400 43.71800
C  56.92500 18.25800 44.62700
O  56.47400 17.15300 44.24100
C  58.40100 18.34800 45.00400
N  57.00100 23.98600 45.54100
C  57.81900 22.85600 45.65900
C  59.25400 23.33600 46.04200
C  59.14700 24.98400 46.14200
C  57.68400 25.21100 45.83000
C  59.98300 22.53000 47.21300
C  60.11600 25.78400 45.21300
C  60.77100 27.02700 45.75900
N  54.84900 25.84200 45.00800
C  55.75800 26.84100 45.48400
C  55.05100 28.12000 45.49700
C  53.80300 27.84700 44.90500
C  53.70100 26.48500 44.68200
C  55.59000 29.38200 46.08700
C  52.54000 28.45600 44.51600
O  52.13100 29.61600 44.56100
C  51.61900 27.27100 43.91700
C  51.39900 27.57600 42.42400
O  52.30300 27.73000 41.58800
O  50.10100 27.86000 42.21800
C  49.72900 28.23100 40.85400
H  52.26600 20.35100 43.54000
H  58.43700 20.96200 45.51200
H  57.71000 27.32000 46.19800
H  49.98300 24.70700 43.79900
H  50.39600 21.99000 42.88100
H  50.41200 22.08400 45.74900
H  49.30800 21.34200 44.60900
H  49.03800 22.99800 45.07400
H  50.92200 23.62000 41.16200
H  50.92900 25.36500 41.50500
H  48.44100 25.28700 41.36500
H  48.49300 23.50700 41.63700
H  53.79700 17.99600 42.65000
H  52.77400 18.32800 44.07700
H  54.15000 17.30200 44.19900
H  58.79100 17.33300 45.08100
H  58.43700 18.76200 46.01100
H  59.00600 18.84900 44.24800
H  59.76700 23.11500 45.10600
H  59.25400 25.21500 47.20200
H  60.98900 22.30000 46.86300
H  59.45200 21.60900 47.45500
H  60.03400 23.19100 48.07800
H  59.50600 26.20100 44.41200
H  60.79800 25.07400 44.74600
H  61.79400 26.96600 45.38700
H  60.73500 27.05400 46.84800
H  60.32800 27.89400 45.26800
H  56.68000 29.37300 46.07200
H  55.22300 29.41900 47.11300
H  55.15300 30.24900 45.59300
H  50.58900 27.21300 44.26900
H  50.35800 27.77000 40.09300
H  49.76000 29.30900 40.69500
H  48.72500 27.86500 40.64000
Mg 1.07700 42.02300 24.99000
C  2.13500 42.13000 28.42400
C  -2.01800 41.12400 26.24700
C  0.08900 41.57700 21.87100
C  4.39700 42.74600 24.02000
N  0.23100 41.53000 27.11400
C  0.80400 41.84600 28.29100
C  -0.17700 41.66500 29.44700
C  -1.55500 41.27600 28.76800
C  -1.13700 41.32300 27.29200
C  -1.89400 39.82700 29.10100
C  -0.24300 42.98300 30.31800
C  -0.31500 42.88100 31.85600
H  -0.47600 41.47100 32.45900
N  -0.80700 41.49700 24.16700
C  -1.88100 41.07300 24.85600
C  -2.95200 40.85000 23.85100
C  -2.41600 40.96400 22.55400
C  -0.99600 41.35700 22.79300
C  -4.36100 40.44600 24.17700
C  -2.98500 40.74800 21.16900
O  -2.33600 41.04200 20.18000
C  -4.38000 40.23600 20.97300
N  2.05000 42.31400 23.26500
C  1.36000 42.05300 22.10300
C  2.28000 42.15800 20.79500
C  3.64700 42.60700 21.51400
C  3.35700 42.53300 23.02500
C  2.26100 40.87400 19.91300
C  4.10700 44.09000 21.11300
C  2.95900 45.12700 21.09800
N  2.92600 42.39400 25.95300
C  4.14200 42.73300 25.45000
C  5.12800 42.74500 26.54100
C  4.28600 42.64900 27.70600
C  3.04500 42.32700 27.30400
C  6.56300 43.04900 26.43100
C  4.30600 42.69100 29.21300
O  5.16200 42.97500 30.07400
C  2.98100 42.36600 29.71500
C  3.34000 41.08200 30.47900
O  3.76300 40.08200 29.95200
O  3.01000 41.20200 31.75500
C  3.41600 40.29700 32.80300
H  -3.04600 41.01900 26.60100
H  -0.16200 41.51300 20.81000
H  5.39200 43.09600 23.73900
H  0.18300 40.90200 30.13600
H  -2.36300 41.98400 28.95500
H  -1.47300 39.48200 30.04600
H  -1.53400 39.22700 28.26600
H  -2.98100 39.87500 29.16800
H  -1.10200 43.53500 29.93400
H  0.68100 43.54700 30.19100
H  -1.16100 43.44800 32.24500
H  0.52100 43.35300 32.37300
H  -5.03000 41.02800 23.54400
H  -4.62100 40.66100 25.21300
H  -4.53500 39.37500 24.06700
H  -4.44100 39.28600 21.50400
H  -4.46900 40.12500 19.89300
H  -5.12000 40.95700 21.32100
H  1.78000 42.98500 20.28900
H  4.38100 41.86400 21.20300
H  1.53300 40.15000 20.27700
H  3.23800 40.38900 19.90100
H  2.12100 41.15200 18.86800
H  4.35600 43.91300 20.06600
H  4.91800 44.44800 21.74700
H  2.07100 44.97100 21.71100
H  2.63000 45.25300 20.06600
H  3.35200 46.09200 21.41700
H  6.62500 43.88700 25.73700
H  7.06100 42.18500 25.99100
H  7.08000 43.27800 27.36300
H  2.63100 43.04000 30.49700
H  4.40000 40.57500 33.18100
H  3.37500 39.21700 32.66400
H  2.75400 40.46500 33.65300

