158

Mg 44.64900 4.57900 47.79300
C  42.38700 7.22900 47.22600
C  42.10500 2.32100 47.90700
C  47.00000 2.07100 47.56600
C  47.26700 6.85900 47.05700
N  42.54400 4.80300 47.76200
C  41.83800 5.94200 47.36200
C  40.33800 5.66500 47.32700
C  40.25800 4.10500 47.59600
C  41.71900 3.70200 47.83900
C  39.22800 3.58400 48.67600
C  39.78600 5.98000 45.86800
C  38.78300 7.14700 45.86900
H  38.66400 8.12000 44.70500
N  44.58700 2.44300 47.62600
C  43.38300 1.76100 47.88700
C  43.69800 0.34600 47.98600
C  45.10500 0.23200 47.77100
C  45.64700 1.59100 47.63400
C  42.58600 -0.69400 48.00400
C  45.96100 -1.02700 47.74800
O  45.37000 -2.12400 47.87400
C  47.37400 -1.05600 47.44000
N  46.78800 4.49500 47.14400
C  47.51500 3.30200 47.26900
C  48.99800 3.50700 47.04500
C  49.08100 5.11700 47.08400
C  47.63100 5.52700 47.09200
C  49.93400 2.88000 48.11100
C  49.99300 5.85000 46.01100
C  51.35000 6.39300 46.49300
N  44.81900 6.68500 47.34300
C  45.93500 7.38600 47.09300
C  45.59000 8.78000 46.81200
C  44.17300 8.81400 46.93200
C  43.75800 7.48800 47.21900
C  46.60000 9.87100 46.52100
C  42.89500 9.60500 46.95800
O  42.73000 10.86600 46.88600
C  41.69800 8.55600 47.05400
C  40.78300 8.81100 48.21300
O  40.79000 8.28900 49.34900
O  39.94300 9.86200 47.95800
C  38.84000 10.14100 48.87200
H  41.18000 1.74600 47.98300
H  47.83700 1.37100 47.50600
H  48.01300 7.65500 47.00500
H  39.78100 6.19300 48.10100
H  40.03200 3.54800 46.68700
H  38.41200 4.29500 48.80500
H  39.73300 3.40300 49.62400
H  38.77600 2.64600 48.35500
H  39.30400 5.05500 45.55100
H  40.56300 6.26400 45.15800
H  38.78800 7.76300 46.76800
H  37.84300 6.59600 45.89300
H  41.53900 -0.43200 47.85000
H  42.62200 -1.32800 48.89000
H  42.80100 -1.39600 47.19900
H  47.57000 -0.61700 46.46100
H  47.72800 -2.08600 47.40000
H  47.87700 -0.55400 48.26700
H  49.19700 3.18800 46.02100
H  49.37200 5.42900 48.08700
H  49.38300 2.19400 48.75400
H  50.32000 3.60800 48.82500
H  50.76500 2.28300 47.73400
H  49.40400 6.64200 45.54700
H  50.26700 5.15600 45.21700
H  51.28600 7.47800 46.41100
H  52.14200 5.97500 45.87100
H  51.50400 6.08600 47.52700
H  47.09300 10.22900 47.42500
H  46.23100 10.77400 46.03400
H  47.45800 9.52400 45.94500
H  41.13700 8.56600 46.11900
H  38.73700 11.22400 48.94300
H  38.78900 9.75300 49.89000
H  37.97800 9.79500 48.30300
Mg 42.22200 41.77800 26.56300
C  41.42300 44.34500 28.92900
C  43.13200 39.79600 29.20600
C  43.10400 39.42800 24.33000
C  41.67600 44.03900 24.06800
N  42.35300 42.06800 28.81800
C  41.92700 43.14400 29.58900
C  42.08100 42.84500 31.11000
C  42.78000 41.42700 31.09800
C  42.73200 41.05700 29.63600
C  44.17800 41.43000 31.80400
C  40.73900 42.83900 31.90200
C  40.80700 43.56700 33.28200
H  40.12100 42.84100 34.39300
N  43.05100 39.87700 26.72600
C  43.26800 39.20800 27.88600
C  43.77300 37.85100 27.59100
C  43.91600 37.78600 26.16000
C  43.40100 39.10900 25.70200
C  44.24900 36.91700 28.65000
C  44.46100 36.76300 25.25700
O  44.55200 36.78200 23.99900
C  44.74100 35.44800 25.82100
N  42.59700 41.76200 24.45100
C  42.71700 40.63600 23.80900
C  42.36300 40.82300 22.27700
C  41.73700 42.26600 22.22900
C  41.90700 42.70800 23.70000
C  43.62000 40.49100 21.40100
C  40.26200 42.39300 21.78700
C  39.16600 41.38000 22.25800
N  41.68800 43.76400 26.44600
C  41.59500 44.60000 25.32400
C  41.27800 45.87900 25.76600
C  41.23200 45.87800 27.13900
C  41.47000 44.52400 27.53700
C  41.15400 47.00400 24.74900
C  41.00800 46.66500 28.28500
O  40.74500 47.84800 28.45500
C  41.09700 45.75300 29.50200
C  42.09100 46.28500 30.51200
O  43.26200 46.37700 30.21200
O  41.54800 46.66000 31.71600
C  42.54000 46.77900 32.77900
H  43.29200 39.11500 30.04500
H  43.26200 38.63100 23.60000
H  41.31500 44.73800 23.31100
H  42.76500 43.52600 31.61500
H  42.12400 40.74200 31.63500
H  44.10900 40.81700 32.70300
H  44.39200 42.43900 32.15700
H  44.83300 41.11400 30.99200
H  40.36900 41.84400 32.14900
H  39.96000 43.36500 31.35000
H  40.41000 44.57900 33.21000
H  41.82500 43.70800 33.64800
H  43.79100 35.94900 28.44700
H  43.88500 37.28800 29.60800
H  45.33400 36.82500 28.70800
H  45.40400 35.55000 26.68000
H  45.09400 34.83300 24.99200
H  43.83500 35.04200 26.27100
H  41.52700 40.17700 22.00800
H  42.40200 42.91700 21.66200
H  43.92500 41.45200 20.98900
H  43.43700 39.74200 20.63100
H  44.49700 40.12900 21.93700
H  40.30300 42.22800 20.71000
H  40.03200 43.42500 22.05100
H  38.75800 41.85000 23.15300
H  39.59000 40.43600 22.59900
H  38.51900 41.32200 21.38200
H  40.22300 46.83400 24.21000
H  42.04800 47.10300 24.13300
H  41.07000 47.85400 25.42600
H  40.11300 45.61400 29.94900
H  43.04900 45.83700 32.98500
H  42.02500 47.18000 33.65200
H  43.31400 47.50300 32.52600

