158

Mg 17.51900 -1.77000 27.22900
C  16.55200 0.15800 29.98200
C  19.32500 -3.68200 29.35500
C  18.85800 -3.18800 24.63700
C  15.53100 0.27500 25.21200
N  17.93900 -1.68800 29.42200
C  17.41500 -0.87200 30.39200
C  17.95700 -1.27300 31.78100
C  18.96500 -2.33600 31.46800
C  18.71300 -2.61400 30.00600
C  20.38500 -2.05100 31.94700
C  16.87700 -1.80900 32.74800
C  16.86900 -1.32700 34.18800
H  18.04000 -0.56900 34.72400
N  18.81300 -3.37300 27.02700
C  19.37800 -4.09900 28.05900
C  20.14400 -5.28300 27.50400
C  19.88900 -5.15800 26.09300
C  19.16300 -3.86500 25.84500
C  20.90800 -6.32900 28.29500
C  20.19300 -6.11100 24.98500
O  19.94500 -5.89200 23.80100
C  20.58500 -7.60500 25.35400
N  17.47200 -1.22300 25.29700
C  18.11700 -2.01200 24.38300
C  17.93700 -1.47100 22.94900
C  16.90700 -0.38500 23.05900
C  16.52700 -0.43800 24.58900
C  19.24400 -0.94200 22.30000
C  15.65900 -0.67700 22.10500
C  15.02200 0.58000 21.50700
N  16.30000 -0.02200 27.45800
C  15.53700 0.64800 26.55000
C  14.86000 1.77300 27.13200
C  15.15600 1.56700 28.56500
C  16.07500 0.48800 28.66800
C  14.05900 2.80600 26.49800
C  14.89500 2.02700 29.93800
O  14.26300 2.98400 30.32800
C  15.89600 1.11700 30.88200
C  16.79800 2.11100 31.51400
O  17.79700 2.55600 30.97500
O  16.50600 2.33100 32.81800
C  17.25000 3.40000 33.45800
H  20.01800 -4.20400 30.01900
H  19.15100 -3.51000 23.63600
H  14.92000 0.87700 24.53500
H  18.45600 -0.36200 32.10800
H  18.69500 -3.21200 32.05800
H  20.51600 -1.02900 32.30100
H  21.06200 -2.05200 31.09200
H  20.74200 -2.80700 32.64600
H  16.71500 -2.88600 32.72600
H  15.96100 -1.32700 32.40700
H  16.60800 -2.25200 34.70300
H  15.94600 -0.76700 34.33400
H  21.15500 -5.90700 29.26900
H  21.80600 -6.79900 27.89300
H  20.14000 -7.07700 28.48800
H  19.80300 -8.12900 25.90500
H  21.56100 -7.60100 25.84000
H  20.81000 -8.03100 24.37600
H  17.50000 -2.31800 22.42000
H  17.37200 0.59400 22.93800
H  19.02500 -0.07800 21.67200
H  19.76600 -1.69000 21.70400
H  19.84500 -0.64500 23.16000
H  14.95500 -1.30700 22.64800
H  15.99000 -1.18000 21.19700
H  15.37000 1.55800 21.84000
H  13.93800 0.48000 21.56900
H  15.30700 0.62500 20.45600
H  14.49000 3.80500 26.56300
H  13.25600 2.91200 27.22700
H  13.65800 2.45900 25.54500
H  15.37300 0.66600 31.72500
H  18.23700 3.52300 33.01100
H  17.52800 3.09600 34.46700
H  16.65800 4.30100 33.62000
Mg 16.52500 52.07000 26.31400
C  18.52000 50.60200 28.85400
C  14.24700 52.93700 28.69300
C  14.77000 53.39000 23.82200
C  18.96900 50.98900 24.00400
N  16.44800 51.84200 28.52300
C  17.33600 51.11800 29.34700
C  16.88000 51.31500 30.88500
C  15.42700 51.88900 30.72300
C  15.43700 52.31300 29.23800
C  14.24000 50.87400 31.00600
C  17.81100 52.42700 31.53500
C  18.19600 52.06900 32.95400
H  17.37500 52.65000 34.09200
N  14.73800 52.97400 26.24900
C  13.94200 53.31300 27.36300
C  12.77800 54.06500 26.87000
C  12.93200 54.17200 25.46400
C  14.11800 53.40900 25.14400
C  11.69200 54.52300 27.89600
C  12.07100 54.97200 24.43100
O  12.19000 54.82100 23.22700
C  11.06500 55.86400 24.82900
N  16.76500 52.16300 24.26300
C  16.00100 52.93600 23.45100
C  16.40800 52.82100 21.98500
C  17.78000 52.12600 22.07800
C  17.91600 51.83100 23.52500
C  15.37000 52.23900 20.91200
C  18.95900 52.92600 21.42200
C  18.86800 52.79900 19.83300
N  18.33800 50.91200 26.35600
C  19.23100 50.70400 25.40100
C  20.39100 50.06800 25.88800
C  20.13700 50.00600 27.25400
C  18.90700 50.54400 27.52900
C  21.62400 49.57400 25.16300
C  20.65500 49.49900 28.55800
O  21.65300 48.83400 28.69600
C  19.62000 49.99900 29.68800
C  19.08800 48.91100 30.53600
O  18.38700 47.94500 30.19900
O  19.63300 49.15900 31.72900
C  19.45100 48.08200 32.73300
H  13.44200 53.23600 29.36800
H  14.24800 53.76300 22.93900
H  19.72900 50.76000 23.25400
H  16.93200 50.36000 31.40900
H  15.34100 52.77600 31.35000
H  14.60800 49.86600 31.20000
H  13.58800 50.78000 30.13700
H  13.57200 51.17600 31.81200
H  17.35600 53.40500 31.69100
H  18.64000 52.61800 30.85300
H  19.23000 52.32200 33.18500
H  18.20300 50.98000 32.96400
H  11.63500 53.96900 28.83300
H  10.70100 54.47400 27.44400
H  11.76600 55.57900 28.15700
H  11.54500 56.63600 25.43000
H  10.45000 55.20100 25.43600
H  10.58500 56.30800 23.95700
H  16.57000 53.85300 21.67200
H  17.74600 51.13500 21.62500
H  14.46400 51.97300 21.45700
H  15.82300 51.40900 20.36900
H  15.08100 53.04300 20.23600
H  19.90900 52.49100 21.73100
H  18.84400 53.98400 21.65800
H  18.71200 53.78600 19.39700
H  17.93500 52.24200 19.74300
H  19.67400 52.24900 19.34600
H  21.34100 49.23600 24.16600
H  21.91800 48.76400 25.83100
H  22.30800 50.41700 25.06100
H  20.01100 50.79400 30.32300
H  19.86900 47.11900 32.44000
H  18.44700 47.87600 33.10400
H  20.02000 48.32900 33.63000

