158

Mg 1.87300 -1.02000 43.88800
C  5.22100 -0.39000 43.59800
C  1.19800 2.06500 42.39000
C  -1.34500 -1.91600 43.30600
C  2.59300 -4.36600 44.88000
N  3.09300 0.57300 42.89200
C  4.49700 0.69600 42.99600
C  4.95400 1.88900 42.30900
C  3.66400 2.69700 42.13500
C  2.51400 1.73300 42.48300
C  3.57600 4.04600 42.89300
C  5.58800 1.40800 40.90700
C  6.92600 1.93600 40.49000
H  7.17900 2.17100 39.03500
N  0.10600 -0.00500 43.09800
C  0.04800 1.22700 42.61600
C  -1.34000 1.52000 42.24400
C  -2.09300 0.36000 42.44400
C  -1.10100 -0.59700 42.96800
C  -1.79200 2.87200 41.69900
C  -3.49100 0.14600 41.91900
O  -4.13100 1.08600 41.45700
C  -4.23100 -1.12100 42.20800
N  0.82600 -2.96800 44.02900
C  -0.54400 -2.95400 43.85900
C  -1.12700 -4.38200 44.13700
C  0.11200 -5.17300 44.60000
C  1.28100 -4.13300 44.48400
C  -2.24100 -4.41200 45.20300
C  0.55000 -6.44400 43.84500
C  0.48000 -7.73900 44.59800
N  3.57600 -2.18400 44.20500
C  3.66400 -3.46700 44.67600
C  5.09300 -3.72300 44.90600
C  5.69900 -2.53800 44.49600
C  4.77200 -1.65000 44.06300
C  5.72400 -5.02600 45.45000
C  7.09000 -1.89900 44.34900
O  8.18500 -2.27500 44.68100
C  6.78900 -0.47500 43.76600
C  7.39700 0.55800 44.56800
O  7.37500 0.57500 45.74900
O  8.05100 1.47900 43.79700
C  8.63900 2.58700 44.60400
H  1.02200 3.09700 42.07800
H  -2.29900 -2.42500 43.14800
H  2.80800 -5.38200 45.21600
H  5.72800 2.41900 42.86400
H  3.52800 2.92900 41.07900
H  3.63400 4.80800 42.11700
H  4.49900 4.07900 43.47200
H  2.62400 4.15900 43.41100
H  4.95300 1.59500 40.04100
H  5.78400 0.33700 40.87900
H  7.64300 1.20300 40.85900
H  7.15000 2.79500 41.12300
H  -2.25800 2.78800 40.71700
H  -1.04900 3.66700 41.75800
H  -2.66700 3.12200 42.30000
H  -5.30100 -1.01300 42.03300
H  -4.06500 -1.34100 43.26200
H  -3.73700 -1.89300 41.61700
H  -1.48100 -4.76900 43.18100
H  0.02700 -5.37700 45.66700
H  -2.93900 -3.59800 45.00500
H  -1.77900 -4.44500 46.18900
H  -2.72100 -5.38000 45.05800
H  1.56400 -6.36500 43.45200
H  -0.14300 -6.49800 43.00500
H  1.47000 -8.13500 44.37200
H  -0.15800 -8.52100 44.18700
H  0.43900 -7.54800 45.67100
H  6.08400 -5.56700 44.57500
H  5.05700 -5.56200 46.12500
H  6.53900 -4.77700 46.12900
H  7.29600 -0.27800 42.82100
H  9.34500 3.15400 43.99800
H  8.99700 2.39600 45.61600
H  7.82200 3.26300 44.86000
Mg 16.93700 52.34300 26.90200
C  18.95700 50.64700 29.12500
C  14.65000 52.97000 29.28600
C  14.91500 54.03000 24.53000
C  18.90500 51.28100 24.22600
N  16.88300 51.82500 28.88400
C  17.75100 51.17600 29.63800
C  17.41800 51.42800 31.14100
C  15.92200 51.78700 31.13000
C  15.81300 52.22500 29.68300
C  15.04000 50.74600 31.68700
C  18.38200 52.52400 31.79000
C  18.81300 52.10500 33.19800
H  17.83400 51.46100 34.18700
N  15.03100 53.33000 27.00300
C  14.29600 53.44100 28.10200
C  13.18200 54.24300 27.78700
C  13.24900 54.65400 26.42500
C  14.47900 53.99700 25.93000
C  12.04700 54.52600 28.80700
C  12.39100 55.60500 25.64400
O  12.60500 55.88100 24.45800
C  11.07000 56.06800 26.31800
N  16.91200 52.55800 24.64700
C  15.98200 53.28500 23.98300
C  16.10000 53.13900 22.44100
C  17.58700 52.47400 22.34000
C  17.82500 52.07000 23.81700
C  15.08400 52.14000 21.78000
C  18.68600 53.41900 21.88200
C  19.62800 52.87900 20.81900
N  18.61100 51.15800 26.59600
C  19.28300 50.71500 25.48900
C  20.37500 49.81400 25.92700
C  20.29600 49.82700 27.31300
C  19.22300 50.67200 27.67600
C  21.36100 49.14500 24.92800
C  20.94600 49.22400 28.52800
O  21.88400 48.48800 28.80800
C  20.14000 49.91100 29.75100
C  19.68800 48.96600 30.80300
O  18.75400 48.13600 30.71100
O  20.36200 49.18600 31.97000
C  19.93500 48.39600 33.17300
H  14.08100 53.11900 30.20600
H  14.27900 54.55800 23.81600
H  19.43900 50.92500 23.34200
H  17.50500 50.49000 31.68900
H  15.66200 52.72800 31.61500
H  14.65800 51.01600 32.67200
H  15.51500 49.78400 31.87900
H  14.16800 50.65500 31.04000
H  17.95500 53.52000 31.67900
H  19.22100 52.55000 31.09600
H  19.17900 52.98700 33.72400
H  19.68800 51.46100 33.11100
H  11.08100 54.29000 28.36200
H  12.12500 55.55400 29.16200
H  12.24500 53.90300 29.67900
H  10.64900 56.60200 25.46600
H  11.35500 56.80000 27.07300
H  10.47300 55.18600 26.54900
H  15.94300 54.16400 22.10400
H  17.50900 51.58600 21.71200
H  15.58300 51.58100 20.98800
H  14.23600 52.58500 21.25800
H  14.75100 51.42800 22.53500
H  19.23800 53.71100 22.77500
H  18.19500 54.22000 21.33100
H  20.61600 52.65900 21.22400
H  19.82500 53.58100 20.00900
H  19.25800 51.97800 20.33100
H  21.01100 48.87200 23.93300
H  21.47300 48.19700 25.45400
H  22.37200 49.54500 24.99500
H  20.83600 50.61100 30.21300
H  20.14000 49.04400 34.02500
H  20.48700 47.49300 33.43300
H  18.86000 48.21700 33.14900

