158

Mg 16.48300 -1.21000 27.90800
C  15.55500 1.14000 30.53900
C  18.23100 -2.95000 30.17500
C  17.64100 -3.03800 25.34300
C  15.12400 1.07900 25.60500
N  16.96500 -0.85400 30.02800
C  16.42100 0.08000 30.93300
C  16.89100 -0.18800 32.34900
C  17.76000 -1.45700 32.18100
C  17.73800 -1.75500 30.65200
C  19.27900 -1.12700 32.59000
C  15.67700 -0.37700 33.36900
C  15.83100 0.33600 34.74100
H  17.30300 0.65700 35.24100
N  17.82500 -2.79900 27.78700
C  18.40100 -3.48400 28.81600
C  19.05200 -4.65300 28.28100
C  18.85400 -4.67400 26.90200
C  18.05600 -3.48900 26.63100
C  19.97800 -5.57200 29.11200
C  19.12400 -5.72300 25.82900
O  18.88500 -5.61900 24.61500
C  19.83300 -6.92900 26.28500
N  16.58300 -0.92800 25.72500
C  16.99100 -1.90800 24.90400
C  17.01100 -1.50000 23.47400
C  15.93000 -0.31400 23.52900
C  15.79100 -0.05000 25.05400
C  18.42200 -1.09800 22.97200
C  14.54300 -0.61300 22.82900
C  14.01000 0.57600 21.92600
N  15.44500 0.65800 27.96100
C  15.01000 1.47500 26.97300
C  14.30700 2.67300 27.54500
C  14.47700 2.51600 28.93700
C  15.23600 1.33800 29.15800
C  13.50200 3.70100 26.83100
C  14.07800 3.12200 30.21600
O  13.41300 4.10800 30.53200
C  14.74800 2.23200 31.31700
C  15.52100 2.99600 32.22300
O  16.71100 3.27000 32.09100
O  14.79200 3.47400 33.33200
C  15.59900 4.35600 34.20100
H  18.68200 -3.51300 30.99500
H  18.04400 -3.59100 24.49200
H  14.68700 1.74700 24.86000
H  17.51800 0.65800 32.63000
H  17.33300 -2.28700 32.74300
H  19.32900 -0.14100 33.05100
H  19.89900 -1.10200 31.69400
H  19.62900 -1.83600 33.34000
H  15.53400 -1.42700 33.62400
H  14.72600 -0.11300 32.90700
H  15.39700 -0.31600 35.50000
H  15.32400 1.29900 34.66900
H  20.77500 -5.91000 28.44900
H  19.42600 -6.48600 29.33100
H  20.43800 -5.08100 29.96900
H  19.35900 -7.44100 27.12300
H  20.84900 -6.54600 26.38300
H  19.93600 -7.68100 25.50300
H  16.62200 -2.41300 23.02300
H  16.41000 0.55900 23.08700
H  18.35000 -0.10800 22.52200
H  18.64000 -1.80700 22.17300
H  19.18400 -0.96800 23.74000
H  13.82200 -0.76900 23.63100
H  14.70500 -1.48500 22.19600
H  14.62600 1.47300 21.98700
H  13.04700 0.89300 22.32700
H  13.81300 0.10300 20.96400
H  14.08400 4.62300 26.86500
H  12.52100 3.75600 27.30100
H  13.11300 3.54800 25.82400
H  14.01300 1.67500 31.89900
H  14.95900 4.60500 35.04700
H  15.89700 5.27400 33.69300
H  16.45800 3.92500 34.71700
Mg 9.66000 46.96800 25.86600
C  7.78400 46.93800 28.84000
C  12.32600 48.09600 27.66700
C  11.55100 46.93800 23.02900
C  6.74200 46.42600 24.01900
N  10.00100 47.54500 28.08100
C  9.14200 47.35900 29.10400
C  9.84800 47.81700 30.46500
C  11.05900 48.66500 29.91300
C  11.14300 48.13500 28.45600
C  10.91100 50.18200 29.97700
C  10.17700 46.65200 31.51000
C  10.22400 47.05300 32.92600
H  9.71000 46.10200 34.05400
N  11.61700 47.30900 25.39600
C  12.58400 47.65600 26.35600
C  13.91300 47.61900 25.74300
C  13.64600 47.17400 24.38500
C  12.19500 47.07500 24.22800
C  15.22000 47.97400 26.33300
C  14.64600 46.83500 23.25500
O  14.32500 46.35000 22.09500
C  16.07800 47.07700 23.43900
N  9.22000 46.81400 23.82300
C  10.16900 46.75300 22.78000
C  9.56900 46.41100 21.39000
C  8.05200 46.18200 21.81900
C  7.97300 46.45500 23.25700
C  9.89800 47.40900 20.22700
C  7.59100 44.70100 21.64600
C  8.02400 43.65500 22.68000
N  7.67100 46.79000 26.30100
C  6.57500 46.55100 25.45800
C  5.39100 46.43600 26.19100
C  5.77900 46.56900 27.55900
C  7.23200 46.79700 27.55500
C  3.94600 46.20500 25.59300
C  5.38300 46.50500 28.90000
O  4.29000 46.23900 29.38900
C  6.58100 46.78100 29.83100
C  6.80300 45.65600 30.69100
O  7.45300 44.66700 30.43000
O  6.15000 45.81900 31.84200
C  5.88900 44.58400 32.61600
H  13.19900 48.47900 28.19800
H  12.09300 46.90900 22.08100
H  5.91500 46.23100 23.33200
H  9.21700 48.47300 31.06400
H  11.98300 48.36600 30.40600
H  9.97900 50.55400 30.40400
H  11.05000 50.74900 29.05600
H  11.66500 50.67500 30.58900
H  11.13100 46.16400 31.31000
H  9.49100 45.82900 31.31200
H  9.63800 47.95700 33.08900
H  11.27700 47.16500 33.18500
H  16.00500 47.21800 26.34800
H  15.04500 48.37000 27.33400
H  15.71600 48.76800 25.77500
H  16.11500 48.16200 23.54400
H  16.53900 46.83800 22.48100
H  16.48400 46.61700 24.34000
H  10.11900 45.49300 21.18500
H  7.39800 46.91700 21.34900
H  10.48400 48.25300 20.59100
H  8.99400 47.75100 19.72400
H  10.61400 46.93100 19.55800
H  7.93500 44.29200 20.69600
H  6.50600 44.73800 21.54800
H  8.63700 44.03100 23.49900
H  8.67700 42.94500 22.17300
H  7.08800 43.20400 23.00900
H  3.15000 45.93300 26.28700
H  4.09800 45.24900 25.09200
H  3.58600 47.02300 24.96900
H  6.37100 47.61100 30.50700
H  5.65600 44.70000 33.67500
H  6.84200 44.05600 32.61100
H  5.14700 43.94300 32.14000

