158

Mg 47.29100 24.59700 28.82600
C  48.24100 26.88600 31.22600
C  46.37300 22.50700 31.47000
C  47.05400 22.07100 26.67000
C  48.76400 26.57700 26.46700
N  47.26900 24.71500 31.09600
C  47.76700 25.74800 31.80500
C  47.45400 25.69900 33.25300
C  47.16900 24.15400 33.34300
C  46.83900 23.77400 31.91700
C  48.24300 23.33200 34.10100
C  46.25500 26.63300 33.62500
C  46.33700 27.38800 34.92000
H  46.96100 26.71800 36.27500
N  46.71100 22.66100 29.02700
C  46.28200 22.01200 30.17000
C  45.88700 20.68000 29.87100
C  45.95900 20.57900 28.44000
C  46.59200 21.76300 27.97700
C  45.39900 19.66600 30.84700
C  45.55000 19.38300 27.58000
O  45.62700 19.43200 26.38700
C  45.09200 18.15900 28.13300
N  47.69800 24.37800 26.79000
C  47.56600 23.24300 26.08400
C  47.90800 23.34800 24.61100
C  48.23000 24.88000 24.51900
C  48.32200 25.30000 26.02700
C  49.12400 22.49800 24.28500
C  47.22300 25.56400 23.56900
C  45.78500 25.81800 23.99300
N  48.26400 26.28700 28.75600
C  48.68100 27.12500 27.71300
C  49.21100 28.38400 28.17300
C  49.12400 28.32800 29.58300
C  48.52700 27.03200 29.89700
C  49.95300 29.31400 27.42100
C  49.44700 28.95300 30.83400
O  50.14900 29.88500 30.99600
C  48.78300 28.12000 31.97500
C  49.70400 28.00000 33.09500
O  50.62600 27.17300 33.21400
O  49.32600 28.94000 34.01100
C  49.97900 28.97300 35.32400
H  46.21300 21.82800 32.31100
H  46.83500 21.34200 25.88700
H  49.25100 27.19200 25.70700
H  48.33600 25.98200 33.82800
H  46.29000 24.03900 33.97800
H  48.98600 23.98600 34.55700
H  48.81300 22.82200 33.32400
H  47.82400 22.58500 34.77500
H  45.39700 25.99300 33.83100
H  46.04600 27.25800 32.75700
H  45.27500 27.52700 35.12200
H  46.89000 28.31200 34.75300
H  45.60700 19.96900 31.87300
H  45.90000 18.69900 30.79400
H  44.31000 19.62100 30.83700
H  45.87500 17.82000 28.81100
H  44.98800 17.37900 27.37900
H  44.13100 18.23200 28.64100
H  47.05000 23.09800 23.98700
H  49.24900 24.92600 24.13400
H  48.97300 21.58700 24.86500
H  50.11200 22.87900 24.54300
H  49.06800 22.49100 23.19700
H  47.21000 24.98800 22.64400
H  47.67100 26.48200 23.18900
H  45.76900 26.89900 23.85300
H  45.58700 25.51400 25.02000
H  44.95600 25.47300 23.37500
H  50.69800 28.76500 26.84500
H  50.47200 29.99100 28.09900
H  49.30300 29.89800 26.77000
H  47.86900 28.61700 32.30200
H  49.36700 28.48600 36.08400
H  50.18500 29.96400 35.72800
H  50.93000 28.44500 35.26300
Mg -6.15500 25.28600 26.04800
C  -4.46600 27.01300 28.69100
C  -7.55800 23.36500 28.28000
C  -7.45800 23.75900 23.46600
C  -4.24400 27.35900 23.72500
N  -5.86900 25.13200 28.21800
C  -5.21000 25.92800 29.12600
C  -5.65600 25.61000 30.57800
C  -6.28100 24.15700 30.36100
C  -6.68000 24.25900 28.88500
C  -5.27100 22.90600 30.58900
C  -6.67400 26.67800 31.12700
C  -7.23500 26.47700 32.58900
H  -6.71600 25.49200 33.61500
N  -7.37300 23.72400 25.92700
C  -7.94400 23.06700 26.94800
C  -8.87300 22.07900 26.48400
C  -8.95200 22.19900 25.02000
C  -7.88500 23.26900 24.74600
C  -9.77500 21.28900 27.40200
C  -9.85900 21.41600 24.08700
O  -9.67700 21.47800 22.87700
C  -10.91800 20.45600 24.62000
N  -5.96600 25.59300 24.00900
C  -6.61100 24.80500 23.15800
C  -6.64500 25.35100 21.69600
C  -5.50300 26.46000 21.79700
C  -5.21400 26.51900 23.22700
C  -6.46500 24.32500 20.62900
C  -6.03800 27.81000 21.01300
C  -5.51700 28.10400 19.62200
N  -4.67800 26.78900 26.14000
C  -4.01100 27.54200 25.16100
C  -3.07700 28.54000 25.76600
C  -3.27200 28.33200 27.11200
C  -4.30700 27.36200 27.30500
C  -2.22100 29.57100 24.97500
C  -2.88700 28.81900 28.43300
O  -2.17300 29.75400 28.66700
C  -3.72300 28.10200 29.46300
C  -2.83200 27.53400 30.44700
O  -1.89900 26.78400 30.22700
O  -3.34500 27.84600 31.64900
C  -2.73600 27.18800 32.79500
H  -8.10400 22.70200 28.95400
H  -8.04300 23.45200 22.59700
H  -3.73300 28.01800 23.02000
H  -4.79600 25.46900 31.23200
H  -7.25400 24.01400 30.83000
H  -5.65800 22.10700 31.22100
H  -4.26000 23.07000 30.96200
H  -5.16800 22.44300 29.60800
H  -7.54200 26.84800 30.48900
H  -6.09700 27.60000 31.06400
H  -8.30900 26.35400 32.45200
H  -7.11400 27.43200 33.09900
H  -9.43500 20.26400 27.54500
H  -10.81200 21.33700 27.06800
H  -9.86200 21.80300 28.35900
H  -10.64100 19.61900 25.26000
H  -11.38600 19.96500 23.76600
H  -11.67300 21.13400 25.02000
H  -7.60300 25.83100 21.49500
H  -4.68800 25.98500 21.25000
H  -5.89600 23.53100 21.11300
H  -5.79900 24.79800 19.90800
H  -7.44500 23.97800 20.30100
H  -5.94100 28.66500 21.68100
H  -7.12100 27.83000 20.88500
H  -4.91200 29.00300 19.50200
H  -6.30800 28.25500 18.88700
H  -4.98400 27.22000 19.27200
H  -1.46000 29.98700 25.63500
H  -2.78200 30.28600 24.37300
H  -1.72600 28.88700 24.28600
H  -4.43900 28.80500 29.89000
H  -1.65700 27.24900 32.65300
H  -3.04200 26.14200 32.78500
H  -2.95600 27.71100 33.72600

