158

Mg 24.66200 -6.79400 46.93000
C  27.05200 -4.60400 45.78000
C  22.38800 -5.27600 44.81000
C  22.53200 -9.39100 47.31100
C  27.22000 -8.70800 48.41200
N  24.79900 -5.20900 45.31700
C  25.83500 -4.40300 45.19000
C  25.55100 -3.29600 44.27200
C  24.03500 -3.29000 44.17000
C  23.70200 -4.67500 44.80900
C  23.23200 -2.19700 44.87900
C  26.27700 -3.24800 42.88200
C  26.55000 -1.79100 42.24200
H  26.00000 -1.57600 40.82300
N  22.60300 -7.15000 46.33100
C  21.86800 -6.35000 45.51600
C  20.52600 -6.83000 45.55900
C  20.49900 -8.06100 46.29100
C  21.89700 -8.24200 46.71500
C  19.46400 -6.03900 44.82700
C  19.30200 -8.83200 46.63400
O  18.20000 -8.42200 46.21100
C  19.41800 -10.09000 47.50900
N  24.89300 -8.75700 47.73900
C  23.86000 -9.63800 47.72900
C  24.25000 -10.91400 48.44400
C  25.69200 -10.73900 48.97500
C  25.98400 -9.30000 48.34900
C  23.21200 -11.39400 49.54200
C  26.73700 -11.80400 48.53000
C  27.77900 -12.19300 49.63800
N  26.69800 -6.69200 47.22300
C  27.60400 -7.45500 47.95800
C  28.87200 -6.73900 48.07300
C  28.73500 -5.66500 47.17300
C  27.40200 -5.64900 46.68700
C  30.00600 -7.12100 48.90000
C  29.46900 -4.49200 46.69400
O  30.58100 -4.07300 47.01200
C  28.38200 -3.77700 45.66100
C  28.44900 -2.27200 45.75000
O  28.76400 -1.49500 44.83400
O  28.03800 -1.78000 46.98400
C  28.16400 -0.33100 47.23900
H  21.62100 -4.70500 44.28400
H  21.91200 -10.27800 47.45700
H  28.05300 -9.17900 48.93800
H  25.79400 -2.33700 44.73000
H  23.68600 -3.29600 43.13800
H  23.39500 -1.18100 44.52000
H  23.26000 -2.20200 45.96800
H  22.20000 -2.45900 44.64800
H  25.75000 -3.79800 42.10300
H  27.25100 -3.73200 42.82200
H  27.63000 -1.66900 42.31800
H  26.16800 -0.99300 42.87800
H  19.60200 -6.22100 43.76100
H  19.63500 -4.99500 45.09100
H  18.40800 -6.24000 45.00700
H  20.07100 -10.73100 46.91600
H  18.36600 -10.37200 47.53000
H  19.92400 -9.83200 48.43900
H  24.28100 -11.70600 47.69500
H  25.65400 -10.70100 50.06300
H  22.68500 -12.27200 49.16900
H  22.48000 -10.61600 49.76100
H  23.73800 -11.72900 50.43600
H  27.35100 -11.29200 47.79000
H  26.39700 -12.75700 48.12600
H  28.77600 -11.98300 49.24900
H  27.69400 -13.24200 49.92000
H  27.61100 -11.58000 50.52300
H  30.43100 -6.23600 49.37200
H  30.78200 -7.71200 48.41300
H  29.67100 -7.84700 49.64100
H  28.71800 -4.07400 44.66800
H  28.43800 0.26300 46.36700
H  28.90800 -0.03200 47.97700
H  27.23700 0.00100 47.70700
Mg 17.50800 -1.33300 28.70400
C  16.51600 0.62500 31.38400
C  19.21300 -3.23800 30.92200
C  19.41000 -2.63400 26.10900
C  16.26200 0.96200 26.48900
N  17.80700 -1.25700 30.84200
C  17.32200 -0.35800 31.77000
C  17.61200 -0.79200 33.24900
C  18.77400 -1.79400 32.95900
C  18.60500 -2.07800 31.51000
C  20.22900 -1.28900 33.21700
C  16.32100 -1.39200 33.92200
C  15.94200 -0.75900 35.22500
H  16.89400 -0.16900 36.22000
N  18.78700 -3.00000 28.54300
C  19.43200 -3.62100 29.59400
C  20.21700 -4.78600 29.04000
C  20.22200 -4.64700 27.61600
C  19.46400 -3.39500 27.34800
C  20.83700 -5.87000 29.94100
C  20.91800 -5.48600 26.55400
O  20.82300 -5.23900 25.36500
C  21.70600 -6.62200 26.99700
N  17.80400 -0.85900 26.62700
C  18.63300 -1.51000 25.82100
C  18.68700 -0.96100 24.39100
C  17.57400 0.16600 24.46900
C  17.23400 0.10800 25.98000
C  20.10700 -0.56000 23.79200
C  16.35500 -0.13600 23.54500
C  16.07900 1.02400 22.53100
N  16.44600 0.38300 28.89000
C  15.94200 1.17900 27.86500
C  14.98200 2.08900 28.40500
C  15.17700 1.94900 29.85000
C  16.14900 0.89500 30.02300
C  14.12500 3.20000 27.66700
C  14.81900 2.43500 31.23400
O  14.14500 3.33500 31.54000
C  15.72200 1.58100 32.18400
C  16.50500 2.50400 33.02900
O  17.59300 2.97600 32.80100
O  15.83200 2.87500 34.17000
C  16.35100 3.79700 35.18100
H  19.74900 -3.79600 31.69200
H  20.20000 -2.86400 25.39100
H  15.87100 1.78200 25.88500
H  17.93400 0.04500 33.86900
H  18.61100 -2.73600 33.48200
H  20.69500 -1.00600 32.27300
H  20.85600 -2.05600 33.67000
H  20.26000 -0.44200 33.90200
H  16.64100 -2.36700 34.28900
H  15.39700 -1.47800 33.35100
H  15.47000 -1.51200 35.85800
H  15.05800 -0.13400 35.10100
H  20.54500 -6.87500 29.63700
H  20.53300 -5.84900 30.98800
H  21.92200 -5.82900 29.84600
H  21.13900 -7.29400 27.64000
H  22.50700 -6.14900 27.56500
H  22.24700 -7.22000 26.26300
H  18.48800 -1.79500 23.71800
H  18.00700 1.15100 24.29800
H  20.33600 -1.04300 22.84200
H  20.78100 -0.79700 24.61500
H  19.99900 0.51200 23.62800
H  15.45600 -0.43200 24.08500
H  16.64400 -0.97500 22.91200
H  15.23900 0.88300 21.85100
H  16.89900 1.06600 21.81500
H  15.93700 1.95600 23.07900
H  14.40600 3.47800 26.65200
H  14.33500 4.07800 28.27900
H  13.07000 2.99600 27.85200
H  15.13600 1.03200 32.92100
H  16.13300 4.82800 34.90200
H  17.44000 3.84200 35.18500
H  15.96400 3.58400 36.17700

