158

Mg 16.70500 -1.49700 28.18700
C  15.47700 0.22100 31.01100
C  18.99600 -2.95400 30.32200
C  18.23000 -2.73300 25.48200
C  15.01900 0.87300 26.08600
N  17.09700 -1.31100 30.39700
C  16.49000 -0.60400 31.34500
C  16.96800 -0.95000 32.69800
C  18.15500 -1.92700 32.48900
C  18.05100 -2.10800 30.93200
C  19.54300 -1.47500 33.04500
C  15.85100 -1.50300 33.59100
C  15.63200 -0.94100 34.99400
H  16.86700 -0.29000 35.64400
N  18.30100 -2.77900 27.92600
C  19.09300 -3.31700 28.98600
C  19.86600 -4.37400 28.37600
C  19.65800 -4.35000 26.93000
C  18.70400 -3.26800 26.68800
C  20.68600 -5.28000 29.24300
C  20.27100 -5.22500 25.84500
O  20.01400 -5.18200 24.61700
C  21.31500 -6.22100 26.19300
N  16.61600 -0.97600 25.99900
C  17.34200 -1.68600 25.10600
C  17.35100 -1.02200 23.68800
C  16.10400 -0.06400 23.82100
C  15.90200 0.02400 25.34600
C  18.60100 -0.16900 23.52700
C  14.82800 -0.66900 23.17900
C  13.93200 0.32900 22.43000
N  15.33000 -0.02400 28.40900
C  14.78300 0.85000 27.51300
C  13.83000 1.63900 28.20200
C  14.11500 1.55400 29.54400
C  15.04200 0.48600 29.65100
C  12.83500 2.60200 27.62200
C  13.82400 2.03500 30.85600
O  13.00100 2.92600 31.23700
C  14.73600 1.24200 31.80200
C  15.58400 2.17100 32.52500
O  16.63400 2.52900 32.06400
O  15.18700 2.33300 33.81100
C  16.06100 3.38300 34.45800
H  19.64000 -3.36600 31.10200
H  18.73500 -3.11300 24.59100
H  14.49700 1.70700 25.61100
H  17.47500 -0.05600 33.06100
H  17.87400 -2.92700 32.81700
H  19.44200 -0.79700 33.89200
H  20.14100 -1.07100 32.22800
H  19.89300 -2.42900 33.43900
H  15.97900 -2.58500 33.62400
H  14.87300 -1.40300 33.12000
H  15.30900 -1.75200 35.64700
H  14.81000 -0.23000 35.06900
H  20.14300 -6.20900 29.41500
H  20.94800 -4.89000 30.22600
H  21.65600 -5.44300 28.77300
H  20.87900 -6.93200 26.89500
H  21.98300 -5.49500 26.65600
H  21.50600 -6.78400 25.28000
H  17.30500 -1.82500 22.95200
H  16.29200 0.98600 23.59900
H  19.05300 0.22900 24.43500
H  18.30800 0.76100 23.03900
H  19.34900 -0.70100 22.93900
H  14.30800 -1.15000 24.00800
H  15.12400 -1.42100 22.44800
H  13.64400 -0.01100 21.43500
H  14.44800 1.28600 22.34700
H  13.01700 0.49700 22.99900
H  12.03000 2.11200 27.07400
H  13.31900 3.12900 26.80000
H  12.50800 3.25200 28.43400
H  14.07500 0.70900 32.48500
H  15.97600 3.36200 35.54500
H  15.69300 4.35500 34.12900
H  17.13200 3.30800 34.27300
Mg 49.71800 45.37700 43.16400
C  46.46900 45.97600 41.96000
C  49.72100 42.38200 41.37800
C  53.08600 45.17500 43.64200
C  49.80800 48.78300 44.16200
N  48.29000 44.42500 41.74900
C  47.02200 44.77300 41.54400
C  46.42700 43.90500 40.48200
C  47.18300 42.56100 40.71400
C  48.49200 43.12500 41.29400
C  46.42900 41.54100 41.58300
C  46.63900 44.61300 39.08000
C  45.38400 45.04100 38.22700
H  45.17100 44.19200 36.99100
N  51.20100 43.92300 42.67600
C  50.94700 42.73500 41.97800
C  52.19900 41.96800 41.85600
C  53.13800 42.74500 42.54600
C  52.54100 44.03200 42.93700
C  52.37100 40.73200 41.13500
C  54.48600 42.28100 42.84500
O  54.81600 41.10900 42.57500
C  55.53100 43.07600 43.64500
N  51.27000 46.75600 43.89200
C  52.55500 46.41200 44.06700
C  53.43600 47.64800 44.46900
C  52.31900 48.64700 44.80800
C  51.05800 48.05900 44.19100
C  54.43400 47.40000 45.68100
C  52.57000 50.07700 44.23700
C  52.29500 51.28400 45.09400
N  48.35500 47.07300 43.21800
C  48.54300 48.38800 43.67600
C  47.35600 49.12000 43.42400
C  46.47700 48.23300 42.81300
C  47.16900 46.99500 42.66000
C  47.35700 50.57700 43.70600
C  45.10500 48.10500 42.30400
O  44.19200 48.88700 42.21900
C  45.12200 46.65600 41.58500
C  43.87400 45.98700 42.12300
O  43.84100 45.30900 43.17900
O  42.77800 46.08700 41.25900
C  41.49900 45.43600 41.56200
H  49.68200 41.42300 40.85600
H  54.11700 45.15700 44.00200
H  49.80400 49.84300 44.42500
H  45.37000 43.76800 40.70700
H  47.51500 42.06800 39.80000
H  46.25500 40.62900 41.01200
H  45.47700 41.84700 42.01700
H  47.10100 41.25900 42.39300
H  47.32400 43.98500 38.50900
H  47.12600 45.58600 39.14100
H  45.42400 46.06600 37.85900
H  44.52800 44.87200 38.88100
H  52.15300 39.94800 41.86000
H  53.37900 40.59800 40.74200
H  51.63400 40.52200 40.36000
H  56.45200 42.49500 43.68800
H  55.03500 43.12200 44.61400
H  55.78500 44.04200 43.20900
H  54.00400 47.96100 43.59200
H  52.11400 48.71300 45.87700
H  55.36000 47.97100 45.75400
H  54.62300 46.33000 45.76300
H  54.03800 47.62000 46.67200
H  51.92000 50.16500 43.36600
H  53.58200 50.16300 43.84200
H  51.44200 51.87500 44.76000
H  53.08000 52.03700 45.16200
H  52.00000 51.04900 46.11700
H  47.62000 50.81700 44.73700
H  46.36500 50.90500 43.39500
H  48.01500 51.03400 42.96700
H  44.98100 46.82900 40.51800
H  40.82400 46.20500 41.93800
H  41.49100 44.66100 42.32800
H  41.06700 44.98100 40.67000

