158

Mg 30.11400 58.88100 38.25700
C  27.44200 56.54200 37.65500
C  32.18300 56.15300 38.13800
C  32.65100 61.07100 38.36700
C  27.79200 61.43900 38.12500
N  29.82100 56.53600 37.72700
C  28.65700 55.86400 37.65500
C  28.90500 54.33600 37.59300
C  30.51900 54.19500 37.80500
C  30.89700 55.69700 37.91600
C  30.83100 53.36700 39.02200
C  28.49600 53.60500 36.25000
C  29.12600 54.17700 34.88500
H  28.14900 54.72600 33.91400
N  32.13600 58.65500 38.21400
C  32.81500 57.42300 38.23600
C  34.26700 57.67800 38.30300
C  34.40700 59.13900 38.29600
C  33.01300 59.69100 38.30000
C  35.25500 56.52500 38.21300
C  35.80300 59.83400 38.30400
O  36.85400 59.24300 38.48100
C  35.77900 61.27000 38.29100
N  30.24100 60.93300 38.26500
C  31.38700 61.64300 38.43200
C  31.12500 63.19900 38.55000
C  29.61000 63.23000 38.60700
C  29.18000 61.78200 38.26200
C  31.91300 63.94300 39.66900
C  29.00300 64.35900 37.67900
C  27.92300 65.26100 38.18600
N  28.06700 59.02200 37.84100
C  27.26400 60.16300 37.84400
C  25.91600 59.77000 37.57800
C  25.93000 58.38500 37.53500
C  27.24200 57.96500 37.65400
C  24.74100 60.70500 37.31000
C  25.07900 57.25900 37.37400
O  23.84000 57.18400 37.20700
C  26.04200 56.06100 37.40700
C  25.59600 55.16900 38.51500
O  25.80300 55.35000 39.71200
O  24.95500 54.06700 38.02300
C  24.25100 53.31400 39.05900
H  32.86300 55.32400 37.92700
H  33.31800 61.93500 38.39600
H  27.09700 62.28100 38.10900
H  28.26400 53.79300 38.28800
H  31.05200 53.77200 36.95300
H  30.10800 52.56800 39.18500
H  30.94700 53.95300 39.93400
H  31.75600 52.86200 38.74500
H  27.41100 53.64600 36.15000
H  28.76600 52.55700 36.38100
H  29.53400 53.36200 34.28800
H  29.89200 54.92700 35.07900
H  35.34800 56.18600 37.18100
H  34.78500 55.71400 38.76900
H  36.20500 56.74900 38.69900
H  35.29200 61.65200 39.18800
H  35.20500 61.76100 37.50500
H  36.76200 61.71500 38.13200
H  31.48100 63.56600 37.58700
H  29.39500 63.47700 39.64700
H  32.52500 63.17300 40.13800
H  31.16800 64.40000 40.32100
H  32.55300 64.73500 39.28100
H  28.58900 63.88400 36.78900
H  29.80300 65.03700 37.38200
H  27.18700 65.63900 37.47600
H  28.21400 66.20200 38.65200
H  27.43600 64.67800 38.96800
H  23.96400 60.14600 36.78900
H  25.10700 61.40300 36.55700
H  24.40700 61.09200 38.27300
H  25.93000 55.61000 36.42100
H  23.73800 53.93600 39.79200
H  24.94100 52.60500 39.51600
H  23.40200 52.87600 38.53400
Mg -1.63200 35.06500 26.85900
C  -3.21400 33.64000 29.68500
C  -0.48500 37.55000 28.75400
C  -0.91500 36.67300 23.93600
C  -3.49900 32.67100 24.90100
N  -2.02200 35.53600 29.02900
C  -2.47100 34.78300 30.00600
C  -2.14400 35.33100 31.36500
C  -1.34600 36.68200 30.99100
C  -1.13200 36.51100 29.50000
C  -2.01300 38.01300 31.44600
C  -1.30200 34.28400 32.15900
C  -1.92600 33.86700 33.59300
H  -0.97300 34.13100 34.74300
N  -0.76600 36.85400 26.39900
C  -0.30500 37.72100 27.37800
C  0.36000 38.78700 26.69900
C  0.26500 38.55300 25.30700
C  -0.55800 37.33800 25.14000
C  0.90400 39.92300 27.47600
C  0.88200 39.34200 24.20400
O  0.76600 39.05300 23.04600
C  1.71800 40.51700 24.57400
N  -2.25600 34.70500 24.79300
C  -1.63900 35.45700 23.76400
C  -1.91400 34.87100 22.35600
C  -2.82000 33.66200 22.66300
C  -2.81900 33.62200 24.23100
C  -2.50200 35.88200 21.28500
C  -2.42300 32.40100 21.92900
C  -1.06900 31.76600 22.36700
N  -3.00300 33.41000 27.15200
C  -3.65100 32.63200 26.30000
C  -4.38400 31.64400 27.00600
C  -4.22400 31.96800 28.34100
C  -3.39700 33.11300 28.39000
C  -5.15700 30.56000 26.38000
C  -4.62500 31.50600 29.64700
O  -5.33800 30.60300 30.02700
C  -3.93200 32.57600 30.64700
C  -5.01000 33.14800 31.41800
O  -5.88100 33.93700 31.09000
O  -4.82200 32.67100 32.65900
C  -5.86800 32.91800 33.65900
H  -0.02400 38.27700 29.42700
H  -0.46600 37.04700 23.01400
H  -4.19100 31.99900 24.38800
H  -3.13500 35.49900 31.78600
H  -0.30800 36.79100 31.30500
H  -2.73100 37.96100 32.26400
H  -2.46700 38.43800 30.55100
H  -1.13800 38.57600 31.77000
H  -0.25900 34.58200 32.25900
H  -1.35800 33.36500 31.57600
H  -2.17700 32.80600 33.58600
H  -2.85700 34.37400 33.84500
H  1.00300 39.70800 28.54000
H  0.34100 40.85100 27.37300
H  1.93600 40.09400 27.17000
H  1.27200 41.29800 25.18900
H  2.03400 40.95200 23.62600
H  2.59300 40.14200 25.10600
H  -0.89200 34.61000 22.08100
H  -3.86300 33.81300 22.38800
H  -2.51400 36.79900 21.87400
H  -3.48800 35.50400 21.01600
H  -1.77700 35.79300 20.47500
H  -2.50800 32.68500 20.88000
H  -3.13100 31.58600 22.08200
H  -1.43200 30.75700 22.56000
H  -0.69700 32.20400 23.29300
H  -0.29100 31.74700 21.60400
H  -5.51100 29.77600 27.05000
H  -4.56300 30.10200 25.58900
H  -6.01500 30.92600 25.81700
H  -3.25200 31.99200 31.26700
H  -5.24900 33.08700 34.54000
H  -6.40800 31.98400 33.81400
H  -6.52500 33.75300 33.41600

