158

Mg 16.47000 -1.95000 28.30100
C  15.72000 0.14900 30.99900
C  18.54000 -3.79400 30.23400
C  17.86500 -3.55700 25.43300
C  14.99300 0.30900 26.15100
N  17.16900 -1.66700 30.35400
C  16.60700 -0.84800 31.28400
C  17.12200 -1.27500 32.68900
C  18.13300 -2.42600 32.42800
C  17.94800 -2.70900 30.92000
C  19.60900 -2.43300 32.87800
C  16.00700 -1.63600 33.68500
C  16.05400 -1.02800 35.12100
H  17.33200 -0.47900 35.64800
N  17.93900 -3.55300 27.87200
C  18.63900 -4.15500 28.90500
C  19.32800 -5.32500 28.35300
C  19.01100 -5.39500 26.94400
C  18.20300 -4.17000 26.68100
C  20.12200 -6.30700 29.23300
C  19.36200 -6.51600 26.02900
O  18.98500 -6.50800 24.86400
C  20.22700 -7.68000 26.51000
N  16.36000 -1.76000 26.11600
C  17.06900 -2.40700 25.20700
C  16.87500 -1.82400 23.77100
C  15.93100 -0.71100 23.99300
C  15.71100 -0.72400 25.49700
C  18.17900 -1.57700 22.89300
C  14.60100 -0.71000 23.12200
C  13.43000 -1.31700 23.78900
N  15.44100 -0.20800 28.50000
C  14.81100 0.58100 27.53700
C  14.01700 1.58100 28.16900
C  14.37900 1.48100 29.53600
C  15.26400 0.39100 29.68000
C  13.17300 2.65700 27.50400
C  14.15300 1.99100 30.91900
O  13.42200 2.89500 31.30600
C  15.06200 1.17500 31.88000
C  15.99700 2.13400 32.61600
O  16.93900 2.76400 32.20200
O  15.58000 2.15300 33.90900
C  16.16300 3.23700 34.75400
H  19.06700 -4.44400 30.93700
H  18.41100 -3.96900 24.58200
H  14.63000 1.16400 25.57600
H  17.76400 -0.47500 33.05900
H  17.71200 -3.33000 32.86700
H  20.25900 -2.12500 32.05900
H  19.94100 -3.37000 33.32500
H  19.63600 -1.66100 33.64700
H  15.88700 -2.71600 33.76300
H  15.02300 -1.30000 33.35700
H  15.73000 -1.83300 35.78200
H  15.28200 -0.27700 35.28500
H  21.14200 -6.27900 28.85100
H  19.76200 -7.33000 29.12600
H  20.22300 -6.03000 30.28200
H  20.31600 -8.39500 25.69200
H  19.95900 -8.21300 27.42200
H  21.21900 -7.33200 26.80100
H  16.37800 -2.70900 23.37400
H  16.44800 0.23500 23.83200
H  18.30300 -0.52700 22.62800
H  18.12500 -2.16200 21.97400
H  19.11900 -1.81100 23.39300
H  14.84500 -1.19900 22.17900
H  14.41400 0.32400 22.83200
H  13.62500 -2.19600 24.40200
H  12.74400 -1.63400 23.00400
H  12.97600 -0.56800 24.43800
H  12.13500 2.32300 27.47500
H  13.62200 2.82500 26.52500
H  13.22900 3.52400 28.16200
H  14.34700 0.67000 32.52900
H  15.92200 4.16900 34.24300
H  17.22400 3.10800 34.96800
H  15.68200 3.28100 35.73200
Mg 47.17400 16.63900 27.57400
C  45.27600 16.66100 30.55600
C  49.77400 18.21300 29.43100
C  48.85200 17.24700 24.66500
C  44.46400 15.57300 25.88700
N  47.50700 17.40300 29.75900
C  46.58800 17.10300 30.80100
C  47.17300 17.61900 32.10200
C  48.43800 18.36800 31.70300
C  48.60100 17.99100 30.15900
C  48.56600 19.87500 32.06400
C  47.37900 16.47800 33.22600
C  46.73900 16.65300 34.58900
H  46.93500 17.98200 35.31700
N  49.06400 17.39500 27.11200
C  50.01600 17.92200 27.98600
C  51.30900 18.17600 27.33100
C  51.02900 17.96200 25.90800
C  49.57900 17.48200 25.79400
C  52.53700 18.58800 28.01100
C  52.02600 18.04700 24.78300
O  51.79800 17.91600 23.58600
C  53.48800 18.45300 25.06100
N  46.53400 16.70900 25.50800
C  47.46000 16.82100 24.48900
C  46.88400 16.49100 23.18400
C  45.60700 15.74900 23.59900
C  45.49300 16.00400 25.08300
C  46.69100 17.76100 22.25100
C  45.56500 14.25800 23.24200
C  44.73100 13.81900 22.08100
N  45.27200 16.16800 28.05800
C  44.28000 15.68700 27.23700
C  43.07200 15.37700 27.94600
C  43.47000 15.73100 29.33000
C  44.80200 16.22400 29.29400
C  41.69900 14.94100 27.41300
C  42.96300 15.71100 30.68600
O  41.89300 15.28700 31.06500
C  44.26500 16.22200 31.57900
C  43.73900 17.29900 32.35400
O  43.73700 18.47200 32.02300
O  43.27100 16.83800 33.52900
C  42.63300 17.82100 34.49900
H  50.60100 18.68500 29.96400
H  49.40200 17.30900 23.72300
H  43.69000 15.11300 25.27000
H  46.37600 18.26200 32.47400
H  49.38400 18.02200 32.12000
H  48.34900 20.48900 31.19000
H  49.54700 20.09600 32.48400
H  47.90800 20.17700 32.87900
H  48.44300 16.25100 33.29900
H  46.87900 15.58300 32.85600
H  47.12700 15.90600 35.28200
H  45.69100 16.35300 34.59600
H  53.25900 17.77800 27.90500
H  52.35600 18.60800 29.08500
H  52.99500 19.49400 27.61400
H  54.05400 18.31600 24.14000
H  53.91200 17.82800 25.84700
H  53.53400 19.48200 25.41700
H  47.46100 15.69800 22.70800
H  44.70200 16.22400 23.22100
H  45.64400 17.75800 21.94800
H  47.31300 17.68800 21.35900
H  46.83800 18.65400 22.85800
H  45.35500 13.62200 24.10200
H  46.60600 13.97100 23.09200
H  44.18200 12.89400 22.26100
H  45.39900 13.61600 21.24400
H  43.99100 14.61600 22.00800
H  41.00300 15.57900 27.95600
H  41.56300 13.86200 27.49300
H  41.59800 15.16700 26.35100
H  44.64000 15.35800 32.12800
H  41.66700 18.09000 34.07200
H  43.22500 18.73500 34.54700
H  42.47000 17.41200 35.49600

