158

Mg 1.54600 -1.59000 43.64100
C  4.90800 -0.79100 42.76600
C  0.54600 1.20100 41.97000
C  -1.57700 -2.76000 43.99400
C  2.74200 -4.82900 44.76700
N  2.63800 -0.09100 42.37300
C  3.96100 0.17600 42.32000
C  4.27500 1.47300 41.67300
C  2.89800 2.20300 41.57400
C  1.94300 1.00700 41.94800
C  2.59900 3.45200 42.40800
C  4.95800 1.40800 40.27900
C  4.64900 0.16900 39.42100
H  4.41300 0.34300 37.87000
N  -0.26800 -0.84700 43.19400
C  -0.48300 0.36700 42.54500
C  -1.89100 0.49400 42.22300
C  -2.57400 -0.62200 42.83200
C  -1.48400 -1.45600 43.40400
C  -2.39600 1.54100 41.33600
C  -4.08600 -0.86200 42.79100
O  -4.78900 0.01600 42.31800
C  -4.76900 -1.95000 43.59100
N  0.71700 -3.58700 44.15800
C  -0.66800 -3.65800 44.37600
C  -1.02200 -5.06100 44.93600
C  0.42800 -5.82200 45.06500
C  1.33400 -4.66100 44.65700
C  -2.08600 -5.22700 46.01700
C  0.61500 -7.04100 44.17000
C  1.26400 -8.20800 44.91800
N  3.43900 -2.56500 43.94600
C  3.75500 -3.83400 44.44700
C  5.17000 -3.98800 44.41400
C  5.64800 -2.79300 43.77500
C  4.55300 -1.98600 43.54100
C  5.78700 -5.24900 44.77300
C  6.79400 -2.15400 43.28100
O  7.99200 -2.41800 43.33900
C  6.39700 -0.83700 42.61600
C  7.06900 0.31500 43.07900
O  7.82900 1.00600 42.40800
O  6.93800 0.39000 44.45600
C  7.67400 1.43300 45.17300
H  0.19400 2.12900 41.51300
H  -2.57600 -3.18700 44.10800
H  3.14100 -5.75300 45.19300
H  5.01400 1.96800 42.30400
H  2.56000 2.39000 40.55500
H  3.37600 3.65400 43.14500
H  1.62900 3.19900 42.83500
H  2.36600 4.21100 41.66100
H  6.03800 1.33500 40.40500
H  4.68300 2.28900 39.69800
H  3.69000 -0.26200 39.71000
H  5.33300 -0.67200 39.53800
H  -3.46600 1.57200 41.12800
H  -1.81700 1.44600 40.41700
H  -2.20800 2.51100 41.79700
H  -5.84500 -1.95500 43.42000
H  -4.50200 -2.01900 44.64600
H  -4.32300 -2.75900 43.01300
H  -1.50700 -5.60200 44.12400
H  0.66600 -6.04800 46.10400
H  -2.84200 -5.96800 45.75700
H  -2.62100 -4.28400 46.13400
H  -1.56300 -5.50600 46.93100
H  1.27400 -6.79000 43.33800
H  -0.28700 -7.40300 43.67800
H  1.18700 -8.00500 45.98600
H  2.31900 -8.26300 44.64900
H  0.75700 -9.16800 44.82200
H  5.81900 -5.81000 43.83900
H  5.42100 -5.86000 45.59900
H  6.75200 -4.89500 45.13500
H  6.68100 -0.97500 41.57300
H  8.17000 2.23400 44.62500
H  8.50200 0.87700 45.61100
H  7.13600 1.91700 45.98800
Mg 27.88900 51.40900 26.26800
C  25.79400 52.49700 28.98200
C  30.31300 50.72200 28.60500
C  29.92600 50.74400 23.72000
C  25.58100 52.83500 24.08500
N  27.94100 51.43400 28.42000
C  26.98900 51.89800 29.32600
C  27.54600 51.80600 30.83600
C  28.98300 51.30000 30.70200
C  29.10600 51.12700 29.13600
C  30.01100 52.34100 31.34800
C  26.49800 50.91900 31.67600
C  27.07300 50.27200 32.90200
H  26.69200 50.72800 34.33900
N  29.74200 50.61400 26.18900
C  30.58100 50.44400 27.25300
C  31.79200 49.87100 26.80200
C  31.65500 49.66200 25.38100
C  30.46100 50.42200 25.00500
C  32.91900 49.51000 27.79600
C  32.60600 49.00700 24.43400
O  32.52900 48.97900 23.19500
C  33.86200 48.37400 24.94200
N  27.78900 51.82900 24.19500
C  28.78400 51.44800 23.31600
C  28.51200 51.87800 21.90100
C  27.11100 52.53300 22.08300
C  26.77200 52.41000 23.53700
C  29.66300 52.82600 21.32300
C  25.99000 52.02400 21.13000
C  25.79600 52.84400 19.84100
N  26.01900 52.35100 26.43800
C  25.20900 52.83700 25.49300
C  23.90900 53.33200 26.05800
C  24.12800 53.18000 27.44600
C  25.41300 52.63900 27.62300
C  22.76300 53.96700 25.28100
C  23.52500 53.39200 28.77400
O  22.45200 53.90500 29.12600
C  24.57300 52.90300 29.76600
C  24.86800 53.95100 30.63900
O  25.86900 54.67500 30.52600
O  24.06700 53.87200 31.76500
C  24.53600 54.49300 32.98900
H  31.02900 50.56700 29.41400
H  30.67500 50.48700 22.96800
H  24.80400 53.25200 23.44000
H  27.39700 52.76300 31.33600
H  29.26200 50.33300 31.12200
H  30.54800 51.81900 32.14000
H  29.47900 53.14700 31.85400
H  30.77000 52.68200 30.64500
H  26.01600 50.29800 30.92000
H  25.75300 51.61800 32.05500
H  28.10200 50.63200 32.92100
H  27.01400 49.18400 32.92500
H  32.85000 48.45800 28.07300
H  33.03600 50.12500 28.68800
H  33.80400 49.75100 27.20800
H  33.57600 47.65900 25.71400
H  34.47600 49.18900 25.32500
H  34.47400 47.92500 24.16000
H  28.37000 50.99300 21.28100
H  27.20800 53.60500 21.91300
H  29.45500 53.85200 21.01900
H  30.01700 52.30300 20.43500
H  30.44000 52.81500 22.08700
H  24.98100 52.02900 21.54300
H  26.27800 51.05500 20.72400
H  24.74400 52.79900 19.55800
H  26.23800 52.33700 18.98400
H  26.19100 53.86000 19.84900
H  21.79300 53.83000 25.75700
H  22.85700 53.67600 24.23500
H  22.92300 55.04500 25.30400
H  24.17200 52.07200 30.34700
H  25.19300 55.32400 32.73300
H  24.94300 53.78600 33.71200
H  23.68000 54.92700 33.50500

