158

Mg 43.67300 42.44800 26.68200
C  42.58900 44.70400 29.09700
C  45.08600 40.41200 29.06000
C  44.91000 40.41000 24.21400
C  42.74900 44.70200 24.20000
N  43.71300 42.51000 28.78600
C  43.19800 43.55100 29.61600
C  43.34000 43.17800 31.10700
C  44.48100 42.05700 31.00600
C  44.48300 41.63400 29.52300
C  45.94600 42.56900 31.39100
C  42.01100 42.87500 31.78800
C  41.70100 43.67300 33.06300
H  42.49400 43.40700 34.30200
N  44.75300 40.53800 26.64400
C  45.28300 39.94800 27.75200
C  45.83300 38.63400 27.36100
C  45.69400 38.52400 25.89700
C  45.12800 39.85300 25.51500
C  46.27100 37.58400 28.34100
C  45.96800 37.34900 24.94900
O  45.80600 37.44000 23.70500
C  46.49800 36.00600 25.51100
N  44.01600 42.66700 24.56800
C  44.50900 41.65100 23.76100
C  44.32800 42.02900 22.23300
C  43.72000 43.40800 22.31400
C  43.41300 43.60000 23.80000
C  45.63400 41.86300 21.42400
C  42.60900 43.78500 21.25600
C  41.23400 43.11700 21.40300
N  42.75200 44.30800 26.57400
C  42.50500 45.17200 25.52100
C  41.96700 46.38400 25.96100
C  41.96800 46.29400 27.42400
C  42.45500 44.98800 27.73500
C  41.75000 47.61400 25.19200
C  41.66700 46.91100 28.71400
O  41.19000 48.03500 28.96400
C  42.14000 45.95400 29.84200
C  43.13600 46.60900 30.67600
O  44.33700 46.63400 30.33500
O  42.60700 47.16900 31.84100
C  43.49200 47.94000 32.69700
H  45.49600 39.75300 29.82800
H  45.32800 39.71200 23.48500
H  42.44200 45.36500 23.38900
H  43.73400 44.01800 31.67900
H  44.30200 41.23800 31.70300
H  46.05000 43.63000 31.61700
H  46.57100 42.41800 30.51100
H  46.49200 41.98200 32.12900
H  42.02800 41.82700 32.08700
H  41.21200 43.02800 31.06300
H  40.64700 43.58700 33.32700
H  41.86900 44.69700 32.72800
H  45.50400 36.82300 28.48600
H  46.65500 38.09300 29.22500
H  47.12800 37.11100 27.86200
H  45.93300 35.56000 26.33000
H  47.49000 36.20300 25.91800
H  46.60600 35.30900 24.68000
H  43.52200 41.48100 21.74600
H  44.52600 44.11400 22.11400
H  45.33100 41.74500 20.38300
H  46.23300 41.11000 21.93400
H  46.15500 42.82100 21.41600
H  43.07900 43.50800 20.31200
H  42.46900 44.86500 21.22100
H  40.93300 42.71200 20.43700
H  40.48300 43.83900 21.72300
H  41.27400 42.35800 22.18500
H  42.66800 48.15500 24.96200
H  41.08800 48.33300 25.67500
H  41.28100 47.16600 24.31600
H  41.20000 45.90500 30.39100
H  44.49000 48.00200 32.26300
H  43.44900 47.51200 33.69900
H  43.07200 48.93100 32.87000
Mg 27.39200 50.41200 26.84200
C  25.09800 50.97000 29.44500
C  29.78700 49.78300 29.30500
C  29.53500 49.73700 24.40000
C  24.92700 51.48000 24.58400
N  27.41400 50.52800 29.08200
C  26.36100 50.67700 29.95100
C  26.74000 50.52000 31.40000
C  28.34100 50.38900 31.31700
C  28.55800 50.23500 29.76800
C  29.24600 51.51700 31.92000
C  25.98200 49.33800 32.13200
C  25.33400 49.73000 33.53200
H  25.67800 48.80200 34.71000
N  29.37500 49.92900 26.85900
C  30.21500 49.61000 28.02000
C  31.52800 49.21500 27.49900
C  31.48600 49.32500 26.06200
C  30.08600 49.58800 25.67100
C  32.74000 48.86400 28.37100
C  32.61400 49.26800 25.03500
O  32.47600 49.35100 23.79100
C  33.98200 49.06100 25.56500
N  27.30000 50.90100 24.83100
C  28.28600 50.36200 24.01800
C  27.92800 50.47200 22.55200
C  26.43000 50.86600 22.63000
C  26.20900 51.18000 24.08900
C  28.81700 51.54000 21.78200
C  25.46100 49.80600 22.02200
C  25.06600 48.63900 22.87900
N  25.51000 51.23500 26.95900
C  24.61700 51.50000 25.98500
C  23.32700 51.84200 26.50800
C  23.50300 51.66900 27.84500
C  24.81100 51.22400 28.09000
C  22.11100 52.33500 25.71800
C  22.76100 51.73100 29.10900
O  21.65000 52.13900 29.31700
C  23.83500 51.36800 30.21300
C  24.08900 52.51300 31.23200
O  24.66100 53.52900 31.02000
O  23.45000 52.13200 32.40800
C  23.46800 53.13600 33.54500
H  30.60300 49.60000 30.00700
H  30.23700 49.42300 23.62500
H  24.17500 51.76300 23.84500
H  26.55400 51.46900 31.90200
H  28.61000 49.44800 31.79800
H  29.72500 51.15200 32.82800
H  28.55000 52.32000 32.16400
H  29.95400 51.77700 31.13300
H  26.63100 48.46600 32.21900
H  25.22000 48.85100 31.52300
H  24.28000 49.93300 33.34100
H  25.76400 50.70200 33.77500
H  33.06500 47.88400 28.02300
H  32.44300 48.88800 29.41900
H  33.61300 49.49500 28.20500
H  34.66100 48.93400 24.72100
H  34.04600 48.16700 26.18400
H  34.26500 49.96100 26.11100
H  28.10900 49.44000 22.25300
H  26.27000 51.84100 22.16900
H  29.74600 51.73300 22.31900
H  28.27600 52.47000 21.60800
H  29.12800 51.05000 20.85900
H  26.09300 49.46200 21.20400
H  24.55800 50.25400 21.60800
H  25.23700 48.69400 23.95500
H  25.48100 47.72500 22.45600
H  23.99000 48.49300 22.79100
H  22.26500 52.19900 24.64800
H  21.99700 53.40600 25.88400
H  21.24900 51.78600 26.09500
H  23.46000 50.49600 30.74800
H  24.27900 52.75800 34.16600
H  22.58400 53.13900 34.18300
H  23.81000 54.13900 33.28700

