158

Mg 43.82100 3.72200 47.06200
C  41.92900 6.76100 47.13800
C  40.97400 2.01700 46.94400
C  45.76000 1.07800 46.66700
C  46.76100 5.82900 46.82700
N  41.69900 4.35300 47.00700
C  41.13200 5.61300 47.08400
C  39.64100 5.46000 47.26700
C  39.38300 3.87500 47.49800
C  40.74700 3.36500 47.09300
C  39.07600 3.57400 48.97400
C  38.76100 6.00000 46.05200
C  39.20500 5.53600 44.58100
H  39.35200 6.72300 43.62100
N  43.42700 1.84100 46.76000
C  42.16000 1.33900 46.72000
C  42.31700 -0.16200 46.60300
C  43.68500 -0.55200 46.60800
C  44.36800 0.85600 46.68700
C  41.04300 -1.07800 46.49800
C  44.23100 -1.99200 46.58400
O  43.56900 -2.99700 46.32400
C  45.67400 -2.18000 46.76700
N  45.95800 3.44200 46.76800
C  46.53800 2.24100 46.61000
C  48.09400 2.26200 46.53300
C  48.35900 3.81500 46.36400
C  46.93800 4.41300 46.64000
C  48.75000 1.75500 47.79800
C  48.87500 4.28500 45.00000
C  49.77700 3.47800 44.06000
N  44.34000 5.91400 46.99000
C  45.55100 6.55700 46.92100
C  45.24600 7.97700 46.99200
C  43.86300 8.12700 47.09700
C  43.35800 6.89200 47.03800
C  46.30600 9.07000 46.94000
C  42.77600 9.11800 47.14000
O  42.74400 10.32500 47.04000
C  41.53400 8.26600 47.23600
C  40.78500 8.58000 48.46800
O  40.87800 7.98300 49.52500
O  39.94200 9.64500 48.30600
C  38.97300 9.91500 49.37500
H  40.12400 1.33200 46.94700
H  46.28400 0.16400 46.37800
H  47.64900 6.44900 46.68500
H  39.30800 6.05800 48.11500
H  38.59400 3.42300 46.89600
H  39.90800 3.07100 49.46500
H  38.24000 2.87800 48.90400
H  38.82700 4.48500 49.52000
H  38.70200 7.08400 46.14500
H  37.74200 5.61700 46.08900
H  38.44400 4.85600 44.19700
H  40.17000 5.03300 44.62800
H  40.34500 -0.86700 47.30800
H  41.13300 -2.14000 46.26800
H  40.53600 -0.65800 45.63000
H  45.93900 -1.54500 47.61300
H  46.17600 -2.03000 45.81100
H  45.82000 -3.16400 47.21200
H  48.48800 1.65800 45.71600
H  49.08800 4.25900 47.04200
H  49.42100 0.96700 47.45700
H  47.98600 1.37400 48.47600
H  49.30300 2.46500 48.41200
H  49.42400 5.21800 45.12900
H  48.04700 4.66100 44.40000
H  49.43900 3.75200 43.06100
H  49.61300 2.41700 44.25000
H  50.81400 3.73800 44.27600
H  46.51000 9.55600 47.89400
H  46.00900 9.89800 46.29600
H  47.22000 8.62100 46.55000
H  40.94300 8.52400 46.35800
H  38.93800 10.96200 49.67400
H  39.09900 9.34500 50.29600
H  37.99900 9.75300 48.91400
Mg 41.68900 41.50500 26.98500
C  41.12200 43.80600 29.65800
C  42.37500 39.19500 29.52200
C  42.31700 39.29600 24.59700
C  40.87000 43.97500 24.73500
N  41.73200 41.56500 29.37700
C  41.34700 42.58000 30.17500
C  41.34700 42.19000 31.63100
C  41.98100 40.70500 31.58800
C  42.02500 40.45900 30.00900
C  43.45500 40.54300 32.17900
C  39.91500 42.23200 32.27000
C  39.69300 43.02800 33.57900
H  39.03200 42.41100 34.79800
N  42.41300 39.56400 27.09300
C  42.63000 38.77000 28.13700
C  43.22900 37.59000 27.71000
C  43.15500 37.53200 26.28100
C  42.58900 38.82600 25.92800
C  43.63500 36.48300 28.63400
C  43.53600 36.37400 25.33600
O  43.43500 36.41200 24.12200
C  44.36700 35.20900 25.84800
N  41.59000 41.58200 24.98000
C  41.89800 40.52900 24.18800
C  41.78900 40.96200 22.66900
C  41.12500 42.36000 22.71000
C  41.14000 42.69100 24.20300
C  43.20300 40.94100 22.00900
C  39.68300 42.38100 22.08700
C  38.54000 41.49700 22.81300
N  41.27300 43.43500 27.06200
C  41.01100 44.38400 26.06200
C  40.83200 45.68800 26.60700
C  40.82100 45.47600 28.00800
C  41.15000 44.14000 28.23800
C  40.66600 46.91000 25.86300
C  40.57600 46.18000 29.24400
O  40.20200 47.31900 29.41000
C  40.73500 45.09400 30.37400
C  41.69500 45.61300 31.47500
O  42.93100 45.63200 31.33400
O  41.01800 46.15600 32.55100
C  41.84800 46.62100 33.60600
H  42.60300 38.41900 30.25600
H  42.51400 38.47200 23.90900
H  40.70500 44.82400 24.06900
H  41.90900 43.01800 32.06500
H  41.36200 39.96400 32.09500
H  43.59300 41.33000 32.92000
H  44.25700 40.64800 31.44800
H  43.53000 39.56200 32.64900
H  39.70000 41.21700 32.60600
H  39.21500 42.44400 31.46200
H  39.07700 43.86200 33.24100
H  40.67500 43.39300 33.88100
H  44.54800 35.94900 28.36900
H  42.92000 35.66900 28.75800
H  43.92100 36.88900 29.60400
H  45.30500 35.61800 26.22100
H  44.54000 34.45900 25.07500
H  43.80800 34.81700 26.69800
H  41.10800 40.23100 22.23400
H  41.78700 42.98600 22.11200
H  43.65300 41.91700 21.82500
H  43.06800 40.49900 21.02200
H  43.95900 40.36000 22.53700
H  39.72300 42.07500 21.04200
H  39.37900 43.42800 22.07100
H  38.03700 40.88800 22.06200
H  37.79100 42.20100 23.17500
H  38.90600 40.80900 23.57500
H  41.31100 46.76000 24.99700
H  40.82400 47.83800 26.41200
H  39.60200 46.82400 25.64300
H  39.78100 45.10100 30.90200
H  42.86800 46.85800 33.30100
H  41.85200 46.06800 34.54500
H  41.38100 47.59600 33.74200

