158

Mg 5.94100 55.92800 41.64000
C  5.91300 52.33200 41.61500
C  9.08500 55.82100 40.40600
C  5.90300 59.24700 41.70400
C  2.78200 55.85700 43.09000
N  7.21000 54.25400 40.92700
C  7.03200 52.86800 40.84600
C  8.13900 52.10600 40.12000
C  9.24000 53.19800 40.14400
C  8.49000 54.52800 40.52200
C  10.40300 52.88000 41.11600
C  7.55000 51.68500 38.70500
C  8.03000 50.39700 38.00100
H  7.15700 49.90600 36.87600
N  7.27300 57.35400 40.99700
C  8.55800 57.07100 40.64400
C  9.29000 58.36200 40.54800
C  8.31800 59.40300 40.61300
C  7.07100 58.67000 41.19400
C  10.77300 58.52800 40.35000
C  8.45800 60.91700 40.32800
O  9.56100 61.33300 39.95200
C  7.32300 61.93400 40.37800
N  4.40900 57.36600 41.94900
C  4.69000 58.66600 42.03300
C  3.39000 59.47300 42.33600
C  2.45800 58.31000 42.91200
C  3.26400 57.07800 42.66100
C  3.64600 60.65300 43.28700
C  1.02300 58.21900 42.21900
C  -0.15100 58.13700 43.18200
N  4.45100 54.44700 42.08100
C  3.31000 54.56500 42.84400
C  2.88400 53.28900 43.24400
C  3.83100 52.35500 42.76200
C  4.82700 53.09300 42.07600
C  1.66500 52.96900 44.08900
C  4.24600 50.92100 42.72300
O  3.68800 49.96400 43.27200
C  5.61400 50.90700 42.00900
C  5.46700 49.87500 40.97000
O  4.64700 49.91100 40.06700
O  6.35400 48.86600 41.20100
C  6.18900 47.77900 40.22800
H  10.14700 55.81500 40.14900
H  6.04500 60.32700 41.78300
H  1.80800 55.89500 43.58200
H  8.47300 51.30600 40.78100
H  9.69700 53.26700 39.15800
H  10.43800 51.80300 41.27800
H  10.23800 53.50100 41.99600
H  11.35300 53.20700 40.69100
H  7.77000 52.55300 38.08300
H  6.46600 51.60100 38.62900
H  8.22000 49.65200 38.77300
H  8.97800 50.63300 37.51800
H  11.15300 59.30300 41.01500
H  10.94400 59.02600 39.39500
H  11.42100 57.68200 40.57800
H  7.25600 62.26600 41.41400
H  6.35500 61.48400 40.15700
H  7.50200 62.76500 39.69500
H  2.98900 59.91900 41.42600
H  2.48200 58.49900 43.98500
H  2.74700 60.80500 43.88400
H  3.83600 61.51800 42.65100
H  4.53300 60.58400 43.91500
H  1.07300 57.36100 41.54800
H  0.79800 59.10000 41.61800
H  -0.83100 58.98400 43.08700
H  0.15700 58.09100 44.22700
H  -0.65800 57.20200 42.94500
H  0.88700 52.60400 43.41900
H  1.10800 53.75900 44.59400
H  1.89000 52.11400 44.72700
H  6.28400 50.46100 42.74400
H  6.94400 47.98600 39.47000
H  5.25400 47.74600 39.67000
H  6.40700 46.76300 40.55600
Mg -0.69100 44.01900 24.87500
C  1.75000 43.24900 27.28600
C  -3.14800 43.25100 27.26800
C  -2.94700 44.55600 22.53200
C  1.80500 44.43300 22.59000
N  -0.66600 43.22300 26.94400
C  0.44000 43.05200 27.74900
C  0.01900 42.93900 29.17600
C  -1.51700 42.65400 29.12200
C  -1.82500 42.99400 27.67000
C  -1.92400 41.23600 29.49100
C  0.30900 44.32500 29.92500
C  1.03100 44.12600 31.32400
H  0.69600 42.81500 32.07100
N  -2.78200 43.96100 24.93200
C  -3.61600 43.62400 25.99400
C  -5.00100 43.79400 25.51500
C  -4.96400 44.20800 24.18400
C  -3.51600 44.26700 23.81100
C  -6.15600 43.51600 26.44700
C  -6.10500 44.50700 23.15000
O  -5.92200 44.86100 21.96100
C  -7.49800 44.44800 23.66400
N  -0.55200 44.40700 22.79800
C  -1.58200 44.52700 22.02200
C  -1.30400 44.76000 20.53000
C  0.28000 44.87900 20.63100
C  0.56700 44.55600 22.08600
C  -1.84600 43.46700 19.71000
C  0.81000 46.26000 20.18600
C  1.14500 47.30700 21.33300
N  1.29000 43.81000 24.88400
C  2.15500 44.00600 23.85800
C  3.54200 43.87500 24.38000
C  3.44300 43.64300 25.72300
C  2.05400 43.57500 25.95200
C  4.83500 44.04800 23.57600
C  4.15600 43.42100 26.93100
O  5.37700 43.29600 27.09400
C  3.05800 43.27400 27.99000
C  3.35000 42.03400 28.75500
O  2.95600 40.93600 28.39900
O  4.30800 42.25000 29.70400
C  4.67200 41.17800 30.65000
H  -3.85900 43.04600 28.07000
H  -3.66000 44.60000 21.70600
H  2.66500 44.54400 21.92600
H  0.48700 42.10600 29.70100
H  -2.06900 43.25600 29.84300
H  -2.59800 40.93900 28.68800
H  -2.34700 41.11900 30.48800
H  -1.11200 40.51500 29.38900
H  -0.61900 44.87900 30.06700
H  0.91500 45.00500 29.32500
H  0.74100 44.91200 32.02200
H  2.10900 44.15100 31.16500
H  -6.78500 42.86000 25.84600
H  -6.64500 44.47600 26.61800
H  -5.93100 43.09400 27.42700
H  -8.23700 44.94500 23.03500
H  -7.55400 44.93000 24.64000
H  -7.76400 43.39600 23.76500
H  -1.77700 45.67300 20.16700
H  0.78700 44.14600 20.00400
H  -1.91900 42.57700 20.33500
H  -1.12700 43.20300 18.93500
H  -2.75600 43.71000 19.16000
H  0.18800 46.77800 19.45500
H  1.76600 46.09200 19.69000
H  1.26600 48.33400 20.98800
H  2.08900 46.86500 21.65300
H  0.43600 47.31700 22.16100
H  4.69600 43.36900 22.73500
H  5.75700 43.71600 24.05300
H  4.85200 45.05900 23.16800
H  3.13200 44.14400 28.64300
H  5.23700 40.39400 30.14500
H  3.77500 40.79900 31.13900
H  5.33900 41.60900 31.39700

