158

Mg 6.80600 54.55000 41.68000
C  5.76800 51.29200 41.23200
C  9.89900 53.67700 40.41400
C  7.53900 57.76200 41.48400
C  3.39200 55.45200 42.56600
N  7.63400 52.73900 40.82100
C  7.07000 51.44000 40.83200
C  8.06600 50.39300 40.17500
C  9.42200 51.17400 40.32900
C  8.95000 52.66100 40.52600
C  10.33100 50.59500 41.43800
C  7.71900 50.03600 38.62300
C  7.07600 51.08900 37.78600
H  6.67600 50.65400 36.35600
N  8.50300 55.57500 41.12300
C  9.66600 55.05300 40.50900
C  10.54600 56.11600 40.19100
C  9.94200 57.31500 40.57200
C  8.59100 56.93600 41.13100
C  11.93700 55.86600 39.57100
C  10.68600 58.72300 40.52600
O  11.86100 58.83000 40.09700
C  10.07900 59.92200 41.17500
N  5.61800 56.35000 42.09100
C  6.27200 57.56200 41.99300
C  5.26200 58.72700 42.13800
C  3.85400 57.98700 42.51000
C  4.24500 56.50100 42.39900
C  5.78600 59.78600 43.14200
C  2.62200 58.32800 41.53700
C  1.34700 58.77000 42.28200
N  4.99500 53.61500 42.03900
C  3.73100 54.07900 42.43900
C  2.87800 52.91400 42.61200
C  3.65400 51.80500 42.18200
C  4.90300 52.29900 41.71400
C  1.43000 52.80200 43.06400
C  3.63600 50.41500 42.08800
O  2.78800 49.62000 42.52500
C  4.98000 49.96700 41.39400
C  4.49500 49.39600 40.11000
O  3.76400 49.84400 39.25200
O  5.02300 48.12300 40.02300
C  4.43100 47.32900 38.92000
H  10.90800 53.35700 40.14800
H  7.86200 58.79200 41.32000
H  2.38100 55.70500 42.89400
H  7.97500 49.51200 40.81000
H  10.08800 51.16700 39.46700
H  11.27600 50.27000 41.00300
H  9.75800 49.75100 41.82300
H  10.41600 51.35200 42.21700
H  7.03600 49.19000 38.69900
H  8.56300 49.61200 38.07900
H  7.78900 51.91200 37.72200
H  6.15400 51.44100 38.25000
H  12.12300 56.72100 38.92100
H  12.04100 54.96700 38.96200
H  12.69600 55.78200 40.34800
H  9.16000 60.13100 40.62900
H  10.84500 60.69600 41.12700
H  9.91400 59.66900 42.22300
H  5.24900 59.21200 41.16200
H  3.51000 58.17200 43.52800
H  6.79500 59.64900 43.53000
H  5.00800 59.85300 43.90200
H  5.84600 60.73200 42.60400
H  2.34700 57.44400 40.96100
H  2.97100 59.15300 40.91700
H  0.53500 58.06800 42.09500
H  0.99000 59.72700 41.90200
H  1.48900 58.83100 43.36100
H  1.06400 53.82700 43.12200
H  1.37600 52.31100 44.03600
H  0.94700 52.18100 42.30900
H  5.54300 49.27000 42.01400
H  4.72800 46.30800 39.16000
H  5.22100 47.55100 38.20300
H  3.41500 47.62000 38.65300
Mg -12.30800 38.75400 42.16000
C  -10.01900 36.40700 40.85200
C  -10.60500 41.13700 40.68500
C  -14.93500 40.81300 42.67200
C  -14.33100 36.03300 43.25300
N  -10.50700 38.70400 40.90100
C  -9.74700 37.71400 40.47000
C  -8.63100 38.17300 39.60000
C  -8.59200 39.69700 40.01400
C  -10.03900 39.87900 40.51700
C  -7.42700 40.08600 40.97400
C  -9.03300 37.74700 38.12400
C  -7.94600 37.08500 37.30700
H  -7.30400 37.77200 36.18200
N  -12.65500 40.73200 41.79500
C  -11.81400 41.54200 41.22000
C  -12.26000 42.91900 41.40500
C  -13.54300 42.84700 41.95700
C  -13.77800 41.42900 42.18600
C  -11.40300 44.13700 41.03000
C  -14.40900 44.05600 42.22900
O  -14.12300 45.18300 41.79600
C  -15.68900 44.01100 42.90500
N  -14.40400 38.45300 42.73600
C  -15.20400 39.47300 43.03600
C  -16.60700 39.03600 43.59600
C  -16.28300 37.53800 43.74000
C  -14.91300 37.30200 43.25000
C  -17.02800 39.80000 44.88000
C  -17.49900 36.71700 43.14400
C  -17.34100 36.29600 41.73300
N  -12.26900 36.64900 42.01100
C  -13.08200 35.70100 42.62300
C  -12.53500 34.38900 42.36400
C  -11.38000 34.63800 41.62500
C  -11.22300 36.03200 41.52300
C  -12.85500 33.05000 42.88600
C  -10.24100 33.98700 40.94100
O  -10.01500 32.79300 40.87200
C  -9.27000 35.13300 40.44800
C  -7.93100 34.88900 41.14500
O  -7.78200 34.98600 42.34200
O  -6.91500 34.60500 40.25700
C  -5.64800 34.07400 40.83400
H  -9.90900 41.91100 40.35600
H  -15.72500 41.53100 42.90100
H  -14.86000 35.15100 43.62100
H  -7.73000 37.69000 39.97900
H  -8.51600 40.24700 39.07700
H  -6.51300 39.49200 40.97700
H  -7.90400 40.19100 41.94900
H  -7.03800 41.02500 40.58000
H  -9.31800 38.61700 37.53300
H  -9.85600 37.04100 38.23300
H  -8.45500 36.19900 36.92800
H  -7.23700 36.76700 38.07200
H  -11.92000 44.46200 40.12700
H  -10.34100 43.96800 40.85300
H  -11.36000 44.98800 41.71000
H  -16.52800 43.76200 42.25500
H  -15.94200 44.92800 43.43700
H  -15.60000 43.37900 43.78900
H  -17.38000 39.18600 42.84200
H  -16.29700 37.25100 44.79200
H  -17.65600 40.65000 44.61600
H  -16.24500 40.23800 45.49900
H  -17.66600 39.13600 45.46200
H  -18.34200 37.40300 43.22300
H  -17.52400 35.81500 43.75600
H  -17.63700 35.24700 41.73400
H  -16.28400 36.32700 41.46800
H  -17.94900 36.85300 41.02000
H  -13.91400 32.95800 43.12900
H  -12.30700 32.81800 43.79900
H  -12.58200 32.31300 42.13200
H  -9.12000 34.99200 39.37700
H  -5.80900 33.49100 41.74000
H  -4.86200 34.79900 41.04500
H  -5.20500 33.30300 40.20300

