158

Mg 47.83500 16.73400 29.37700
C  45.73800 16.14900 32.16400
C  49.96500 18.32100 31.30900
C  49.42200 17.65300 26.48200
C  45.47000 15.10600 27.34100
N  47.73200 17.23500 31.53000
C  46.89700 16.79400 32.51200
C  47.51600 17.07000 33.89700
C  48.77300 17.92600 33.58200
C  48.87400 17.79900 32.03700
C  48.60000 19.37900 34.06300
C  47.86500 15.78300 34.72300
C  47.57900 15.87600 36.19900
H  47.58100 17.30700 36.79900
N  49.40700 17.82200 28.98200
C  50.22700 18.26200 29.94000
C  51.46100 18.70000 29.24500
C  51.37300 18.57200 27.83700
C  50.02900 17.96500 27.70800
C  52.59900 19.30300 30.06600
C  52.25100 19.04600 26.66500
O  51.90100 19.08600 25.47500
C  53.59100 19.71800 26.99600
N  47.46200 16.50500 27.19600
C  48.25900 16.95700 26.18600
C  47.80100 16.57700 24.81900
C  46.66200 15.57500 25.09400
C  46.50600 15.67800 26.65800
C  47.44700 17.78300 23.91000
C  46.83600 14.10700 24.67700
C  45.63100 13.45300 24.01800
N  45.94400 15.92700 29.62000
C  45.11200 15.21300 28.73900
C  43.98100 14.59200 29.42700
C  44.23100 14.95900 30.74500
C  45.36200 15.77300 30.80900
C  43.01100 13.57200 28.91200
C  43.62900 14.79900 32.10200
O  42.68300 14.28300 32.51900
C  44.69000 15.53200 33.03500
C  44.06200 16.57900 33.83700
O  43.53400 17.63400 33.39500
O  44.14200 16.22700 35.13300
C  43.53800 17.09200 36.10200
H  50.65300 18.90300 31.92600
H  49.97700 17.82900 25.55800
H  44.76000 14.51400 26.75900
H  46.76900 17.66600 34.42100
H  49.72700 17.48200 33.86700
H  47.64200 19.81700 34.34300
H  48.95700 19.98300 33.22800
H  49.38500 19.52000 34.80600
H  48.93000 15.55600 34.67600
H  47.34400 14.96000 34.23400
H  48.25600 15.21900 36.74500
H  46.67800 15.29800 36.40500
H  52.68300 20.35700 29.80100
H  53.52000 18.78000 29.80800
H  52.40000 19.31600 31.13800
H  53.24700 20.53300 27.63200
H  54.08400 20.20800 26.15600
H  54.16800 18.95500 27.51900
H  48.65900 16.02100 24.44100
H  45.67900 15.94800 24.80800
H  47.94500 17.78000 22.94000
H  47.81900 18.67200 24.41900
H  46.37900 17.91400 23.73700
H  47.05100 13.58000 25.60700
H  47.77200 14.02400 24.12400
H  45.32700 12.52800 24.50800
H  45.96300 13.22400 23.00500
H  44.74000 14.07200 23.91300
H  42.06800 14.05600 28.65900
H  42.88200 12.97600 29.81500
H  43.42300 12.88100 28.17600
H  45.13700 14.80100 33.70900
H  42.46200 17.14600 35.93400
H  44.03900 18.05200 36.22100
H  43.59200 16.59600 37.07100
Mg -2.02700 34.92800 26.29900
C  -3.81300 33.61400 28.90700
C  -0.90400 37.39000 28.39900
C  -0.67000 36.15300 23.65400
C  -3.50100 32.48500 24.17400
N  -2.29300 35.42500 28.48000
C  -3.02000 34.70600 29.35400
C  -2.76100 35.13000 30.77100
C  -1.98300 36.54400 30.57400
C  -1.71200 36.48500 29.04800
C  -2.57000 37.90100 31.07400
C  -2.06900 33.95500 31.58000
C  -2.66700 33.67700 32.92400
H  -1.74200 33.50000 34.12000
N  -0.94200 36.47500 26.06700
C  -0.49800 37.40000 27.01900
C  0.26100 38.43800 26.33400
C  0.43000 37.99200 25.00200
C  -0.40400 36.84400 24.88500
C  0.88500 39.66300 27.01100
C  1.26600 38.63000 23.91400
O  1.33800 38.17500 22.76100
C  2.13000 39.88900 24.18200
N  -2.10200 34.33000 24.17600
C  -1.44000 35.10000 23.27800
C  -1.61700 34.59900 21.85600
C  -2.38900 33.24000 22.11000
C  -2.67400 33.36700 23.52600
C  -2.42300 35.64000 20.96500
C  -1.44700 32.00800 21.77400
C  -0.29400 31.70800 22.72900
N  -3.49500 33.40000 26.37100
C  -3.93100 32.44300 25.47900
C  -4.71200 31.43600 26.20300
C  -4.70600 31.82900 27.58100
C  -3.92700 33.05100 27.57700
C  -5.37500 30.20400 25.53800
C  -5.07400 31.50100 28.93000
O  -5.64200 30.52100 29.37500
C  -4.43500 32.51700 29.81600
C  -5.56800 33.06300 30.65700
O  -6.35700 33.87500 30.29900
O  -5.61700 32.40600 31.82800
C  -6.54800 32.85000 32.87900
H  -0.46300 38.11700 29.08400
H  -0.27100 36.60900 22.74500
H  -3.97100 31.71500 23.55900
H  -3.64000 35.45800 31.32600
H  -1.04600 36.39500 31.11000
H  -2.77600 38.55400 30.22500
H  -1.88700 38.35300 31.79300
H  -3.50900 37.68200 31.58300
H  -1.03900 34.21500 31.82400
H  -1.95500 33.04700 30.98800
H  -3.23700 32.75100 32.85700
H  -3.50900 34.29900 33.22700
H  1.96600 39.52900 26.97700
H  0.59200 39.76800 28.05500
H  0.73900 40.57700 26.43500
H  2.64600 39.96900 23.22500
H  2.76400 39.63400 25.03100
H  1.46400 40.73900 24.32900
H  -0.61900 34.42800 21.45400
H  -3.40000 33.13800 21.71500
H  -2.14200 36.64100 21.29100
H  -3.50500 35.58900 21.08800
H  -2.10300 35.42600 19.94500
H  -0.92900 32.16700 20.82800
H  -2.05000 31.11900 21.59100
H  -0.27700 32.46500 23.51300
H  0.58800 31.54800 22.10800
H  -0.55100 30.74800 23.17600
H  -4.72500 29.81900 24.75200
H  -6.33600 30.49200 25.11200
H  -5.51500 29.42400 26.28700
H  -3.73000 32.02200 30.48300
H  -7.34200 33.54500 32.61000
H  -6.04400 33.29000 33.74000
H  -7.01600 31.95900 33.29900

