158

Mg 53.50500 23.95300 45.16800
C  50.63600 25.86300 44.49100
C  52.19600 21.28700 43.83500
C  56.71100 22.60300 45.09300
C  54.99500 27.04300 46.09500
N  51.65600 23.68600 44.23900
C  50.62700 24.51400 44.02300
C  49.31400 23.80800 43.75000
C  49.83600 22.27500 43.67900
C  51.33700 22.44000 43.96000
C  49.13900 21.23700 44.66100
C  48.54600 24.23500 42.54200
C  49.35800 24.36400 41.23000
H  48.85600 23.74900 39.99300
N  54.34300 22.14700 44.56500
C  53.59900 21.14100 44.11700
C  54.45900 19.97800 43.90700
C  55.80200 20.33600 44.22300
C  55.69400 21.71700 44.68200
C  53.90700 18.64000 43.28300
C  57.02800 19.47300 44.11400
O  56.92900 18.34700 43.66500
C  58.37900 20.01300 44.47300
N  55.55900 24.75300 45.40700
C  56.61200 23.97400 45.29600
C  57.93900 24.78600 45.58400
C  57.38000 26.16900 45.94400
C  55.84500 26.00400 45.77100
C  58.99800 24.20200 46.62000
C  57.74500 27.37100 45.02500
C  59.23000 27.46100 44.60500
N  52.91500 26.00000 45.45900
C  53.58900 27.06900 45.92300
C  52.74200 28.23700 46.22100
C  51.56600 27.85700 45.58500
C  51.74200 26.47900 45.12200
C  53.17100 29.50500 46.93200
C  50.20500 28.25400 45.22800
O  49.54200 29.30300 45.46100
C  49.59900 26.99800 44.46300
C  49.35400 27.52400 43.12600
O  50.27500 27.79800 42.32400
O  47.99900 27.59400 42.86600
C  47.40700 28.02700 41.54900
H  51.58700 20.39300 43.68400
H  57.69400 22.13300 45.16600
H  55.37400 28.04800 46.29400
H  48.81900 23.93700 44.71300
H  49.77500 21.92100 42.64900
H  48.44800 21.80000 45.28800
H  49.81300 20.62800 45.26300
H  48.59500 20.57600 43.98500
H  48.01300 25.16700 42.72800
H  47.66200 23.60200 42.45700
H  50.33000 23.91900 41.44200
H  49.56200 25.41000 40.99800
H  54.42000 18.39800 42.35200
H  52.83500 18.72400 43.11100
H  54.05500 17.75200 43.89700
H  58.58900 20.82100 43.77300
H  59.04600 19.17400 44.27500
H  58.30300 20.25500 45.53400
H  58.47000 24.81800 44.63300
H  57.53800 26.32900 47.01100
H  59.70400 23.54300 46.11600
H  58.62800 23.60300 47.45300
H  59.62000 24.97300 47.07400
H  57.50900 28.33000 45.48800
H  57.19600 27.18400 44.10200
H  59.87100 26.75500 45.13300
H  59.73200 28.41000 44.79700
H  59.22200 27.17900 43.55300
H  52.29900 30.13000 47.12700
H  53.91600 30.05800 46.36000
H  53.58300 29.28300 47.91600
H  48.64100 26.68800 44.88000
H  46.80500 28.93500 41.54500
H  46.79800 27.23400 41.11300
H  48.23200 28.28700 40.88600
Mg -9.22200 41.12300 42.25100
C  -8.33100 37.88200 41.70200
C  -6.43200 42.02200 40.35500
C  -10.35300 44.17900 42.20100
C  -12.12900 39.97900 43.86300
N  -7.65800 40.02100 41.05400
C  -7.49800 38.74600 41.05000
C  -6.33100 38.32800 40.25900
C  -5.61900 39.68200 39.87100
C  -6.59900 40.62100 40.47800
C  -4.15300 39.87300 40.28300
C  -6.68000 37.48500 38.91400
C  -5.50200 36.54400 38.52000
H  -4.60200 37.04300 37.39500
N  -8.50300 42.81900 41.38900
C  -7.30700 43.02200 40.70700
C  -7.17100 44.41700 40.29600
C  -8.32400 45.06900 40.81700
C  -9.10100 44.05500 41.61000
C  -5.99400 44.86500 39.42200
C  -8.62100 46.54700 40.51200
O  -7.91000 47.18700 39.73800
C  -9.78300 47.23500 41.12800
N  -11.13300 41.94400 42.69400
C  -11.31200 43.31500 42.74200
C  -12.62100 43.69100 43.45100
C  -13.17500 42.30900 43.99300
C  -12.12500 41.31200 43.46700
C  -12.40800 44.77800 44.50200
C  -14.68800 42.10900 43.51200
C  -15.72500 41.67700 44.50800
N  -10.05200 39.31200 42.88300
C  -11.19100 38.97400 43.45500
C  -11.28900 37.56200 43.69000
C  -10.12700 37.09800 42.97100
C  -9.47100 38.17500 42.41800
C  -12.39900 36.77700 44.44900
C  -9.30900 35.91400 42.80700
O  -9.48500 34.79300 43.22100
C  -8.18800 36.40700 41.83000
C  -6.89600 36.03600 42.44300
O  -6.52700 36.46200 43.56800
O  -6.25900 34.97700 41.80600
C  -5.14700 34.35400 42.57600
H  -5.57900 42.31000 39.73800
H  -10.69600 45.20700 42.33500
H  -13.00800 39.73400 44.46300
H  -5.66200 37.86800 40.98600
H  -5.74100 39.82800 38.79800
H  -4.09400 40.37600 41.24800
H  -3.59000 40.53000 39.62000
H  -3.64900 38.91000 40.20400
H  -7.02600 38.12700 38.10400
H  -7.51400 36.79800 39.05800
H  -5.98700 35.64500 38.14100
H  -4.98400 36.39400 39.46700
H  -6.15100 44.86000 38.34400
H  -5.09500 44.28600 39.63200
H  -5.72600 45.89200 39.67200
H  -9.89100 48.22300 40.68000
H  -9.70500 47.31300 42.21200
H  -10.69100 46.66300 40.93400
H  -13.14200 44.18500 42.63100
H  -13.01800 42.31500 45.07200
H  -12.90400 45.65500 44.08600
H  -11.39000 45.16900 44.49900
H  -12.68000 44.46100 45.50900
H  -14.63300 41.31000 42.77400
H  -15.01000 42.96400 42.91700
H  -15.39000 41.93000 45.51400
H  -16.05100 40.63800 44.45600
H  -16.55900 42.36700 44.38400
H  -13.37400 36.60900 43.99100
H  -12.51600 37.14800 45.46700
H  -12.04000 35.76200 44.61300
H  -8.38400 35.99300 40.84100
H  -5.48000 34.20300 43.60300
H  -4.19900 34.89100 42.54800
H  -4.95400 33.38700 42.11200

