158

Mg 26.13100 0.91600 29.57100
C  28.01700 0.51500 32.52600
C  23.32500 0.92000 31.42600
C  24.35300 1.02400 26.66900
C  29.03400 0.36000 27.75300
N  25.70100 0.55400 31.77300
C  26.61500 0.57300 32.79100
C  25.92500 0.77800 34.18500
C  24.39700 0.65900 33.77300
C  24.40600 0.70800 32.23400
C  23.65500 -0.53600 34.21000
C  26.28400 2.05400 34.85800
C  27.10700 1.93900 36.18000
H  26.77500 2.92300 37.35700
N  24.13200 1.04000 29.17600
C  23.18300 1.01300 30.05100
C  21.89800 1.17100 29.31500
C  22.17300 1.42900 27.94600
C  23.63700 1.18600 27.89900
C  20.52100 1.15700 29.99200
C  21.28000 1.84800 26.76700
O  21.70600 1.82600 25.63400
C  19.83400 2.11100 26.97800
N  26.62800 0.82500 27.51400
C  25.71000 0.86100 26.51400
C  26.42000 0.78300 25.12700
C  27.94100 0.69900 25.57600
C  27.85600 0.60600 27.05600
C  25.95400 -0.20400 24.05000
C  28.89100 1.88400 25.13400
C  30.34400 1.49100 24.83800
N  28.10500 0.44600 29.94700
C  29.19700 0.30400 29.11900
C  30.42600 0.17800 29.87900
C  30.02800 0.15600 31.21600
C  28.55600 0.37200 31.23000
C  31.77500 0.01600 29.25000
C  30.48000 0.09200 32.61400
O  31.59900 -0.06400 33.11800
C  29.18900 0.51700 33.49300
C  29.09000 -0.49900 34.55200
O  28.66100 -1.62600 34.30800
O  29.66200 -0.12800 35.67500
C  29.51900 -1.00300 36.86000
H  22.47100 0.84100 32.10100
H  23.73400 0.97900 25.77100
H  29.93300 0.11700 27.18300
H  26.15500 -0.05100 34.85400
H  23.82900 1.51300 34.14200
H  22.91200 -0.90000 33.49900
H  23.13100 -0.36100 35.14900
H  24.40600 -1.30800 34.37300
H  25.41400 2.68600 35.03500
H  26.88300 2.64300 34.16400
H  28.10900 2.23800 35.87100
H  27.20200 0.89600 36.48100
H  19.76000 0.56600 29.48300
H  20.07400 2.15000 29.94200
H  20.57400 0.96100 31.06300
H  19.39700 1.11800 26.87200
H  19.40600 2.71300 26.17600
H  19.53300 2.60200 27.90400
H  26.28400 1.76600 24.67600
H  28.43900 -0.25700 25.41600
H  26.79500 -0.74600 23.61800
H  25.37400 0.31500 23.28700
H  25.31300 -0.94200 24.53400
H  28.97800 2.55800 25.98600
H  28.40300 2.48600 24.36600
H  30.55300 0.42100 24.86400
H  31.02900 1.93000 25.56500
H  30.54200 1.92900 23.86000
H  32.29700 0.74900 29.86500
H  31.82800 0.31200 28.20200
H  32.21500 -0.97200 29.39000
H  29.32500 1.45000 34.04000
H  30.23300 -0.89800 37.67700
H  29.42200 -2.08100 36.72500
H  28.58400 -0.67800 37.31600
Mg 47.50200 35.53300 27.63200
C  45.79000 33.79800 30.11900
C  47.52900 38.38900 29.57100
C  48.72500 37.38100 24.88400
C  46.87700 32.96500 25.40600
N  46.67500 36.00600 29.49700
C  46.23500 35.06500 30.45000
C  46.57500 35.54700 31.84400
C  46.47600 37.12600 31.57100
C  46.99800 37.23100 30.12800
C  45.06300 37.73600 31.72800
C  47.95700 34.99700 32.36300
C  48.15900 34.91900 33.87600
H  47.06800 35.54800 34.70500
N  48.11900 37.53400 27.33100
C  48.07200 38.55000 28.33800
C  48.84200 39.70500 27.76900
C  49.09200 39.49000 26.40200
C  48.61000 38.09300 26.14000
C  49.19100 40.91600 28.65100
C  49.81400 40.33100 25.37900
O  50.10700 39.89300 24.30100
C  50.31500 41.72200 25.71100
N  47.75200 35.22800 25.44100
C  48.30600 36.07300 24.54900
C  48.45200 35.47000 23.19200
C  48.05800 33.94700 23.53200
C  47.58400 33.99300 24.90600
C  47.59500 36.15800 22.09900
C  49.25300 32.89800 23.31200
C  49.10200 31.82500 22.20900
N  46.59000 33.78200 27.69200
C  46.39600 32.81000 26.73700
C  45.60600 31.69700 27.25000
C  45.33100 32.01300 28.62600
C  45.97600 33.28000 28.82600
C  45.10300 30.51900 26.47000
C  44.73400 31.60100 29.80500
O  44.03800 30.65200 30.02900
C  44.92600 32.79200 30.83200
C  45.40200 32.27800 32.14900
O  46.55400 32.14600 32.52200
O  44.32500 32.12300 32.97600
C  44.59500 31.74200 34.36300
H  47.59000 39.17000 30.33100
H  49.11200 37.94400 24.03200
H  46.75400 32.07000 24.79300
H  45.79800 35.14500 32.49400
H  47.22000 37.65000 32.17300
H  45.03900 38.49300 32.51300
H  44.42900 36.96900 32.17200
H  44.71200 38.10800 30.76600
H  48.71100 35.68800 31.98700
H  48.10100 33.97400 32.01300
H  49.10100 35.37500 34.18000
H  48.31400 33.87000 34.13100
H  49.39700 40.59300 29.67200
H  48.43300 41.70000 28.64800
H  50.06100 41.49200 28.33600
H  50.31900 42.31000 24.79300
H  51.28900 41.57400 26.17900
H  49.72400 42.26800 26.44600
H  49.48600 35.56100 22.85800
H  47.14800 33.65400 23.00900
H  47.13900 35.38500 21.48100
H  48.13500 36.74700 21.35700
H  46.76700 36.69600 22.56100
H  49.49400 32.31700 24.20200
H  50.09700 33.48500 22.95100
H  48.05900 31.64300 21.95200
H  49.46500 30.91000 22.67600
H  49.69100 32.01500 21.31100
H  44.37500 30.70200 25.67900
H  44.72400 29.71700 27.10300
H  45.99600 30.10400 26.00300
H  43.90600 33.14500 30.98300
H  43.67700 31.22800 34.64600
H  44.74700 32.63600 34.96800
H  45.48700 31.11600 34.40200

