158

Mg 55.15800 23.79600 45.09600
C  52.36900 25.75400 43.95800
C  53.46300 21.04300 43.78600
C  57.91100 22.11000 45.23700
C  56.86800 26.78500 45.91700
N  53.16400 23.49500 43.82100
C  52.18800 24.45400 43.56800
C  50.96000 23.81700 42.95300
C  51.16700 22.32700 43.36500
C  52.70300 22.22100 43.66700
C  50.33700 21.80300 44.61000
C  50.95600 24.13900 41.37800
C  49.67100 24.11600 40.56600
H  49.80600 23.95100 39.00800
N  55.67900 21.79900 44.67800
C  54.81600 20.78900 44.20100
C  55.57300 19.47700 44.19100
C  56.90700 19.80200 44.49400
C  56.86900 21.24000 44.80600
C  54.92900 18.21200 43.74900
C  58.06600 18.85200 44.51800
O  57.96200 17.62500 44.32200
C  59.58000 19.24500 44.54100
N  57.08500 24.34300 45.58300
C  58.02500 23.43800 45.54700
C  59.41700 24.11900 45.86700
C  59.07200 25.58900 46.23300
C  57.61500 25.60200 45.88600
C  60.39000 23.36900 46.83700
C  59.92700 26.59300 45.34900
C  60.32300 27.87900 46.17100
N  54.68300 25.79600 45.15100
C  55.45500 26.87500 45.53000
C  54.58900 27.99800 45.67300
C  53.38000 27.60000 45.02400
C  53.50100 26.26600 44.65900
C  54.86400 29.25300 46.34800
C  52.04500 28.10500 44.68100
O  51.53800 29.22900 44.91300
C  51.35900 26.91200 43.81100
C  51.18400 27.43500 42.48200
O  52.07400 27.55800 41.56500
O  49.88200 27.89800 42.35400
C  49.29400 28.08700 41.00600
H  52.81800 20.21100 43.49500
H  58.85600 21.58500 45.39400
H  57.38600 27.68300 46.26000
H  50.04600 24.25700 43.35300
H  50.87200 21.66900 42.54700
H  49.87700 22.58500 45.21500
H  50.98800 21.22900 45.26800
H  49.60300 21.07500 44.26200
H  51.63300 23.35100 41.04900
H  51.42500 25.11500 41.25700
H  49.03900 24.98300 40.75700
H  49.16600 23.26400 41.02100
H  55.35900 17.99500 42.77200
H  53.83900 18.24500 43.76800
H  55.20800 17.32800 44.32200
H  59.59700 19.75700 43.57900
H  60.25300 18.40000 44.39400
H  59.96900 19.88400 45.33300
H  59.80800 24.10200 44.85000
H  59.20100 25.80300 47.29300
H  59.86100 22.54100 47.30900
H  60.75200 24.03200 47.62300
H  61.23900 22.96400 46.28600
H  59.37800 26.90300 44.46000
H  60.81700 26.06700 45.00300
H  60.40000 28.75200 45.52200
H  61.36600 27.72900 46.44800
H  59.69500 28.09300 47.03500
H  54.00700 29.84600 46.66900
H  55.58900 29.83300 45.77700
H  55.38300 29.02800 47.27900
H  50.37900 26.80400 44.27500
H  49.83500 27.63300 40.17600
H  49.24000 29.16700 40.87000
H  48.30000 27.65700 40.87600
Mg -10.18600 40.49500 39.31500
C  -9.23200 37.05200 38.87000
C  -6.95100 41.26200 38.77200
C  -11.17800 43.60400 38.57600
C  -13.56100 39.38000 39.10100
N  -8.37300 39.25500 38.69400
C  -8.17700 37.89200 38.72200
C  -6.73800 37.53200 38.61100
C  -6.04300 38.91500 38.87100
C  -7.23000 39.92300 38.85200
C  -5.24900 38.98400 40.21600
C  -6.28400 36.93800 37.22400
C  -6.72100 37.56000 35.88300
H  -7.64600 36.77700 34.94500
N  -9.14700 42.26900 38.91000
C  -7.82000 42.39600 38.65900
C  -7.52100 43.76900 38.53100
C  -8.71400 44.45000 38.20100
C  -9.72900 43.41200 38.51400
C  -6.10300 44.28200 38.32000
C  -8.92300 45.90000 37.66700
O  -7.95500 46.58500 37.38100
C  -10.25000 46.54000 37.44800
N  -12.10600 41.36200 38.97700
C  -12.19800 42.68700 38.82400
C  -13.63300 43.11800 38.86900
C  -14.40700 41.80800 39.08000
C  -13.33300 40.76700 39.07600
C  -13.85900 44.26600 39.93900
C  -15.54800 41.52800 38.05500
C  -16.81600 42.49100 38.05600
N  -11.19500 38.67300 39.17900
C  -12.59200 38.37900 39.10100
C  -12.80800 36.92900 39.04600
C  -11.46300 36.40000 38.95700
C  -10.55000 37.46500 38.98500
C  -14.21700 36.25800 38.90400
C  -10.72900 35.21000 38.79600
O  -11.19700 34.07200 38.77000
C  -9.26900 35.60600 38.65700
C  -8.62400 34.81800 39.64200
O  -8.91000 34.82200 40.86300
O  -7.59500 34.01800 39.13400
C  -6.77400 33.17200 40.03500
H  -5.91500 41.60600 38.77700
H  -11.51500 44.63700 38.46600
H  -14.60000 39.04800 39.04900
H  -6.60000 36.88000 39.47400
H  -5.32100 39.16200 38.09300
H  -5.26700 40.00900 40.58500
H  -4.21100 38.77200 39.95700
H  -5.56000 38.31800 41.02100
H  -6.61500 35.90400 37.13300
H  -5.19400 36.95000 37.22000
H  -5.81200 37.63800 35.28800
H  -7.00600 38.60400 36.01200
H  -5.90100 45.15200 38.94400
H  -5.86600 44.51700 37.28200
H  -5.39900 43.47400 38.51900
H  -10.66700 46.70800 38.44000
H  -10.82300 45.85700 36.82100
H  -10.23500 47.46300 36.86800
H  -13.85700 43.41600 37.84500
H  -14.89200 41.74400 40.05400
H  -14.65800 44.02600 40.64000
H  -14.16800 45.17700 39.42500
H  -12.93100 44.45500 40.47800
H  -15.94100 40.53000 38.25100
H  -15.12800 41.38700 37.05900
H  -16.87200 42.93400 37.06100
H  -16.74500 43.24300 38.84200
H  -17.79200 42.01600 38.15700
H  -15.01900 36.58200 39.56800
H  -14.04400 35.19100 39.04300
H  -14.47800 36.43500 37.86000
H  -8.98300 35.26100 37.66300
H  -7.14400 33.38000 41.03900
H  -5.72300 33.38900 39.84400
H  -6.84200 32.09100 39.91000

