158

Mg -2.26900 17.20900 27.49000
C  -2.64300 14.98800 30.32600
C  -2.68000 19.83400 29.66100
C  -1.92500 19.30100 24.88300
C  -2.27100 14.47300 25.49700
N  -2.72100 17.35900 29.73900
C  -2.67000 16.36600 30.67600
C  -2.79000 16.95400 32.08300
C  -2.89100 18.50300 31.82100
C  -2.73300 18.59200 30.30900
C  -4.15400 19.17500 32.44000
C  -1.64300 16.51700 33.03200
C  -1.22700 17.38300 34.24100
H  -0.96000 16.69600 35.59300
N  -2.16900 19.30100 27.32600
C  -2.40700 20.21400 28.28500
C  -2.05100 21.55500 27.78600
C  -1.76600 21.37200 26.43500
C  -1.93400 19.96400 26.17100
C  -2.22200 22.74700 28.64700
C  -1.49300 22.36100 25.33900
O  -1.42500 22.12900 24.11900
C  -1.30100 23.77200 25.75600
N  -2.18000 16.92500 25.51700
C  -2.05900 17.94300 24.61000
C  -1.91100 17.36300 23.13500
C  -1.59000 15.88000 23.41700
C  -2.03600 15.73300 24.87400
C  -3.27700 17.65700 22.28000
C  -0.18200 15.31000 23.05700
C  0.94900 16.10100 23.66500
N  -2.48500 15.16500 27.72100
C  -2.53700 14.14800 26.85600
C  -2.72800 12.90700 27.48600
C  -2.77800 13.14600 28.86200
C  -2.55700 14.54200 28.98300
C  -2.75100 11.66900 26.70700
C  -2.89800 12.52400 30.22400
O  -2.91500 11.40500 30.62800
C  -2.80400 13.76400 31.20400
C  -1.75400 13.49300 32.20200
O  -0.59100 13.53900 32.02300
O  -2.35200 13.12000 33.38600
C  -1.41600 12.59600 34.33600
H  -2.56400 20.57100 30.45800
H  -1.66000 19.75500 23.92600
H  -2.25600 13.63700 24.79400
H  -3.71300 16.52600 32.47400
H  -2.04200 19.03700 32.24900
H  -4.84600 19.38000 31.62300
H  -3.78100 20.08200 32.91500
H  -4.75800 18.54200 33.08900
H  -0.71400 16.37800 32.48000
H  -2.05100 15.63000 33.51800
H  -1.93900 18.20800 34.27300
H  -0.23500 17.80500 34.08400
H  -1.23900 23.19800 28.78300
H  -2.62300 22.50200 29.63000
H  -2.79900 23.53000 28.15500
H  -0.82200 23.69700 26.73200
H  -2.31100 24.14600 25.92500
H  -0.80700 24.30400 24.94300
H  -1.02300 17.82000 22.70000
H  -2.18500 15.13400 22.89100
H  -3.84700 18.44500 22.77100
H  -3.89400 16.76000 22.22000
H  -3.08000 17.91100 21.23800
H  -0.10700 15.59400 22.00800
H  -0.04500 14.23200 23.13800
H  0.66600 16.85500 24.40000
H  1.63600 16.56900 22.96000
H  1.52700 15.42400 24.29500
H  -3.73600 11.53400 26.26200
H  -2.48300 10.81400 27.32800
H  -2.03700 11.81400 25.89600
H  -3.76300 13.96400 31.68100
H  -0.99300 13.47800 34.81700
H  -0.59200 12.05200 33.87400
H  -1.91900 11.94600 35.05200
Mg 46.77400 16.91400 27.46900
C  44.56500 16.62000 30.41400
C  48.79300 18.72500 29.46700
C  48.26300 17.70700 24.71000
C  43.83200 15.66600 25.66800
N  46.43500 17.92600 29.70500
C  45.75200 17.32300 30.68400
C  46.27000 17.74800 32.05700
C  47.46100 18.71400 31.62200
C  47.57400 18.47900 30.14500
C  47.37100 20.21100 32.11300
C  46.67900 16.49500 32.85300
C  46.76200 16.72700 34.30500
H  46.97700 18.12500 34.90700
N  48.33200 18.01800 27.17000
C  49.15400 18.57800 28.10100
C  50.41300 18.96100 27.46200
C  50.20100 18.73700 26.11100
C  48.94600 18.04300 25.97100
C  51.64800 19.34600 28.19000
C  51.23900 19.15400 24.92300
O  50.97000 18.85600 23.78500
C  52.55700 19.78000 25.26400
N  46.12200 16.67000 25.56000
C  46.98100 17.13200 24.54400
C  46.38000 16.93900 23.11300
C  44.99100 16.14300 23.46100
C  44.95500 16.14000 24.99200
C  46.22800 18.31800 22.40800
C  44.89400 14.70500 22.76000
C  43.67300 14.46100 21.86900
N  44.65600 16.07500 27.92100
C  43.62000 15.61600 27.06800
C  42.45700 15.27900 27.91100
C  42.84900 15.64700 29.22500
C  44.14200 16.16600 29.16400
C  41.11700 14.69600 27.42600
C  42.37900 15.60200 30.58400
O  41.38600 15.14000 31.04500
C  43.54200 16.18600 31.47500
C  43.09200 17.29000 32.29800
O  42.88600 18.43100 31.82800
O  42.75700 16.87900 33.58700
C  42.29500 17.94700 34.47100
H  49.48900 19.19700 30.16300
H  48.85000 17.81200 23.79600
H  42.96100 15.30900 25.11500
H  45.52800 18.22300 32.70000
H  48.38400 18.34300 32.07000
H  46.65400 20.28000 32.93100
H  47.01400 20.74600 31.23400
H  48.34500 20.61700 32.38500
H  47.68100 16.18200 32.55800
H  46.05600 15.60200 32.80400
H  47.46800 15.98100 34.66900
H  45.78500 16.49200 34.72800
H  52.48000 18.69700 27.91800
H  51.45300 19.39100 29.26200
H  51.84500 20.35100 27.81600
H  52.42700 20.74000 25.76400
H  53.20600 19.86600 24.39200
H  53.10200 19.07400 25.89100
H  46.97900 16.22400 22.55000
H  44.18600 16.80100 23.13200
H  46.53900 19.14000 23.05400
H  45.17700 18.42100 22.13900
H  46.86000 18.29500 21.52000
H  44.99300 13.97000 23.55900
H  45.80800 14.67100 22.16800
H  43.18900 13.48900 21.96800
H  43.95200 14.55800 20.82000
H  42.90200 15.19500 22.10300
H  40.84600 15.08500 26.44400
H  40.37800 15.05300 28.14300
H  41.18000 13.61000 27.48600
H  43.93000 15.35500 32.06400
H  41.84700 18.77400 33.92000
H  43.09400 18.37400 35.07800
H  41.52300 17.62600 35.17000

