158

Mg 17.61500 52.22000 26.27000
C  19.49100 50.42800 28.69800
C  15.57400 53.10900 28.92200
C  15.95200 53.83500 24.06900
C  19.91000 50.94100 23.88300
N  17.44700 51.69200 28.58500
C  18.32800 50.93800 29.28400
C  17.92700 51.03800 30.80400
C  16.49500 51.65300 30.73500
C  16.47200 52.20700 29.28300
C  15.25300 50.64500 30.98700
C  18.90400 51.93000 31.58100
C  19.19400 51.56500 33.02900
H  17.91000 51.17400 33.77500
N  15.93000 53.31700 26.49400
C  15.36900 53.73500 27.65300
C  14.48000 54.89700 27.38200
C  14.54700 55.13000 25.99100
C  15.53200 54.10900 25.45000
C  13.61100 55.52500 28.49700
C  13.87200 56.21800 25.15500
O  13.98100 56.26000 23.96500
C  12.92800 57.28500 25.81700
N  17.80700 52.27000 24.29600
C  16.94900 52.94700 23.57800
C  17.28600 52.89900 22.06300
C  18.59200 51.97600 21.89600
C  18.81300 51.70500 23.42300
C  16.13800 52.46100 21.16000
C  19.86600 52.66400 21.25000
C  20.71300 53.66000 22.09100
N  19.31700 50.94900 26.21100
C  20.18200 50.61600 25.14300
C  21.27600 49.89300 25.67400
C  21.12300 49.85300 27.09000
C  19.83900 50.43700 27.35600
C  22.46000 49.37400 24.86900
C  21.69000 49.42500 28.31800
O  22.73100 48.83300 28.53200
C  20.66800 49.86200 29.42300
C  20.32600 48.69500 30.34600
O  19.48500 47.89200 30.13300
O  21.01900 48.82600 31.61100
C  20.47900 48.02800 32.77100
H  14.92300 53.48400 29.71500
H  15.47100 54.39100 23.26200
H  20.48100 50.53100 23.04700
H  17.94900 50.04800 31.25900
H  16.33300 52.48900 31.41500
H  14.25100 51.02800 31.18000
H  15.62500 50.07700 31.84000
H  15.12300 49.88700 30.21500
H  18.56000 52.96400 31.56000
H  19.85600 51.87900 31.05200
H  19.72200 52.35300 33.56600
H  19.73600 50.61900 33.06200
H  12.73200 56.13500 28.28900
H  14.32500 56.08000 29.10500
H  13.27300 54.75900 29.19500
H  12.05200 56.87500 26.32100
H  12.58300 57.94000 25.01800
H  13.62100 57.84600 26.44400
H  17.55500 53.92900 21.82800
H  18.31700 51.06800 21.35900
H  16.14700 51.47400 20.69800
H  15.95900 53.12100 20.31100
H  15.32200 52.52900 21.87900
H  19.52600 53.15200 20.33600
H  20.57600 51.89500 20.94500
H  21.77500 53.41700 22.05700
H  20.51200 53.39900 23.13000
H  20.44900 54.71400 22.00900
H  22.58700 50.14700 24.11100
H  22.26500 48.44800 24.32800
H  23.24800 49.31000 25.62000
H  21.31600 50.55600 29.95800
H  20.85600 47.00900 32.69400
H  19.39500 47.92000 32.74400
H  20.86700 48.40700 33.71700
Mg -11.37400 38.39000 41.96700
C  -9.17700 35.69400 41.25400
C  -9.07100 40.49000 40.28000
C  -13.60600 40.77500 42.24500
C  -13.58000 36.07500 43.37000
N  -9.46900 38.08100 40.69900
C  -8.79500 36.89100 40.56700
C  -7.56600 37.05300 39.63900
C  -7.49600 38.60100 39.36900
C  -8.66600 39.12900 40.23000
C  -6.14900 39.28900 39.52500
C  -7.73800 36.14800 38.33400
C  -6.53600 35.29600 38.02700
H  -5.41200 35.91400 37.11000
N  -11.33500 40.42400 41.41700
C  -10.32900 41.07300 40.72800
C  -10.70700 42.46000 40.63900
C  -11.95300 42.62800 41.27600
C  -12.35400 41.24900 41.68300
C  -9.77300 43.51900 40.18100
C  -12.67800 43.90200 41.47000
O  -12.09200 44.88600 41.06200
C  -14.12400 44.06200 42.14200
N  -13.38200 38.33000 42.57100
C  -14.04800 39.54100 42.67600
C  -15.47400 39.38200 43.24100
C  -15.40900 37.90000 43.67200
C  -14.06700 37.35900 43.11900
C  -15.93900 40.46300 44.37000
C  -16.69400 37.13700 43.33500
C  -17.21800 36.21400 44.43700
N  -11.44000 36.28200 42.25600
C  -12.33800 35.51900 42.98300
C  -11.82200 34.17300 43.24500
C  -10.55300 34.28800 42.58300
C  -10.38600 35.50900 41.91700
C  -12.49300 33.12200 44.12500
C  -9.34600 33.45900 42.36800
O  -9.06900 32.28400 42.53900
C  -8.40600 34.41500 41.39500
C  -7.01700 34.67300 41.88800
O  -6.02100 34.12800 41.44000
O  -6.98500 35.70400 42.79100
C  -5.71000 36.08300 43.30200
H  -8.39600 41.18100 39.77100
H  -14.38700 41.53900 42.26100
H  -14.35200 35.50000 43.88500
H  -6.64600 36.78700 40.16000
H  -7.66500 38.79300 38.31000
H  -6.31700 40.05800 40.27800
H  -5.83000 39.71900 38.57500
H  -5.39000 38.59200 39.88000
H  -7.86900 36.88800 37.54500
H  -8.58100 35.45900 38.38300
H  -6.88300 34.33500 37.64700
H  -5.95100 35.09600 38.92400
H  -9.76600 43.72300 39.11100
H  -8.79100 43.13500 40.45900
H  -9.77800 44.43200 40.77600
H  -14.20400 43.60000 43.12600
H  -14.85500 43.61700 41.46700
H  -14.31700 45.13300 42.20600
H  -16.14100 39.54500 42.39400
H  -15.40100 37.91000 44.76200
H  -15.32500 41.36200 44.33200
H  -15.77200 39.92100 45.30000
H  -16.98200 40.77700 44.43100
H  -16.58800 36.51300 42.44800
H  -17.45100 37.86800 43.05200
H  -18.18700 36.59700 44.75600
H  -16.43000 35.95600 45.14500
H  -17.52400 35.26300 44.00200
H  -12.97500 32.40800 43.45800
H  -13.24600 33.43700 44.84700
H  -11.73700 32.45200 44.53400
H  -8.32100 33.95400 40.41100
H  -5.44500 37.10100 43.01700
H  -4.85600 35.49200 42.97300
H  -5.81400 36.01800 44.38600

