158

Mg 0.04000 7.64200 27.73200
C  1.07900 10.05100 30.13300
C  -0.46300 5.43600 30.43500
C  -1.04300 5.35300 25.59700
C  1.06600 9.80400 25.23300
N  0.30100 7.75200 29.96400
C  0.60800 8.86200 30.70600
C  0.29500 8.55600 32.18800
C  0.25100 6.98900 32.28800
C  0.06600 6.69400 30.76600
C  1.48600 6.31000 32.98500
C  -1.04200 9.23200 32.50300
C  -1.69800 9.00500 33.90300
H  -0.85500 8.67400 35.09500
N  -0.68400 5.67700 27.93800
C  -0.98100 5.01700 29.13200
C  -1.63800 3.78600 28.75200
C  -1.82500 3.78100 27.38700
C  -1.17100 4.92800 26.94300
C  -2.08100 2.84100 29.81500
C  -2.54200 2.77800 26.53100
O  -2.76300 2.90600 25.31400
C  -3.16600 1.62100 27.20700
N  0.17600 7.55000 25.69600
C  -0.44100 6.51600 25.00800
C  -0.70900 6.90900 23.56100
C  0.08400 8.30400 23.41600
C  0.50200 8.57400 24.84100
C  -0.25100 5.70000 22.65400
C  -0.74900 9.47100 22.83900
C  0.01200 10.40300 21.77300
N  0.76900 9.55600 27.66400
C  1.25900 10.29900 26.54300
C  1.72600 11.63200 27.03300
C  1.66300 11.54500 28.36200
C  1.12100 10.26000 28.71800
C  2.20000 12.83900 26.24000
C  1.87000 12.29700 29.62200
O  2.23300 13.46400 29.79000
C  1.49700 11.31600 30.87300
C  2.66100 10.99700 31.69700
O  3.53000 10.14600 31.50500
O  2.78400 11.94400 32.65000
C  4.01200 11.90200 33.46900
H  -0.62400 4.73200 31.25400
H  -1.63400 4.96600 24.76400
H  1.29600 10.48400 24.41000
H  1.05600 8.95000 32.86200
H  -0.63300 6.80800 32.89900
H  1.90400 5.51000 32.37500
H  1.07200 5.96700 33.93400
H  2.19000 7.11600 33.18900
H  -1.80100 8.97000 31.76600
H  -0.82500 10.30000 32.48500
H  -2.49300 8.26100 33.87000
H  -2.20500 9.92900 34.18100
H  -2.36000 3.42600 30.69100
H  -1.29100 2.14000 30.08300
H  -2.96200 2.22000 29.65300
H  -3.63600 1.04700 26.40900
H  -3.96600 2.04400 27.81500
H  -2.34600 1.19700 27.78700
H  -1.76000 7.16900 23.43900
H  0.91500 8.07700 22.74900
H  -1.10400 5.22500 22.16900
H  0.25000 4.95200 23.26800
H  0.42000 5.93400 21.82700
H  -1.04700 10.17500 23.61700
H  -1.61400 8.97900 22.39500
H  -0.57500 10.51100 20.86100
H  1.04700 10.12600 21.57400
H  0.12100 11.35400 22.29600
H  2.76500 13.51300 26.88400
H  1.30900 13.39500 25.94700
H  2.67700 12.55500 25.30200
H  0.66600 11.47400 31.56100
H  4.70400 12.45900 32.83700
H  4.31900 10.87300 33.65500
H  3.73200 12.40500 34.39500
Mg 10.01200 48.65000 26.26200
C  7.95000 48.69100 29.10100
C  12.56700 49.63000 28.23000
C  11.95000 48.82300 23.45300
C  7.13700 48.30200 24.23100
N  10.20700 49.19300 28.37600
C  9.26300 49.11200 29.35100
C  9.84800 49.67600 30.66400
C  11.20100 50.27000 30.22200
C  11.36600 49.58600 28.89200
C  11.27200 51.82100 30.15300
C  9.97000 48.70300 31.88500
C  9.01000 49.01700 33.06800
H  9.63200 49.57900 34.29600
N  12.06400 49.08300 25.85900
C  12.95700 49.31400 26.82500
C  14.28800 49.46900 26.23200
C  14.10400 49.21400 24.83500
C  12.62900 49.09200 24.63300
C  15.52400 49.92400 27.02800
C  15.15800 49.10700 23.73600
O  14.88300 49.05600 22.57800
C  16.60800 49.23800 24.05600
N  9.56400 48.69700 24.09800
C  10.63300 48.61900 23.18300
C  10.03400 48.56900 21.73700
C  8.47000 48.17900 22.02800
C  8.34900 48.46800 23.51900
C  10.25900 49.81500 20.89100
C  8.10200 46.73500 21.67900
C  8.66300 45.61000 22.56300
N  7.94300 48.48200 26.56200
C  6.92500 48.31900 25.65400
C  5.65000 48.28100 26.37100
C  6.00500 48.32900 27.73600
C  7.41600 48.54000 27.75000
C  4.31000 48.01500 25.78700
C  5.52400 48.36900 29.12800
O  4.43800 48.29500 29.62100
C  6.76300 48.60900 30.06900
C  6.87000 47.32100 30.77700
O  7.60900 46.39400 30.45000
O  6.00600 47.26500 31.86100
C  6.28100 46.11500 32.78400
H  13.42800 50.00100 28.79000
H  12.66300 48.70000 22.63500
H  6.23900 48.34700 23.61200
H  9.21400 50.49200 31.01000
H  12.11400 49.93700 30.71400
H  10.28800 52.27400 30.03200
H  11.97900 52.11500 29.37700
H  11.67000 52.19700 31.09500
H  10.99100 48.79900 32.25400
H  9.82700 47.65300 31.62900
H  8.48100 48.09700 33.31700
H  8.18100 49.70900 32.92300
H  15.25400 50.10100 28.06900
H  15.93300 50.86800 26.66700
H  16.29500 49.16500 26.90100
H  16.91700 48.61200 24.89400
H  16.88000 50.25000 24.35400
H  17.16500 48.93500 23.16900
H  10.60000 47.73400 21.32600
H  7.84000 48.88600 21.49000
H  10.62200 50.52500 21.63400
H  9.35400 50.17000 20.39700
H  10.95400 49.63900 20.07000
H  8.46100 46.61800 20.65600
H  7.02100 46.60100 21.71100
H  7.95800 44.79000 22.69800
H  8.90100 46.00900 23.54900
H  9.51100 45.12700 22.07900
H  3.48600 47.80700 26.47000
H  4.51200 47.11400 25.20800
H  4.14200 48.77400 25.02300
H  6.69700 49.42700 30.78700
H  5.32900 45.58900 32.85600
H  6.56200 46.53500 33.75000
H  7.09400 45.45200 32.49100

