158

Mg 54.08200 25.49000 44.80800
C  51.42400 27.66400 44.10400
C  52.27800 22.95500 43.42000
C  56.85700 23.51400 44.78900
C  55.97600 28.22700 45.73500
N  52.15200 25.45700 43.75200
C  51.11900 26.42000 43.58900
C  49.93500 25.83900 42.95500
C  50.22000 24.32800 43.09500
C  51.72400 24.21300 43.34900
C  49.27900 23.59900 44.11800
C  49.76600 26.22800 41.42900
C  48.36800 26.07700 40.70900
H  48.46300 25.44800 39.33700
N  54.47300 23.50200 44.36100
C  53.57300 22.63000 43.78600
C  54.12800 21.29500 43.65600
C  55.46500 21.42700 44.06400
C  55.70600 22.85700 44.43200
C  53.46500 20.11500 42.99100
C  56.44300 20.30900 43.86700
O  56.09100 19.16200 43.52400
C  57.88400 20.45800 44.15800
N  56.11500 25.80800 44.88400
C  57.05700 24.83900 44.96100
C  58.39500 25.38300 45.43500
C  58.14300 26.91400 45.49500
C  56.62100 27.00800 45.40900
C  58.91800 24.74200 46.72300
C  58.87600 27.78800 44.40500
C  59.56600 29.04200 44.98400
N  53.75300 27.58500 45.10700
C  54.57800 28.56900 45.59700
C  53.85400 29.80200 45.69600
C  52.56800 29.51900 45.14700
C  52.61000 28.14500 44.72700
C  54.33400 31.11900 46.16500
C  51.23700 30.04900 44.89900
O  50.76600 31.17600 45.12800
C  50.45100 28.84000 44.27500
C  49.80700 29.33600 42.98900
O  50.37100 29.51300 41.95000
O  48.46600 29.45600 43.11100
C  47.81000 30.05400 41.94700
H  51.53400 22.20000 43.15800
H  57.74000 22.88800 44.93500
H  56.64500 29.05000 45.99500
H  49.01600 26.16400 43.44200
H  50.10500 23.88300 42.10700
H  48.72300 22.85200 43.55000
H  48.61100 24.34600 44.54600
H  49.78000 23.29400 45.03600
H  50.45100 25.61400 40.84400
H  50.12400 27.24400 41.26500
H  48.00900 27.09700 40.57600
H  47.78200 25.37900 41.30800
H  52.39500 20.20300 42.80700
H  53.36900 19.26800 43.67000
H  53.93800 19.76800 42.07200
H  58.36000 19.50100 43.94300
H  57.90400 20.68600 45.22400
H  58.22900 21.27600 43.52500
H  59.15800 25.07700 44.71800
H  58.21100 27.32000 46.50400
H  59.98500 24.53400 46.63300
H  58.48800 23.76300 46.93500
H  58.76700 25.37300 47.59800
H  58.08700 28.19500 43.77300
H  59.71300 27.23600 43.97500
H  59.74100 29.70700 44.13800
H  60.48900 28.88100 45.54200
H  58.89700 29.59000 45.64800
H  54.69300 31.45100 45.19200
H  55.11800 31.04500 46.91900
H  53.51100 31.75800 46.48800
H  49.66500 28.76800 45.02700
H  47.93600 29.33100 41.14000
H  48.21000 31.01300 41.61800
H  46.73900 30.24900 41.99600
Mg 5.91400 53.18100 41.10900
C  5.77500 49.75300 40.31300
C  9.19700 53.17700 39.64800
C  5.75900 56.52700 40.90600
C  2.56700 52.94700 41.98500
N  7.32600 51.62100 40.20200
C  7.08500 50.31000 40.06900
C  8.43600 49.58500 39.64000
C  9.50100 50.72400 39.83200
C  8.62200 51.94300 39.85500
C  10.28300 50.58900 41.16600
C  8.28600 49.08800 38.20100
C  7.56300 49.99300 37.10900
H  8.13100 49.88400 35.68800
N  7.29200 54.67200 40.37000
C  8.52800 54.44500 39.79000
C  9.14800 55.73300 39.61000
C  8.18300 56.75700 39.93300
C  7.01900 55.99300 40.46900
C  10.44200 55.96800 38.96600
C  8.37400 58.27400 39.74200
O  9.35600 58.68400 39.16400
C  7.42100 59.31500 40.32200
N  4.36000 54.49400 41.48900
C  4.56800 55.85500 41.31200
C  3.35500 56.57500 41.74900
C  2.29100 55.40600 41.97200
C  3.09500 54.20900 41.83900
C  3.71700 57.39300 43.00500
C  1.02000 55.44600 40.98400
C  -0.26700 55.56600 41.73900
N  4.52500 51.68900 41.25000
C  3.22200 51.75900 41.66200
C  2.61700 50.48300 41.72300
C  3.58400 49.64700 41.19300
C  4.73700 50.46000 40.88300
C  1.34800 50.00000 42.24600
C  3.94500 48.29400 40.84400
O  3.28400 47.29200 40.94600
C  5.39600 48.29200 40.21400
C  5.23600 47.86100 38.82200
O  4.43400 48.26200 38.01100
O  6.00800 46.77700 38.70300
C  5.85000 46.20000 37.33300
H  10.24000 53.17600 39.32600
H  5.75200 57.61100 41.03600
H  1.49600 53.00000 42.19000
H  8.60600 48.69200 40.24100
H  10.14400 50.88600 38.96700
H  11.31900 50.46000 40.85500
H  9.97300 49.71700 41.74300
H  10.11000 51.41500 41.85600
H  8.03100 48.04100 38.36500
H  9.35600 48.93000 38.06400
H  7.68700 51.00900 37.48200
H  6.51100 49.71000 37.15200
H  10.38200 56.32100 37.93600
H  11.07200 55.08000 38.92400
H  10.91100 56.77600 39.52700
H  7.80000 60.27400 39.96800
H  7.43100 59.27900 41.41100
H  6.41800 59.16200 39.92400
H  3.04400 57.23700 40.94100
H  1.94100 55.45800 43.00300
H  3.06900 57.02100 43.79900
H  3.55000 58.46400 42.88900
H  4.76100 57.19200 43.24500
H  0.92200 54.51400 40.42600
H  1.15000 56.17700 40.18600
H  -0.11700 55.62600 42.81700
H  -0.93000 54.77500 41.39100
H  -0.81100 56.46000 41.43100
H  0.59700 50.38800 41.55800
H  1.15100 50.34400 43.26200
H  1.22400 48.91900 42.18100
H  6.01500 47.58300 40.76500
H  6.76500 45.71000 37.00100
H  5.75500 46.96300 36.56100
H  5.05500 45.46700 37.19600

