158

Mg -1.56700 17.96700 26.39400
C  -2.33400 15.76500 29.12800
C  -2.23800 20.64300 28.49800
C  -1.46200 20.02400 23.67300
C  -1.68500 15.22900 24.26100
N  -2.12500 18.19800 28.59900
C  -2.21000 17.13300 29.47800
C  -2.37900 17.72000 30.92700
C  -2.61300 19.22100 30.68900
C  -2.34200 19.38500 29.18700
C  -4.14600 19.61800 30.98300
C  -1.32100 17.35900 32.01500
C  -1.44000 18.11100 33.33200
H  -0.99900 17.34000 34.60600
N  -1.68400 19.98600 26.10700
C  -1.99100 20.91500 27.10800
C  -2.01900 22.26300 26.51100
C  -1.79500 22.09300 25.08500
C  -1.58300 20.66700 24.90700
C  -2.39500 23.53100 27.25700
C  -1.82000 23.19700 23.93300
O  -1.62200 22.87800 22.75700
C  -2.14000 24.57700 24.25900
N  -1.56200 17.64800 24.29100
C  -1.34200 18.65500 23.37300
C  -1.29200 18.15600 21.92100
C  -1.18100 16.62400 22.18200
C  -1.50200 16.43400 23.65300
C  -2.56400 18.48400 21.06100
C  0.20000 16.05200 21.79100
C  1.51200 16.76000 22.25000
N  -1.97100 15.91800 26.56100
C  -1.92000 14.91200 25.60700
C  -2.28000 13.60500 26.23300
C  -2.47300 13.90000 27.61300
C  -2.27500 15.32600 27.74800
C  -2.33900 12.33200 25.48200
C  -2.69700 13.26900 28.83600
O  -2.81500 12.06300 29.12800
C  -2.51200 14.50200 29.98400
C  -1.25300 14.17800 30.73900
O  -0.19500 14.22600 30.33800
O  -1.66300 13.55400 31.88300
C  -0.67500 12.87800 32.68200
H  -2.45800 21.54200 29.07700
H  -1.32600 20.62600 22.77200
H  -1.70200 14.32100 23.65300
H  -3.26800 17.16800 31.23200
H  -1.94000 19.80200 31.31800
H  -4.75300 18.72600 31.13900
H  -4.56200 20.13600 30.11900
H  -4.18400 20.33000 31.80800
H  -0.37100 17.58400 31.53000
H  -1.40800 16.30100 32.26400
H  -2.50500 18.31100 33.44800
H  -0.90300 19.04300 33.15500
H  -3.35400 23.91300 26.90700
H  -1.64800 24.30600 27.08500
H  -2.48800 23.33900 28.32600
H  -3.19500 24.63100 24.52900
H  -1.87600 25.15500 23.37300
H  -1.47900 24.93400 25.04900
H  -0.38000 18.47300 21.41500
H  -2.01700 16.17100 21.64900
H  -3.29800 17.68300 20.97300
H  -2.27600 18.74400 20.04200
H  -3.05500 19.37100 21.46100
H  0.18300 16.03400 20.70100
H  0.20900 14.99900 22.07400
H  1.53800 17.71200 22.78000
H  2.15900 16.92700 21.38900
H  2.03200 15.99800 22.83100
H  -2.80100 12.54800 24.51800
H  -2.98200 11.69200 26.08700
H  -1.33400 11.91000 25.49700
H  -3.39700 14.46400 30.61900
H  0.13200 12.53300 32.03500
H  -1.15500 11.96900 33.04300
H  -0.29600 13.51200 33.48400
Mg 24.11600 -6.84600 45.76900
C  26.44100 -4.54400 44.40900
C  21.83700 -5.86800 43.59900
C  22.58500 -9.84900 46.36600
C  27.10000 -8.29900 47.38500
N  24.20300 -5.40500 44.15300
C  25.20000 -4.51500 43.78200
C  24.76000 -3.53000 42.71100
C  23.21200 -3.78900 42.72500
C  23.05400 -5.10800 43.61600
C  22.15600 -2.70800 43.23400
C  25.48800 -3.91100 41.35500
C  25.86700 -2.77500 40.42100
H  25.60500 -2.97100 38.93800
N  22.39300 -7.62700 45.07400
C  21.52400 -7.05000 44.24400
C  20.41600 -7.88800 43.98700
C  20.54800 -9.07200 44.81000
C  21.90200 -8.91800 45.44200
C  19.27900 -7.57900 43.10900
C  19.58900 -10.31900 44.84500
O  18.56200 -10.25700 44.21400
C  19.73800 -11.60100 45.63800
N  24.72300 -8.71800 46.75200
C  23.86700 -9.79700 46.96300
C  24.43900 -10.83100 47.93800
C  25.88100 -10.39100 48.14300
C  25.94300 -9.02500 47.37300
C  23.63000 -11.22000 49.20300
C  26.94200 -11.48500 47.75800
C  28.05400 -11.73000 48.80100
N  26.32600 -6.52700 45.95700
C  27.36600 -7.11600 46.68900
C  28.68100 -6.43100 46.49500
C  28.32600 -5.35100 45.61000
C  26.89300 -5.47300 45.35100
C  29.99600 -6.84500 47.03500
C  28.89000 -4.28100 44.88400
O  29.99400 -3.82400 44.83900
C  27.74200 -3.68000 43.99600
C  27.50600 -2.21800 44.18000
O  27.55400 -1.32900 43.36000
O  27.37400 -1.89700 45.49600
C  27.17100 -0.43000 45.84700
H  21.13800 -5.52000 42.83700
H  21.90300 -10.62300 46.72400
H  27.94700 -8.76000 47.89800
H  24.88000 -2.46400 42.90100
H  22.79700 -4.16600 41.79000
H  21.56600 -3.05600 44.08200
H  21.55800 -2.53600 42.33900
H  22.62100 -1.76800 43.53200
H  24.78200 -4.52000 40.79000
H  26.35700 -4.54500 41.52700
H  26.93900 -2.59400 40.48800
H  25.32300 -1.89400 40.76100
H  19.09800 -8.38200 42.39500
H  19.41600 -6.63400 42.58400
H  18.50800 -7.48100 43.87300
H  19.59300 -11.42100 46.70300
H  20.77600 -11.85700 45.42600
H  19.07300 -12.41400 45.34600
H  24.34700 -11.72300 47.31900
H  26.05400 -10.14700 49.19100
H  22.98500 -12.07200 48.98600
H  23.05300 -10.36600 49.55800
H  24.24700 -11.58100 50.02500
H  27.51400 -11.08900 46.91800
H  26.43900 -12.36500 47.35700
H  28.25200 -10.77000 49.27800
H  28.97000 -12.05500 48.30900
H  27.73500 -12.49300 49.51100
H  30.05500 -7.92000 46.86500
H  29.89000 -6.71100 48.11200
H  30.83600 -6.26000 46.65900
H  28.01600 -3.84300 42.95400
H  26.09300 -0.27500 45.79700
H  27.64000 0.25000 45.13700
H  27.69100 -0.17200 46.77000

