158

Mg 0.93200 -2.50700 43.57500
C  4.13400 -1.74900 42.93000
C  -0.04700 0.47000 42.16400
C  -2.29200 -3.55900 43.40200
C  1.86600 -5.82000 44.52000
N  1.95000 -0.94000 42.41600
C  3.28300 -0.78700 42.41700
C  3.65000 0.47600 41.66100
C  2.38200 1.40800 41.82400
C  1.30500 0.26900 42.14500
C  2.58300 2.42500 42.99500
C  3.89500 0.04300 40.12400
C  5.28900 0.30800 39.49600
H  5.99000 -0.79000 38.75200
N  -0.90200 -1.63400 43.08200
C  -1.02200 -0.39700 42.53300
C  -2.45600 -0.07600 42.32800
C  -3.14700 -1.22800 42.62900
C  -2.12800 -2.22400 43.05500
C  -2.83400 1.20900 41.68000
C  -4.57200 -1.43500 42.43300
O  -5.26200 -0.60100 41.94500
C  -5.31900 -2.61200 42.86500
N  -0.08400 -4.32700 44.01000
C  -1.37100 -4.55000 43.76700
C  -1.84200 -5.92000 44.39000
C  -0.50600 -6.58900 44.71600
C  0.50200 -5.50000 44.37600
C  -2.77900 -5.62200 45.56200
C  -0.26100 -7.94900 44.07800
C  -1.12400 -9.10400 44.60600
N  2.62300 -3.62700 43.68600
C  2.93600 -4.92200 44.16100
C  4.36100 -5.09800 44.21200
C  4.88800 -3.89600 43.69600
C  3.77300 -2.97400 43.43800
C  5.04700 -6.35100 44.75800
C  6.13900 -3.14800 43.48200
O  7.26900 -3.36400 43.74600
C  5.64500 -1.87300 42.76600
C  6.46500 -0.61700 43.23700
O  7.18000 0.10200 42.60200
O  5.89000 -0.19700 44.43500
C  6.57200 1.03700 44.97600
H  -0.26000 1.52000 41.95100
H  -3.27900 -4.01300 43.30000
H  2.24100 -6.79800 44.82800
H  4.49700 0.99600 42.10700
H  2.21200 1.92300 40.87900
H  3.61500 2.24400 43.29600
H  2.04500 2.12200 43.89300
H  2.36900 3.46400 42.74300
H  3.27200 0.65900 39.47600
H  3.64300 -1.01600 40.07400
H  5.98500 0.84300 40.14300
H  5.16900 1.08800 38.74400
H  -3.87400 1.53400 41.73000
H  -2.46300 1.27600 40.65700
H  -2.28100 2.04500 42.10800
H  -6.35000 -2.48500 42.53400
H  -5.19500 -2.79100 43.93300
H  -4.90800 -3.44900 42.30000
H  -2.29800 -6.60300 43.67400
H  -0.40400 -6.86400 45.76600
H  -2.45800 -5.98000 46.54100
H  -3.77400 -5.97500 45.28800
H  -3.03600 -4.57800 45.74100
H  0.76500 -8.30800 44.00300
H  -0.51600 -7.76900 43.03300
H  -1.69200 -8.88000 45.50900
H  -0.53200 -9.99600 44.80900
H  -1.91400 -9.40400 43.91700
H  5.99900 -6.08500 45.21900
H  5.20800 -7.09800 43.98100
H  4.50200 -6.74600 45.61600
H  5.96200 -1.94700 41.72600
H  7.65000 0.89900 45.06300
H  6.13900 1.35300 45.92500
H  6.43700 1.88700 44.30800
Mg 17.69700 53.19400 26.00900
C  19.61100 51.84500 28.59400
C  15.59400 54.26600 28.46100
C  15.51300 53.98200 23.60700
C  19.87700 51.87500 23.69200
N  17.70800 53.16400 28.33200
C  18.50100 52.45200 29.17900
C  18.10200 52.63600 30.68400
C  16.66100 53.21900 30.58400
C  16.60300 53.56800 29.05400
C  15.52400 52.19000 30.95400
C  19.01300 53.63600 31.41200
C  19.45900 53.45500 32.85900
H  18.48700 52.87100 33.89400
N  15.81500 54.07000 25.99500
C  15.19000 54.58900 27.09500
C  13.93000 55.19200 26.65700
C  13.77500 54.91500 25.28300
C  15.04100 54.29500 24.87700
C  13.02300 55.74300 27.65200
C  12.58900 55.08400 24.41900
O  12.51500 54.60800 23.33900
C  11.34700 55.87100 24.85100
N  17.68300 53.03500 23.95500
C  16.69100 53.47900 23.18500
C  17.08700 53.38300 21.64200
C  18.56700 52.73100 21.72000
C  18.79600 52.59000 23.22500
C  16.07800 52.64500 20.76700
C  19.66800 53.62300 21.03900
C  20.34100 52.97500 19.83900
N  19.36500 52.12600 26.04400
C  20.17600 51.62000 25.05900
C  21.30200 50.89600 25.62500
C  21.14600 51.13800 27.02300
C  19.95000 51.79400 27.21500
C  22.51300 50.34500 24.87400
C  21.70600 50.86300 28.39200
O  22.75200 50.39300 28.75600
C  20.64000 51.19100 29.38900
C  20.28800 49.94700 30.08100
O  19.61600 49.09500 29.62400
O  20.66400 49.94700 31.41900
C  20.14100 48.88900 32.25000
H  14.99000 54.75600 29.22700
H  14.82900 54.37400 22.85100
H  20.44200 51.33200 22.93100
H  18.12800 51.64500 31.13600
H  16.52700 54.14100 31.15100
H  15.70200 51.66700 31.89400
H  15.43300 51.49500 30.11900
H  14.58400 52.73100 31.06900
H  18.56800 54.63100 31.38500
H  19.91000 53.61800 30.79300
H  19.86300 54.40800 33.20100
H  20.36700 52.85400 32.90700
H  12.47200 56.60000 27.26700
H  13.42300 56.11500 28.59500
H  12.37900 54.95900 28.05200
H  10.84900 55.33800 25.66100
H  10.60100 55.90900 24.05700
H  11.61100 56.88900 25.13700
H  17.08500 54.37500 21.18900
H  18.44200 51.68200 21.45200
H  15.08900 52.69900 21.22200
H  16.24800 51.59000 20.55100
H  15.99500 53.12000 19.78900
H  20.39900 53.74400 21.83800
H  19.05500 54.47300 20.73600
H  21.35100 52.70700 20.14700
H  20.32400 53.67000 19.00000
H  19.83600 52.15400 19.32800
H  22.79600 49.29800 24.98500
H  23.43000 50.88200 25.11600
H  22.36200 50.51800 23.80800
H  21.07200 51.90800 30.08600
H  20.99500 48.58000 32.85300
H  19.77400 48.04600 31.66400
H  19.31700 49.26300 32.85700

