158

Mg 47.62900 24.25300 28.07800
C  48.49500 26.44600 30.63900
C  47.02000 21.80900 30.29300
C  47.12300 22.20600 25.53800
C  48.69400 26.61900 25.70800
N  47.84700 24.14600 30.31700
C  48.07100 25.25900 31.12800
C  47.88400 24.85800 32.62100
C  47.50900 23.29500 32.42100
C  47.53900 22.97500 30.91300
C  48.39400 22.30900 33.22800
C  46.70200 25.71700 33.25500
C  47.01000 26.43700 34.49800
H  46.08500 26.39800 35.75100
N  46.95200 22.29800 27.94300
C  46.81500 21.39300 28.96200
C  46.43700 20.16400 28.46600
C  46.44400 20.28300 27.07500
C  46.90300 21.64000 26.77200
C  46.17900 18.98700 29.39500
C  46.16200 19.26400 25.98500
O  46.10300 19.50300 24.80300
C  45.82600 17.82600 26.36400
N  47.82400 24.40900 25.89900
C  47.48800 23.48600 25.10300
C  47.42800 23.85100 23.62200
C  47.72900 25.40000 23.67500
C  48.11200 25.47200 25.15000
C  48.39400 23.00100 22.71800
C  46.53600 26.26400 23.26600
C  46.88300 27.16000 22.11500
N  48.60200 26.10800 28.10900
C  48.90500 26.94700 27.05900
C  49.37400 28.18700 27.60000
C  49.19900 28.02500 29.05300
C  48.71000 26.75900 29.22600
C  50.08400 29.19900 26.73500
C  49.42100 28.64800 30.27000
O  49.95600 29.74900 30.49800
C  48.78200 27.70900 31.36400
C  49.88700 27.55400 32.40600
O  50.94200 26.99300 32.14800
O  49.57700 28.26200 33.53700
C  50.52700 28.15800 34.68100
H  46.72800 21.02900 31.00000
H  46.98400 21.51200 24.70700
H  48.95100 27.26500 24.86600
H  48.79500 25.03900 33.19200
H  46.48400 23.22100 32.78400
H  48.68100 21.51100 32.54300
H  47.78800 21.80000 33.97700
H  49.26900 22.87300 33.54900
H  45.81900 25.08000 33.30600
H  46.59700 26.54400 32.55300
H  47.24900 27.48600 34.32300
H  48.00500 26.09100 34.77800
H  46.49800 18.03400 28.97400
H  45.11100 18.91900 29.60200
H  46.60100 19.12300 30.39100
H  45.58000 17.11100 25.57900
H  44.99400 17.88400 27.06500
H  46.79300 17.52600 26.76800
H  46.42700 23.63000 23.25000
H  48.66500 25.53300 23.13200
H  47.96400 23.13900 21.72600
H  48.52700 22.02200 23.17700
H  49.41600 23.37900 22.70500
H  46.28300 26.85900 24.14400
H  45.68000 25.65200 22.98000
H  46.98900 28.20000 22.42600
H  46.05200 27.04500 21.41900
H  47.79200 26.85700 21.59600
H  49.53000 29.52100 25.85300
H  51.06800 28.77600 26.53400
H  50.24200 30.07300 27.36700
H  47.91000 28.22300 31.77000
H  51.53300 27.78400 34.49500
H  50.12600 27.56600 35.50400
H  50.63300 29.16900 35.07400
Mg -10.70400 17.66700 41.22800
C  -7.11100 17.52600 41.07600
C  -10.43000 21.05400 40.53900
C  -13.96300 17.84600 40.35100
C  -10.73000 14.21900 40.95900
N  -8.92100 19.05100 40.77200
C  -7.58300 18.77800 40.87000
C  -6.82200 20.05200 40.64000
C  -7.87800 21.15700 41.08400
C  -9.17100 20.38500 40.77100
C  -7.74000 21.59600 42.52400
C  -6.36200 20.24600 39.11900
C  -4.83600 20.16100 38.80100
H  -4.41700 19.25500 37.75800
N  -11.98500 19.22800 40.63900
C  -11.69600 20.50100 40.43100
C  -12.85200 21.28300 40.00500
C  -13.98100 20.39500 40.01200
C  -13.33800 19.07500 40.36500
C  -12.90400 22.78100 39.72100
C  -15.34300 20.82100 39.79100
O  -15.59600 22.03700 39.66900
C  -16.38900 19.81100 39.82000
N  -12.09000 16.31300 40.61900
C  -13.41200 16.59600 40.48700
C  -14.30500 15.38000 40.63200
C  -13.27800 14.24900 40.63200
C  -11.93500 14.95200 40.72900
C  -15.13400 15.55700 41.87900
C  -13.33000 13.39100 39.23500
C  -13.65700 11.88100 39.27800
N  -9.20500 16.14100 41.19200
C  -9.40100 14.71100 41.10400
C  -8.15600 14.10600 41.29200
C  -7.24100 15.11700 41.34800
C  -7.95500 16.33500 41.15200
C  -7.91300 12.64700 41.32500
C  -5.83600 15.54600 41.38600
O  -4.82900 14.87400 41.66900
C  -5.67800 17.12000 41.21300
C  -5.06900 17.65600 42.44200
O  -5.68300 17.98800 43.44900
O  -3.76400 17.88500 42.17200
C  -3.02900 18.57800 43.22600
H  -10.33600 22.13900 40.46200
H  -15.00600 17.77100 40.03400
H  -10.93300 13.14600 40.97100
H  -6.02700 20.07800 41.38500
H  -7.78500 22.13200 40.60600
H  -6.71300 21.55800 42.88700
H  -8.44300 21.07800 43.17700
H  -7.98600 22.64900 42.65900
H  -6.67700 21.16800 38.63000
H  -6.85700 19.40400 38.63600
H  -4.22400 19.91100 39.66800
H  -4.58900 21.17800 38.49500
H  -13.34600 23.00800 38.75100
H  -11.91400 23.23700 39.73600
H  -13.50600 23.38600 40.39800
H  -16.29100 19.21200 38.91400
H  -17.27600 20.44200 39.77700
H  -16.45100 19.22700 40.73800
H  -14.94000 15.28800 39.75100
H  -13.55600 13.55100 41.42200
H  -15.65700 14.63500 42.13700
H  -15.88400 16.34600 41.82600
H  -14.54100 15.84800 42.74700
H  -12.36800 13.50700 38.73500
H  -14.01600 13.78400 38.48400
H  -14.61400 11.65300 38.80900
H  -13.72000 11.57100 40.32100
H  -12.79600 11.40800 38.80800
H  -7.36900 12.23400 40.47500
H  -8.88800 12.16000 41.30600
H  -7.49500 12.35700 42.28900
H  -5.04600 17.37200 40.36200
H  -1.98000 18.74700 42.98600
H  -2.90800 18.04500 44.16900
H  -3.70900 19.41400 43.39000

