158

Mg 1.23500 -1.24000 44.40100
C  4.49400 -0.30600 43.71400
C  0.12100 1.78200 43.31400
C  -1.88000 -2.54200 44.39000
C  2.46500 -4.50000 45.02000
N  2.20400 0.48300 43.52600
C  3.49800 0.66200 43.34000
C  3.79500 1.97200 42.60900
C  2.49400 2.68900 42.91400
C  1.52200 1.59500 43.27600
C  2.44800 3.76200 44.04300
C  4.03800 1.77000 41.07700
C  5.09900 2.72300 40.56200
H  4.92500 3.11900 39.06000
N  -0.67700 -0.47600 43.82100
C  -0.92300 0.82100 43.49900
C  -2.36600 1.00300 43.41300
C  -2.94100 -0.32500 43.62800
C  -1.86400 -1.20600 43.95500
C  -3.03000 2.34000 43.04600
C  -4.36600 -0.60500 43.47300
O  -5.16600 0.34200 43.43600
C  -5.03800 -2.01300 43.41000
N  0.44000 -3.30700 44.69700
C  -0.91800 -3.52900 44.62600
C  -1.27700 -5.02500 45.04400
C  0.15100 -5.62700 45.24600
C  1.08800 -4.44900 44.96000
C  -2.26600 -5.25100 46.26300
C  0.50300 -6.75400 44.22800
C  1.46700 -7.88500 44.80200
N  3.11500 -2.20800 44.54900
C  3.47000 -3.51600 44.90200
C  4.92600 -3.57300 45.12400
C  5.36600 -2.31000 44.57100
C  4.22000 -1.55300 44.30200
C  5.72800 -4.68500 45.50100
C  6.55200 -1.50900 44.20200
O  7.74400 -1.77000 44.29400
C  5.97400 -0.15400 43.59100
C  6.49700 0.99100 44.42000
O  6.28800 1.07500 45.61200
O  7.12200 1.95900 43.69200
C  7.63300 3.07100 44.49100
H  -0.12200 2.79200 42.97900
H  -2.84700 -3.04200 44.47200
H  2.83800 -5.46200 45.38000
H  4.55200 2.59100 43.09100
H  2.19500 3.25800 42.03400
H  3.40500 4.00900 44.50200
H  1.94300 3.32000 44.90100
H  1.78100 4.57000 43.74000
H  3.18400 1.85900 40.40600
H  4.42600 0.76000 40.94300
H  6.02000 2.14300 40.50200
H  5.32400 3.65000 41.08900
H  -3.96700 2.52200 43.57300
H  -3.22000 2.29100 41.97400
H  -2.24800 3.06500 43.27000
H  -6.07500 -1.96800 43.07600
H  -5.03500 -2.55700 44.35500
H  -4.39000 -2.68100 42.84300
H  -1.73400 -5.44500 44.14900
H  0.30800 -5.94700 46.27600
H  -2.60500 -4.26500 46.58000
H  -1.87200 -5.79100 47.12400
H  -3.14700 -5.79300 45.91900
H  0.97200 -6.36000 43.32700
H  -0.39700 -7.23800 43.84900
H  1.68600 -7.72500 45.85700
H  2.38500 -7.81500 44.22000
H  1.04700 -8.87900 44.64400
H  5.17800 -5.44800 46.05100
H  6.52900 -4.20300 46.06200
H  6.09600 -5.20600 44.61700
H  6.32300 -0.10800 42.55900
H  6.89300 3.79600 44.82900
H  8.40000 3.61400 43.93900
H  8.03600 2.69200 45.43000
Mg 27.46100 50.95900 26.17600
C  25.20700 52.17200 28.71100
C  29.46600 49.72500 28.65500
C  29.68700 50.30900 23.73300
C  25.19500 52.45600 23.69700
N  27.21400 50.85100 28.40500
C  26.17500 51.34800 29.23900
C  26.47500 51.00800 30.73200
C  27.98400 50.38800 30.73200
C  28.24300 50.23600 29.17300
C  29.13600 51.27600 31.42900
C  25.46900 49.99100 31.25300
C  25.13100 50.14400 32.75100
H  26.21900 50.69500 33.75500
N  29.35000 50.25100 26.21100
C  30.00200 49.75000 27.32200
C  31.27200 49.23500 26.86800
C  31.34500 49.45000 25.47800
C  30.08900 50.03800 25.06400
C  32.31300 48.62000 27.87000
C  32.52700 49.10800 24.58600
O  32.48900 49.26700 23.33500
C  33.79700 48.31500 25.09100
N  27.46600 51.39800 24.03300
C  28.48800 50.93200 23.26300
C  28.23700 51.22500 21.76700
C  26.77200 51.77500 21.75600
C  26.39700 51.84900 23.22600
C  29.35600 52.03000 21.07300
C  25.75300 50.95300 20.89300
C  24.80000 51.75000 19.96200
N  25.57700 52.09000 26.09400
C  24.82900 52.68500 25.07700
C  23.69100 53.34500 25.67400
C  23.82300 53.25600 27.06800
C  24.95600 52.42900 27.27400
C  22.71200 54.14800 24.89400
C  23.23500 53.55900 28.34700
O  22.19000 54.18100 28.63700
C  24.14300 52.81600 29.45100
C  24.58200 53.84900 30.47600
O  25.39200 54.74300 30.36400
O  24.03200 53.56600 31.69400
C  24.38600 54.35100 32.91100
H  30.02200 49.16500 29.41000
H  30.26500 49.82200 22.94400
H  24.46400 52.80500 22.96600
H  26.50100 51.97300 31.23700
H  28.06400 49.41300 31.21200
H  29.74100 51.63500 30.59600
H  29.80700 50.62700 31.99300
H  28.59900 51.99400 32.04800
H  25.91500 48.99800 31.19700
H  24.53400 49.96700 30.69400
H  24.76600 49.19800 33.15100
H  24.25400 50.79100 32.74100
H  33.22300 49.21800 27.93300
H  32.58100 47.63900 27.47800
H  31.83600 48.40700 28.82600
H  34.15000 48.53700 26.09800
H  34.60900 48.52800 24.39600
H  33.63900 47.23900 25.17200
H  28.13600 50.22300 21.34900
H  26.98000 52.74100 21.29500
H  30.34600 52.08300 21.52700
H  29.09900 53.06800 20.86200
H  29.35100 51.53400 20.10200
H  25.11500 50.43300 21.60700
H  26.30800 50.26600 20.25300
H  24.98900 52.81000 20.13200
H  23.77300 51.40300 20.06800
H  25.14300 51.49600 18.95900
H  23.18400 55.10700 24.67900
H  21.80600 54.34000 25.46900
H  22.45000 53.60200 23.98800
H  23.65000 52.01800 30.00600
H  24.68300 55.37400 32.68200
H  25.31600 53.90000 33.25800
H  23.61500 54.33200 33.68100

