158

Mg 47.40400 16.47100 29.15400
C  45.20600 16.12500 31.79300
C  49.67200 18.00000 31.25900
C  49.40700 17.10500 26.49700
C  44.97700 14.95900 27.06200
N  47.37300 17.06000 31.20900
C  46.38200 16.82500 32.16500
C  46.83200 17.11800 33.63200
C  48.13600 17.91400 33.39100
C  48.43100 17.61400 31.89900
C  48.18700 19.42200 33.64700
C  46.86300 15.87500 34.62900
C  47.75200 15.97800 35.84500
H  47.54700 17.22400 36.75000
N  49.40100 17.35600 28.86400
C  50.14000 17.87300 29.89900
C  51.41400 18.35700 29.37600
C  51.35600 18.15300 27.95500
C  50.03500 17.50300 27.70100
C  52.59000 18.70200 30.24200
C  52.41500 18.37100 26.81000
O  52.18300 18.07100 25.63200
C  53.69100 18.97900 27.08400
N  47.22700 16.16000 27.09000
C  48.16900 16.53200 26.20100
C  47.71500 16.28400 24.78100
C  46.48100 15.33700 25.04400
C  46.13000 15.51800 26.52600
C  47.43800 17.55200 23.99300
C  46.74800 13.83300 24.63400
C  46.14800 13.23400 23.38300
N  45.41300 15.65300 29.34800
C  44.60800 15.14200 28.44700
C  43.37700 14.76700 29.09700
C  43.55900 15.14000 30.42500
C  44.81500 15.66400 30.52900
C  42.18300 14.15900 28.48400
C  42.97500 15.10500 31.75100
O  41.90600 14.62700 32.10300
C  43.96900 15.85000 32.69900
C  43.36400 17.01100 33.31200
O  42.96100 18.02100 32.79500
O  43.30500 16.72100 34.61500
C  42.50100 17.60500 35.47400
H  50.42400 18.53000 31.84700
H  50.01000 17.30400 25.60900
H  44.19400 14.60400 26.38800
H  46.07300 17.76900 34.06800
H  48.94700 17.47200 33.97000
H  49.18300 19.85200 33.74800
H  47.59800 19.70000 34.52100
H  47.73300 19.70400 32.69700
H  47.29700 15.01200 34.12400
H  45.88000 15.57900 34.99700
H  48.77100 15.81500 35.49500
H  47.41600 15.18700 36.51500
H  53.45000 19.05500 29.67200
H  52.99900 17.91900 30.88000
H  52.22400 19.47000 30.92300
H  53.37100 19.95300 27.45300
H  54.24200 19.05200 26.14700
H  54.11600 18.28800 27.81200
H  48.52100 15.79000 24.23800
H  45.66400 15.78200 24.47500
H  46.86800 18.20700 24.65200
H  46.88300 17.41000 23.06600
H  48.38600 18.04200 23.77000
H  46.39600 13.25300 25.48700
H  47.81400 13.62100 24.56300
H  46.85800 12.51900 22.96600
H  45.90300 13.96100 22.60900
H  45.35900 12.59400 23.77800
H  41.96600 14.87000 27.68800
H  41.43600 14.14900 29.27700
H  42.18500 13.11900 28.15500
H  44.27700 15.16700 33.49000
H  42.35700 17.36700 36.52700
H  41.50600 17.57100 35.03000
H  42.92100 18.61100 35.51300
Mg 42.41200 40.99300 27.10000
C  41.42900 43.35100 29.42300
C  42.68900 38.64400 29.63700
C  43.59300 38.87000 24.77100
C  42.26500 43.46700 24.61900
N  42.22100 40.99500 29.30700
C  41.70000 42.09300 30.00400
C  41.51700 41.75800 31.44400
C  42.20100 40.37400 31.66400
C  42.39900 39.93900 30.10900
C  43.52000 40.28000 32.46500
C  40.00500 41.86900 31.94400
C  39.86200 42.55000 33.27500
H  39.58300 41.59800 34.50300
N  43.05500 39.05000 27.20600
C  43.10100 38.17000 28.28700
C  43.61600 36.90400 27.82700
C  43.86200 37.03100 26.40100
C  43.40800 38.36200 26.03900
C  44.13600 35.86200 28.82100
C  44.59900 35.99600 25.46300
O  45.02400 36.29400 24.36300
C  44.72100 34.53500 25.84600
N  43.11200 41.17700 25.08800
C  43.41500 40.12700 24.28200
C  43.69300 40.44200 22.83200
C  43.16900 41.88900 22.80500
C  42.82300 42.24200 24.29800
C  45.30100 40.29200 22.42900
C  41.98600 42.17600 21.91900
C  40.70800 41.48300 22.30200
N  42.04000 43.06700 27.00700
C  41.99800 43.94200 25.89800
C  41.50600 45.24300 26.29200
C  41.23300 45.04400 27.69300
C  41.61000 43.71600 28.04700
C  41.23600 46.42000 25.40500
C  40.68500 45.62200 28.85200
O  40.29600 46.77500 28.94800
C  40.92500 44.65300 30.05700
C  41.90100 45.08800 31.05400
O  43.11700 45.11400 30.81300
O  41.30100 45.45800 32.17700
C  42.18400 45.89000 33.28700
H  42.58000 37.76300 30.27200
H  43.62600 38.12000 23.97900
H  42.02900 44.25700 23.90300
H  42.17800 42.46100 31.95000
H  41.42800 39.79100 32.16500
H  44.38000 40.46100 31.82000
H  43.73800 39.25900 32.78100
H  43.48600 40.88600 33.37000
H  39.58000 40.86900 32.03800
H  39.34500 42.31500 31.20100
H  39.02500 43.23600 33.14100
H  40.70300 43.19400 33.53200
H  43.35400 35.16900 29.13100
H  44.31000 36.39600 29.75500
H  45.01000 35.24700 28.60700
H  45.75100 34.45500 26.19500
H  44.47100 33.95500 24.95800
H  43.98700 34.28000 26.61100
H  43.15100 39.72700 22.21300
H  43.97200 42.59000 22.57700
H  45.93000 39.86700 23.21100
H  45.69800 41.23600 22.05500
H  45.50900 39.60100 21.61300
H  42.19600 41.80000 20.91800
H  41.77900 43.24300 21.84100
H  40.46100 40.60300 21.70900
H  39.96000 42.24900 22.09800
H  40.73000 41.14900 23.34000
H  42.23100 46.80700 25.18600
H  40.58100 47.17100 25.84600
H  40.80100 46.21700 24.42600
H  39.99000 44.38700 30.55100
H  42.08000 46.92000 33.62800
H  43.22000 45.83600 32.95300
H  42.08100 45.24700 34.16100

