158

Mg 27.02000 49.78200 26.70100
C  24.75500 51.00800 29.28200
C  29.27600 49.28700 29.16600
C  29.08000 49.16900 24.28300
C  24.65900 51.30300 24.39900
N  26.90000 50.07000 28.99100
C  25.89200 50.42200 29.88200
C  26.34000 50.29400 31.31600
C  27.93100 50.09700 31.14100
C  28.05700 49.75400 29.63900
C  28.74600 51.41000 31.60000
C  25.61000 49.06600 32.01400
C  24.88600 49.37200 33.29800
H  25.76200 49.92200 34.47400
N  28.88300 49.25600 26.75100
C  29.67600 49.00700 27.86500
C  30.99300 48.52400 27.41600
C  30.96400 48.55600 25.96200
C  29.58400 49.02000 25.60100
C  32.08300 48.17200 28.35800
C  32.05800 48.17400 24.95300
O  31.89500 48.02400 23.75300
C  33.50500 47.88200 25.39200
N  26.90200 50.19500 24.69500
C  27.88500 49.70600 23.87400
C  27.50100 49.75000 22.35100
C  25.96600 50.20000 22.53500
C  25.82700 50.63300 23.92100
C  28.36200 50.68700 21.48300
C  24.92200 49.14700 21.97000
C  24.57700 47.97800 22.83900
N  25.07900 50.89400 26.77100
C  24.26300 51.43600 25.75800
C  23.15600 52.16000 26.35100
C  23.24200 51.93300 27.73000
C  24.44000 51.21700 27.93300
C  22.15300 52.93200 25.56400
C  22.57300 52.18800 28.95400
O  21.49700 52.64500 29.17000
C  23.58700 51.68500 30.08400
C  23.93600 52.71900 31.07800
O  24.53800 53.75900 30.98100
O  23.46300 52.22600 32.27900
C  23.56000 53.16200 33.39400
H  29.96400 49.07800 29.98800
H  29.86000 49.11400 23.52100
H  24.03700 51.70400 23.59600
H  26.13800 51.17000 31.93300
H  28.32600 49.26900 31.73000
H  29.64300 51.15500 32.16600
H  28.15500 52.06300 32.24200
H  29.05900 51.98600 30.73000
H  26.33900 48.28100 32.21200
H  24.75600 48.74400 31.41900
H  24.23900 48.57000 33.65400
H  24.30200 50.27600 33.12600
H  33.06600 48.58100 28.12200
H  32.21300 47.09000 28.32600
H  31.93300 48.50800 29.38300
H  34.13900 47.46200 24.61200
H  33.55000 47.22600 26.26200
H  33.93300 48.84300 25.67900
H  27.59700 48.72400 21.99800
H  25.88400 51.07300 21.88800
H  27.65700 51.20500 20.83300
H  29.00700 50.18000 20.76500
H  28.96400 51.35700 22.09700
H  25.28000 48.67800 21.05400
H  24.03800 49.70200 21.65800
H  24.52400 48.29000 23.88200
H  25.33900 47.20600 22.73300
H  23.58100 47.60500 22.60100
H  22.45600 53.08200 24.52700
H  21.93700 53.90500 26.00500
H  21.31200 52.25400 25.70800
H  23.05600 50.87700 30.58700
H  24.32700 52.84500 34.10100
H  22.67100 53.19200 34.02400
H  23.74300 54.20500 33.13500
Mg -5.58300 24.92900 26.06700
C  -3.98500 25.91600 29.16000
C  -7.30800 22.65100 28.04500
C  -6.38700 23.40400 23.25200
C  -3.25900 26.86900 24.39600
N  -5.75800 24.44800 28.46100
C  -4.99300 24.91100 29.44700
C  -5.52000 24.38500 30.81100
C  -6.55700 23.28800 30.41500
C  -6.62500 23.49000 28.90100
C  -6.10800 21.90300 30.71800
C  -6.25900 25.60300 31.60100
C  -5.91000 25.78700 33.08100
H  -5.08700 24.78600 33.79200
N  -6.77300 23.44400 25.71700
C  -7.51300 22.68500 26.60000
C  -8.41100 21.80300 25.89200
C  -8.16000 22.00200 24.49800
C  -7.04700 22.99600 24.46700
C  -9.42800 20.88500 26.58600
C  -8.85400 21.32700 23.26800
O  -8.41100 21.45400 22.14900
C  -9.92400 20.37400 23.43900
N  -4.89200 25.04500 24.16700
C  -5.33900 24.28400 23.13800
C  -4.82000 24.73500 21.81100
C  -3.97200 26.01500 22.14300
C  -4.06600 26.04600 23.67900
C  -3.91700 23.63200 21.07400
C  -4.43500 27.30800 21.46800
C  -3.38400 28.31900 21.10500
N  -3.99300 26.23400 26.62800
C  -3.21400 26.96800 25.78300
C  -2.32300 27.82000 26.61200
C  -2.60600 27.46800 27.96900
C  -3.60500 26.47500 27.91400
C  -1.57100 28.98600 26.21200
C  -2.18400 27.67200 29.35000
O  -1.21600 28.31600 29.70700
C  -3.23500 26.79600 30.21300
C  -2.34400 25.89000 31.06500
O  -1.98200 24.77100 30.72200
O  -1.97700 26.55600 32.21800
C  -0.89000 25.83200 32.89100
H  -7.99100 22.01700 28.61400
H  -6.81700 23.04700 22.31400
H  -2.60200 27.59700 23.91600
H  -4.68100 24.06100 31.42700
H  -7.52600 23.40300 30.90100
H  -5.28000 21.83400 31.42400
H  -5.72800 21.47800 29.78900
H  -6.91700 21.24200 31.02800
H  -7.34600 25.55800 31.53300
H  -5.99800 26.54200 31.11400
H  -6.81100 25.93600 33.67700
H  -5.45700 26.75900 33.27900
H  -9.44000 20.95700 27.67300
H  -9.21100 19.83400 26.39700
H  -10.37600 21.05000 26.07300
H  -10.89100 20.87000 23.51700
H  -9.60300 19.63700 24.17500
H  -10.14900 19.83100 22.52000
H  -5.69900 24.95400 21.20400
H  -2.94800 25.78600 21.84800
H  -3.85200 22.74600 21.70600
H  -2.86800 23.87300 20.90700
H  -4.38200 23.47800 20.10100
H  -5.25300 27.90100 21.87800
H  -4.81000 27.07100 20.47200
H  -2.43500 27.98200 21.52300
H  -3.44000 29.28700 21.60200
H  -3.36800 28.41100 20.01900
H  -2.20600 29.75200 25.76600
H  -0.77300 28.87100 25.47900
H  -1.22000 29.45700 27.13000
H  -3.87700 27.35200 30.89600
H  0.07800 25.95700 32.40600
H  -1.07900 24.78100 33.11300
H  -0.92300 26.22400 33.90800

