158

Mg 24.75200 -6.47900 46.80200
C  27.42500 -4.39600 45.84400
C  22.77100 -4.79500 44.66000
C  22.45900 -9.00400 46.98200
C  27.09000 -8.57200 48.37700
N  25.07200 -4.88200 45.37800
C  26.24900 -4.13800 45.15800
C  26.05400 -3.02900 44.14500
C  24.46700 -2.89600 44.09800
C  24.07800 -4.29700 44.68800
C  23.75800 -1.84300 44.95500
C  26.75600 -3.35400 42.73900
C  27.68300 -2.28300 42.01700
H  27.18400 -2.10300 40.56200
N  22.79400 -6.78500 46.15300
C  22.16300 -5.91600 45.27200
C  20.81900 -6.42700 45.03600
C  20.75000 -7.67400 45.68600
C  21.98500 -7.83700 46.33500
C  19.88300 -5.70500 44.24900
C  19.44700 -8.54800 45.65400
O  18.46300 -8.18700 45.06900
C  19.32700 -9.99700 46.37400
N  24.74800 -8.52600 47.71500
C  23.67100 -9.29800 47.65000
C  23.99400 -10.66100 48.15800
C  25.42200 -10.44400 48.83700
C  25.80300 -9.14400 48.22700
C  23.00300 -11.42200 49.06100
C  26.42200 -11.55100 48.35600
C  27.43500 -12.10300 49.38500
N  26.84100 -6.38300 47.21600
C  27.63300 -7.27800 47.87700
C  29.02900 -6.80300 47.92100
C  28.96300 -5.63300 47.19900
C  27.68900 -5.41100 46.75400
C  30.19100 -7.54100 48.52800
C  29.77700 -4.49700 46.79400
O  30.91900 -4.19400 47.01200
C  28.83800 -3.72100 45.77100
C  28.77600 -2.26100 46.06900
O  28.34400 -1.81900 47.11100
O  29.46100 -1.64200 45.06200
C  29.48400 -0.15900 45.26500
H  22.21500 -4.18900 43.94200
H  21.71800 -9.80500 46.94800
H  27.73400 -9.27500 48.91000
H  26.48900 -2.11800 44.55600
H  24.19400 -2.88000 43.04300
H  24.52100 -1.19900 45.39100
H  23.16700 -2.32500 45.73400
H  23.16000 -1.13800 44.37800
H  26.12100 -3.91700 42.05500
H  27.54000 -4.07100 42.98200
H  28.71600 -2.61900 41.93900
H  27.57100 -1.29600 42.46700
H  19.34500 -6.28400 43.49900
H  20.40300 -4.95600 43.65200
H  19.06800 -5.25000 44.81100
H  18.27800 -10.28500 46.29600
H  19.57300 -9.84900 47.42500
H  19.90900 -10.72000 45.80300
H  24.08800 -11.11900 47.17300
H  25.51100 -10.39300 49.92200
H  22.08700 -10.83400 49.11600
H  23.32300 -11.69400 50.06700
H  22.78200 -12.36100 48.55300
H  27.08500 -11.15800 47.58600
H  25.91600 -12.37200 47.84700
H  27.64400 -13.17300 49.37800
H  27.12100 -11.75900 50.37000
H  28.40600 -11.67300 49.14100
H  30.43500 -7.02700 49.45800
H  31.02800 -7.63600 47.83600
H  29.90300 -8.49800 48.96300
H  29.21000 -3.82100 44.75100
H  30.22700 0.19200 44.54800
H  29.82100 0.15200 46.25400
H  28.47000 0.15200 45.01700
Mg -11.37700 16.00100 41.29700
C  -8.17500 14.59800 41.08600
C  -10.14300 18.81600 39.73000
C  -14.52400 17.24200 41.04000
C  -12.47800 12.93000 42.34500
N  -9.42200 16.60900 40.51800
C  -8.28600 15.91100 40.52200
C  -7.11300 16.65100 39.74500
C  -7.77500 18.10700 39.51000
C  -9.22600 17.76400 39.84000
C  -7.15900 19.05800 40.52400
C  -6.74000 15.97300 38.44400
C  -5.26400 15.85700 38.00500
H  -4.87300 16.72700 36.87900
N  -12.23400 17.71500 40.38000
C  -11.52300 18.79800 39.88100
C  -12.41100 19.88700 39.52900
C  -13.73900 19.54400 39.94200
C  -13.57900 18.10500 40.46700
C  -12.00600 21.23200 39.06900
C  -15.04400 20.39100 39.90600
O  -14.95600 21.54400 39.56500
C  -16.35200 19.92400 40.40800
N  -13.29600 15.12000 41.50600
C  -14.39900 15.94100 41.57400
C  -15.64100 15.16100 42.08700
C  -14.97000 13.83300 42.65100
C  -13.52300 13.92900 42.07000
C  -16.48500 16.06900 43.11000
C  -15.69900 12.54700 42.35100
C  -16.56300 11.89200 43.46200
N  -10.52800 14.11400 41.65900
C  -11.12600 12.95900 42.12100
C  -10.12800 11.94100 42.31300
C  -8.99900 12.53000 41.87900
C  -9.26500 13.85100 41.51000
C  -10.32100 10.61600 42.83600
C  -7.56400 12.32600 41.73600
O  -6.94400 11.33100 41.88400
C  -6.91100 13.72700 41.24300
C  -5.95200 14.34600 42.18600
O  -6.21100 15.03700 43.16500
O  -4.72500 13.79600 41.90900
C  -3.63400 14.28600 42.67500
H  -9.79600 19.67300 39.14900
H  -15.55600 17.57900 41.16000
H  -12.78500 12.01600 42.85800
H  -6.18600 16.68300 40.31600
H  -7.71300 18.43100 38.47100
H  -7.98300 19.44700 41.12200
H  -6.63600 19.89400 40.05900
H  -6.54900 18.52500 41.25300
H  -7.24800 16.44200 37.60100
H  -7.07900 14.93800 38.48200
H  -4.93900 14.82400 37.88200
H  -4.63500 16.35100 38.74500
H  -11.85100 21.94500 39.87900
H  -12.70800 21.78200 38.44200
H  -11.08300 21.12700 38.50000
H  -17.11300 20.67600 40.19900
H  -16.20700 19.70400 41.46600
H  -16.65600 18.98100 39.95400
H  -16.33500 14.88800 41.29100
H  -14.81700 13.96300 43.72200
H  -17.50000 16.24000 42.75300
H  -16.10900 17.09200 43.12900
H  -16.44000 15.51200 44.04700
H  -14.93500 11.85700 41.99400
H  -16.28300 12.80500 41.46700
H  -16.22900 10.87000 43.64000
H  -17.56900 11.78000 43.05800
H  -16.47200 12.33400 44.45400
H  -11.35400 10.29300 42.70300
H  -10.23900 10.70400 43.91900
H  -9.58600 9.89200 42.48400
H  -6.39200 13.58700 40.29500
H  -3.22700 15.14200 42.13700
H  -2.93800 13.47500 42.89100
H  -3.92200 14.58700 43.68300

