158

Mg 48.02200 15.98200 28.51700
C  46.06800 15.53300 31.48300
C  49.94200 18.10900 30.43800
C  49.47200 16.85100 25.77600
C  45.34600 14.47000 26.75100
N  47.92600 16.73800 30.67100
C  47.07700 16.44800 31.67600
C  47.58100 16.89300 33.07500
C  48.70400 17.85400 32.65500
C  48.85800 17.55400 31.15600
C  48.44000 19.36900 33.06200
C  48.05600 15.66900 33.91900
C  48.17000 15.85300 35.44200
H  47.58400 17.11900 36.11500
N  49.58700 17.13800 28.18900
C  50.26500 17.95000 29.06700
C  51.41300 18.56900 28.41200
C  51.36200 18.11500 27.08200
C  50.08800 17.35900 26.96600
C  52.38300 19.44100 29.09800
C  52.37800 18.27700 25.93600
O  52.32700 17.55800 24.99200
C  53.58800 19.11100 26.18800
N  47.42600 15.76300 26.48500
C  48.26000 16.21200 25.52700
C  47.83400 15.79900 24.15300
C  46.53600 14.92300 24.47400
C  46.36400 15.10700 25.96200
C  47.67700 17.04500 23.17300
C  46.43000 13.44800 24.02900
C  47.00700 12.31600 24.93000
N  46.14600 15.06300 28.99000
C  45.20800 14.53300 28.19400
C  44.12800 13.98700 28.94500
C  44.49700 14.31100 30.26900
C  45.72300 15.01300 30.26500
C  42.83300 13.31000 28.52100
C  44.14600 14.10000 31.58000
O  43.24400 13.41900 32.11500
C  45.07000 14.96700 32.45100
C  44.35000 16.03700 33.17500
O  43.92400 17.09500 32.71400
O  44.16100 15.64400 34.44700
C  43.33600 16.48600 35.32400
H  50.50800 18.80800 31.05700
H  49.99600 17.32600 24.94400
H  44.48700 13.94300 26.32900
H  46.76800 17.31400 33.66700
H  49.58500 17.53400 33.21200
H  48.35800 20.01100 32.18500
H  49.35300 19.65700 33.58300
H  47.58100 19.46700 33.72500
H  49.07800 15.43900 33.61500
H  47.51500 14.77300 33.61400
H  49.22200 15.95900 35.70700
H  47.88400 14.93000 35.94700
H  52.75000 20.20700 28.41500
H  53.19900 18.87000 29.54000
H  52.03900 20.07500 29.91600
H  53.96400 18.81500 27.16800
H  53.28400 20.15500 26.25900
H  54.33400 18.95000 25.41000
H  48.58600 15.10800 23.77100
H  45.67400 15.39300 24.00000
H  46.64300 17.15700 22.84700
H  48.44800 16.72800 22.47000
H  48.05200 17.92000 23.70300
H  46.84100 13.23400 23.04200
H  45.34800 13.32300 23.99200
H  47.73100 12.56700 25.70500
H  47.57300 11.63100 24.29900
H  46.13600 11.89600 25.43400
H  42.05700 13.31400 29.28600
H  42.97100 12.26700 28.23500
H  42.42200 13.81000 27.64400
H  45.63700 14.38500 33.17800
H  42.69900 15.89500 35.98200
H  42.56800 17.09400 34.84600
H  43.99200 17.08700 35.95400
Mg 35.70600 48.80000 25.45400
C  36.03500 47.27700 28.57900
C  34.37300 51.56600 27.04200
C  35.09800 50.33300 22.37600
C  36.47000 45.83900 23.89000
N  35.14900 49.22400 27.54800
C  35.59600 48.56500 28.63100
C  35.30900 49.34000 29.90500
C  34.67000 50.70700 29.38600
C  34.67400 50.50400 27.86000
C  33.24800 51.06900 29.90300
C  36.60800 49.50800 30.74900
C  36.51600 49.48500 32.29100
H  35.24600 49.85300 32.99800
N  34.89200 50.68900 24.82600
C  34.33000 51.66400 25.67100
C  33.85800 52.73500 24.91700
C  34.04500 52.34800 23.50100
C  34.74500 51.11500 23.54800
C  33.31300 54.09300 25.53200
C  33.77400 53.25200 22.27700
O  33.99500 52.95200 21.12300
C  33.16400 54.55700 22.47600
N  35.60900 48.17600 23.42800
C  35.61400 49.02900 22.34100
C  36.04300 48.28700 21.04200
C  36.50200 46.93500 21.67000
C  36.13700 46.94400 23.08900
C  35.02200 48.16200 19.93400
C  37.98000 46.63500 21.50000
C  38.53600 46.67800 20.12200
N  36.14900 46.88900 26.08500
C  36.44900 45.79100 25.31800
C  36.77300 44.60200 26.26300
C  36.62900 45.19800 27.60600
C  36.29000 46.55300 27.41600
C  37.37800 43.29200 25.92600
C  36.76600 44.96600 29.02200
O  36.98200 43.96500 29.65400
C  36.25100 46.25100 29.73600
C  34.95600 45.90200 30.39000
O  33.87200 45.63300 29.87900
O  35.08900 46.15200 31.75900
C  33.84500 45.87500 32.51500
H  34.12600 52.48200 27.58300
H  34.83100 50.67700 21.37400
H  36.63700 44.85500 23.44500
H  34.53200 48.74500 30.38400
H  35.31900 51.52300 29.70300
H  33.06700 50.54800 30.84300
H  32.48500 50.79500 29.17400
H  33.28600 52.11600 30.20500
H  37.06700 50.45200 30.45800
H  37.30200 48.76600 30.35400
H  37.37200 50.13100 32.48800
H  36.72700 48.46500 32.61200
H  34.03700 54.86100 25.26000
H  33.31700 54.05400 26.62200
H  32.38000 54.45800 25.10400
H  32.96200 55.14400 21.57900
H  33.90100 55.04200 23.11600
H  32.23500 54.34300 23.00400
H  36.91500 48.83600 20.68600
H  35.96300 46.04700 21.34200
H  35.65100 48.47200 19.10000
H  34.08800 48.65100 20.20900
H  34.85300 47.10500 19.72800
H  38.10000 45.60100 21.82500
H  38.44500 47.32100 22.20800
H  38.71500 45.70100 19.67200
H  39.57100 47.01800 20.16100
H  37.95300 47.27400 19.42000
H  38.19700 43.14300 26.62900
H  37.92200 43.46100 24.99700
H  36.62600 42.50600 25.86200
H  36.99300 46.57000 30.46800
H  33.93000 44.79700 32.65300
H  32.94300 46.26400 32.04400
H  33.90600 46.37900 33.48000

