158

Mg 54.24200 24.40700 44.41700
C  51.67400 26.65800 43.66200
C  52.23300 21.86100 43.19900
C  56.95300 22.51600 44.43800
C  56.34600 27.28500 44.66500
N  52.22000 24.25100 43.65000
C  51.35000 25.31500 43.45400
C  49.97900 24.75300 42.93900
C  50.07800 23.22400 43.28300
C  51.59900 23.06700 43.37200
C  49.38700 22.71100 44.58500
C  49.72300 24.96500 41.44100
C  48.26100 25.25900 41.01000
H  48.05300 24.79100 39.57400
N  54.55000 22.38500 43.96200
C  53.59800 21.46300 43.44700
C  54.22700 20.20500 43.41400
C  55.60400 20.34800 43.85200
C  55.79000 21.78800 44.12600
C  53.45200 19.01400 42.85200
C  56.64300 19.19400 43.83600
O  56.41600 18.13500 43.28200
C  57.98300 19.35000 44.46200
N  56.37000 24.83400 44.29700
C  57.26900 23.89200 44.57300
C  58.64500 24.47700 44.93100
C  58.41300 25.91600 45.04700
C  56.95400 26.01000 44.65800
C  59.34600 23.83600 46.18700
C  59.34800 26.75900 44.14300
C  59.91400 27.97500 44.75400
N  54.06100 26.60600 44.34400
C  55.01200 27.65000 44.54900
C  54.34400 28.90800 44.69600
C  53.01900 28.57500 44.31600
C  52.91200 27.13000 44.10900
C  54.91100 30.21100 44.93000
C  51.64900 29.12400 44.13700
O  51.26600 30.28900 44.32100
C  50.83400 27.92100 43.44900
C  50.45300 28.22800 42.07500
O  51.24700 28.24200 41.14400
O  49.09100 28.71200 41.98700
C  48.74700 29.19300 40.61400
H  51.54000 21.09400 42.84700
H  57.76700 21.78800 44.44900
H  57.08400 28.07000 44.84300
H  49.20900 25.31000 43.47300
H  49.86200 22.54500 42.45900
H  50.07500 22.05900 45.12300
H  48.43100 22.20800 44.43600
H  49.22500 23.53400 45.28100
H  50.11000 24.14300 40.83900
H  50.40100 25.73900 41.08100
H  48.06400 26.33000 41.04300
H  47.53400 24.85300 41.71400
H  53.62500 18.81000 41.79600
H  52.37800 19.17300 42.94800
H  53.65500 18.20700 43.55700
H  58.46200 18.38600 44.63700
H  57.75600 19.88100 45.38600
H  58.69300 19.99400 43.94300
H  59.18500 24.24400 44.01300
H  58.38300 26.22000 46.09300
H  58.59300 23.37900 46.82900
H  59.87200 24.52900 46.84300
H  60.07100 23.11600 45.80800
H  58.91200 27.13600 43.21900
H  60.23900 26.20000 43.85600
H  59.77900 28.90900 44.20900
H  61.00000 27.90700 44.81100
H  59.49800 28.02600 45.76000
H  54.28000 30.55300 45.75100
H  54.62800 30.82500 44.07500
H  55.95800 30.18500 45.23100
H  50.04600 27.73000 44.17700
H  49.55300 29.51500 39.95500
H  48.20900 30.14000 40.59000
H  48.14800 28.36800 40.22800
Mg 9.48500 47.59800 26.40100
C  7.70400 47.74100 29.37400
C  12.19600 48.79300 27.91000
C  11.17600 47.86300 23.35800
C  6.45500 47.12300 24.66200
N  9.81800 48.37100 28.40900
C  9.03700 48.14900 29.51200
C  9.90800 48.33100 30.76900
C  11.17800 49.14500 30.21200
C  11.08300 48.79100 28.70400
C  11.33300 50.64400 30.58400
C  10.35100 46.98300 31.41500
C  10.99500 47.11000 32.86400
H  10.29900 46.36300 34.01100
N  11.51200 48.05100 25.76300
C  12.45400 48.48400 26.57900
C  13.69100 48.63500 25.82400
C  13.41400 48.29100 24.49500
C  11.97200 47.99300 24.52100
C  15.03100 48.92600 26.50500
C  14.36500 48.29400 23.24200
O  13.97700 48.11500 22.04800
C  15.78400 48.31800 23.46800
N  8.87400 47.66500 24.37100
C  9.74800 47.65600 23.35100
C  9.04000 47.30900 22.01400
C  7.63100 46.91600 22.34800
C  7.66200 47.25800 23.90800
C  9.04700 48.60600 21.14500
C  7.38800 45.38100 22.09200
C  7.88800 44.34900 23.12700
N  7.45600 47.41900 26.89200
C  6.37200 47.17900 26.08700
C  5.17800 47.18800 26.86700
C  5.61200 47.35400 28.19200
C  7.01700 47.49100 28.16100
C  3.75400 47.04400 26.41000
C  5.22100 47.49100 29.58200
O  4.13800 47.56400 30.21900
C  6.58900 47.60200 30.35800
C  6.63400 46.43600 31.21400
O  7.02600 45.31800 30.98700
O  6.13200 46.79000 32.45100
C  6.17600 45.75300 33.47100
H  13.03700 49.21800 28.46300
H  11.60700 47.70100 22.36800
H  5.56400 46.61400 24.28900
H  9.47600 48.93500 31.56700
H  12.06500 48.65200 30.60900
H  12.19200 50.77500 31.24100
H  10.41000 50.92000 31.09500
H  11.39100 51.16000 29.62600
H  11.05200 46.41200 30.80600
H  9.44400 46.38200 31.49100
H  11.09600 48.17200 33.09000
H  12.01800 46.73500 32.89900
H  15.39100 49.95000 26.40300
H  15.82900 48.34800 26.03900
H  14.92700 48.71300 27.56900
H  16.27300 48.14100 22.51000
H  15.94400 47.35100 23.94400
H  16.09700 49.19100 24.04100
H  9.56900 46.54100 21.44900
H  6.90800 47.51100 21.78900
H  9.42400 49.41600 21.77000
H  8.10600 48.84500 20.64800
H  9.67600 48.52700 20.25800
H  7.81900 45.06900 21.14000
H  6.30300 45.36200 21.98900
H  8.48800 44.71700 23.96000
H  8.39900 43.60900 22.51200
H  7.04800 43.79600 23.54700
H  3.16500 47.01900 27.32700
H  3.72400 46.14300 25.79700
H  3.45300 47.91000 25.82100
H  6.49600 48.56000 30.87000
H  5.51500 45.93000 34.32000
H  7.22000 45.65700 33.77100
H  5.87600 44.75600 33.14900

