158

Mg -1.63600 17.44200 27.43100
C  -2.08600 15.20800 30.13500
C  -2.42400 19.98600 29.58500
C  -1.85200 19.66500 24.85100
C  -1.77300 14.85400 25.25800
N  -2.28100 17.49500 29.61600
C  -2.33600 16.48700 30.51100
C  -2.58700 17.02200 31.99600
C  -2.61600 18.58300 31.75600
C  -2.50500 18.71000 30.21900
C  -3.90300 19.23000 32.28200
C  -1.55400 16.56100 32.99200
C  -1.25200 17.45200 34.19200
H  -0.53000 16.79500 35.33900
N  -1.75800 19.57000 27.32200
C  -2.21000 20.44000 28.24700
C  -2.16400 21.85300 27.77300
C  -1.72500 21.64600 26.39400
C  -1.79700 20.25500 26.12200
C  -2.39100 23.13500 28.59600
C  -1.32700 22.68400 25.39100
O  -0.99200 22.45700 24.27700
C  -1.16900 24.06600 25.92900
N  -1.98000 17.32300 25.32900
C  -2.01200 18.36900 24.46000
C  -1.92800 17.79300 23.04900
C  -1.85700 16.23000 23.19000
C  -1.89600 16.10200 24.70800
C  -3.03600 18.19300 22.09600
C  -0.56700 15.53300 22.71600
C  0.70900 15.97800 23.52000
N  -1.74000 15.43900 27.61100
C  -1.77000 14.52400 26.63300
C  -1.78600 13.20000 27.25700
C  -1.91700 13.41000 28.61500
C  -1.87500 14.81100 28.79300
C  -1.82100 11.94900 26.57400
C  -2.09400 12.70300 29.84700
O  -2.20500 11.52600 30.10000
C  -2.08500 13.89000 30.97700
C  -0.88800 13.71100 31.75400
O  0.20400 14.17500 31.42300
O  -1.16900 13.07900 32.90900
C  0.09900 12.77500 33.63800
H  -2.44400 20.85400 30.24700
H  -1.65900 20.31300 23.99300
H  -1.82700 14.08300 24.48600
H  -3.54900 16.63100 32.32800
H  -1.69500 19.02900 32.12900
H  -4.44800 18.52800 32.91300
H  -4.45100 19.69100 31.46100
H  -3.57100 19.97300 33.00800
H  -0.68000 16.41100 32.35800
H  -1.82300 15.55000 33.29900
H  -2.19900 17.92700 34.44600
H  -0.64800 18.28800 33.83900
H  -3.06100 22.73500 29.35700
H  -3.02200 23.83000 28.04300
H  -1.49700 23.55600 29.05600
H  -2.13300 24.41200 26.30100
H  -0.88400 24.70700 25.09500
H  -0.30200 24.00100 26.58700
H  -0.98900 18.20000 22.67100
H  -2.63200 15.63500 22.70700
H  -3.30100 19.22800 22.31200
H  -3.91800 17.58500 22.30200
H  -2.73400 18.10200 21.05300
H  -0.44200 15.81500 21.67100
H  -0.59900 14.44500 22.67100
H  0.52400 16.85800 24.13600
H  1.52400 16.28500 22.86500
H  1.12300 15.14000 24.08000
H  -1.37800 12.02000 25.58100
H  -2.80800 11.48600 26.60700
H  -1.16200 11.27800 27.12500
H  -2.94500 13.74700 31.63200
H  -0.14900 12.46900 34.65500
H  0.69200 13.68900 33.67800
H  0.73200 11.98200 33.24000
Mg 45.01900 4.59800 47.83600
C  42.58000 6.96000 47.21800
C  42.80800 2.13600 47.25900
C  47.54900 2.34200 47.66100
C  47.39100 7.18500 48.05000
N  42.93700 4.61400 47.26800
C  42.13200 5.63100 47.01200
C  40.84100 5.17300 46.31300
C  40.84200 3.65000 46.59100
C  42.29400 3.43900 47.08700
C  39.83400 3.04300 47.54000
C  40.62600 5.50500 44.81900
C  39.43900 6.43400 44.53300
H  39.79500 7.49400 43.50000
N  45.14100 2.45700 47.74700
C  44.09700 1.68200 47.53600
C  44.60300 0.30800 47.44000
C  46.03700 0.34100 47.47600
C  46.30200 1.76500 47.67900
C  43.78700 -0.94800 47.26300
C  46.99900 -0.79300 47.52700
O  46.66600 -1.94200 47.31200
C  48.51900 -0.58600 47.90100
N  47.17300 4.70000 47.82300
C  47.99100 3.70400 47.65700
C  49.51000 4.18200 47.57100
C  49.39500 5.67500 47.86100
C  47.91100 5.88800 47.84300
C  50.36500 3.41800 48.66800
C  50.16900 6.67700 46.88300
C  50.90700 7.79100 47.64000
N  44.99900 6.70300 47.78400
C  46.02300 7.57300 47.95800
C  45.47400 8.89600 47.72000
C  44.09500 8.70400 47.47200
C  43.89200 7.40400 47.52900
C  46.23000 10.18800 47.51800
C  42.87000 9.36600 47.11200
O  42.61100 10.54100 46.93500
C  41.71900 8.28200 47.02300
C  40.90100 8.52000 48.29000
O  41.04200 7.97700 49.40100
O  40.02700 9.51600 48.02000
C  39.08700 9.81400 49.03800
H  42.17200 1.30000 46.96300
H  48.50700 1.83500 47.52600
H  48.16700 7.94400 48.17300
H  39.98100 5.64300 46.79000
H  40.85500 3.03400 45.69200
H  39.62200 2.06700 47.10200
H  39.00000 3.70900 47.76100
H  40.33400 2.97100 48.50600
H  40.51300 4.58700 44.24200
H  41.52300 6.03200 44.49500
H  39.16700 7.10600 45.34700
H  38.58100 5.84700 44.20700
H  43.91800 -1.39000 46.27600
H  42.73000 -0.75200 47.44200
H  44.21300 -1.59000 48.03400
H  49.00600 -1.56100 47.91700
H  48.48500 -0.05900 48.85500
H  48.98600 0.00400 47.11300
H  49.95200 4.04900 46.58400
H  49.64900 5.79800 48.91300
H  51.42300 3.52600 48.43200
H  50.06700 2.37100 48.73100
H  50.10200 3.73500 49.67700
H  49.39800 7.22800 46.34400
H  50.87900 6.24100 46.18000
H  50.77500 8.82300 47.31600
H  51.94300 7.58700 47.36800
H  50.87600 7.62500 48.71700
H  46.56500 10.66900 48.43600
H  45.48700 10.88300 47.12600
H  47.13300 10.18000 46.90800
H  41.13500 8.50900 46.13100
H  38.37500 10.41200 48.46900
H  39.55900 10.33600 49.87100
H  38.68200 8.85100 49.34800

