158

Mg 36.80400 49.29400 25.00700
C  36.73600 47.29300 27.84800
C  35.40100 51.85800 26.96700
C  36.13400 51.08300 22.28200
C  37.71800 46.59800 23.12100
N  36.14900 49.45300 27.13700
C  36.23700 48.56200 28.18300
C  36.01400 49.13600 29.53200
C  35.47900 50.56400 29.14000
C  35.65600 50.64100 27.61600
C  34.04600 50.95000 29.60400
C  37.29700 49.23500 30.47200
C  37.00700 48.72000 31.88000
H  35.68500 49.09400 32.54300
N  36.01000 51.27700 24.65200
C  35.54400 52.12800 25.58400
C  35.06300 53.34400 24.88500
C  35.32600 53.17300 23.48100
C  35.81500 51.82300 23.44000
C  34.42700 54.47400 25.61800
C  35.08800 54.17000 22.38200
O  35.35600 53.98600 21.18500
C  34.51500 55.58800 22.65900
N  36.75200 48.83700 22.99900
C  36.56900 49.77500 22.04900
C  37.01300 49.38900 20.67100
C  37.70800 48.00400 20.99000
C  37.37200 47.79900 22.48700
C  35.75400 49.17200 19.75800
C  39.17900 47.88600 20.59300
C  39.62900 46.59700 19.90400
N  37.07000 47.32200 25.32500
C  37.47000 46.32900 24.45700
C  37.65400 45.03800 25.27300
C  37.42800 45.46400 26.55600
C  37.08900 46.79600 26.55500
C  38.13000 43.72200 24.76600
C  37.41300 44.94300 27.91300
O  37.75800 43.88900 28.40000
C  36.93900 46.13600 28.79700
C  35.78000 45.70800 29.62900
O  34.62800 45.48800 29.28500
O  36.21000 45.46400 30.88900
C  35.19100 45.03500 31.80200
H  34.94100 52.62500 27.59400
H  36.25700 51.73400 21.41400
H  38.05900 45.70000 22.60100
H  35.24100 48.53000 30.00500
H  36.08900 51.40200 29.47700
H  34.15200 51.71200 30.37600
H  33.62800 50.03000 30.01200
H  33.45100 51.45700 28.84400
H  37.75000 50.22400 30.55400
H  38.05400 48.58200 30.03800
H  37.85400 49.05300 32.47900
H  37.11900 47.64500 31.74200
H  35.00300 55.39300 25.72900
H  34.36200 54.21400 26.67400
H  33.44200 54.65400 25.18500
H  33.51500 55.38800 23.04500
H  34.36000 56.14500 21.73500
H  35.17400 56.07800 23.37600
H  37.71500 50.15300 20.33800
H  37.13500 47.20400 20.52000
H  34.87300 49.34300 20.37600
H  35.69500 48.18800 19.29200
H  35.88400 50.01500 19.07900
H  39.83700 47.97700 21.45700
H  39.51800 48.64900 19.89300
H  39.86600 46.84500 18.87000
H  38.95400 45.74100 19.90000
H  40.54200 46.26600 20.39900
H  37.35400 43.15700 24.25000
H  38.47400 43.14500 25.62500
H  38.97100 43.80200 24.07800
H  37.76800 46.14100 29.50400
H  35.59500 44.83300 32.79400
H  34.82800 44.14300 31.29000
H  34.51000 45.87900 31.91200
Mg 6.68400 53.95400 42.39200
C  6.43300 50.27000 41.98700
C  9.57100 53.88700 40.86200
C  6.38500 57.20300 42.05100
C  3.19000 53.72400 43.45300
N  7.79900 52.22900 41.32700
C  7.55500 50.91100 41.38600
C  8.89800 50.18700 41.08900
C  10.05500 51.32600 40.98200
C  9.13000 52.58300 41.13400
C  11.08900 51.47600 42.16200
C  8.88600 49.25100 39.84800
C  8.07500 49.77300 38.66400
H  8.80700 49.94600 37.32100
N  7.90000 55.35600 41.58100
C  9.01700 55.14900 41.02900
C  9.64500 56.40000 40.77200
C  8.77700 57.42500 41.14500
C  7.62900 56.73500 41.60600
C  11.11900 56.56300 40.56000
C  9.05900 58.87200 41.09900
O  10.08400 59.34400 40.69500
C  8.09400 59.83000 41.69400
N  5.02100 55.22900 42.76800
C  5.23500 56.55700 42.49800
C  4.06400 57.39200 43.06200
C  2.89800 56.28100 43.17900
C  3.75100 55.01400 43.15900
C  4.44100 58.12600 44.38000
C  1.71200 56.35200 42.05400
C  0.35000 56.12100 42.63500
N  5.12200 52.33100 42.72300
C  3.85100 52.40500 43.25700
C  3.35200 51.06500 43.53300
C  4.34500 50.19100 43.11500
C  5.40200 51.00700 42.59400
C  1.96800 50.67700 43.94400
C  4.70200 48.82600 42.84600
O  4.21600 47.78200 43.15700
C  6.11500 48.80600 42.08900
C  5.95200 48.14600 40.76500
O  5.21200 48.40400 39.86500
O  6.52100 46.87600 40.94400
C  6.13300 45.86100 39.95400
H  10.62700 53.86400 40.58300
H  6.25600 58.27800 41.90800
H  2.14200 53.78200 43.75600
H  8.98400 49.63300 42.02400
H  10.56700 51.25900 40.02200
H  11.05300 52.42800 42.69000
H  12.10200 51.24500 41.83400
H  10.96000 50.67200 42.88700
H  8.63700 48.23100 40.13800
H  9.86400 49.21100 39.36900
H  7.55100 50.68200 38.95900
H  7.30000 49.06900 38.36200
H  11.33600 56.95900 39.56800
H  11.58800 55.57900 40.53500
H  11.62200 57.12900 41.34300
H  8.53000 60.82700 41.75300
H  7.78400 59.50700 42.68700
H  7.15500 59.76800 41.14400
H  3.75900 58.20300 42.40000
H  2.43200 56.37400 44.16000
H  4.35100 57.35900 45.15000
H  3.80600 58.95000 44.70400
H  5.49900 58.37100 44.47800
H  1.94300 55.71900 41.19700
H  1.72100 57.33800 41.59000
H  0.22000 56.16800 43.71600
H  0.15900 55.06700 42.43500
H  -0.36200 56.74600 42.09600
H  1.27700 50.77500 43.10700
H  1.67700 51.06600 44.92000
H  2.05800 49.63500 44.24900
H  6.80600 48.30900 42.77000
H  5.06000 45.96700 39.79200
H  6.26400 44.85100 40.34300
H  6.64300 45.86700 38.99100

