158

Mg 36.00100 49.33500 25.69600
C  36.10000 47.60300 28.75100
C  35.01100 52.12400 27.24900
C  35.84300 50.76700 22.73100
C  36.90600 46.17000 24.04900
N  35.61200 49.71600 27.75800
C  35.76300 48.92100 28.89000
C  35.55400 49.72300 30.16000
C  34.99900 51.10700 29.65900
C  35.28400 50.99500 28.14400
C  33.53900 51.46700 30.09600
C  36.75400 49.73100 31.24400
C  36.42800 49.61000 32.73800
H  34.98400 49.45100 33.14200
N  35.53400 51.27400 25.07800
C  35.11100 52.26000 25.87900
C  34.87600 53.48900 25.08300
C  35.07500 53.05600 23.66900
C  35.54300 51.64200 23.77300
C  34.66400 54.90200 25.68800
C  34.86400 53.88300 22.41100
O  35.21700 53.35300 21.33600
C  34.19300 55.24100 22.36000
N  36.40400 48.56900 23.64400
C  36.21900 49.39900 22.57200
C  36.43100 48.64500 21.24800
C  37.06900 47.31300 21.76800
C  36.77100 47.33200 23.27000
C  35.16300 48.54200 20.31100
C  38.52900 47.14000 21.41300
C  39.22300 45.76400 21.23900
N  36.44100 47.29100 26.23300
C  36.91700 46.18600 25.46200
C  37.13800 45.13200 26.40800
C  36.84600 45.63100 27.71700
C  36.35400 46.90600 27.53200
C  37.53200 43.77000 26.01100
C  36.77700 45.29000 29.08200
O  36.95400 44.17700 29.61800
C  36.38200 46.55100 29.83500
C  35.17700 46.19200 30.59900
O  34.05300 46.44800 30.28800
O  35.63900 45.55400 31.71500
C  34.70900 45.00500 32.68800
H  34.98900 53.07400 27.78700
H  35.50000 51.00300 21.72200
H  37.32700 45.26700 23.60200
H  34.68800 49.29000 30.66000
H  35.72500 51.85000 29.99100
H  33.20000 50.89000 30.95600
H  32.87800 51.36900 29.23500
H  33.42700 52.51500 30.37200
H  37.29100 50.66500 31.07500
H  37.53200 49.05600 30.88700
H  36.85400 50.51700 33.16600
H  36.99800 48.75600 33.10300
H  33.73000 55.25200 25.24900
H  35.30400 55.70000 25.31300
H  34.72900 54.95400 26.77500
H  34.04400 55.48500 21.30800
H  34.82500 55.84300 23.01300
H  33.22200 55.07100 22.82400
H  37.23400 49.13300 20.69500
H  36.45400 46.51300 21.35500
H  34.27800 48.67000 20.93300
H  35.15100 47.51600 19.94300
H  35.24300 49.16800 19.42200
H  39.01300 47.57500 22.28800
H  38.71800 47.69100 20.49200
H  38.58100 44.91700 21.47800
H  40.09500 45.72800 21.89200
H  39.58600 45.44500 20.26200
H  38.50000 43.69600 25.51500
H  36.85700 43.28300 25.30700
H  37.62200 43.22300 26.94900
H  37.22900 46.81000 30.47000
H  34.59700 45.76900 33.45700
H  34.92000 44.03100 33.12900
H  33.70600 44.89100 32.27700
Mg 0.66800 43.57300 25.59300
C  2.94700 43.05800 28.16100
C  -1.83900 42.66200 27.87600
C  -1.50000 43.56400 23.04600
C  3.29900 43.65400 23.34700
N  0.58600 43.00900 27.76500
C  1.58100 43.01500 28.67300
C  1.10600 42.82500 30.20400
C  -0.44200 42.61100 29.99100
C  -0.57600 42.65100 28.44500
C  -1.07200 41.36900 30.77400
C  1.51000 44.17400 30.98500
C  1.69100 44.04500 32.54200
H  1.25000 42.81100 33.29200
N  -1.35800 43.24700 25.50200
C  -2.21600 42.96900 26.54200
C  -3.54600 43.05500 26.01600
C  -3.49600 43.40300 24.71600
C  -2.05900 43.37600 24.34000
C  -4.84600 42.90200 26.95600
C  -4.64400 43.70500 23.75500
O  -4.44700 44.05200 22.55100
C  -6.06300 43.62000 24.23300
N  0.89500 43.83400 23.59000
C  -0.14600 43.69100 22.70400
C  0.32700 43.40700 21.29700
C  1.76000 43.78700 21.33000
C  2.02900 43.79300 22.82400
C  0.07700 41.98100 20.80400
C  1.95700 45.23000 20.70000
C  1.86500 46.54100 21.58200
N  2.78300 43.42400 25.64800
C  3.71800 43.59500 24.66500
C  5.05900 43.36700 25.22300
C  4.83500 43.18400 26.62100
C  3.39500 43.18800 26.84000
C  6.45700 43.51400 24.58400
C  5.44000 42.91800 27.93800
O  6.62500 42.88200 28.24900
C  4.26000 42.92000 28.96800
C  4.39000 41.74800 29.95100
O  4.44900 40.55600 29.79100
O  4.51300 42.30600 31.14600
C  5.14400 41.49700 32.18700
H  -2.62800 42.62900 28.63000
H  -2.20900 43.34600 22.24400
H  4.12000 43.88700 22.66600
H  1.52300 41.96100 30.72200
H  -1.04800 43.48200 30.24200
H  -1.85800 41.80900 31.38800
H  -0.34900 40.95700 31.47800
H  -1.59700 40.72300 30.07100
H  0.79400 44.98700 30.87000
H  2.33500 44.60700 30.41900
H  1.20200 44.95500 32.89000
H  2.72000 44.23700 32.84700
H  -5.27400 43.90000 27.05000
H  -4.52400 42.57500 27.94400
H  -5.53000 42.13100 26.60100
H  -6.27400 42.63200 24.64200
H  -6.84600 43.73000 23.48300
H  -6.33500 44.44800 24.88700
H  -0.35100 43.94800 20.63700
H  2.52800 43.14800 20.89500
H  0.84300 41.51300 20.18700
H  -0.88500 41.96100 20.29200
H  -0.07500 41.41000 21.72000
H  1.41400 45.22900 19.75500
H  2.98100 45.23300 20.32700
H  2.85500 46.71600 22.00500
H  1.11300 46.51600 22.37000
H  1.66600 47.39200 20.93000
H  6.42200 43.13400 23.56300
H  7.29600 43.03200 25.08400
H  6.71600 44.57300 24.57200
H  4.39700 43.81000 29.58200
H  5.76700 42.09900 32.84800
H  5.74400 40.67800 31.79200
H  4.36000 41.11300 32.83800

