158

Mg 1.65600 -2.58100 44.28600
C  5.15500 -1.72200 43.76600
C  1.05800 0.43200 42.58000
C  -1.40400 -3.70100 43.75900
C  2.76000 -5.72800 45.38600
N  2.97900 -0.89200 43.16300
C  4.34000 -0.72700 43.23300
C  4.75900 0.57300 42.67500
C  3.42800 1.36000 42.52800
C  2.40100 0.28700 42.85700
C  3.42300 2.52800 43.54600
C  5.57000 0.28400 41.28300
C  6.95600 0.95500 41.22100
H  7.21000 2.01000 40.10800
N  0.04200 -1.69500 43.48600
C  -0.02800 -0.47900 42.86500
C  -1.39300 -0.21300 42.45300
C  -2.16900 -1.36500 42.89500
C  -1.14200 -2.34800 43.46100
C  -1.93100 1.03100 41.79700
C  -3.68200 -1.51600 42.84900
O  -4.41500 -0.66400 42.41600
C  -4.34800 -2.68900 43.55700
N  0.77600 -4.48500 44.47400
C  -0.52000 -4.73300 44.21400
C  -0.91700 -6.23300 44.46800
C  0.34200 -6.70000 45.25500
C  1.40300 -5.60300 45.02500
C  -2.28300 -6.55600 45.22900
C  0.81000 -8.11000 44.92500
C  1.21800 -8.25900 43.46000
N  3.52800 -3.57700 44.49200
C  3.75300 -4.80200 45.07800
C  5.20300 -4.89200 45.38700
C  5.72900 -3.68600 44.88700
C  4.74700 -2.95000 44.23900
C  5.98600 -6.02500 45.98900
C  7.00200 -2.92700 44.86500
O  8.10000 -3.14800 45.34500
C  6.70100 -1.58800 44.10700
C  6.99000 -0.46100 45.04600
O  6.46000 -0.27700 46.16100
O  7.79200 0.37300 44.35100
C  8.13000 1.62500 45.04100
H  0.77400 1.41700 42.20400
H  -2.37500 -4.19800 43.72100
H  3.09700 -6.62600 45.90800
H  5.40300 1.11600 43.36800
H  3.27800 1.82000 41.55100
H  3.39400 2.04500 44.52300
H  2.69000 3.32800 43.44300
H  4.40800 2.99600 43.54900
H  4.96800 0.62900 40.44300
H  5.67900 -0.78700 41.10900
H  7.60000 0.07900 41.30400
H  7.17800 1.54100 42.11300
H  -1.40100 1.22000 40.86400
H  -1.75400 1.95500 42.34700
H  -2.95900 1.02500 41.43600
H  -5.37700 -2.38700 43.75300
H  -3.87200 -2.87400 44.52000
H  -4.40000 -3.64500 43.03600
H  -0.94200 -6.61500 43.44800
H  0.24900 -6.73700 46.34100
H  -3.13700 -6.66600 44.56100
H  -2.58900 -5.71600 45.85300
H  -2.24900 -7.53700 45.70200
H  -0.07400 -8.72300 45.10100
H  1.55800 -8.49400 45.61800
H  1.34100 -7.31200 42.93300
H  0.49800 -8.86000 42.90600
H  2.15000 -8.82400 43.47200
H  6.76200 -5.66300 46.66400
H  6.47800 -6.54400 45.16700
H  5.46300 -6.70800 46.65800
H  7.43100 -1.54700 43.29800
H  9.19800 1.63500 45.26200
H  7.60000 1.77800 45.98100
H  7.81900 2.43300 44.38000
Mg 35.10300 3.02200 30.07000
C  32.77400 3.94600 32.58200
C  37.62100 3.36800 32.48600
C  37.31700 2.20200 27.79300
C  32.64100 3.58900 27.73500
N  35.16700 3.91800 32.19500
C  34.11700 3.94600 33.10200
C  34.61800 3.87200 34.53700
C  36.13100 4.10100 34.40700
C  36.34500 3.82200 32.91600
C  36.58100 5.55900 34.66100
C  34.24300 2.47900 35.14300
C  33.74000 2.47600 36.59300
H  34.42900 3.42800 37.56600
N  37.17300 2.71100 30.10700
C  37.99500 2.83800 31.17700
C  39.27900 2.32700 30.85600
C  39.19000 1.96100 29.46800
C  37.87600 2.27200 29.02300
C  40.36400 2.25700 31.84600
C  40.30600 1.38100 28.49800
O  40.12900 1.10200 27.33600
C  41.73500 1.27600 29.06700
N  34.99600 3.01000 28.02500
C  36.06100 2.58300 27.31000
C  35.62000 2.44300 25.81100
C  34.07900 2.76100 25.88200
C  33.85600 3.11800 27.32800
C  36.38200 3.35300 24.74500
C  33.20400 1.50100 25.60200
C  32.87100 1.30000 24.08000
N  33.04500 3.64300 30.08300
C  32.14900 3.78500 29.05600
C  30.83000 4.09800 29.60500
C  31.03100 4.14000 31.02200
C  32.39100 3.87400 31.24000
C  29.57800 4.36800 28.79200
C  30.40200 4.37200 32.34400
O  29.26000 4.61500 32.65000
C  31.47400 4.13500 33.44300
C  31.57100 5.26100 34.34500
O  32.04200 6.37500 34.19100
O  31.13900 4.74900 35.58200
C  31.22400 5.84700 36.65400
H  38.37600 3.37700 33.27500
H  37.97800 2.13800 26.92600
H  31.91000 3.67500 26.92900
H  34.14100 4.66600 35.11100
H  36.72900 3.40700 34.99800
H  37.27400 5.61400 35.50000
H  35.66500 6.15000 34.64300
H  37.14600 5.94800 33.81400
H  35.07800 1.78100 35.20600
H  33.43000 2.11800 34.51300
H  33.75400 1.47000 37.01200
H  32.72500 2.87200 36.61300
H  39.91800 1.83500 32.74600
H  40.69400 3.28300 32.00800
H  41.13600 1.51700 31.63400
H  42.31800 1.09400 28.16500
H  41.72700 0.40400 29.72100
H  42.12000 2.15800 29.57900
H  35.83100 1.40200 25.56800
H  33.90900 3.55400 25.15400
H  37.03000 4.14100 25.13000
H  35.62700 3.90400 24.18400
H  36.90800 2.92600 23.89100
H  32.25800 1.72700 26.09500
H  33.67100 0.59800 25.99600
H  33.26800 0.32300 23.80600
H  33.19900 2.15500 23.48900
H  31.78800 1.23900 23.97600
H  28.80200 4.19600 29.53800
H  29.59600 3.54700 28.07600
H  29.75600 5.35200 28.35800
H  31.20300 3.21700 33.96500
H  32.27900 5.99100 36.88700
H  30.76800 5.75900 37.64000
H  30.79000 6.76700 36.26300

