158

Mg 17.22700 52.67400 25.26400
C  18.99300 51.53000 28.17100
C  14.60600 53.21600 27.37600
C  15.47200 53.37600 22.55800
C  19.92600 51.52800 23.30800
N  16.88900 52.50600 27.58900
C  17.74900 52.00500 28.51000
C  17.26300 52.34100 29.90700
C  15.72800 52.62300 29.66400
C  15.69800 52.76300 28.14100
C  14.73700 51.54500 30.10300
C  18.03800 53.51100 30.51900
C  17.95900 53.84000 31.96400
H  17.00900 53.01100 32.84500
N  15.46600 53.39900 25.00600
C  14.46400 53.55300 25.97800
C  13.23200 53.98800 25.38500
C  13.47200 54.10900 23.99600
C  14.85800 53.63600 23.80100
C  12.02300 54.45700 26.14700
C  12.49100 54.65700 22.90800
O  12.90300 54.81900 21.78400
C  11.05500 55.07900 23.21300
N  17.72400 52.57400 23.17200
C  16.81300 52.96100 22.25200
C  17.38100 52.93600 20.82000
C  18.89400 52.42900 21.09800
C  18.83400 52.00600 22.60100
C  16.58300 51.93200 19.98100
C  19.96400 53.51200 20.89400
C  21.33700 52.91900 20.43200
N  18.92100 51.51100 25.60500
C  19.91600 51.17500 24.68800
C  21.02000 50.54700 25.43800
C  20.67600 50.74000 26.78300
C  19.41600 51.29700 26.82700
C  22.26500 49.97500 24.86100
C  21.19400 50.47800 28.15000
O  22.30500 50.08600 28.54300
C  20.09200 51.01300 29.09400
C  19.62200 49.84800 29.99000
O  18.94200 48.90400 29.65000
O  20.08600 50.01400 31.32600
C  19.38500 49.28100 32.35500
H  13.76600 53.39200 28.05200
H  14.77300 53.60200 21.75000
H  20.82500 51.21200 22.77500
H  17.40800 51.40500 30.44700
H  15.41800 53.57300 30.10100
H  14.08100 51.17400 29.31600
H  14.13100 51.94100 30.91800
H  15.22200 50.70200 30.59500
H  17.70100 54.45900 30.10000
H  19.08800 53.45500 30.23300
H  17.79600 54.91000 32.09300
H  18.96700 53.73200 32.36400
H  12.04300 55.54100 26.03200
H  12.03200 54.14200 27.19000
H  11.13200 54.06600 25.65400
H  10.47900 54.20500 23.51600
H  10.66300 55.41900 22.25500
H  11.11300 55.88600 23.94400
H  17.26900 53.94400 20.42200
H  19.19600 51.53900 20.54700
H  15.54500 52.02100 20.30200
H  16.87800 50.89100 20.11400
H  16.72100 52.08400 18.91100
H  19.98500 54.11700 21.80000
H  19.54400 54.10900 20.08400
H  22.09000 53.05200 21.20900
H  21.66400 53.34000 19.48100
H  21.22200 51.87400 20.14400
H  22.76100 50.74600 24.27200
H  22.10000 49.04200 24.32300
H  22.98800 49.74100 25.64200
H  20.53300 51.79400 29.71300
H  19.31900 48.19500 32.28700
H  18.32900 49.54500 32.30800
H  19.87200 49.63000 33.26500
Mg 1.26900 43.16500 25.57400
C  2.83300 43.51300 28.72900
C  -1.54600 41.98900 27.13400
C  0.13300 42.22400 22.54600
C  4.25600 44.24900 24.12900
N  0.65700 42.84500 27.70100
C  1.44900 43.13700 28.82600
C  0.68700 42.84000 30.10900
C  -0.68500 42.30200 29.61900
C  -0.56400 42.38800 28.04300
C  -0.98400 40.84100 30.06000
C  0.49200 44.09000 30.97500
C  0.57100 43.92600 32.51900
H  0.28700 42.56500 33.12300
N  -0.44100 42.33600 24.93000
C  -1.49600 41.97700 25.70600
C  -2.52300 41.46400 24.89800
C  -2.16700 41.63100 23.51700
C  -0.76400 42.11100 23.57000
C  -3.85300 40.90200 25.45000
C  -2.98200 41.35200 22.32400
O  -2.46400 41.56600 21.25800
C  -4.40900 40.73300 22.31100
N  2.04200 43.29400 23.63100
C  1.42100 42.78000 22.51300
C  2.27500 43.01400 21.28400
C  3.39800 43.97400 21.76800
C  3.23800 43.88800 23.27200
C  2.81700 41.68600 20.67800
C  3.30600 45.44900 21.23900
C  1.96500 46.14300 21.35900
N  3.17200 43.76500 26.23500
C  4.29900 44.14400 25.50500
C  5.36300 44.42000 26.34900
C  4.79700 44.19500 27.68300
C  3.48600 43.82400 27.52800
C  6.77000 44.64700 25.97600
C  5.09800 44.00400 29.05200
O  6.13200 44.03500 29.69500
C  3.79300 43.77200 29.76700
C  4.13900 42.64400 30.71100
O  4.25800 41.43800 30.42000
O  4.28600 43.06000 31.98200
C  4.34300 42.09700 33.16000
H  -2.46200 41.75800 27.68200
H  -0.16300 41.80300 21.58400
H  5.18900 44.52300 23.63200
H  1.38300 42.31000 30.75900
H  -1.53500 42.95500 29.82100
H  -0.26900 40.55500 30.83100
H  -0.87500 40.07300 29.29400
H  -2.00700 40.86100 30.43600
H  -0.35900 44.68000 30.63600
H  1.37500 44.71400 30.83200
H  -0.09700 44.66800 32.95700
H  1.56000 44.20700 32.88000
H  -4.69600 41.30400 24.88700
H  -3.99800 41.22700 26.48000
H  -3.82200 39.81300 25.48200
H  -4.38500 39.86900 22.97500
H  -4.67400 40.52500 21.27400
H  -5.05100 41.52200 22.70200
H  1.76100 43.56400 20.49500
H  4.36000 43.48800 21.60400
H  2.84800 41.82600 19.59700
H  2.09900 40.88200 20.83800
H  3.81300 41.40100 21.01500
H  3.82900 45.39500 20.28400
H  4.03100 45.99300 21.84400
H  1.24100 45.42700 21.74900
H  1.58400 46.41500 20.37500
H  1.95500 47.07000 21.93200
H  6.80800 44.86600 24.90800
H  7.28900 43.73900 26.28000
H  7.11300 45.47600 26.59500
H  3.57400 44.66500 30.35200
H  3.85200 42.41600 34.08000
H  5.36400 41.88900 33.47900
H  4.02100 41.10700 32.83600

