158

Mg 47.76000 25.33600 29.55700
C  48.76900 27.40200 31.97500
C  46.41600 23.25500 31.98300
C  46.93600 22.95000 27.19100
C  49.38600 27.21600 27.15600
N  47.56400 25.39800 31.69700
C  47.98600 26.39100 32.48700
C  47.78800 26.11600 33.92700
C  47.06000 24.74200 33.90100
C  46.97900 24.42700 32.43500
C  47.84500 23.61300 34.75400
C  46.93500 27.20500 34.79500
C  47.30700 27.25600 36.33300
H  46.16700 26.97700 37.30300
N  46.56200 23.40400 29.52900
C  46.11500 22.75500 30.64600
C  45.49300 21.48600 30.26600
C  45.60600 21.38700 28.83200
C  46.44100 22.56800 28.44500
C  44.79900 20.60600 31.23200
C  45.06400 20.28100 27.90600
O  45.36700 20.18200 26.74500
C  44.24200 19.18600 28.44000
N  48.20400 25.02100 27.46300
C  47.61600 24.11700 26.71800
C  47.61500 24.49200 25.20100
C  48.36400 25.85800 25.20100
C  48.70400 26.04700 26.69500
C  48.12100 23.51000 24.10100
C  47.50200 27.09800 24.73200
C  48.26100 28.03300 23.65100
N  48.84000 26.91500 29.50300
C  49.51700 27.60900 28.49100
C  50.10100 28.79500 28.99800
C  49.88700 28.72300 30.34200
C  49.15400 27.62200 30.60800
C  50.83700 29.79200 28.12300
C  50.14000 29.38500 31.61700
O  50.62000 30.47200 31.90400
C  49.43300 28.48800 32.75700
C  50.53700 27.97300 33.59000
O  51.61500 27.52100 33.21900
O  50.19700 28.24000 34.87500
C  51.24600 27.84300 35.83200
H  46.10800 22.59100 32.79300
H  46.59300 22.38500 26.32200
H  49.72800 27.88200 26.36100
H  48.74500 25.97800 34.43100
H  46.08100 24.58500 34.35300
H  48.13100 22.73800 34.17000
H  47.13500 23.28800 35.51500
H  48.77700 23.98800 35.17800
H  45.87700 27.16800 34.53400
H  47.23800 28.19600 34.45600
H  47.68900 28.25700 36.53400
H  48.03000 26.45200 36.47500
H  43.76200 20.64600 30.90000
H  44.84000 20.87100 32.28900
H  45.14400 19.59400 31.02000
H  43.74400 18.57900 27.68300
H  43.57700 19.60300 29.19600
H  44.98200 18.59200 28.97600
H  46.55900 24.67000 24.99600
H  49.35800 25.81500 24.75600
H  48.67600 22.67600 24.52900
H  48.68900 24.08200 23.36600
H  47.26600 23.13400 23.53900
H  47.28500 27.69300 25.61900
H  46.62300 26.73800 24.19800
H  49.29100 27.67700 23.63000
H  48.06300 29.03300 24.03600
H  47.95100 27.84500 22.62300
H  50.99900 29.58100 27.06600
H  51.81900 29.94500 28.57100
H  50.26500 30.71300 28.23800
H  48.74500 29.10400 33.33500
H  51.34200 26.76000 35.75600
H  50.76700 27.99500 36.79900
H  52.23600 28.25500 35.63600
Mg 16.75100 51.54200 26.40400
C  18.67500 49.99900 29.02000
C  14.36000 52.30400 28.60100
C  15.03000 52.45100 23.72700
C  19.38500 50.30900 24.13600
N  16.59600 51.16600 28.52600
C  17.48800 50.63300 29.41500
C  17.02500 50.84000 30.89600
C  15.51100 51.32300 30.68700
C  15.47200 51.64100 29.16000
C  14.41500 50.34800 31.17400
C  17.99500 51.88500 31.61600
C  18.45700 51.52700 32.97300
H  17.36000 50.76900 33.89800
N  14.98700 52.31600 26.17300
C  14.12600 52.64200 27.24000
C  12.99000 53.33000 26.69800
C  13.20000 53.43700 25.28700
C  14.49900 52.79100 24.98100
C  11.88500 53.78900 27.58300
C  12.45500 54.21400 24.26300
O  12.82800 54.39400 23.10000
C  11.10400 54.87800 24.67000
N  17.21900 51.32800 24.25300
C  16.25300 51.81200 23.39000
C  16.57200 51.26100 21.97600
C  18.10200 50.99600 22.04500
C  18.33300 50.93400 23.58200
C  15.62800 50.11300 21.58400
C  19.09900 51.99500 21.35500
C  18.76200 53.50100 21.54000
N  18.64700 50.48900 26.53100
C  19.60600 50.07900 25.57000
C  20.69200 49.34500 26.15800
C  20.35400 49.31900 27.51900
C  19.10600 49.94100 27.68200
C  22.01600 48.77100 25.46200
C  20.83200 48.83500 28.74300
O  21.86300 48.21800 28.90400
C  19.86700 49.36000 29.82400
C  19.38300 48.27100 30.51800
O  18.99100 47.27300 29.98900
O  19.45600 48.45500 31.88200
C  18.93400 47.31600 32.62000
H  13.61700 52.58500 29.35100
H  14.35100 52.69600 22.90700
H  20.11400 49.95400 23.40500
H  17.06400 49.92000 31.47800
H  15.28400 52.18000 31.32000
H  13.90900 50.59400 32.10800
H  14.86100 49.36500 31.32400
H  13.76000 50.28200 30.30500
H  17.48300 52.84200 31.71200
H  18.91900 52.06400 31.06600
H  18.78100 52.38800 33.55800
H  19.24200 50.79500 32.78400
H  11.18000 52.98900 27.81000
H  11.38500 54.69200 27.23200
H  12.28600 54.03500 28.56600
H  10.37200 54.17800 25.07300
H  10.77700 55.34100 23.73900
H  11.34200 55.66400 25.38800
H  16.50600 52.12700 21.31700
H  18.32600 50.08900 21.48300
H  15.17200 50.46100 20.65700
H  14.85000 49.92200 22.32300
H  16.23900 49.34800 21.10400
H  18.93900 51.76400 20.30200
H  20.10000 51.66100 21.62700
H  19.64400 54.14000 21.51300
H  18.50600 53.60600 22.59400
H  18.02400 53.90600 20.84700
H  22.21500 49.06200 24.43000
H  21.86000 47.70300 25.31200
H  22.91500 48.90900 26.06200
H  20.34000 50.01200 30.55800
H  17.94300 46.96600 32.33100
H  18.83100 47.64700 33.65400
H  19.70400 46.54500 32.58100

