158

Mg -1.73700 17.37200 26.21000
C  -1.80200 15.40000 29.28100
C  -1.91200 20.19300 28.37300
C  -1.87400 19.29700 23.59600
C  -1.95400 14.50400 24.41900
N  -1.83600 17.71000 28.58700
C  -1.83100 16.72200 29.61600
C  -2.04200 17.36500 31.02400
C  -2.43900 18.85700 30.55000
C  -1.93400 18.93500 29.09100
C  -3.97300 19.18500 30.58600
C  -0.87000 17.36600 32.12500
C  -1.36200 17.16800 33.54600
H  -0.51400 16.39400 34.56900
N  -1.70000 19.46600 25.97400
C  -1.75400 20.44600 26.98600
C  -1.78700 21.75700 26.35200
C  -1.87200 21.51300 24.93500
C  -1.82300 20.08500 24.81700
C  -1.55700 23.10300 27.11900
C  -1.82300 22.54900 23.78800
O  -1.82900 22.21200 22.63800
C  -1.68300 23.99100 24.10800
N  -2.15800 16.96300 24.27100
C  -2.04200 17.95900 23.36600
C  -2.27400 17.30200 21.97400
C  -2.04300 15.74800 22.19000
C  -2.07800 15.71500 23.68700
C  -3.74300 17.73700 21.48500
C  -0.72300 15.26800 21.53400
C  -0.78500 14.72000 20.07300
N  -1.88600 15.34900 26.70800
C  -1.87000 14.23000 25.83300
C  -1.94700 12.98600 26.47200
C  -1.81300 13.41900 27.86500
C  -1.88800 14.80000 27.97800
C  -1.82800 11.56600 25.88400
C  -1.66400 12.95500 29.17900
O  -1.63200 11.79300 29.65000
C  -1.68200 14.19200 30.16100
C  -0.38800 14.09300 30.83800
O  0.69600 14.48200 30.39800
O  -0.53000 13.65900 32.14900
C  0.68600 13.66300 32.97700
H  -1.98200 21.07000 29.02000
H  -1.99400 19.92900 22.71400
H  -2.04300 13.55500 23.88600
H  -2.92700 16.88300 31.43800
H  -1.92000 19.57000 31.19000
H  -4.44300 18.24800 30.88500
H  -4.25600 19.43000 29.56200
H  -4.33300 19.97800 31.24100
H  -0.36700 18.33200 32.09200
H  -0.01000 16.81700 31.74400
H  -2.22400 16.50000 33.55300
H  -1.59000 18.13900 33.98500
H  -0.69900 23.60100 26.66700
H  -1.36000 22.92100 28.17500
H  -2.44100 23.73000 27.00600
H  -2.62000 24.33200 24.54700
H  -1.66900 24.40200 23.09800
H  -0.81200 24.26600 24.70300
H  -1.60100 17.66800 21.19900
H  -2.91300 15.16100 21.89600
H  -4.10200 17.14300 20.64500
H  -3.73800 18.80000 21.24600
H  -4.56500 17.56800 22.18100
H  -0.06800 14.74400 22.23000
H  -0.10600 16.16700 21.51700
H  -1.79900 14.83600 19.68900
H  -0.44300 13.69300 19.94500
H  -0.20800 15.36800 19.41300
H  -2.60000 11.40200 25.13300
H  -1.86600 10.90000 26.74700
H  -0.88900 11.48900 25.33600
H  -2.56200 14.18100 30.80400
H  1.18800 14.62800 32.91400
H  1.34600 12.90400 32.55700
H  0.39100 13.52300 34.01700
Mg -5.09400 25.39800 25.27600
C  -3.65200 27.04400 28.16600
C  -6.36500 23.17400 27.49900
C  -6.25200 23.89900 22.57000
C  -3.44000 27.73500 23.29800
N  -5.21200 25.31400 27.57400
C  -4.58700 26.07900 28.55700
C  -4.79100 25.40000 29.98600
C  -5.34700 23.98300 29.67900
C  -5.68400 24.15900 28.16000
C  -4.29800 22.76900 29.94100
C  -5.77300 26.26100 30.84900
C  -5.25700 26.66200 32.28300
H  -4.69400 25.46600 33.09200
N  -6.16700 23.80600 25.03800
C  -6.65800 23.00600 26.11100
C  -7.49300 22.01800 25.54000
C  -7.49700 22.15500 24.12800
C  -6.69800 23.36800 23.84500
C  -8.16300 20.88600 26.31400
C  -8.12900 21.39000 23.00800
O  -8.11900 21.80300 21.86100
C  -8.82300 20.13600 23.33800
N  -4.73100 25.70700 23.27400
C  -5.37900 24.99300 22.36600
C  -5.09800 25.43000 20.96500
C  -4.58900 26.89400 21.18200
C  -4.28100 26.86700 22.71500
C  -4.03800 24.50200 20.38700
C  -5.64400 27.96900 20.83700
C  -5.05800 29.23200 20.18500
N  -3.63400 27.04300 25.61300
C  -3.11000 27.88000 24.62900
C  -2.25600 28.77000 25.32800
C  -2.45400 28.54500 26.68400
C  -3.34600 27.51700 26.80800
C  -1.30400 29.76200 24.67800
C  -1.92100 28.87000 27.99400
O  -1.08000 29.67200 28.40300
C  -2.69100 27.82100 28.97500
C  -1.69000 26.98400 29.76500
O  -1.15500 25.97900 29.42000
O  -1.57100 27.63300 30.99800
C  -0.73300 26.90700 32.02100
H  -6.74800 22.35400 28.11100
H  -6.53000 23.36900 21.65600
H  -3.08000 28.46900 22.57400
H  -3.84800 25.28600 30.52100
H  -6.26700 23.71700 30.19900
H  -4.79100 21.91700 29.47100
H  -4.19600 22.64500 31.01900
H  -3.34100 23.07700 29.52200
H  -6.82200 25.96800 30.87300
H  -5.88400 27.22900 30.36000
H  -6.07100 27.14300 32.82600
H  -4.47000 27.40600 32.15900
H  -7.76000 19.89700 26.09500
H  -9.21800 20.90400 26.04200
H  -8.21000 21.09100 27.38400
H  -8.13800 19.39300 23.74700
H  -9.24600 19.76800 22.40300
H  -9.65100 20.41300 23.99100
H  -5.94600 25.47500 20.28100
H  -3.72300 27.13800 20.56600
H  -3.54600 23.87900 21.13400
H  -3.28800 25.12800 19.90400
H  -4.59000 23.90900 19.65800
H  -6.09700 28.24600 21.78900
H  -6.42600 27.63500 20.15600
H  -5.60500 29.50800 19.28300
H  -4.00300 29.33000 19.92700
H  -5.36400 30.14600 20.69500
H  -0.92600 29.29700 23.76700
H  -0.49000 30.04900 25.34400
H  -1.90200 30.64300 24.44600
H  -3.21000 28.51000 29.64100
H  0.27300 26.71400 31.64800
H  -1.20000 25.94400 32.22600
H  -0.55700 27.54500 32.88700

