158

Mg 48.87100 34.82400 26.52500
C  46.79700 33.23000 28.89200
C  48.97800 37.56100 28.52800
C  50.58000 36.42300 24.08700
C  48.16100 32.18000 24.23900
N  48.00600 35.21900 28.64100
C  47.24600 34.44100 29.39800
C  47.05700 35.11900 30.77600
C  47.41000 36.65300 30.39900
C  48.23100 36.47400 29.13600
C  46.24000 37.69500 30.35600
C  47.90100 34.41300 31.95800
C  48.58400 35.30000 33.04300
H  47.62900 36.09100 34.03300
N  49.65900 36.67900 26.35600
C  49.66100 37.68400 27.30400
C  50.44200 38.85100 26.78600
C  51.03700 38.44200 25.55900
C  50.47500 37.09700 25.31000
C  50.47700 40.25200 27.39500
C  52.06800 39.12800 24.61800
O  52.44400 38.70000 23.51400
C  52.63700 40.42500 25.10800
N  49.02100 34.52900 24.39300
C  49.92400 35.27200 23.63700
C  50.14100 34.78100 22.18000
C  49.55900 33.30400 22.37900
C  48.91600 33.27900 23.76000
C  49.46800 35.63700 21.00300
C  50.50200 32.14600 22.06400
C  50.46100 31.67200 20.61600
N  47.71700 33.02600 26.61400
C  47.53400 32.11800 25.55000
C  46.56500 31.14300 26.05200
C  46.21700 31.55400 27.36400
C  46.99500 32.66200 27.64200
C  46.12100 29.96100 25.32500
C  45.38700 31.20400 28.53200
O  44.53600 30.32700 28.72200
C  45.69900 32.31900 29.54700
C  46.15200 31.63000 30.82300
O  47.28200 31.19500 31.04200
O  45.14200 31.72100 31.72600
C  45.41400 31.58200 33.19200
H  48.94100 38.44100 29.17300
H  51.03900 36.92300 23.23100
H  48.05200 31.23900 23.69500
H  46.00100 35.00800 31.02100
H  48.06700 37.03300 31.18100
H  46.60200 38.66200 30.70500
H  45.30000 37.50500 30.87500
H  46.06100 37.96200 29.31400
H  48.77900 33.95700 31.49900
H  47.31100 33.65400 32.47200
H  49.28200 35.94000 32.50300
H  49.28500 34.75100 33.67100
H  49.70700 40.32300 28.16400
H  50.25500 41.03100 26.66600
H  51.50100 40.48000 27.68900
H  53.30100 40.68200 24.28300
H  53.22800 40.18600 25.99200
H  51.86100 41.18900 25.15900
H  51.21100 34.74400 21.97200
H  48.77700 33.34600 21.62100
H  49.97800 36.59700 21.08500
H  48.40900 35.84600 21.15500
H  49.65700 35.05200 20.10200
H  50.23800 31.37300 22.78600
H  51.50600 32.53100 22.24200
H  50.08900 30.64800 20.62500
H  51.43000 31.67300 20.11700
H  49.74300 32.20100 19.98900
H  46.05600 30.20100 24.26400
H  45.10400 29.71200 25.62800
H  46.82000 29.15500 25.55200
H  44.77900 32.90200 29.59600
H  46.38900 31.14200 33.39900
H  44.69600 30.91000 33.66300
H  45.42300 32.48400 33.80400
Mg -5.72000 24.89100 26.29100
C  -4.41800 26.21000 29.26800
C  -7.34400 22.69500 28.16900
C  -6.56200 23.37800 23.51000
C  -3.69900 27.19200 24.45800
N  -5.89000 24.54600 28.59300
C  -5.37700 25.27100 29.59700
C  -5.82300 24.69100 31.00200
C  -6.60300 23.43700 30.53000
C  -6.57100 23.54800 29.01200
C  -6.00100 22.09500 31.12200
C  -6.69100 25.74100 31.79300
C  -6.23200 25.85600 33.23900
H  -5.97900 24.58800 34.06300
N  -6.88200 23.34200 25.82300
C  -7.49400 22.59900 26.75300
C  -8.44400 21.70800 26.13300
C  -8.25200 21.82700 24.68900
C  -7.20400 22.87800 24.60000
C  -9.47600 20.79800 26.87300
C  -8.91900 21.09700 23.53000
O  -8.61900 21.30100 22.36700
C  -9.96800 20.06900 23.80000
N  -5.18800 25.31200 24.28300
C  -5.65400 24.52800 23.32000
C  -5.09700 24.96600 21.98400
C  -4.31700 26.23900 22.22500
C  -4.40000 26.27300 23.74400
C  -4.30500 23.74300 21.38600
C  -4.95400 27.51300 21.63700
C  -4.02400 28.41200 20.79100
N  -4.35500 26.43000 26.71100
C  -3.59000 27.30200 25.84600
C  -2.80900 28.16800 26.74800
C  -3.03800 27.72700 28.03200
C  -3.98700 26.67700 27.97500
C  -1.81300 29.27300 26.28900
C  -2.57000 27.88400 29.34300
O  -1.66100 28.54400 29.81900
C  -3.42900 26.99300 30.24700
C  -2.54600 26.05300 30.96200
O  -1.94000 25.14500 30.44900
O  -2.54800 26.36300 32.26800
C  -1.87200 25.38600 33.15300
H  -7.71300 21.86700 28.77800
H  -6.89800 22.93000 22.57300
H  -2.94700 27.84100 24.00500
H  -4.88700 24.52500 31.53400
H  -7.68000 23.51000 30.67700
H  -6.69000 21.46600 31.68600
H  -5.21200 22.21500 31.86400
H  -5.57700 21.51300 30.30400
H  -7.77500 25.65200 31.71800
H  -6.53900 26.66300 31.23300
H  -6.95900 26.44300 33.80100
H  -5.29000 26.40400 33.26200
H  -10.48900 20.95300 26.50100
H  -9.58400 21.17600 27.89000
H  -9.18600 19.76500 26.68300
H  -10.84800 20.62900 24.11800
H  -9.52500 19.37200 24.51200
H  -10.23500 19.52000 22.89800
H  -5.94600 25.18500 21.33700
H  -3.32900 26.01800 21.82200
H  -4.57100 22.73700 21.70900
H  -3.23900 23.93400 21.51200
H  -4.52100 23.83200 20.32100
H  -5.31200 28.07900 22.49600
H  -5.88500 27.46300 21.07100
H  -4.33600 28.42900 19.74700
H  -2.99000 28.07300 20.73400
H  -3.94000 29.44300 21.13500
H  -2.09500 30.28800 26.56900
H  -1.53500 29.07100 25.25500
H  -0.93500 29.05900 26.89800
H  -3.90400 27.59100 31.02500
H  -2.27100 25.61800 34.14000
H  -0.80600 25.60100 33.22800
H  -2.15100 24.33800 33.04400

