158

Mg 40.51400 9.63400 28.82200
C  42.23500 10.82900 31.59800
C  38.23900 8.10200 30.95400
C  39.05300 8.13800 26.25100
C  43.36300 10.26400 26.86900
N  40.22300 9.45900 30.95700
C  40.98800 10.17900 31.89000
C  40.43100 9.96700 33.29700
C  39.28300 8.88700 33.10500
C  39.24500 8.77200 31.56000
C  39.52900 7.50400 33.83500
C  39.99900 11.17100 34.12800
C  39.93800 11.01300 35.63000
H  40.63400 12.16500 36.44200
N  38.74600 8.48000 28.60300
C  37.89100 8.03200 29.55800
C  36.83000 7.22500 29.00500
C  36.94400 7.40100 27.61800
C  38.31400 8.04600 27.42100
C  35.85900 6.43400 29.87000
C  36.02400 6.85600 26.49400
O  36.21300 7.01000 25.29200
C  34.69800 6.17000 26.78600
N  41.03500 9.34000 26.76500
C  40.27100 8.68600 25.90800
C  40.85800 8.70700 24.51300
C  42.28600 9.39900 24.77100
C  42.27600 9.63300 26.24500
C  41.17900 7.26400 23.91100
C  42.39900 10.66100 23.81200
C  41.68200 11.99200 24.18100
N  42.39200 10.38900 29.13200
C  43.41400 10.68100 28.23400
C  44.38600 11.43700 28.89300
C  43.88700 11.63500 30.22500
C  42.75400 10.87100 30.31100
C  45.67700 11.90100 28.29000
C  44.18400 12.27700 31.50900
O  45.13900 12.90400 31.90000
C  43.08600 11.71900 32.47400
C  43.79000 10.97600 33.60700
O  44.66500 10.17000 33.58700
O  43.24300 11.47300 34.71900
C  43.81700 10.87500 36.00600
H  37.53000 7.56100 31.58300
H  38.70500 7.55100 25.39800
H  44.19100 10.61300 26.24800
H  41.17000 9.46300 33.91900
H  38.37800 9.33500 33.51400
H  40.57600 7.40100 34.11800
H  39.25600 6.77400 33.07300
H  38.90000 7.40300 34.72000
H  39.01100 11.44900 33.76000
H  40.60900 12.04400 33.89500
H  40.45900 10.09100 35.88500
H  38.87700 10.99700 35.88000
H  36.35800 5.91300 30.68700
H  35.47200 5.73000 29.13300
H  35.17300 7.15900 30.30800
H  34.09900 6.40400 25.90600
H  34.16000 6.59300 27.63400
H  34.94700 5.13600 27.02600
H  40.19800 9.25200 23.83900
H  43.19300 8.80900 24.63500
H  40.39900 7.11200 23.16500
H  41.02300 6.56700 24.73500
H  42.22900 7.19600 23.62600
H  41.99100 10.27400 22.87800
H  43.46300 10.89500 23.78000
H  41.08900 11.72500 25.05600
H  41.11900 12.45200 23.36900
H  42.37200 12.76600 24.51700
H  46.25600 12.63000 28.85700
H  45.49800 12.39700 27.33600
H  46.35500 11.07200 28.08800
H  42.42000 12.53000 32.76900
H  44.89300 10.70600 36.05400
H  43.35900 9.89200 36.11200
H  43.43000 11.52000 36.79600
Mg -5.95500 25.05700 25.77100
C  -4.61900 26.82500 28.57700
C  -7.60100 22.99100 28.00800
C  -6.73400 23.23100 23.28100
C  -3.80200 26.95600 23.71700
N  -5.98100 24.89000 28.00000
C  -5.43300 25.77400 28.92300
C  -5.83300 25.40300 30.38000
C  -6.66200 24.00700 30.17100
C  -6.78400 23.99800 28.59000
C  -5.83400 22.74100 30.65300
C  -6.64900 26.55400 31.09600
C  -6.37900 26.70300 32.65000
H  -6.10500 25.55300 33.57400
N  -7.13400 23.37700 25.61600
C  -7.77900 22.68200 26.59700
C  -8.58300 21.63300 25.95700
C  -8.29600 21.68600 24.59900
C  -7.33700 22.76700 24.43000
C  -9.46500 20.77700 26.82700
C  -8.90800 20.84000 23.43000
O  -8.55000 21.01100 22.32100
C  -10.00700 19.81300 23.70600
N  -5.21400 25.04800 23.78900
C  -5.87600 24.24700 22.93300
C  -5.53200 24.56700 21.47700
C  -4.56200 25.72400 21.56900
C  -4.56100 26.02600 23.09600
C  -4.96900 23.34100 20.68900
C  -4.84400 26.91900 20.58200
C  -3.61800 27.64700 20.03700
N  -4.58900 26.64400 26.08300
C  -3.82800 27.30100 25.12900
C  -3.03500 28.30900 25.73300
C  -3.31500 28.25800 27.07600
C  -4.23800 27.16700 27.22700
C  -1.96800 29.17400 25.01400
C  -3.00600 28.70500 28.43700
O  -2.34800 29.66700 28.79200
C  -3.74900 27.75900 29.49300
C  -2.67900 26.92200 30.16700
O  -1.72400 26.47400 29.54200
O  -2.86400 26.97200 31.54300
C  -1.81800 26.22400 32.28100
H  -8.12200 22.47300 28.81600
H  -7.06100 22.70400 22.38200
H  -3.17800 27.45700 22.97500
H  -4.90700 25.27700 30.94000
H  -7.61600 24.21900 30.65400
H  -6.44900 22.10100 31.28600
H  -4.94900 22.92900 31.26000
H  -5.69100 22.07700 29.80000
H  -7.73600 26.47800 31.12400
H  -6.38600 27.43100 30.50500
H  -7.08100 27.33300 33.19500
H  -5.42400 27.22700 32.65600
H  -9.36600 19.71300 26.61000
H  -10.52200 21.02800 26.73800
H  -9.22400 20.82700 27.88900
H  -9.81100 19.16800 24.56300
H  -9.97700 19.11200 22.87100
H  -10.96700 20.32800 23.71400
H  -6.50100 24.83100 21.05400
H  -3.55700 25.31700 21.45700
H  -4.89000 22.46200 21.32800
H  -3.91700 23.50200 20.45300
H  -5.50200 23.18700 19.75000
H  -5.49400 27.62900 21.09200
H  -5.51500 26.57100 19.79700
H  -3.55700 28.68700 20.35800
H  -3.52500 27.59700 18.95300
H  -2.71200 27.24600 20.49000
H  -1.12100 29.49000 25.62300
H  -2.44500 29.97600 24.45100
H  -1.58300 28.54400 24.21200
H  -4.33900 28.30000 30.23300
H  -1.40600 26.84500 33.07700
H  -0.92800 25.96300 31.70800
H  -2.27000 25.38900 32.81600

