158

Mg 25.08500 1.02700 29.18300
C  27.32100 0.41400 31.79700
C  22.55400 1.50100 31.53700
C  22.90100 0.92000 26.73600
C  27.63700 0.04300 26.92400
N  25.02800 1.19900 31.43000
C  26.07000 0.87500 32.30700
C  25.64300 1.21800 33.75400
C  24.08600 1.37500 33.67200
C  23.85100 1.41600 32.09000
C  23.30000 0.22100 34.29300
C  26.36400 2.46200 34.15200
C  27.28600 2.40100 35.35100
H  26.99900 3.47000 36.57100
N  23.04000 1.33500 29.13200
C  22.18700 1.53900 30.17500
C  20.86200 1.63000 29.62100
C  20.91200 1.35800 28.19600
C  22.29900 1.21400 27.94600
C  19.63800 1.72400 30.50200
C  19.73900 1.15600 27.20500
O  19.95800 0.78700 26.01300
C  18.32100 1.43000 27.62600
N  25.23400 0.56900 27.10900
C  24.20500 0.77800 26.29400
C  24.52700 0.52100 24.73000
C  26.08300 0.34000 24.83900
C  26.33800 0.37400 26.37200
C  23.74200 -0.61000 24.00400
C  26.92400 1.44700 24.11300
C  27.80900 1.00500 22.93300
N  27.08300 0.39500 29.31100
C  27.99000 0.02100 28.30500
C  29.27200 -0.42800 28.89500
C  29.07700 -0.16400 30.29800
C  27.75000 0.28900 30.45300
C  30.47700 -0.91800 28.23500
C  29.70000 -0.20700 31.56400
O  30.82800 -0.44400 31.90900
C  28.64100 0.27800 32.57900
C  28.49800 -0.75900 33.60600
O  28.03000 -1.88800 33.41000
O  29.00700 -0.31000 34.83900
C  29.03500 -1.38300 35.76800
H  21.74800 1.69200 32.24800
H  22.22600 1.01100 25.88200
H  28.49900 -0.10500 26.27100
H  25.86400 0.54600 34.58400
H  23.69200 2.27300 34.14700
H  22.65300 -0.30000 33.58800
H  22.76500 0.57500 35.17500
H  23.97800 -0.58400 34.57500
H  25.61400 3.23800 34.30500
H  26.94100 2.82200 33.30100
H  28.33800 2.54400 35.10100
H  27.16700 1.54200 36.01100
H  19.88800 1.56500 31.55100
H  18.88200 0.99900 30.20100
H  19.25800 2.74600 30.49400
H  17.73800 1.53700 26.71100
H  18.34700 2.39800 28.12700
H  18.04500 0.58600 28.25800
H  24.29200 1.48600 24.28200
H  26.47500 -0.60700 24.46600
H  23.01300 -1.04000 24.69100
H  24.43400 -1.34300 23.58900
H  23.14900 -0.22300 23.17600
H  27.53600 2.06900 24.76600
H  26.35800 2.17100 23.52700
H  27.54100 1.35000 21.93400
H  27.81000 -0.08200 22.84100
H  28.85500 1.26500 23.09500
H  30.58000 -0.63700 27.18700
H  30.49500 -2.00400 28.33200
H  31.32700 -0.50700 28.78000
H  28.91100 1.22000 33.05600
H  28.01500 -1.33500 36.15000
H  29.67300 -1.12700 36.61400
H  29.36300 -2.30300 35.28400
Mg -1.90100 33.69900 26.84500
C  -3.66800 31.77500 29.21900
C  -0.69700 35.60300 29.44000
C  -0.61700 35.77600 24.53500
C  -3.79000 32.07400 24.42900
N  -2.20300 33.70600 29.03500
C  -2.94000 32.77100 29.78700
C  -2.69100 32.98200 31.24700
C  -2.04900 34.41400 31.28400
C  -1.64000 34.59700 29.82900
C  -3.03000 35.50000 31.75600
C  -1.84600 31.82900 31.82500
C  -2.33700 31.26600 33.18400
H  -1.57500 31.92100 34.40000
N  -0.66900 35.39500 26.92900
C  -0.22800 35.98000 28.09000
C  0.64500 37.07800 27.77000
C  0.56000 37.18600 26.34400
C  -0.23300 36.07900 25.88600
C  1.36200 37.83800 28.87200
C  1.16500 38.23200 25.41800
O  0.99000 38.23200 24.19900
C  2.26200 39.10100 25.97400
N  -2.33900 33.97400 24.81600
C  -1.49800 34.80500 24.07200
C  -1.53800 34.44400 22.58800
C  -2.47500 33.16100 22.53600
C  -2.92000 33.01400 24.02000
C  -1.90300 35.67000 21.69300
C  -1.81700 31.83000 21.97700
C  -1.05800 30.88000 22.92600
N  -3.33300 32.11400 26.76400
C  -4.07000 31.65800 25.74700
C  -4.89400 30.54700 26.17500
C  -4.75100 30.45300 27.52600
C  -3.88100 31.53400 27.83700
C  -5.64000 29.52300 25.29500
C  -5.10100 29.75800 28.76600
O  -5.76900 28.76800 28.88500
C  -4.38100 30.55600 29.92400
C  -5.40900 30.95800 30.95200
O  -6.17600 31.87500 30.82300
O  -5.36600 30.21800 32.13900
C  -6.20700 30.64800 33.23400
H  -0.23900 35.96600 30.36200
H  -0.26700 36.33000 23.66200
H  -4.34100 31.45500 23.71800
H  -3.67000 33.04200 31.72300
H  -1.21800 34.58400 31.96800
H  -3.85500 35.08400 32.33300
H  -3.47100 36.03600 30.91500
H  -2.53300 36.21900 32.40800
H  -0.84400 32.24200 31.94200
H  -1.75200 31.02100 31.10000
H  -2.09300 30.20700 33.26800
H  -3.41400 31.41200 33.26500
H  2.42100 37.68300 28.66400
H  0.99000 37.63500 29.87600
H  1.28200 38.92100 28.78300
H  1.76400 39.86200 26.57500
H  2.78000 39.59100 25.14900
H  2.99100 38.49900 26.51500
H  -0.50600 34.12400 22.44300
H  -3.40900 33.29400 21.98900
H  -2.60600 35.45500 20.88800
H  -1.03500 35.94800 21.09500
H  -2.32100 36.49800 22.26500
H  -1.17400 31.95200 21.10600
H  -2.70000 31.32700 21.58100
H  -0.55400 31.33600 23.77800
H  -0.40000 30.28400 22.29300
H  -1.90500 30.27700 23.25300
H  -6.16000 29.98100 24.45400
H  -6.48200 29.07300 25.82000
H  -4.91700 28.76200 25.00000
H  -3.72700 29.81100 30.37900
H  -5.81700 31.47800 33.82500
H  -6.10400 29.82300 33.93900
H  -7.26300 30.81300 33.02400

