158

Mg 8.17300 1.17000 28.23800
C  9.68000 -0.37700 31.11400
C  6.18900 2.82400 30.44900
C  6.44600 2.18700 25.63500
C  9.79000 -1.21200 26.23100
N  8.09400 1.24400 30.55700
C  8.89000 0.68300 31.45500
C  8.73200 1.24300 32.83200
C  7.39600 2.14500 32.63700
C  7.18000 2.09500 31.13600
C  6.15100 1.76400 33.45300
C  10.01200 2.02900 33.35200
C  10.22900 1.95300 34.92400
H  9.01300 1.69600 35.85600
N  6.62100 2.46100 28.11400
C  5.94200 3.02200 29.11900
C  4.94100 3.92100 28.57000
C  5.10600 3.88000 27.10600
C  6.05700 2.81400 26.88900
C  3.92300 4.68400 29.33600
C  4.40200 4.73000 25.95200
O  4.64000 4.51400 24.76400
C  3.63600 5.93200 26.25000
N  8.10400 0.53800 26.22200
C  7.38500 1.24200 25.32000
C  7.66100 0.79900 23.87700
C  8.80400 -0.25400 24.01800
C  8.88400 -0.32800 25.55500
C  6.33600 0.18500 23.32800
C  10.13900 0.24400 23.26900
C  11.21400 0.92400 24.11600
N  9.45500 -0.37400 28.51500
C  9.99300 -1.29300 27.61300
C  10.91200 -2.20400 28.34800
C  10.81300 -1.84800 29.67500
C  9.92700 -0.81400 29.79700
C  11.70400 -3.23400 27.73200
C  11.40400 -2.19400 31.01100
O  12.28100 -3.03700 31.31700
C  10.63400 -1.25400 31.96700
C  9.88400 -2.08300 32.98700
O  8.76200 -2.58000 32.84000
O  10.65100 -2.14500 34.20100
C  9.94800 -2.84200 35.26400
H  5.52400 3.39100 31.10500
H  5.89400 2.61900 24.79900
H  10.43400 -1.86500 25.63800
H  8.54400 0.43000 33.53300
H  7.65400 3.18800 32.81600
H  5.91500 2.67100 34.01000
H  6.40100 1.01700 34.20600
H  5.18800 1.60000 32.97000
H  9.87600 3.08800 33.13200
H  10.91100 1.68100 32.84200
H  10.91400 2.73800 35.24400
H  10.87400 1.07600 34.98000
H  3.02600 4.31300 28.84100
H  4.10400 5.74300 29.14800
H  3.81000 4.49600 30.40400
H  3.59600 6.70200 25.47900
H  4.24900 6.35700 27.04500
H  2.62900 5.73700 26.61800
H  7.93000 1.74300 23.40400
H  8.52600 -1.25400 23.68400
H  5.50500 0.31800 24.02000
H  6.42500 -0.86400 23.04300
H  5.93600 0.75100 22.48700
H  9.87600 0.96800 22.49800
H  10.51200 -0.65600 22.78000
H  10.80500 1.33200 25.03900
H  11.65000 1.75400 23.55900
H  11.89000 0.12400 24.41700
H  11.10000 -3.88900 27.10400
H  12.09300 -3.88500 28.51600
H  12.56900 -2.85200 27.19100
H  11.31600 -0.68600 32.60000
H  9.21500 -2.21800 35.77600
H  10.76800 -3.01900 35.95900
H  9.45800 -3.78800 35.03100
Mg -0.48200 34.98400 26.98300
C  -2.32100 33.04600 29.24200
C  0.82100 36.70300 29.64300
C  0.71000 37.07200 24.88500
C  -2.08600 33.21100 24.35600
N  -0.72000 34.84900 29.21500
C  -1.49800 33.95300 29.93000
C  -1.48300 34.25700 31.40600
C  -0.55900 35.50100 31.48000
C  -0.10100 35.75500 30.07500
C  -1.00800 36.83600 32.27600
C  -0.91100 33.00300 32.15200
C  -1.65500 32.52600 33.41400
H  -0.89600 32.44900 34.71700
N  0.70500 36.70100 27.23800
C  1.14300 37.24000 28.39000
C  1.95200 38.33800 28.07100
C  1.95400 38.48500 26.63300
C  1.05400 37.45900 26.22400
C  2.76400 39.15400 29.03300
C  2.66900 39.41500 25.68400
O  2.41300 39.55400 24.44000
C  3.72600 40.33400 26.25300
N  -0.51400 34.97200 24.89900
C  -0.04100 36.07300 24.23000
C  -0.34700 36.06500 22.70400
C  -1.10500 34.68900 22.56400
C  -1.23700 34.21400 24.03100
C  -1.19400 37.30700 22.25200
C  -0.55200 33.64900 21.64900
C  0.52600 32.71500 22.20600
N  -1.90300 33.43100 26.76900
C  -2.42400 32.79700 25.65800
C  -3.29900 31.72800 26.09500
C  -3.30500 31.84600 27.51600
C  -2.45300 32.88300 27.85400
C  -3.95700 30.75000 25.19100
C  -3.83900 31.22000 28.71100
O  -4.54100 30.21200 28.86700
C  -3.28300 32.11300 29.87900
C  -4.43600 32.76900 30.55100
O  -4.92100 33.82900 30.26200
O  -4.93700 31.96000 31.61000
C  -6.04300 32.52500 32.42200
H  1.29400 37.23600 30.47000
H  1.02500 37.73100 24.07500
H  -2.61200 32.68800 23.55500
H  -2.50300 34.46900 31.72900
H  0.39600 35.26600 31.95000
H  -1.37000 37.59400 31.58100
H  -0.17200 37.29600 32.80200
H  -1.75200 36.62200 33.04400
H  0.02000 33.28400 32.64400
H  -0.69000 32.13100 31.53700
H  -2.04100 31.51000 33.32400
H  -2.48400 33.23000 33.48600
H  3.79500 38.80800 29.10000
H  2.46300 39.21300 30.07900
H  2.66200 40.19300 28.71900
H  4.52100 39.87200 26.83800
H  3.28300 41.07100 26.92400
H  4.11300 40.82900 25.36200
H  0.60200 35.96900 22.17600
H  -2.09400 34.89500 22.15300
H  -1.54900 37.69100 23.20800
H  -1.99800 37.08400 21.55000
H  -0.41500 37.90000 21.77300
H  -0.16700 34.19400 20.78800
H  -1.35900 33.04400 21.23600
H  0.03800 31.99700 22.86500
H  1.26200 33.25200 22.80400
H  1.03600 32.07400 21.48700
H  -3.13600 30.51200 24.51500
H  -4.82500 31.14300 24.66200
H  -4.06200 29.81200 25.73600
H  -2.67300 31.54800 30.58400
H  -5.81600 33.11300 33.31100
H  -6.58800 31.66500 32.81200
H  -6.72200 33.12200 31.81400

