158

Mg 48.16200 46.01800 44.10800
C  44.96000 46.64900 42.91600
C  48.15900 42.94200 42.53900
C  51.46400 45.87900 44.68100
C  48.13000 49.40700 45.40900
N  46.65100 45.00800 42.84300
C  45.46800 45.41000 42.46600
C  44.83200 44.36400 41.57100
C  45.65800 43.04500 41.90000
C  46.94300 43.70100 42.44700
C  45.01100 42.23100 43.09700
C  44.78900 44.70800 40.02700
C  43.76300 44.05100 39.16800
H  44.18500 43.26700 37.92100
N  49.62000 44.50900 43.70400
C  49.39200 43.36500 43.04200
C  50.61700 42.67800 42.96300
C  51.67400 43.47600 43.58400
C  50.96600 44.69600 43.96000
C  50.68600 41.32100 42.31200
C  53.08100 42.94600 43.82700
O  53.44500 41.88300 43.35800
C  54.18300 43.72700 44.54200
N  49.57800 47.44300 44.89600
C  50.91400 47.11000 45.08100
C  51.67300 48.23500 45.80300
C  50.64200 49.38600 45.84600
C  49.32000 48.74900 45.44800
C  52.29600 47.94400 47.24000
C  51.02300 50.62100 44.92600
C  51.95100 51.66100 45.50600
N  46.86400 47.67700 44.17400
C  47.00700 48.97100 44.75600
C  45.78300 49.67400 44.62100
C  44.94700 48.80000 43.99000
C  45.64600 47.61300 43.72800
C  45.42600 51.02200 45.12100
C  43.67100 48.62900 43.39200
O  42.73600 49.40700 43.38100
C  43.57500 47.23300 42.72600
C  42.52800 46.38700 43.43000
O  42.75700 45.59900 44.31200
O  41.42400 46.38200 42.64300
C  40.50700 45.36300 43.06800
H  48.08200 41.89200 42.25000
H  52.54500 45.74900 44.77300
H  47.99200 50.36500 45.91600
H  43.79600 44.25100 41.88800
H  45.90800 42.40200 41.05600
H  43.96500 42.53400 43.14100
H  45.52500 42.42500 44.03800
H  45.08300 41.14900 42.99500
H  45.73000 44.51200 39.51400
H  44.70100 45.79400 39.99100
H  42.95300 44.69500 38.82500
H  43.30700 43.29300 39.80600
H  49.84600 41.06400 41.66700
H  50.66700 40.52900 43.06000
H  51.61000 41.31100 41.73300
H  53.73600 44.05300 45.48100
H  54.31100 44.59400 43.89400
H  55.16000 43.25000 44.62300
H  52.49400 48.49300 45.13400
H  50.59600 49.67700 46.89500
H  51.56700 47.82600 48.04200
H  53.07300 48.68200 47.43800
H  52.64900 46.93300 47.03800
H  50.09800 51.07700 44.57500
H  51.55400 50.30800 44.02700
H  51.48700 52.64600 45.44700
H  52.90600 51.60600 44.98400
H  52.23600 51.54300 46.55100
H  44.64800 51.43300 44.47900
H  46.30600 51.66500 45.09900
H  45.02800 50.94500 46.13300
H  43.25400 47.39500 41.69700
H  40.88500 44.34100 43.04800
H  39.60800 45.47900 42.46300
H  40.22900 45.45300 44.11800
Mg 26.70700 49.96300 25.73800
C  24.86100 51.58800 28.40000
C  29.03600 49.26600 28.17100
C  28.71000 49.01300 23.31000
C  24.72000 51.79500 23.52800
N  26.70400 50.17800 28.09100
C  25.90400 50.87100 28.93300
C  26.35100 50.71700 30.39600
C  27.79300 50.13200 30.24100
C  27.84700 49.83800 28.73200
C  28.90500 51.09300 30.68000
C  25.36200 49.86500 31.23600
C  24.96200 50.42000 32.60900
H  25.92500 50.49100 33.84300
N  28.49100 49.10800 25.69900
C  29.31700 48.88700 26.84500
C  30.45500 48.07000 26.42200
C  30.27600 47.90000 24.98200
C  29.16100 48.70600 24.58200
C  31.59200 47.56100 27.23800
C  30.86900 46.79300 24.02400
O  30.56100 46.66700 22.83400
C  31.80000 45.75800 24.52900
N  26.57100 50.11100 23.74000
C  27.53300 49.70700 22.92400
C  27.32200 50.01400 21.48200
C  25.89400 50.74600 21.45800
C  25.71600 50.94400 23.00900
C  28.37900 50.93800 20.79400
C  24.76900 49.92100 20.87400
C  24.70500 48.49300 21.41000
N  25.05300 51.33300 25.86800
C  24.37900 51.97500 24.90000
C  23.42100 52.89400 25.39300
C  23.49400 52.75000 26.77500
C  24.56700 51.79500 27.05200
C  22.61400 53.89700 24.65100
C  22.97100 53.10700 28.10200
O  22.03800 53.79400 28.40200
C  23.90700 52.45700 29.19500
C  24.28100 53.55300 30.09500
O  25.22500 54.37300 29.91000
O  23.30500 53.58600 31.11200
C  23.58300 54.70500 32.02300
H  29.72500 49.04300 28.98900
H  29.43100 48.72500 22.54300
H  24.09600 52.35100 22.82400
H  26.44400 51.69300 30.87300
H  27.95900 49.21500 30.80600
H  29.03600 51.75600 29.82400
H  29.80700 50.53000 30.91900
H  28.61200 51.67700 31.55200
H  25.79600 48.87000 31.32800
H  24.47300 49.62700 30.65200
H  24.06900 49.87000 32.90600
H  24.55000 51.41600 32.44400
H  31.46200 47.99000 28.23200
H  32.57100 47.83300 26.84400
H  31.66000 46.47400 27.28700
H  31.21000 45.31600 25.33200
H  32.76200 46.14800 24.86300
H  32.03400 45.15600 23.65100
H  27.34400 49.07900 20.92200
H  25.91100 51.65100 20.85000
H  29.40300 50.96900 21.16800
H  28.13600 52.00000 20.76400
H  28.46600 50.52500 19.78900
H  24.93700 49.88000 19.79700
H  23.83400 50.43800 21.09100
H  25.01900 48.63100 22.44400
H  25.29700 47.81600 20.79500
H  23.66000 48.21000 21.28400
H  23.26200 54.44200 23.96500
H  22.13900 54.68900 25.22900
H  21.87000 53.36000 24.06300
H  23.32700 51.77000 29.81100
H  22.78500 54.79400 32.75900
H  23.68400 55.66500 31.51600
H  24.47900 54.48900 32.60600

