158

Mg 40.13100 9.78100 29.07700
C  42.23800 10.68700 31.75400
C  37.92500 8.54700 31.22000
C  38.26500 8.81000 26.44800
C  42.66500 10.79300 26.91100
N  40.21400 9.55400 31.22000
C  40.97600 10.18700 32.10700
C  40.40600 10.13900 33.57100
C  39.05100 9.38100 33.32200
C  39.04900 9.07200 31.81800
C  38.96300 8.06600 34.11200
C  40.27900 11.51500 34.31300
C  39.46300 11.45300 35.63900
H  40.34800 11.72700 36.87400
N  38.28400 8.82200 28.88900
C  37.54500 8.37300 29.87200
C  36.47200 7.56100 29.33000
C  36.54400 7.72300 27.97600
C  37.72600 8.46000 27.72100
C  35.46000 6.78900 30.19300
C  35.58400 7.23400 26.92700
O  35.83600 7.21600 25.72900
C  34.33800 6.60600 27.35100
N  40.44600 9.60000 26.91900
C  39.55100 9.28700 26.04200
C  39.99900 9.45400 24.55700
C  41.27700 10.34300 24.79900
C  41.51300 10.23800 26.30000
C  40.32300 8.06400 23.96000
C  41.18200 11.77200 24.18700
C  39.83900 12.56700 24.48400
N  42.10500 10.54200 29.22800
C  42.97500 10.98800 28.28000
C  44.14200 11.67100 28.93100
C  43.81500 11.58800 30.28000
C  42.60500 10.88000 30.39800
C  45.29100 12.24800 28.25700
C  44.32200 11.95200 31.56100
O  45.35800 12.52000 31.87300
C  43.24000 11.48800 32.57600
C  43.83100 10.54100 33.53700
O  44.26400 9.41700 33.33200
O  43.85100 11.03700 34.83800
C  43.91800 10.03300 35.92500
H  37.22800 8.08000 31.91900
H  37.60000 8.60300 25.60700
H  43.32000 11.15800 26.11700
H  41.02900 9.53600 34.23200
H  38.24900 10.02300 33.68700
H  39.75600 7.89100 34.84000
H  39.14000 7.22900 33.43600
H  37.92300 7.95600 34.41800
H  39.84800 12.34300 33.75000
H  41.29000 11.87000 34.51300
H  38.87500 10.53900 35.73200
H  38.72700 12.25400 35.57400
H  34.43600 7.16100 30.21500
H  35.85400 6.72900 31.20700
H  35.43400 5.75400 29.85100
H  33.76000 7.31100 27.94800
H  34.48200 5.71800 27.96700
H  33.65500 6.35300 26.54000
H  39.25900 9.97700 23.95200
H  42.15900 9.81300 24.43900
H  39.66900 7.85600 23.11300
H  40.31000 7.19700 24.62100
H  41.38900 7.96200 23.75900
H  41.40900 11.68100 23.12500
H  41.98200 12.31900 24.68500
H  39.29700 12.77300 23.56100
H  39.93400 13.58700 24.85600
H  39.20000 12.00200 25.16300
H  45.00800 12.79800 27.35900
H  46.01600 11.44000 28.16100
H  45.46400 13.04300 28.98200
H  42.80200 12.41500 32.94800
H  44.86200 9.49000 35.89100
H  43.17200 9.29500 35.63000
H  43.64000 10.41000 36.90900
Mg 46.80100 16.79900 27.86700
C  44.97300 16.22400 30.88500
C  48.94800 18.76500 29.71300
C  48.37100 17.65700 25.02800
C  44.24100 15.57400 26.15000
N  46.82100 17.56200 30.12300
C  46.05900 17.06300 31.19200
C  46.58700 17.58800 32.53200
C  47.75100 18.54600 32.10700
C  47.90600 18.18700 30.56200
C  47.83600 20.03500 32.50400
C  46.89300 16.36700 33.47900
C  46.00000 16.29400 34.72100
H  45.69800 17.55900 35.43200
N  48.45100 18.04100 27.45600
C  49.21400 18.74000 28.35900
C  50.28700 19.32400 27.60100
C  50.14700 19.00200 26.25000
C  48.94800 18.18400 26.18200
C  51.31800 20.26600 28.27400
C  51.08200 19.28900 25.03100
O  50.84700 18.91600 23.90800
C  52.37600 19.96400 25.23200
N  46.49700 16.44100 25.92100
C  47.25900 16.85000 24.89700
C  46.65700 16.66500 23.52800
C  45.49000 15.68100 23.83000
C  45.37100 15.89200 25.40300
C  46.28000 17.98000 22.72900
C  45.75200 14.24200 23.26000
C  46.01300 13.10000 24.28300
N  44.95600 15.95600 28.33300
C  44.00200 15.46000 27.51700
C  42.90100 14.91300 28.31200
C  43.22000 15.15600 29.62800
C  44.46900 15.84700 29.58800
C  41.87300 14.09300 27.57600
C  42.76100 14.99300 30.96600
O  41.72300 14.48800 31.43800
C  43.88600 15.71100 31.86100
C  43.14200 16.78200 32.58600
O  43.03700 17.92400 32.22100
O  42.51600 16.25400 33.65800
C  41.64000 17.15300 34.37600
H  49.60400 19.42100 30.28800
H  48.91400 17.83800 24.09900
H  43.47100 15.13700 25.51100
H  45.84500 18.28000 32.93000
H  48.58000 18.09400 32.65300
H  46.96000 20.22100 33.12600
H  47.79800 20.70100 31.64200
H  48.66400 20.15800 33.20200
H  47.94300 16.37000 33.77000
H  46.69200 15.45100 32.92300
H  46.59500 15.65700 35.37500
H  45.05300 15.79400 34.51700
H  51.56900 21.09500 27.61200
H  52.18400 19.65700 28.53400
H  50.85400 20.60200 29.20100
H  53.06700 19.43500 25.88900
H  52.03900 20.92100 25.62900
H  53.04100 20.12600 24.38400
H  47.39100 16.15700 22.90300
H  44.63400 16.06500 23.27600
H  45.31000 17.99800 22.23200
H  47.03500 18.34000 22.03000
H  46.19100 18.77800 23.46600
H  46.64100 14.13900 22.63800
H  44.85300 13.90800 22.74200
H  46.75100 13.49100 24.98300
H  46.32800 12.21600 23.72800
H  45.07100 12.96000 24.81400
H  41.05500 14.66900 27.14400
H  41.46200 13.44300 28.34900
H  42.31100 13.46800 26.79700
H  44.06000 14.85100 32.50800
H  42.16700 18.06000 34.67100
H  41.23300 16.65400 35.25600
H  40.78700 17.40600 33.74600

