158

Mg 0.78300 8.75700 25.52400
C  1.69300 10.55500 28.34800
C  0.80100 5.90300 27.39800
C  0.25600 7.07400 22.66000
C  0.83400 11.62900 23.67700
N  1.17300 8.30100 27.72200
C  1.47500 9.19600 28.63900
C  1.40500 8.51000 30.03400
C  1.34100 6.93200 29.68800
C  1.03800 7.03800 28.20600
C  2.63700 6.10500 30.18600
C  0.21600 9.01600 30.94500
C  0.43700 9.03800 32.45700
H  1.48400 8.17400 33.13200
N  0.47700 6.75200 25.04500
C  0.67900 5.72300 25.95300
C  0.52100 4.48600 25.27300
C  0.27400 4.82000 23.88900
C  0.37700 6.26100 23.81400
C  0.76100 3.12600 26.00300
C  0.10800 3.81900 22.71400
O  0.40700 4.24600 21.58700
C  -0.38400 2.36900 22.91400
N  0.64900 9.21400 23.36700
C  0.35000 8.37400 22.40000
C  0.31600 8.97900 21.00900
C  0.24200 10.47700 21.41600
C  0.57800 10.45000 22.95800
C  1.54500 8.54500 20.15000
C  -1.08900 11.21400 21.15700
C  -0.94600 12.58600 20.42300
N  1.43200 10.68400 25.80900
C  1.41900 11.77500 25.01200
C  1.82200 12.98200 25.75100
C  1.97100 12.58600 27.03200
C  1.63900 11.17300 27.02400
C  1.88100 14.33400 25.14600
C  2.25300 13.01800 28.36200
O  2.51300 14.19600 28.75000
C  1.91600 11.76800 29.20900
C  3.01200 11.64200 30.18900
O  4.03500 11.09400 29.88200
O  2.61700 12.07900 31.45200
C  3.58000 11.82000 32.52300
H  0.92000 4.98000 27.96800
H  -0.03800 6.54000 21.75400
H  0.81200 12.54200 23.07800
H  2.43000 8.71600 30.34500
H  0.47600 6.60200 30.26400
H  3.25100 6.84400 30.70100
H  3.14200 5.69700 29.31100
H  2.37200 5.26400 30.82600
H  -0.57600 8.26900 30.89100
H  -0.31900 9.85300 30.49600
H  -0.47400 8.99300 33.05400
H  0.91900 9.99100 32.67600
H  1.81900 3.11100 26.26600
H  0.60300 2.24300 25.38400
H  0.16600 2.98100 26.90500
H  -1.13100 2.16900 23.68300
H  0.58800 1.93100 23.13900
H  -0.69800 1.87500 21.99500
H  -0.65500 8.72200 20.58600
H  1.08500 10.93600 20.89900
H  1.39800 8.51900 19.07100
H  1.94500 7.55300 20.36000
H  2.39500 9.21600 20.27500
H  -1.60300 11.19000 22.11800
H  -1.59300 10.65100 20.37100
H  -0.02200 13.15900 20.50500
H  -1.73100 13.21200 20.84700
H  -1.21600 12.39300 19.38400
H  1.89200 14.19300 24.06500
H  2.85300 14.77900 25.36000
H  1.09600 15.02900 25.44200
H  1.06100 12.04700 29.82400
H  4.47700 11.26800 32.24300
H  3.22100 11.38900 33.45800
H  3.88700 12.77400 32.95100
Mg -12.37400 38.19000 42.01100
C  -10.09000 35.73200 40.98700
C  -10.32800 40.53900 40.53100
C  -14.78400 40.47500 42.35100
C  -14.41300 35.66200 43.07200
N  -10.56900 38.08800 40.71400
C  -9.69700 37.01100 40.62400
C  -8.34300 37.43800 39.93100
C  -8.31800 38.92800 40.08700
C  -9.81700 39.22200 40.47700
C  -7.38300 39.59400 41.08200
C  -8.26700 36.96100 38.38200
C  -6.88900 36.33600 37.97400
H  -5.99600 36.99100 36.93600
N  -12.56800 40.21100 41.52900
C  -11.62000 41.03500 40.94800
C  -12.09300 42.37400 40.80800
C  -13.39900 42.36800 41.36400
C  -13.65100 40.95800 41.72300
C  -11.25700 43.48500 40.12600
C  -14.24300 43.52800 41.58400
O  -13.77800 44.61100 41.24700
C  -15.57100 43.58700 42.34600
N  -14.33300 38.12900 42.57500
C  -15.06800 39.21600 42.80500
C  -16.47900 38.85200 43.37900
C  -16.27500 37.36400 43.68000
C  -14.97800 36.92800 43.02300
C  -16.97900 39.67700 44.61100
C  -17.46800 36.55300 43.17200
C  -17.75400 35.21600 43.97400
N  -12.32100 36.04000 42.17800
C  -13.23900 35.15300 42.60500
C  -12.79300 33.77700 42.45500
C  -11.56600 33.94700 41.81500
C  -11.33400 35.35800 41.63500
C  -13.45400 32.54700 42.90500
C  -10.37700 33.34300 41.29700
O  -10.11700 32.12100 41.21600
C  -9.34600 34.49300 40.84200
C  -8.31400 34.33900 41.89900
O  -8.45500 34.48200 43.10900
O  -7.00900 34.11200 41.38200
C  -5.90700 34.12500 42.32800
H  -9.64400 41.31000 40.17200
H  -15.59900 41.15500 42.60700
H  -15.05000 34.94500 43.59400
H  -7.54200 37.05800 40.56400
H  -8.25900 39.38700 39.10000
H  -6.56000 38.89900 41.24400
H  -7.81000 39.84700 42.05300
H  -7.02700 40.49800 40.58700
H  -8.48900 37.78800 37.70700
H  -8.95800 36.12900 38.24300
H  -7.10900 35.39400 37.47000
H  -6.24100 36.11000 38.82000
H  -11.58200 43.44100 39.08600
H  -10.16900 43.50100 40.19300
H  -11.36400 44.41800 40.68000
H  -16.42000 43.07500 41.89400
H  -15.85600 44.63700 42.41600
H  -15.42300 43.07300 43.29600
H  -17.11400 39.00200 42.50500
H  -16.15600 37.16300 44.74500
H  -17.76800 40.33900 44.25600
H  -16.21200 40.31000 45.05600
H  -17.43300 39.02200 45.35500
H  -17.27000 36.16000 42.17400
H  -18.36400 37.13200 42.94800
H  -18.80200 35.42500 44.18600
H  -17.16300 35.04000 44.87200
H  -17.64300 34.36300 43.30400
H  -13.10300 31.66500 42.36800
H  -14.54000 32.56800 42.82100
H  -13.40800 32.54000 43.99400
H  -9.04200 34.28300 39.81700
H  -5.68200 35.15200 42.61600
H  -5.23300 33.61300 41.64200
H  -5.98400 33.45900 43.18700

