158

Mg 35.92800 1.24000 29.73000
C  33.79300 2.23700 32.37400
C  38.50400 0.96400 32.13200
C  38.11100 0.94400 27.26400
C  33.25800 1.72700 27.50700
N  36.11300 1.52500 32.02900
C  35.11400 1.96400 32.83700
C  35.61300 1.75800 34.32600
C  37.19800 1.75700 34.17400
C  37.27900 1.41000 32.67200
C  37.88400 3.14100 34.56800
C  34.93600 0.50100 35.05300
C  34.13200 0.76500 36.26600
H  34.47200 2.03700 37.01400
N  38.06100 0.82300 29.75700
C  38.86000 0.72200 30.80300
C  40.21400 0.45500 30.29500
C  40.08700 0.38700 28.86600
C  38.67000 0.71100 28.56700
C  41.36400 0.05100 31.29200
C  41.14400 0.27600 27.70200
O  40.87000 0.14700 26.49700
C  42.54600 0.11900 27.98800
N  35.73200 1.32300 27.68400
C  36.78200 1.25100 26.87300
C  36.36700 1.33200 25.40900
C  34.78100 1.44800 25.46100
C  34.53200 1.44800 26.96800
C  36.97600 2.56800 24.70800
C  34.12100 0.30200 24.71400
C  33.80400 -1.00000 25.47500
N  33.94000 1.76700 29.89800
C  33.00200 2.00200 28.91600
C  31.75100 2.53400 29.50600
C  31.99800 2.54400 30.88100
C  33.39400 2.11000 31.05600
C  30.47100 3.00200 28.75400
C  31.41300 2.89800 32.15800
O  30.29000 3.27600 32.48300
C  32.57000 2.65800 33.20700
C  32.74300 3.90500 33.99300
O  33.57700 4.75100 33.67100
O  31.85900 3.99300 35.04000
C  31.88800 5.22600 35.80500
H  39.34400 0.76900 32.80200
H  38.73800 0.74100 26.39300
H  32.47900 1.91700 26.76600
H  35.36500 2.71400 34.78800
H  37.55400 0.85900 34.67900
H  37.16000 3.89400 34.88000
H  38.38900 3.54000 33.68800
H  38.65100 3.12900 35.34200
H  35.73400 -0.21100 35.26200
H  34.40800 -0.02100 34.25500
H  34.12800 -0.05200 36.98800
H  33.06600 0.79700 36.04100
H  42.20200 -0.48100 30.84200
H  40.93800 -0.61000 32.04600
H  41.78000 0.94500 31.75700
H  42.59300 -0.82100 28.53800
H  42.76700 1.05300 28.50500
H  43.17200 0.06700 27.09800
H  36.71500 0.47300 24.83500
H  34.30900 2.35200 25.07600
H  36.16600 3.28200 24.56000
H  37.49300 2.36700 23.77000
H  37.63600 3.17300 25.32900
H  34.85000 -0.07200 23.99600
H  33.26700 0.66400 24.14100
H  34.39600 -1.86200 25.16400
H  32.82300 -1.43000 25.27100
H  33.80500 -0.91100 26.56100
H  30.67100 2.78100 27.70500
H  30.34900 4.05600 29.00400
H  29.73900 2.27300 29.10200
H  32.17700 1.90500 33.89000
H  31.59300 6.06000 35.16800
H  32.90000 5.44400 36.14500
H  31.24400 5.13800 36.67900
Mg -10.76800 39.74000 42.76500
C  -9.00800 36.92000 41.63400
C  -8.55600 41.59000 40.95300
C  -12.90100 42.35700 43.16200
C  -13.37600 37.60800 43.91000
N  -9.01000 39.19900 41.29000
C  -8.40800 38.01900 41.08500
C  -7.08100 38.08600 40.18900
C  -6.83400 39.67200 40.28500
C  -8.19800 40.22400 40.83400
C  -5.63000 40.07800 41.12900
C  -7.32200 37.55200 38.74400
C  -6.54200 36.33800 38.23800
H  -5.94400 36.52100 36.90000
N  -10.73300 41.70400 42.19000
C  -9.79500 42.23600 41.40700
C  -10.05100 43.70600 41.23900
C  -11.15100 43.98500 42.05900
C  -11.66400 42.65400 42.52400
C  -9.26900 44.57500 40.39600
C  -11.60900 45.40100 42.32300
O  -11.06300 46.38900 41.86600
C  -12.91000 45.68500 43.11500
N  -12.83200 39.93500 43.56100
C  -13.51000 41.15200 43.60900
C  -14.90700 40.95100 44.20400
C  -15.07600 39.40100 44.29000
C  -13.66200 38.95200 43.86200
C  -15.10300 41.77700 45.50800
C  -16.26000 38.83800 43.37300
C  -17.05100 37.62900 43.92700
N  -11.05100 37.71400 42.93600
C  -12.15200 36.98700 43.46400
C  -11.83800 35.55900 43.42000
C  -10.59500 35.49600 42.65700
C  -10.11800 36.82700 42.43300
C  -12.72200 34.42100 43.91500
C  -9.63500 34.63300 42.12300
O  -9.60800 33.38400 42.10600
C  -8.58000 35.53600 41.44400
C  -7.24100 35.21900 41.87200
O  -6.88900 35.29300 43.04500
O  -6.66700 34.51000 40.86900
C  -5.37300 33.85800 41.08000
H  -7.79000 42.27600 40.58600
H  -13.51500 43.26000 43.15700
H  -14.19900 36.91100 44.08000
H  -6.29000 37.47800 40.62800
H  -6.65800 40.12400 39.30900
H  -4.88500 40.59500 40.52500
H  -5.14000 39.29300 41.70500
H  -5.95900 40.92000 41.73800
H  -7.42400 38.39200 38.05700
H  -8.34600 37.18300 38.69600
H  -7.21300 35.49500 38.07400
H  -5.68000 36.23600 38.89700
H  -8.74200 43.90600 39.71600
H  -8.54800 45.02500 41.07800
H  -9.89100 45.32800 39.91000
H  -12.87400 45.19400 44.08700
H  -13.78500 45.38500 42.53800
H  -13.06000 46.75100 43.28600
H  -15.70000 41.46300 43.66000
H  -15.27100 39.06400 45.30900
H  -14.13300 42.10700 45.87700
H  -15.63500 41.14000 46.21600
H  -15.68100 42.65500 45.22100
H  -15.82200 38.57300 42.41000
H  -16.87100 39.65700 42.99200
H  -18.01300 37.86400 44.38300
H  -16.44500 36.99900 44.57800
H  -17.17700 37.01700 43.03400
H  -12.23300 33.44900 43.86300
H  -13.65100 34.39200 43.34500
H  -13.06100 34.49900 44.94900
H  -8.67500 35.27600 40.39000
H  -4.67300 34.41000 41.70500
H  -4.87800 33.86100 40.10900
H  -5.55200 32.93700 41.63500

