158

Mg 48.66500 35.56100 28.45200
C  46.92000 33.65700 30.68600
C  48.87900 38.16000 30.87500
C  49.86500 37.66900 26.10100
C  47.86000 33.29600 25.91600
N  47.96000 35.87100 30.43700
C  47.40100 34.87300 31.16700
C  47.64300 35.19500 32.64600
C  47.65000 36.78600 32.63000
C  48.21200 37.00500 31.21200
C  46.26600 37.52000 32.71600
C  48.94700 34.58100 33.20500
C  49.31900 34.69400 34.70300
H  48.32100 35.32300 35.74200
N  49.40800 37.50300 28.46800
C  49.43200 38.33900 29.55800
C  50.17200 39.63500 29.16400
C  50.56900 39.43500 27.78800
C  49.97000 38.11100 27.42300
C  50.53100 40.76700 30.08000
C  51.22600 40.44600 26.80600
O  51.53400 40.24900 25.60300
C  51.45500 41.90200 27.24400
N  48.80200 35.51600 26.32500
C  49.37900 36.48900 25.59400
C  49.34600 36.12800 24.14600
C  48.93400 34.62300 24.10500
C  48.51000 34.45900 25.54100
C  48.42700 37.09300 23.35000
C  50.20800 33.75300 23.76500
C  50.71000 33.79800 22.30800
N  47.66100 33.81800 28.25400
C  47.52500 32.93500 27.24600
C  46.90600 31.69300 27.70700
C  46.62200 31.88500 29.10600
C  47.07000 33.23500 29.32100
C  46.51300 30.50200 26.83100
C  46.03900 31.34200 30.32500
O  45.38400 30.29600 30.56900
C  46.09800 32.54400 31.27300
C  46.46200 32.12700 32.61000
O  47.21500 31.23900 32.86900
O  45.70200 32.81400 33.49200
C  45.71200 32.34000 34.92700
H  49.13700 38.91100 31.62400
H  50.21000 38.32400 25.29800
H  47.72100 32.55100 25.13000
H  46.77000 34.85300 33.20200
H  48.24600 37.21600 33.43500
H  46.14600 38.15400 31.83800
H  46.17100 38.04500 33.66600
H  45.41700 36.85800 32.88800
H  49.75900 34.99800 32.60800
H  49.08600 33.53400 32.93700
H  50.27400 35.17600 34.91100
H  49.43400 33.70600 35.14800
H  50.13200 41.76600 29.90300
H  51.60400 40.82800 30.26000
H  50.14700 40.68500 31.09700
H  52.02600 42.44500 26.49000
H  52.13300 41.86200 28.09700
H  50.53700 42.39800 27.56000
H  50.38500 36.17100 23.81900
H  48.17300 34.26400 23.41100
H  47.76300 37.66000 24.00300
H  47.80400 36.52700 22.65800
H  49.09800 37.73400 22.78000
H  49.92700 32.73000 24.01300
H  50.94900 34.10100 24.48400
H  50.45600 34.67000 21.70500
H  50.29500 32.97000 21.73400
H  51.77800 33.59000 22.23600
H  45.82700 30.75700 26.02300
H  46.23200 29.66500 27.46900
H  47.49400 30.25900 26.42200
H  45.04700 32.83100 31.31400
H  45.51300 33.18000 35.59300
H  46.68200 31.90600 35.17000
H  44.92400 31.63900 35.20100
Mg -2.40000 33.92100 27.68900
C  -4.09400 31.86200 29.95800
C  -1.31500 35.81000 30.26300
C  -1.28000 36.17700 25.43500
C  -3.96800 32.22800 25.08500
N  -2.72000 33.80700 29.83200
C  -3.36900 32.86800 30.57600
C  -3.17400 33.00600 32.09200
C  -2.29600 34.35500 32.15500
C  -2.07500 34.69700 30.66000
C  -2.97000 35.56200 33.00600
C  -2.55400 31.79700 32.83100
C  -3.15500 31.30400 34.17400
H  -2.14100 31.25300 35.33600
N  -1.33900 35.68700 27.85600
C  -0.86000 36.22000 28.98400
C  -0.00500 37.31600 28.63500
C  0.04400 37.41400 27.19600
C  -0.90800 36.46000 26.72100
C  0.69300 38.04100 29.68700
C  0.90900 38.30300 26.35000
O  0.83600 38.40900 25.12000
C  1.99800 39.09700 27.03300
N  -2.55700 34.07200 25.57800
C  -2.01700 35.13800 24.86500
C  -2.19500 34.93300 23.35800
C  -2.92800 33.56100 23.26800
C  -3.21900 33.28800 24.73700
C  -3.01900 36.10200 22.63400
C  -1.99200 32.40800 22.73900
C  -0.68200 31.92400 23.47900
N  -3.65100 32.27800 27.49900
C  -4.21800 31.68600 26.38300
C  -5.15800 30.70000 26.82500
C  -5.04900 30.65100 28.23100
C  -4.14600 31.66100 28.59000
C  -6.00600 29.89200 25.97100
C  -5.61200 30.02400 29.43500
O  -6.54100 29.18800 29.57700
C  -4.88000 30.69300 30.62800
C  -5.90600 31.06900 31.65900
O  -6.43400 32.17800 31.81300
O  -5.92600 29.97600 32.54300
C  -6.94700 30.05700 33.55100
H  -0.96700 36.42500 31.09600
H  -0.94800 36.92200 24.70800
H  -4.54600 31.69700 24.32500
H  -4.11600 33.15400 32.61900
H  -1.36000 34.17100 32.68300
H  -3.69500 35.93100 32.28100
H  -2.23000 36.29700 33.32200
H  -3.49600 35.12500 33.85500
H  -1.50800 32.00100 33.05900
H  -2.56100 31.06500 32.02300
H  -3.53000 30.29300 34.01500
H  -4.01500 31.87100 34.53000
H  0.47200 37.90000 30.74500
H  0.40000 39.08400 29.56300
H  1.73900 37.78200 29.52100
H  1.53900 39.72700 27.79400
H  2.46200 39.75000 26.29400
H  2.76600 38.47900 27.49900
H  -1.17500 34.85800 22.98200
H  -3.74700 33.68100 22.55800
H  -2.23900 36.83000 22.40700
H  -3.74900 36.59900 23.27300
H  -3.44800 35.79600 21.68000
H  -1.79200 32.72000 21.71400
H  -2.68200 31.56900 22.64500
H  -0.80900 30.84300 23.53500
H  -0.64900 32.29400 24.50400
H  0.29600 32.15000 23.05400
H  -5.72900 28.89100 26.30000
H  -5.79800 29.82000 24.90300
H  -7.04600 30.11800 26.20800
H  -4.04800 30.01800 30.82700
H  -7.56400 30.94500 33.40800
H  -6.45300 30.18000 34.51500
H  -7.53700 29.14100 33.55000

