158

Mg 30.95100 57.68600 40.11300
C  28.51900 55.34900 39.01100
C  33.29800 55.27200 39.64200
C  33.25500 60.07500 40.25600
C  28.39400 60.12800 40.13000
N  30.85600 55.49000 39.35200
C  29.80300 54.82600 38.90800
C  30.29800 53.43000 38.41600
C  31.71400 53.25700 39.03700
C  32.00900 54.77900 39.38600
C  31.94400 52.18800 40.14900
C  30.22900 53.27100 36.80700
C  28.97700 52.49400 36.28400
H  28.08300 53.18600 35.15900
N  32.95500 57.63000 40.03600
C  33.75600 56.54600 39.86700
C  35.14300 56.93700 39.84800
C  35.21000 58.26600 40.10800
C  33.75700 58.73400 40.17700
C  36.34000 55.92200 39.61700
C  36.43400 59.08100 40.34300
O  37.52600 58.51700 40.40200
C  36.34200 60.52400 40.70700
N  30.80900 59.93200 40.05500
C  31.93000 60.60200 40.28000
C  31.55800 62.13900 40.54300
C  29.98700 62.11900 40.77900
C  29.67100 60.66200 40.35700
C  32.30000 62.97800 41.60800
C  29.18000 63.26500 40.09300
C  28.04200 63.86500 40.97900
N  28.84000 57.82500 39.73100
C  27.92900 58.86900 39.91800
C  26.62800 58.40300 39.39100
C  26.79200 56.98800 39.19200
C  28.14500 56.65600 39.41900
C  25.44600 59.25100 39.02600
C  26.13400 55.80500 38.79500
O  24.93900 55.65100 38.62100
C  27.22200 54.63900 38.66100
C  26.86800 53.36400 39.34900
O  27.13500 53.17000 40.49600
O  26.18300 52.41900 38.63400
C  25.70300 51.29300 39.32500
H  34.06900 54.50300 39.55600
H  34.09400 60.75600 40.41300
H  27.64500 60.92100 40.17900
H  29.65600 52.72600 38.94600
H  32.43400 53.08600 38.23600
H  32.44600 52.59000 41.02900
H  32.59300 51.38900 39.78900
H  31.00100 51.70200 40.39800
H  31.08300 52.64700 36.54200
H  30.32700 54.24500 36.32800
H  28.27600 52.31200 37.09800
H  29.32600 51.56300 35.83500
H  37.18100 56.42600 39.14000
H  36.12200 54.99300 39.08900
H  36.58800 55.51900 40.59900
H  37.26200 60.93400 41.12200
H  35.65300 60.56800 41.55100
H  36.03200 61.17000 39.88600
H  31.68600 62.69800 39.61600
H  29.83500 62.06500 41.85700
H  32.77500 62.28800 42.30500
H  31.56500 63.51100 42.21200
H  32.96900 63.69400 41.13000
H  28.58800 62.80500 39.30100
H  29.77300 64.07000 39.66000
H  28.06900 64.95400 41.02100
H  28.15000 63.50400 42.00200
H  27.09300 63.67600 40.47800
H  24.63300 59.26900 39.75200
H  24.96600 58.72400 38.20100
H  25.61900 60.29200 38.75200
H  27.12300 54.53000 37.58100
H  24.99400 50.72400 38.72300
H  25.19800 51.71900 40.19300
H  26.54900 50.69900 39.67100
Mg 0.92300 42.38000 24.38800
C  1.81600 42.44400 27.76900
C  -2.11500 40.91000 25.25800
C  0.25700 41.72900 21.11100
C  4.09800 43.37300 23.48400
N  -0.03000 41.74800 26.45200
C  0.49400 41.91900 27.66700
C  -0.44200 41.45200 28.79100
C  -1.56200 40.78800 27.92300
C  -1.24400 41.09700 26.45800
C  -1.89300 39.26200 28.10200
C  -0.78500 42.68900 29.73100
C  -1.07600 42.36900 31.24500
H  -1.86900 41.07300 31.59200
N  -0.85500 41.74500 23.36600
C  -1.98100 41.21100 23.86900
C  -2.92200 40.87500 22.85700
C  -2.24100 41.14800 21.59700
C  -0.85900 41.59800 21.95300
C  -4.28500 40.27900 23.12200
C  -2.78400 40.75900 20.17900
O  -2.10400 40.87800 19.18400
C  -4.23800 40.26800 19.94700
N  2.08000 42.32200 22.70500
C  1.56300 42.03100 21.46200
C  2.65600 42.13300 20.47100
C  3.70900 43.02100 21.05900
C  3.30100 42.90300 22.47100
C  3.16000 40.67300 20.17100
C  3.62200 44.54400 20.57100
C  2.42000 45.32800 20.98500
N  2.66800 42.90200 25.42900
C  3.91600 43.37000 24.89900
C  4.79700 43.63500 26.05800
C  4.02800 43.29300 27.17800
C  2.71700 42.87800 26.76200
C  6.14400 44.26900 26.01800
C  4.06800 43.10500 28.64800
O  4.90900 43.25100 29.52800
C  2.64400 42.60000 29.01400
C  2.74400 41.32800 29.76800
O  3.32200 40.27400 29.44500
O  2.03500 41.50500 30.89400
C  1.92000 40.30600 31.67000
H  -3.01000 40.34300 25.52400
H  0.06700 41.58100 20.04600
H  5.03100 43.82800 23.14600
H  -0.00400 40.70400 29.45200
H  -2.52400 41.20100 28.22800
H  -1.99200 38.83200 27.10500
H  -2.75700 39.04400 28.72900
H  -1.01300 38.73100 28.46400
H  -1.62000 43.15700 29.20900
H  0.06500 43.36500 29.64000
H  -1.80000 43.10500 31.59300
H  -0.21300 42.55800 31.88400
H  -4.48900 40.15500 24.18500
H  -4.36800 39.30800 22.63300
H  -5.08800 40.91900 22.75700
H  -4.97000 41.00600 20.27700
H  -4.43500 39.28900 20.38500
H  -4.24500 40.27300 18.85700
H  2.17500 42.58600 19.60500
H  4.71600 42.61500 20.96500
H  2.93300 40.08700 21.06100
H  4.23400 40.69800 19.98500
H  2.54400 40.30000 19.35200
H  3.71600 44.60100 19.48700
H  4.54900 44.89700 21.02400
H  1.57900 44.67400 21.21600
H  2.10900 45.82000 20.06300
H  2.52400 46.12100 21.72500
H  6.44000 43.98500 27.02700
H  6.21400 45.34800 25.87900
H  6.92300 43.87900 25.36300
H  2.19000 43.29600 29.71900
H  1.86200 39.32600 31.19700
H  1.11600 40.26000 32.40500
H  2.83600 40.31100 32.26000

