158

Mg -0.00400 7.73800 26.54500
C  1.00900 9.86500 28.98200
C  -0.27300 5.17100 28.78300
C  -0.91500 5.63200 24.01800
C  0.68100 10.32900 24.19500
N  0.47900 7.57600 28.69900
C  0.66300 8.60000 29.52800
C  0.59700 8.13200 30.96400
C  0.58100 6.54600 30.88500
C  0.31100 6.38400 29.35400
C  1.84500 5.73700 31.37700
C  -0.65800 8.76500 31.61400
C  -0.73400 8.80900 33.17100
H  0.53000 8.52800 34.03700
N  -0.63400 5.71400 26.43400
C  -0.74000 4.83700 27.46300
C  -1.37300 3.58200 27.02800
C  -1.59300 3.80100 25.66200
C  -1.02900 5.09200 25.28600
C  -1.55400 2.31300 27.88800
C  -2.24000 2.75600 24.62800
O  -2.28400 2.90100 23.37400
C  -2.87600 1.46100 25.14500
N  -0.05400 7.87000 24.38600
C  -0.44900 6.87400 23.54400
C  -0.35100 7.28400 22.06800
C  0.27900 8.70600 22.11500
C  0.33800 9.01400 23.61000
C  0.29600 6.33600 21.04400
C  -0.47400 9.79100 21.41100
C  -1.87600 10.06700 21.95700
N  0.92800 9.64600 26.51300
C  0.95600 10.61400 25.52800
C  1.36900 11.90300 26.05900
C  1.47800 11.64000 27.45700
C  1.20500 10.26500 27.60900
C  1.84900 13.19500 25.38700
C  1.77400 12.25500 28.77100
O  2.13200 13.41000 29.17100
C  1.46500 11.09600 29.74300
C  2.63000 10.82900 30.53300
O  3.59800 10.12100 30.27400
O  2.48200 11.63600 31.61100
C  3.46900 11.34700 32.63200
H  -0.45900 4.35900 29.48900
H  -1.35700 5.05700 23.20100
H  0.64600 11.22300 23.56900
H  1.41500 8.54500 31.55400
H  -0.37700 6.23300 31.30200
H  1.49600 4.87900 31.95200
H  2.46400 6.43900 31.93700
H  2.32900 5.30600 30.50100
H  -1.50700 8.23900 31.17700
H  -0.80400 9.74600 31.16400
H  -1.51500 8.12000 33.49100
H  -1.04800 9.83000 33.38900
H  -1.00200 2.48700 28.81200
H  -1.08700 1.47900 27.36500
H  -2.58600 2.06400 28.13500
H  -3.22000 0.93600 24.25400
H  -3.78000 1.82600 25.63200
H  -2.18000 0.78300 25.63900
H  -1.36400 7.35900 21.67200
H  1.32300 8.85400 21.83900
H  0.79300 6.96700 20.30800
H  -0.50900 5.79000 20.55200
H  0.95200 5.62300 21.54300
H  -0.78500 9.44700 20.42500
H  0.06300 10.73900 21.37400
H  -2.59700 10.08000 21.14000
H  -1.85700 11.13000 22.19700
H  -2.21100 9.39900 22.75100
H  0.99800 13.62800 24.86200
H  2.52900 12.86100 24.60400
H  2.37800 13.83200 26.09700
H  0.60600 11.35500 30.36100
H  4.47600 11.46100 32.23100
H  3.46600 10.34200 33.05400
H  3.35500 12.01400 33.48700
Mg -11.22000 38.30400 41.60600
C  -8.70700 36.06500 40.99400
C  -9.57500 40.65700 39.72700
C  -14.07900 40.22900 41.38400
C  -13.19400 35.73300 42.98300
N  -9.42100 38.27100 40.44700
C  -8.48100 37.27200 40.40400
C  -7.23300 37.71400 39.63100
C  -7.62500 39.06600 39.00000
C  -8.93800 39.37800 39.82400
C  -6.47100 40.14200 38.89400
C  -6.66200 36.73800 38.65000
C  -5.13800 36.31200 38.75500
H  -4.29100 36.89100 37.62100
N  -11.67700 40.27600 40.99000
C  -10.79100 41.01700 40.19100
C  -11.40900 42.28000 40.02500
C  -12.73400 42.17800 40.53700
C  -12.90300 40.83600 40.99900
C  -10.72700 43.44400 39.23600
C  -13.76500 43.26400 40.50800
O  -13.54000 44.34600 39.95100
C  -15.14600 43.16700 41.19100
N  -13.45100 37.88000 41.86200
C  -14.32600 38.93300 41.91500
C  -15.65700 38.57500 42.60800
C  -15.36000 37.11300 43.04100
C  -13.88600 36.92000 42.67600
C  -16.06900 39.58600 43.75000
C  -16.42300 36.04400 42.55700
C  -16.19500 35.51100 41.16200
N  -11.11400 36.21900 41.94800
C  -11.91700 35.40200 42.64100
C  -11.13700 34.26100 43.04000
C  -9.91200 34.39200 42.30500
C  -9.98200 35.62700 41.62000
C  -11.50300 33.21600 44.10200
C  -8.59200 33.79700 42.13600
O  -8.14900 32.78600 42.61200
C  -7.81000 34.79200 41.12800
C  -6.38600 34.88000 41.64700
O  -5.58400 33.95300 41.68900
O  -6.25500 36.14000 42.22100
C  -4.90700 36.40600 42.74300
H  -8.98200 41.42400 39.22400
H  -15.01200 40.78100 41.51300
H  -13.87100 35.01500 43.44900
H  -6.42900 37.95900 40.32500
H  -8.01400 38.92100 37.99200
H  -6.65300 41.01300 39.52200
H  -6.37900 40.38600 37.83600
H  -5.51500 39.73400 39.22300
H  -6.62000 37.27900 37.70500
H  -7.31800 35.88000 38.50200
H  -4.95800 35.23700 38.77000
H  -4.73500 36.61800 39.72000
H  -11.30500 43.83300 38.39800
H  -9.76300 43.18500 38.79900
H  -10.60500 44.25500 39.95300
H  -15.15400 42.80900 42.22100
H  -15.75900 42.61000 40.48200
H  -15.63300 44.14100 41.23400
H  -16.49800 38.65300 41.91900
H  -15.36600 36.99900 44.12500
H  -16.84400 40.32300 43.53900
H  -15.16000 40.12700 44.01500
H  -16.44800 39.04600 44.61700
H  -17.46000 36.37400 42.62900
H  -16.19800 35.17300 43.17300
H  -17.10500 35.30100 40.59800
H  -15.59300 34.60400 41.21100
H  -15.56500 36.20400 40.60500
H  -10.66700 32.51900 44.16600
H  -12.42600 32.78600 43.71500
H  -11.58300 33.75200 45.04800
H  -7.62500 34.40300 40.12700
H  -4.18100 36.18700 41.96100
H  -4.83300 35.75200 43.61200
H  -4.72300 37.42500 43.08600

