158

Mg 8.88900 4.32000 27.65200
C  10.11200 2.54300 30.51600
C  6.99900 6.17900 29.86700
C  7.62500 5.88900 25.14400
C  10.44400 2.06400 25.67500
N  8.60100 4.35300 29.88600
C  9.27600 3.58900 30.80400
C  8.93100 3.97100 32.24600
C  7.93700 5.10200 32.03300
C  7.75400 5.16600 30.45400
C  6.47000 4.87100 32.66200
C  10.04800 4.22700 33.30500
C  9.76700 5.30900 34.39800
H  9.97600 4.81200 35.79500
N  7.53100 5.90500 27.53900
C  6.84200 6.56600 28.53200
C  5.96900 7.58700 27.97100
C  6.18900 7.51000 26.57400
C  7.15300 6.39400 26.34500
C  5.03800 8.43500 28.80700
C  5.49300 8.37300 25.53400
O  5.75300 8.19200 24.30900
C  4.58300 9.55600 25.87400
N  8.95700 3.96000 25.65800
C  8.46900 4.84400 24.74400
C  8.78200 4.43600 23.33200
C  9.78600 3.17700 23.53300
C  9.73500 3.02400 25.05600
C  7.59000 4.18500 22.41700
C  11.16700 3.61400 22.97300
C  12.03000 2.45000 22.64600
N  9.96500 2.59000 27.97900
C  10.64300 1.86300 27.07100
C  11.58200 0.92700 27.74700
C  11.38700 1.11200 29.07000
C  10.41400 2.14800 29.18700
C  12.57600 -0.01500 27.23100
C  11.82300 0.72600 30.37600
O  12.54600 -0.18200 30.70300
C  11.00800 1.64900 31.39200
C  10.14400 0.83800 32.36900
O  9.24900 0.07500 32.02600
O  10.58200 1.04700 33.59000
C  9.92900 0.36300 34.61700
H  6.62100 6.91600 30.57900
H  7.21000 6.34400 24.24200
H  10.89100 1.25800 25.08800
H  8.41400 3.02600 32.41200
H  8.18400 6.13400 32.28400
H  6.21000 5.84200 33.08400
H  6.43200 3.90700 33.16900
H  5.81600 4.68200 31.81100
H  10.83400 4.67300 32.69700
H  10.40900 3.35900 33.85800
H  8.74600 5.69100 34.38200
H  10.32100 6.21800 34.16400
H  4.02400 8.22700 28.46400
H  5.07700 9.52000 28.72200
H  5.05500 8.18400 29.86700
H  4.09400 10.00000 25.00700
H  5.03400 10.28400 26.54800
H  3.81300 9.12700 26.51500
H  9.33400 5.28600 22.93200
H  9.31400 2.27500 23.14300
H  7.49900 4.98800 21.68500
H  6.67500 4.21000 23.00900
H  7.65600 3.27700 21.81700
H  11.78700 4.22100 23.63200
H  11.09600 4.21400 22.06600
H  11.46300 1.52400 22.74400
H  12.87200 2.46500 23.33700
H  12.31100 2.49100 21.59400
H  13.01800 0.46100 26.35600
H  12.00200 -0.92200 27.04200
H  13.33900 -0.32900 27.94400
H  11.68400 2.36300 31.86300
H  8.84900 0.48200 34.70200
H  10.22800 0.71400 35.60500
H  10.13800 -0.70400 34.53100
Mg 17.49400 -1.04000 27.59600
C  16.41700 0.62900 30.54900
C  19.10700 -3.23600 29.55100
C  18.95400 -2.27500 24.76600
C  16.08000 1.45700 25.68200
N  17.65800 -1.17400 29.80400
C  17.16400 -0.51200 30.80800
C  17.56300 -0.98100 32.21100
C  18.34500 -2.26000 31.80600
C  18.34600 -2.26500 30.27200
C  19.70800 -2.46500 32.47800
C  16.36500 -1.37100 33.17700
C  16.43100 -0.70500 34.56800
H  17.82800 -0.32300 35.08000
N  18.77200 -2.60800 27.24800
C  19.34400 -3.35500 28.17700
C  20.11800 -4.42800 27.46000
C  20.01300 -4.19700 26.06800
C  19.16400 -2.97400 25.95600
C  20.84000 -5.57500 28.22900
C  20.60900 -4.97000 24.89000
O  20.18600 -4.92200 23.74800
C  21.73200 -5.87000 25.13200
N  17.41700 -0.50200 25.54000
C  18.14500 -1.10300 24.59600
C  17.99100 -0.51900 23.20300
C  16.90600 0.54700 23.52500
C  16.79200 0.51100 24.99700
C  19.28700 0.12900 22.69300
C  15.56500 0.41800 22.72900
C  14.41600 -0.19400 23.61200
N  16.33600 0.62100 27.95900
C  15.81800 1.56300 27.02900
C  14.96100 2.53300 27.86000
C  15.23800 2.15900 29.21400
C  16.11500 1.09700 29.25200
C  13.98800 3.62900 27.40000
C  14.84800 2.47800 30.57400
O  13.95300 3.26000 31.00400
C  15.64200 1.48300 31.42700
C  16.48900 2.34300 32.25100
O  17.69500 2.43200 32.15900
O  15.82600 2.85700 33.38700
C  16.65600 3.63800 34.32900
H  19.52500 -3.94600 30.26600
H  19.49700 -2.63700 23.89100
H  15.64200 2.22100 25.03700
H  18.16800 -0.10000 32.42600
H  17.85400 -3.19100 32.09000
H  19.83200 -3.13900 33.32500
H  19.82600 -1.47500 32.92000
H  20.53100 -2.58300 31.77300
H  16.33800 -2.44100 33.38200
H  15.41900 -1.21800 32.65700
H  16.03800 -1.49600 35.20700
H  15.86600 0.22400 34.50000
H  21.90900 -5.58000 28.01500
H  20.34000 -6.50300 27.95200
H  20.70300 -5.54200 29.30900
H  22.48400 -5.20000 25.54900
H  22.13800 -6.38600 24.26300
H  21.36700 -6.60600 25.84900
H  17.70800 -1.34100 22.54600
H  17.35100 1.52500 23.34600
H  19.04600 0.94600 22.01300
H  19.86900 -0.62900 22.16800
H  19.81900 0.60700 23.51500
H  15.74300 -0.28100 21.91200
H  15.29400 1.33100 22.19900
H  14.81300 -0.88500 24.35500
H  13.80800 -0.81100 22.95100
H  13.87400 0.66200 24.01400
H  13.57800 3.28800 26.44900
H  14.65100 4.43700 27.09100
H  13.33700 3.77800 28.26100
H  14.95200 1.01000 32.12500
H  17.43600 4.12100 33.74000
H  17.02600 3.05700 35.17400
H  16.14700 4.45200 34.84500

