158

Mg -1.74200 17.39400 26.06200
C  -1.81700 15.27200 28.84300
C  -2.34500 20.12100 28.08200
C  -1.42800 19.35000 23.28300
C  -0.91700 14.60200 24.06100
N  -2.30200 17.62200 28.21600
C  -2.16700 16.64100 29.20900
C  -2.45100 17.24100 30.56900
C  -2.87000 18.70200 30.20300
C  -2.47100 18.87200 28.73200
C  -4.40100 18.95700 30.43400
C  -1.26300 17.21300 31.63400
C  -1.62100 16.63600 32.99300
H  -2.30200 17.58600 34.07700
N  -1.93100 19.45600 25.74800
C  -2.15000 20.42300 26.69300
C  -2.17800 21.69000 26.01400
C  -1.87500 21.49500 24.59200
C  -1.72000 20.04200 24.46500
C  -2.38800 23.01700 26.81500
C  -1.77700 22.44200 23.44300
O  -1.42400 22.08200 22.27600
C  -1.88400 23.97700 23.68400
N  -1.34600 16.96000 23.97300
C  -1.37100 17.96100 23.01900
C  -0.97200 17.44800 21.57800
C  -0.47500 15.91700 21.95100
C  -0.92100 15.84100 23.43000
C  -2.17100 17.43800 20.58700
C  1.00100 15.62000 21.68100
C  2.09300 16.60900 22.18100
N  -1.75200 15.38500 26.26200
C  -1.40700 14.36200 25.38500
C  -1.45000 13.10400 26.10000
C  -1.60700 13.42600 27.43300
C  -1.70900 14.78700 27.51300
C  -1.23800 11.76600 25.47300
C  -1.67400 12.80300 28.71500
O  -1.57900 11.61900 29.05800
C  -1.94200 13.99800 29.68100
C  -0.94000 13.83400 30.76500
O  0.21200 14.19200 30.70900
O  -1.54900 13.22900 31.88900
C  -0.66000 13.01600 33.07100
H  -2.55000 21.02900 28.65400
H  -1.21000 19.90800 22.37100
H  -0.56200 13.73900 23.49400
H  -3.32100 16.82800 31.08100
H  -2.38600 19.45800 30.82100
H  -4.84400 19.42100 29.55300
H  -4.51100 19.62900 31.28500
H  -4.92200 18.01000 30.57300
H  -0.94300 18.23600 31.82800
H  -0.37400 16.70600 31.25900
H  -0.69400 16.16000 33.31400
H  -2.35400 15.84100 32.85600
H  -2.38300 22.89400 27.89800
H  -3.39400 23.29600 26.50100
H  -1.72700 23.83600 26.53300
H  -2.11200 24.45600 22.73200
H  -0.98800 24.39800 24.13900
H  -2.73900 24.06800 24.35400
H  -0.16400 18.04700 21.15600
H  -0.98200 15.10200 21.43600
H  -2.91100 18.11600 21.01200
H  -2.72000 16.49800 20.53900
H  -1.78200 17.70800 19.60600
H  1.01800 15.66500 20.59200
H  1.14300 14.58800 22.00100
H  1.57000 17.47100 22.59600
H  2.68400 16.76100 21.27700
H  2.73200 16.17900 22.95200
H  -1.14300 11.01500 26.25700
H  -0.41500 11.80500 24.75900
H  -2.18500 11.47500 25.01800
H  -2.84800 13.89000 30.27700
H  0.41100 12.97700 32.87100
H  -1.04700 12.13000 33.57300
H  -0.82300 13.85200 33.75200
Mg 16.11400 51.61100 25.88600
C  18.09700 50.52900 28.51500
C  13.49900 52.14600 27.93600
C  14.28600 52.43100 23.18400
C  18.70300 50.50600 23.61300
N  15.87400 51.30700 27.86200
C  16.82500 50.94000 28.82600
C  16.34800 51.32800 30.19400
C  14.74100 51.45700 29.96900
C  14.62100 51.46400 28.48500
C  13.89700 50.26800 30.62000
C  16.98400 52.59900 30.77700
C  17.05000 52.74300 32.31900
H  16.17200 51.76400 33.12500
N  14.14800 52.24500 25.58600
C  13.21700 52.36400 26.58100
C  11.93200 52.87300 26.04000
C  12.14700 52.94500 24.63900
C  13.56600 52.54100 24.38400
C  10.86100 53.44300 26.88400
C  11.22000 53.36200 23.49900
O  11.50000 53.28700 22.30100
C  9.71900 53.83500 23.85500
N  16.51300 51.49700 23.67600
C  15.60900 52.01100 22.83800
C  16.09400 51.87600 21.37800
C  17.57100 51.33000 21.55500
C  17.59500 51.09200 23.02500
C  15.18900 51.00700 20.45700
C  18.72400 52.29800 21.01900
C  19.78900 51.50800 20.17100
N  17.98700 50.55000 25.99800
C  18.97500 50.26800 24.99600
C  20.10200 49.67400 25.71200
C  19.82000 49.79600 27.09400
C  18.54400 50.25700 27.16800
C  21.31100 49.13700 25.03700
C  20.36500 49.67700 28.46000
O  21.42500 49.26100 28.87000
C  19.24200 50.12300 29.43900
C  18.86100 49.10900 30.38000
O  18.38000 48.04100 30.06400
O  19.27900 49.47900 31.63400
C  19.22300 48.44100 32.67600
H  12.90200 52.53300 28.76500
H  13.74000 52.69600 22.27600
H  19.54600 50.26100 22.96400
H  16.68300 50.51000 30.83200
H  14.39000 52.40300 30.38200
H  14.50400 49.58000 31.20900
H  13.45400 49.73600 29.77900
H  13.09700 50.67600 31.23700
H  16.49800 53.45800 30.31400
H  17.99900 52.60300 30.38000
H  16.91000 53.79800 32.55500
H  18.09900 52.56300 32.55500
H  10.54700 54.43400 26.55600
H  11.13500 53.40100 27.93800
H  10.02800 52.75300 26.74900
H  9.14700 53.17500 24.50700
H  9.24400 53.92400 22.87800
H  9.86000 54.83100 24.27500
H  16.00800 52.84000 20.87500
H  17.60200 50.29800 21.20700
H  14.54600 50.44000 21.13100
H  15.77600 50.29000 19.88300
H  14.58400 51.51200 19.70400
H  19.25500 52.75200 21.85600
H  18.41400 53.07300 20.31700
H  19.51200 51.73300 19.14100
H  19.69300 50.43600 20.34600
H  20.79400 51.80700 20.46800
H  22.07900 48.98400 25.79400
H  21.60500 49.66500 24.13000
H  21.07000 48.16500 24.60600
H  19.53200 51.02100 29.98300
H  19.62500 47.51900 32.25400
H  18.28900 48.38400 33.23400
H  19.91500 48.68800 33.48100

