158

Mg -0.58400 7.37600 26.45900
C  0.20300 9.23000 29.30000
C  -0.22100 4.48300 28.59200
C  -1.17800 5.41500 23.95800
C  -0.14800 10.09300 24.48500
N  -0.11500 6.96700 28.67800
C  0.00400 7.93700 29.64700
C  0.03000 7.34200 31.02000
C  0.07600 5.78800 30.79600
C  -0.04500 5.76700 29.28400
C  1.24400 5.03900 31.41200
C  -1.24800 7.72700 31.84700
C  -1.00800 8.07400 33.28200
H  0.27500 7.52100 33.89800
N  -0.58200 5.26400 26.28300
C  -0.44900 4.26600 27.20900
C  -0.49600 2.97900 26.55100
C  -0.85600 3.22200 25.22200
C  -0.94200 4.67100 25.10300
C  -0.22500 1.61500 27.20800
C  -1.26600 2.18300 24.11200
O  -1.76500 2.41400 23.01100
C  -1.15700 0.72600 24.44000
N  -0.40700 7.67900 24.45200
C  -0.96600 6.75800 23.63900
C  -1.28900 7.33600 22.23500
C  -0.86900 8.87100 22.40900
C  -0.53600 8.88800 23.84300
C  -0.63500 6.57500 21.05100
C  -1.99300 9.85800 22.05400
C  -3.20500 10.15900 22.94900
N  -0.13300 9.33800 26.77500
C  0.01700 10.32100 25.87600
C  0.37300 11.47300 26.56800
C  0.44500 11.11100 27.91200
C  0.10500 9.76300 27.96200
C  0.54100 12.81700 25.91900
C  0.80700 11.59100 29.19400
O  1.24400 12.63000 29.53500
C  0.44000 10.45900 30.23600
C  1.54200 10.37400 31.17900
O  2.60300 9.83800 30.91900
O  1.35800 11.03300 32.36800
C  2.49700 11.12100 33.36300
H  -0.05500 3.71800 29.35400
H  -1.45100 4.84900 23.06400
H  -0.08100 10.98300 23.85500
H  0.94000 7.64900 31.53600
H  -0.79000 5.31900 31.26300
H  1.92700 5.66500 31.98700
H  1.81000 4.50000 30.65200
H  0.88900 4.31400 32.14300
H  -2.04400 6.98600 31.77400
H  -1.67500 8.62200 31.39500
H  -1.83500 7.65800 33.85800
H  -1.11300 9.15600 33.35700
H  0.28400 1.71900 28.16600
H  0.41400 0.94300 26.63600
H  -1.13600 1.03700 27.36500
H  -1.64700 0.40100 25.35800
H  -0.09700 0.48200 24.50600
H  -1.50200 0.19400 23.55300
H  -2.35600 7.17000 22.08900
H  0.06800 9.14700 21.92600
H  0.28800 6.10600 21.39400
H  -0.35400 7.29500 20.28300
H  -1.33400 5.80700 20.72200
H  -2.36700 9.61400 21.06000
H  -1.37300 10.72700 21.83400
H  -3.04500 11.18900 23.26800
H  -3.23700 9.48800 23.80700
H  -4.21000 9.91500 22.60400
H  0.50500 13.57900 26.69700
H  -0.17900 13.10000 25.15100
H  1.54900 12.94000 25.52300
H  -0.48900 10.78500 30.70300
H  3.43000 10.71600 32.97100
H  2.21500 10.66600 34.31300
H  2.74400 12.18000 33.44200
Mg 10.23200 46.65300 25.27700
C  8.23300 47.02900 28.22100
C  12.83300 48.15000 27.19300
C  12.11600 46.47200 22.64900
C  7.35900 46.24700 23.55500
N  10.51700 47.39000 27.45100
C  9.59100 47.37500 28.46700
C  10.20000 47.71800 29.78200
C  11.43200 48.51300 29.33100
C  11.66900 48.01300 27.88700
C  11.31700 50.04600 29.45600
C  10.43900 46.43000 30.65900
C  10.77800 46.72900 32.16600
H  10.20900 45.82600 33.24500
N  12.30400 47.06500 24.97900
C  13.14200 47.68400 25.86600
C  14.44700 47.68400 25.29100
C  14.25500 47.19100 23.94300
C  12.86200 46.93300 23.79400
C  15.67900 47.87500 26.17600
C  15.30700 46.89500 22.84000
O  15.01500 46.30500 21.80900
C  16.74900 47.39300 23.09900
N  9.77500 46.55700 23.30700
C  10.71800 46.35600 22.38700
C  10.21100 45.78400 21.00500
C  8.69300 45.78700 21.29500
C  8.59500 46.22600 22.78200
C  10.63400 46.52900 19.66500
C  7.91900 44.42000 20.99900
C  6.61300 44.64300 20.14700
N  8.19500 46.47800 25.70400
C  7.11700 46.32900 24.85300
C  5.87900 46.29600 25.61100
C  6.29200 46.61700 26.86700
C  7.71100 46.68200 26.93900
C  4.49500 46.05200 25.07400
C  5.79200 46.66100 28.26700
O  4.65900 46.53500 28.69800
C  7.07600 46.92700 29.25500
C  7.16300 45.83600 30.25200
O  7.65700 44.71500 30.19300
O  6.37700 46.26100 31.31900
C  6.07500 45.24900 32.26500
H  13.56400 48.68900 27.79900
H  12.56800 46.28300 21.67300
H  6.48600 46.12300 22.91100
H  9.51400 48.27200 30.42300
H  12.26100 48.16500 29.94800
H  10.34000 50.39500 29.78900
H  11.61600 50.44800 28.48800
H  12.05900 50.37900 30.18200
H  11.33600 45.99100 30.22300
H  9.58300 45.77600 30.82500
H  10.33200 47.67800 32.46100
H  11.84100 46.85500 32.37500
H  16.40700 47.11600 25.88900
H  15.49700 47.73900 27.24200
H  16.13600 48.86000 26.07900
H  17.19100 47.73300 22.16200
H  17.31900 46.59200 23.57200
H  16.53700 48.25200 23.73500
H  10.60700 44.79400 20.77800
H  8.18900 46.59600 20.76700
H  11.06300 45.77500 19.00500
H  11.32600 47.27800 20.05000
H  9.80100 47.02100 19.16300
H  7.59000 44.13600 21.99800
H  8.54000 43.67100 20.50700
H  6.57400 45.59500 19.61900
H  5.73200 44.75200 20.77900
H  6.38600 43.94400 19.34200
H  3.83000 46.37300 25.87600
H  4.16500 45.08200 24.70200
H  4.32300 46.73400 24.24100
H  6.82300 47.86000 29.75900
H  5.08500 44.83100 32.08400
H  6.16600 45.73000 33.23900
H  6.74500 44.39900 32.39800

