158

Mg 47.08400 24.47000 28.48700
C  47.90900 26.55700 31.20900
C  46.34600 21.94300 30.75600
C  46.65800 22.49400 25.91700
C  48.10800 27.04100 26.35600
N  47.15500 24.31300 30.69800
C  47.34400 25.33800 31.64600
C  47.00400 24.84300 33.10900
C  46.72600 23.33800 32.87600
C  46.71400 23.15000 31.37700
C  47.82300 22.49600 33.54100
C  45.85000 25.64700 33.89600
C  46.18600 26.35900 35.24500
H  45.03500 26.56200 36.26600
N  46.74600 22.45500 28.35800
C  46.32400 21.61300 29.35700
C  46.00300 20.35200 28.71900
C  46.26100 20.51000 27.31400
C  46.56100 21.90200 27.19800
C  45.59800 19.09500 29.51900
C  46.06900 19.47200 26.21200
O  46.19300 19.67800 25.00600
C  45.75700 17.97500 26.53700
N  47.62600 24.67100 26.37600
C  47.20700 23.68100 25.57500
C  47.37100 24.08200 24.07900
C  47.39100 25.62300 24.24100
C  47.70400 25.83400 25.70000
C  48.67300 23.40400 23.47100
C  46.13900 26.45800 23.88500
C  44.90900 26.27700 24.79100
N  47.70600 26.40800 28.65700
C  48.17200 27.32900 27.71400
C  48.50800 28.60700 28.27300
C  48.38900 28.34400 29.68500
C  47.99200 26.94100 29.83500
C  49.05900 29.96200 27.70300
C  48.50000 28.99800 30.97900
O  48.68300 30.16500 31.38300
C  48.22900 27.84900 31.97500
C  49.48300 27.57700 32.76200
O  50.50200 27.10300 32.26100
O  49.22600 27.85700 34.06200
C  50.29300 27.79200 35.07800
H  46.11900 21.16700 31.49000
H  46.52200 21.83400 25.05700
H  48.23500 27.94700 25.75900
H  48.03500 24.96000 33.44400
H  45.73000 23.16400 33.28500
H  48.68400 22.24200 32.92200
H  47.25700 21.58500 33.73600
H  48.23900 22.79700 34.50200
H  45.07200 24.95300 34.21400
H  45.22400 26.29500 33.28300
H  46.63100 27.31800 34.98000
H  46.97800 25.74100 35.66900
H  44.62400 18.68900 29.24400
H  45.55600 19.13800 30.60700
H  46.19000 18.25100 29.16600
H  45.70500 17.39200 25.61700
H  44.73700 17.87800 26.90700
H  46.46600 17.60500 27.27800
H  46.45300 23.72600 23.61000
H  48.21200 25.98200 23.62100
H  48.44200 22.56000 22.82100
H  49.46000 23.24000 24.20700
H  48.93900 24.16600 22.73900
H  45.80800 26.14100 22.89600
H  46.42200 27.51100 23.88500
H  44.88900 25.46700 25.52100
H  44.06300 26.20000 24.10800
H  44.95400 27.18600 25.39000
H  48.55900 30.22300 26.77100
H  50.11200 29.91300 27.42400
H  48.98600 30.85400 28.32500
H  47.46800 28.14800 32.69500
H  49.88000 27.20600 35.89900
H  50.41800 28.75200 35.57700
H  51.25100 27.46000 34.67800
Mg 35.59600 49.01400 25.43100
C  35.73400 47.21200 28.37600
C  34.38800 51.66600 27.25300
C  35.22600 50.63800 22.55800
C  36.60200 46.11500 23.67400
N  35.16600 49.36700 27.60300
C  35.33200 48.50100 28.65400
C  35.11700 49.19400 30.00000
C  34.58500 50.62400 29.56300
C  34.87800 50.61400 28.07400
C  33.15600 51.02800 29.93200
C  36.26600 49.22200 31.05500
C  35.93700 48.76700 32.52300
H  35.43000 49.76600 33.44500
N  34.86000 50.94900 24.93600
C  34.38500 51.87000 25.86500
C  33.91500 53.04000 25.10100
C  34.10200 52.71400 23.72000
C  34.78300 51.39100 23.67700
C  33.36300 54.26100 25.85000
C  33.67600 53.55000 22.52300
O  33.92000 53.20000 21.32000
C  33.03000 54.85800 22.67400
N  35.81100 48.40600 23.41100
C  35.77600 49.33100 22.41800
C  36.32100 48.77500 21.09400
C  36.76900 47.33700 21.50900
C  36.41300 47.28000 22.95200
C  35.33100 48.62000 19.90700
C  38.27500 47.05400 21.27600
C  38.57800 45.79900 20.46100
N  36.10700 47.06300 25.83900
C  36.40200 45.97600 25.04100
C  36.65600 44.81000 25.83500
C  36.37100 45.22400 27.11000
C  36.04300 46.64000 27.12900
C  37.09300 43.40600 25.49100
C  36.31400 44.78900 28.46000
O  36.55600 43.72900 29.00200
C  36.09500 46.09500 29.29700
C  34.76800 45.82300 30.12100
O  33.63600 45.94300 29.68500
O  35.14300 45.42900 31.44400
C  34.04300 44.98800 32.24700
H  33.95600 52.46400 27.86000
H  35.31600 51.21800 21.63700
H  36.96300 45.19900 23.20100
H  34.23700 48.73500 30.44900
H  35.21600 51.44200 29.91300
H  32.54200 50.25700 30.39900
H  32.52600 51.19800 29.06000
H  33.15900 51.90000 30.58600
H  36.76900 50.18900 31.05600
H  36.91300 48.51600 30.53400
H  36.82500 48.44800 33.07000
H  35.20000 47.96800 32.44000
H  33.60700 55.17900 25.31700
H  33.84100 54.38500 26.82200
H  32.29600 54.18000 26.05600
H  33.65900 55.57200 23.20600
H  32.15300 54.69800 23.30100
H  32.76800 55.25700 21.69400
H  37.20800 49.34500 20.81900
H  36.23800 46.55100 20.97300
H  35.79300 49.17900 19.09400
H  34.41100 49.19000 20.03800
H  35.04400 47.61600 19.59200
H  38.75300 46.98400 22.25200
H  38.76300 47.93200 20.85200
H  39.25600 45.12500 20.98400
H  39.06400 46.00700 19.50800
H  37.71900 45.12800 20.44800
H  37.85600 43.49700 24.71800
H  36.25800 42.81900 25.10800
H  37.60700 43.06800 26.39100
H  36.86600 46.23100 30.05500
H  33.71900 43.94900 32.19200
H  33.19400 45.67200 32.21400
H  34.46700 45.05100 33.24900

