158

Mg 23.82600 -6.58600 47.46600
C  26.44900 -4.30800 46.39200
C  22.01200 -5.38500 44.95100
C  21.85500 -9.11600 48.12400
C  26.34500 -8.00600 49.56100
N  24.25600 -4.95900 45.92500
C  25.29200 -4.19900 45.63100
C  25.01300 -3.16900 44.48000
C  23.49600 -3.36600 44.19700
C  23.17300 -4.63700 45.09800
C  22.66600 -2.03700 44.57500
C  25.85100 -3.45000 43.17900
C  26.60300 -2.19800 42.57800
H  26.54300 -1.99600 41.05000
N  22.08700 -7.28200 46.60000
C  21.52000 -6.66500 45.56200
C  20.33000 -7.34300 45.26900
C  20.14500 -8.33900 46.30700
C  21.38200 -8.31600 47.07200
C  19.45500 -6.92600 44.07500
C  18.87700 -9.10800 46.47600
O  17.86000 -8.90600 45.83600
C  18.80400 -10.13400 47.49500
N  24.14000 -8.37700 48.56800
C  23.13400 -9.26700 48.73800
C  23.38100 -10.19600 50.04200
C  24.88500 -9.90900 50.28000
C  25.16600 -8.66500 49.44200
C  22.38000 -9.87000 51.17500
C  25.98200 -11.03200 49.90100
C  27.19000 -11.16700 50.81400
N  25.90000 -6.19000 48.07100
C  26.71400 -6.88500 48.88500
C  28.04800 -6.24600 48.92600
C  27.92600 -5.18900 47.99600
C  26.65100 -5.26500 47.43300
C  29.18000 -6.73800 49.72800
C  28.63300 -3.99000 47.49800
O  29.75000 -3.51500 47.72200
C  27.69900 -3.40700 46.36800
C  27.40100 -2.03800 46.87900
O  26.73900 -1.79500 47.86900
O  27.80400 -1.03800 45.91800
C  27.56600 0.33300 46.43400
H  21.35900 -4.91700 44.21100
H  21.18000 -9.89800 48.47900
H  27.03300 -8.49400 50.25500
H  25.24400 -2.16100 44.82700
H  23.29700 -3.67400 43.17100
H  23.30600 -1.34200 45.11900
H  21.71400 -2.20400 45.07700
H  22.49500 -1.52900 43.62500
H  25.31500 -3.94600 42.36900
H  26.73800 -4.03500 43.42000
H  27.67100 -2.25600 42.78600
H  26.17600 -1.31600 43.05600
H  19.85500 -7.41500 43.18700
H  19.53100 -5.85400 43.89100
H  18.40100 -7.17300 44.20500
H  18.63800 -9.67700 48.47000
H  19.69000 -10.74100 47.30600
H  17.98100 -10.79100 47.21200
H  23.32600 -11.22700 49.69300
H  25.08700 -9.53700 51.28400
H  21.77600 -10.72900 51.46600
H  21.64300 -9.14600 50.82700
H  22.97300 -9.38600 51.95200
H  26.41300 -10.83800 48.91900
H  25.57800 -12.04100 49.81900
H  27.16100 -12.17900 51.21800
H  27.04300 -10.36500 51.53800
H  28.12700 -10.96400 50.29700
H  29.11700 -7.79800 49.97300
H  29.27800 -6.05600 50.57300
H  30.05600 -6.55500 49.10700
H  28.21500 -3.29300 45.41400
H  27.75800 0.38700 47.50500
H  26.53200 0.57600 46.19000
H  28.24400 0.92900 45.82300
Mg -10.16600 39.59700 42.62300
C  -9.33100 36.31300 41.76900
C  -7.39400 40.69200 40.86300
C  -11.39700 42.72800 42.41800
C  -13.22300 38.48800 43.74500
N  -8.49300 38.62500 41.48300
C  -8.45200 37.24200 41.26300
C  -7.26900 36.93200 40.36200
C  -6.50800 38.36900 40.21500
C  -7.52600 39.34600 40.88500
C  -5.06300 38.43500 40.78700
C  -7.78200 36.38200 38.96400
C  -6.86400 35.27400 38.37200
H  -5.71500 35.66300 37.36500
N  -9.39900 41.50200 41.88800
C  -8.26400 41.74900 41.19700
C  -8.07900 43.16300 41.02700
C  -9.24600 43.74400 41.49400
C  -10.05300 42.66000 42.01300
C  -6.81300 43.83200 40.37000
C  -9.50400 45.21300 41.42800
O  -8.61000 45.91200 41.02000
C  -10.76400 45.88200 41.87400
N  -12.05900 40.48700 43.03200
C  -12.31200 41.80400 42.97100
C  -13.72900 42.08000 43.34100
C  -14.26500 40.77700 43.92900
C  -13.17100 39.80500 43.43200
C  -13.83100 43.40800 44.28500
C  -15.76900 40.40800 43.40600
C  -16.81000 39.91400 44.42200
N  -11.07100 37.77500 42.92400
C  -12.28900 37.47200 43.37800
C  -12.46300 35.99300 43.40700
C  -11.22800 35.55000 42.79000
C  -10.51900 36.71500 42.45800
C  -13.70700 35.21500 43.80500
C  -10.51400 34.31100 42.51600
O  -10.71800 33.13900 42.76200
C  -9.29900 34.77700 41.58600
C  -8.05700 34.21900 42.11400
O  -7.68300 34.29400 43.30900
O  -7.39900 33.51600 41.06100
C  -6.01600 33.02900 41.36200
H  -6.48600 40.95500 40.31600
H  -11.71600 43.77200 42.39500
H  -14.17500 38.10000 44.11400
H  -6.66600 36.27200 40.98400
H  -6.34000 38.54900 39.15400
H  -4.50600 39.14500 40.17700
H  -4.56600 37.46800 40.70000
H  -5.01100 38.79300 41.81500
H  -7.81000 37.25700 38.31500
H  -8.79600 36.05500 39.19700
H  -7.43800 34.40800 38.04400
H  -6.28500 34.83900 39.18700
H  -7.09800 44.31000 39.43300
H  -6.01100 43.14000 40.11400
H  -6.30300 44.61000 40.93900
H  -10.73000 45.65300 42.93900
H  -11.64300 45.46900 41.37800
H  -10.92500 46.95000 41.72600
H  -14.09300 42.23400 42.32600
H  -14.18800 40.80100 45.01600
H  -14.46600 44.09400 43.72500
H  -12.80800 43.77300 44.38300
H  -14.31900 43.18800 45.23500
H  -15.59700 39.65000 42.64100
H  -16.18700 41.30900 42.95800
H  -16.53800 40.02300 45.47100
H  -17.02900 38.87200 44.18800
H  -17.69100 40.47500 44.10900
H  -14.30800 35.72500 44.55900
H  -13.28300 34.28300 44.18000
H  -14.19500 35.14800 42.83300
H  -9.56000 34.51100 40.56200
H  -5.35200 33.88500 41.24300
H  -5.66900 32.29100 40.63900
H  -5.76000 32.68900 42.36600

