158

Mg 0.93600 8.01500 24.91400
C  2.04300 9.93600 27.68800
C  0.69000 5.34700 26.92600
C  0.65200 6.24700 22.22300
C  1.35600 10.97800 22.92400
N  1.58700 7.68600 27.07100
C  1.81600 8.63300 27.99500
C  1.70400 8.05300 29.42000
C  1.61400 6.53500 29.12700
C  1.20100 6.50700 27.62300
C  2.96300 5.74600 29.28900
C  0.56900 8.65800 30.38200
C  1.05200 9.13500 31.71100
H  2.01300 8.28600 32.49100
N  0.57100 6.15900 24.54400
C  0.41700 5.16600 25.53100
C  0.20800 3.84200 24.81200
C  0.33300 4.08900 23.40800
C  0.45600 5.55900 23.36000
C  -0.00500 2.45300 25.53500
C  0.19800 3.13000 22.18900
O  0.27700 3.52700 21.04600
C  -0.08900 1.59600 22.46400
N  1.01600 8.56600 22.83400
C  0.91400 7.60000 21.89100
C  1.34800 8.23300 20.51900
C  1.19700 9.71900 20.70400
C  1.18300 9.79900 22.18900
C  2.76500 7.71200 20.22600
C  -0.13100 10.31700 20.13400
C  -1.52500 9.63900 20.38200
N  1.48700 10.08700 25.17500
C  1.59800 11.12000 24.27900
C  1.98300 12.33900 25.06300
C  2.03000 11.96600 26.40900
C  1.89300 10.53900 26.40100
C  2.13400 13.71200 24.46800
C  2.29900 12.43300 27.73000
O  2.50900 13.53400 28.17300
C  2.21000 11.12800 28.64300
C  3.31900 11.06300 29.54300
O  4.41900 10.48100 29.41200
O  3.08300 11.96300 30.57300
C  4.27100 12.07600 31.47800
H  0.54200 4.50200 27.60300
H  0.62100 5.82500 21.21600
H  1.52100 11.86700 22.31000
H  2.60500 8.32400 29.97000
H  0.74600 6.10000 29.62200
H  2.73000 4.86600 29.88900
H  3.68600 6.36700 29.81600
H  3.36500 5.43000 28.32700
H  -0.16300 7.86900 30.55500
H  0.17800 9.56000 29.91100
H  0.20300 9.39000 32.34500
H  1.49000 10.13200 31.66900
H  -0.82600 1.87000 25.11700
H  -0.18100 2.54500 26.60700
H  0.83800 1.80000 25.30800
H  0.78000 1.05700 22.84200
H  -0.42300 1.14700 21.52900
H  -0.93000 1.52600 23.15300
H  0.61300 8.01900 19.74300
H  2.05800 10.21500 20.25600
H  3.24100 7.06500 20.96200
H  3.44500 8.53000 19.99300
H  2.69500 7.21800 19.25700
H  0.11900 10.49900 19.08900
H  -0.29300 11.26700 20.64300
H  -1.41000 8.70600 20.93400
H  -1.91200 9.52700 19.37000
H  -2.24200 10.29600 20.87400
H  1.19000 14.01700 24.01600
H  2.91800 13.59100 23.72100
H  2.35700 14.36700 25.31000
H  1.32800 11.32600 29.25200
H  3.93000 12.75800 32.25700
H  5.13800 12.46900 30.94700
H  4.47800 11.12300 31.96700
Mg 35.46700 48.84100 24.85700
C  35.57800 47.04200 27.80400
C  34.36000 51.45400 26.64700
C  35.16000 50.40900 21.99300
C  36.23600 45.89100 23.10000
N  35.14800 49.21900 26.94700
C  35.24200 48.41100 27.96200
C  34.91200 49.06000 29.31200
C  34.24400 50.39600 28.91600
C  34.62300 50.37800 27.40800
C  32.74900 50.67800 29.08800
C  36.28100 49.16900 30.09500
C  36.14200 48.96600 31.62600
H  34.71000 48.86100 32.19800
N  34.85000 50.67800 24.36400
C  34.36700 51.58700 25.29600
C  33.93100 52.76100 24.50900
C  34.19300 52.50400 23.15900
C  34.73000 51.15800 23.12100
C  33.32600 53.98600 25.11900
C  33.85300 53.34800 21.95000
O  34.13800 52.97200 20.83600
C  33.08600 54.72900 22.08500
N  35.64400 48.16100 22.80400
C  35.42600 49.07400 21.81200
C  35.43500 48.39500 20.43200
C  36.03800 46.99600 20.78500
C  35.95500 47.00500 22.36000
C  33.93000 48.38200 19.96900
C  37.42800 46.83900 20.16900
C  38.59100 47.58800 20.81800
N  35.85400 46.83200 25.32700
C  36.13000 45.76200 24.53400
C  36.33800 44.58600 25.36100
C  36.16500 45.04600 26.65100
C  35.89200 46.42800 26.56600
C  36.79200 43.29800 25.01400
C  36.26300 44.75000 28.06800
O  36.57800 43.69100 28.62900
C  35.77700 45.96100 28.90300
C  34.56500 45.55400 29.65200
O  33.40700 45.64000 29.25600
O  34.87800 45.12500 30.91600
C  33.69000 44.51200 31.56000
H  34.08500 52.38000 27.15700
H  34.99900 50.89500 21.02800
H  36.64800 45.07900 22.49700
H  34.13200 48.42800 29.73600
H  34.72000 51.16400 29.52700
H  32.24900 49.81100 29.52000
H  32.14300 50.82500 28.19400
H  32.57500 51.48400 29.80100
H  36.65600 50.17300 29.89600
H  37.02200 48.48100 29.68800
H  36.76700 49.77400 32.00600
H  36.68300 48.04200 31.83000
H  33.33900 53.86500 26.20200
H  32.30300 54.16600 24.79000
H  34.02500 54.79600 24.90700
H  32.06200 54.51400 22.39000
H  32.96100 55.16100 21.09300
H  33.70400 55.35700 22.72700
H  36.06900 48.94900 19.74000
H  35.44000 46.20700 20.33000
H  33.35300 47.49200 20.21900
H  33.88100 48.52700 18.89000
H  33.34000 49.09300 20.54700
H  37.35200 46.94100 19.08600
H  37.61600 45.76800 20.22900
H  38.26600 48.34200 21.53600
H  39.20200 48.13800 20.10200
H  39.26900 46.98500 21.42100
H  36.02200 42.65700 24.58500
H  37.19800 42.83900 25.91500
H  37.62600 43.56300 24.36400
H  36.60700 46.11600 29.59200
H  32.97400 43.93100 30.97800
H  33.06800 45.34000 31.89900
H  33.96100 44.13200 32.54500

