158

Mg 40.13200 9.63200 29.71200
C  41.95100 10.61800 32.48800
C  37.97700 7.86500 31.87200
C  38.28900 8.79400 26.93900
C  42.72300 10.81300 27.57700
N  39.99700 9.36600 31.90100
C  40.77900 9.91600 32.85800
C  40.33600 9.45500 34.28000
C  39.38400 8.24200 33.97800
C  39.05600 8.53700 32.50900
C  40.00300 6.82800 34.14400
C  39.80000 10.66200 35.13000
C  40.29800 10.86800 36.64400
H  40.75200 12.17900 37.34200
N  38.36500 8.54100 29.45300
C  37.61100 7.97400 30.48000
C  36.27300 7.49900 29.92000
C  36.41200 7.65500 28.48100
C  37.76400 8.35900 28.24600
C  35.15800 6.86700 30.69300
C  35.49600 7.30300 27.33000
O  35.74900 7.47100 26.16600
C  34.13000 6.72700 27.64800
N  40.58000 9.72800 27.55200
C  39.54800 9.40900 26.62400
C  39.95300 9.82300 25.16400
C  41.31000 10.51600 25.38900
C  41.60100 10.33000 26.91200
C  40.03100 8.63200 24.23900
C  41.50800 11.90500 24.77500
C  40.67400 12.95600 25.31200
N  41.93800 10.55300 29.93600
C  42.92200 10.89200 29.03700
C  44.04400 11.48700 29.69900
C  43.72700 11.43500 31.10300
C  42.40500 10.79700 31.18100
C  45.30900 12.04600 29.09100
C  44.12200 11.78400 32.48600
O  45.11900 12.39200 32.91800
C  42.95500 11.29400 33.40300
C  43.59900 10.37800 34.33200
O  44.22900 9.41000 34.03800
O  43.44600 10.86900 35.64100
C  44.18800 10.12400 36.68100
H  37.42100 7.16100 32.49400
H  37.66200 8.60200 26.06600
H  43.47800 11.30000 26.95700
H  41.19200 9.01600 34.79200
H  38.46700 8.19600 34.56500
H  40.53600 6.75300 35.09200
H  40.61200 6.50800 33.29800
H  39.09600 6.24100 34.28800
H  38.71400 10.57400 35.17000
H  39.91800 11.61100 34.60800
H  41.06100 10.13600 36.90900
H  39.43400 10.56800 37.23800
H  35.39900 6.99600 31.74800
H  35.01400 5.81500 30.44800
H  34.22100 7.41000 30.56900
H  34.34500 5.81100 28.19900
H  33.59700 6.59900 26.70600
H  33.61400 7.48100 28.24200
H  39.10500 10.43400 24.85400
H  42.07000 9.88000 24.93500
H  40.23200 7.70300 24.77300
H  40.90900 8.83900 23.62600
H  39.11100 8.70100 23.65800
H  41.09600 11.75500 23.77700
H  42.54400 12.22600 24.66700
H  40.11400 12.64900 26.19600
H  40.04400 13.35000 24.51400
H  41.41100 13.72700 25.53600
H  46.12900 12.28100 29.76900
H  45.06900 12.91200 28.47300
H  45.70000 11.28400 28.41700
H  42.46000 12.09400 33.95300
H  43.53100 10.22000 37.54500
H  45.17900 10.49000 36.94800
H  44.32100 9.05400 36.51800
Mg 17.83100 52.82200 26.48200
C  19.53900 51.03200 28.85500
C  15.36000 53.47700 28.73700
C  16.06500 54.21400 23.93300
C  20.18300 51.71600 24.03400
N  17.47800 52.28400 28.57300
C  18.36500 51.62000 29.36100
C  17.94700 51.69900 30.79400
C  16.46800 52.15000 30.68400
C  16.36000 52.69800 29.25000
C  15.39900 51.05100 31.17200
C  18.92400 52.66500 31.57700
C  18.77200 52.70800 33.09200
H  17.58400 51.97800 33.81600
N  16.06100 53.86300 26.36600
C  15.18500 54.01400 27.43400
C  14.05500 54.74400 26.96300
C  14.30300 55.05800 25.61200
C  15.50000 54.37800 25.20500
C  12.84100 55.05400 27.86600
C  13.41700 56.01000 24.69200
O  13.66300 56.26400 23.51300
C  12.24100 56.67700 25.38900
N  18.14500 53.14900 24.41200
C  17.20500 53.67300 23.53200
C  17.60100 53.41400 22.09400
C  18.95800 52.65700 22.14600
C  19.13100 52.51000 23.60500
C  16.44500 52.77100 21.23700
C  20.03000 53.54600 21.43400
C  20.33400 54.83200 22.21600
N  19.54000 51.59200 26.34300
C  20.44900 51.26700 25.37300
C  21.60400 50.59400 25.95100
C  21.23900 50.46400 27.32800
C  19.98800 51.05800 27.49900
C  22.79600 50.00900 25.29300
C  21.60200 49.81400 28.52400
O  22.51700 49.00600 28.72100
C  20.57600 50.21400 29.62100
C  19.98300 48.99200 30.31600
O  19.24600 48.12000 29.82800
O  20.43600 49.04300 31.64300
C  19.77600 48.14900 32.56300
H  14.64700 53.89500 29.45100
H  15.40600 54.67400 23.19300
H  21.04800 51.51000 23.40000
H  18.03500 50.67100 31.14700
H  16.34300 52.99500 31.36100
H  15.87100 50.13000 31.51400
H  14.69700 50.62100 30.45700
H  14.80500 51.46400 31.98600
H  18.64800 53.66200 31.23600
H  19.98900 52.48500 31.43000
H  18.87200 53.73800 33.43400
H  19.69700 52.22000 33.39900
H  12.83100 56.11200 28.12500
H  12.84000 54.63500 28.87300
H  11.90000 54.78800 27.38400
H  12.64800 57.10300 26.30600
H  11.46300 55.94400 25.60100
H  11.84200 57.52700 24.83600
H  17.68900 54.38800 21.61300
H  18.85400 51.66800 21.69800
H  15.71800 52.52900 22.01300
H  16.80800 51.81300 20.86600
H  16.08800 53.42500 20.44200
H  19.69300 53.80700 20.43100
H  20.87800 52.92700 21.14300
H  19.61100 55.59700 21.93500
H  21.36800 55.12800 22.04200
H  20.21700 54.62600 23.28000
H  23.13000 50.68700 24.50700
H  22.48100 49.12000 24.74600
H  23.59000 49.76900 25.99900
H  20.99900 50.78500 30.44600
H  20.18600 47.14000 32.60000
H  18.70800 47.99900 32.40300
H  19.88700 48.58400 33.55600

