158

Mg 1.67100 -1.90800 44.50300
C  5.04300 -1.00400 44.39200
C  0.91000 0.76000 42.61900
C  -1.36200 -3.19300 44.25500
C  2.74300 -4.87100 46.16200
N  2.86500 -0.42500 43.48100
C  4.18600 -0.12300 43.64000
C  4.61900 1.09700 42.84000
C  3.26700 1.80900 42.50100
C  2.31400 0.57200 42.77700
C  2.85900 3.04500 43.29600
C  5.49200 0.82900 41.59200
C  6.68100 1.70000 41.16300
H  6.90100 2.09400 39.68400
N  -0.05900 -1.27200 43.68900
C  -0.20600 -0.11600 43.01300
C  -1.65500 0.16100 42.88100
C  -2.30700 -0.97100 43.28900
C  -1.26600 -1.87900 43.78800
C  -2.20900 1.40400 42.20200
C  -3.71300 -1.16700 43.18400
O  -4.38700 -0.37300 42.64300
C  -4.33400 -2.39800 43.73300
N  0.84500 -3.85900 44.99900
C  -0.47800 -4.03700 44.89900
C  -0.87600 -5.44700 45.28800
C  0.42000 -5.93000 45.94600
C  1.45100 -4.90200 45.69100
C  -2.06400 -5.59500 46.26000
C  0.89100 -7.33200 45.35300
C  0.05000 -8.52900 45.81600
N  3.48900 -2.80500 45.23400
C  3.81200 -3.94700 45.95100
C  5.19500 -3.90900 46.31100
C  5.71400 -2.79700 45.65800
C  4.66000 -2.14400 45.06200
C  5.87700 -4.92100 47.13700
C  6.93800 -2.01600 45.39300
O  8.10300 -2.23900 45.69000
C  6.58000 -0.80900 44.57000
C  7.04700 0.40000 45.30400
O  6.76500 0.75400 46.47400
O  7.87300 1.09100 44.45100
C  8.05800 2.50400 44.81400
H  0.70100 1.71000 42.12400
H  -2.32400 -3.70500 44.32500
H  3.02700 -5.78000 46.69600
H  5.13200 1.69800 43.59000
H  3.14000 2.07600 41.45200
H  3.60800 3.19500 44.07400
H  1.89300 2.92300 43.78600
H  2.88900 3.93500 42.66800
H  4.92700 0.95700 40.66800
H  5.84600 -0.20200 41.55900
H  7.59500 1.15300 41.39500
H  6.66200 2.53300 41.86600
H  -2.52400 1.17000 41.18500
H  -1.47500 2.20500 42.11800
H  -3.13100 1.60400 42.74800
H  -3.93200 -3.29900 43.26900
H  -5.41700 -2.42800 43.61400
H  -4.12900 -2.47700 44.80000
H  -1.12400 -5.95000 44.35300
H  0.40100 -6.06800 47.02700
H  -2.51800 -4.62000 46.43900
H  -1.65000 -5.90000 47.22100
H  -2.75000 -6.35400 45.88400
H  1.90400 -7.47500 45.72900
H  0.90100 -7.21800 44.26900
H  0.77100 -9.07500 46.42500
H  -0.29600 -9.14400 44.98600
H  -0.76000 -8.16700 46.44900
H  5.15700 -5.69000 47.41900
H  6.20600 -4.50300 48.08800
H  6.69600 -5.28700 46.51700
H  7.00500 -0.76700 43.56700
H  8.95100 2.85600 44.29600
H  8.13800 2.77000 45.86800
H  7.17100 3.04700 44.48900
Mg 0.77400 42.44400 25.60500
C  2.73200 42.65000 28.43000
C  -2.00600 41.58600 27.44200
C  -1.02500 42.14600 22.66700
C  3.65500 42.99000 23.67100
N  0.45800 42.23600 27.62800
C  1.37500 42.37600 28.67400
C  0.70700 42.11000 30.04700
C  -0.77300 41.69700 29.67900
C  -0.76800 41.87100 28.13600
C  -1.16900 40.30300 30.10300
C  0.79700 43.43200 30.91000
C  1.46800 43.23200 32.28500
H  0.67500 43.38400 33.58600
N  -1.28900 41.93900 25.11700
C  -2.27300 41.75200 26.05100
C  -3.53800 41.57600 25.35300
C  -3.25400 41.81300 23.94100
C  -1.79300 41.92000 23.85600
C  -4.76400 41.14600 26.07200
C  -4.22500 41.85400 22.83400
O  -3.97500 42.21100 21.64700
C  -5.71500 41.62100 23.16700
N  1.24700 42.64400 23.52400
C  0.37700 42.25000 22.57500
C  1.02000 42.20800 21.18300
C  2.53700 42.43200 21.50400
C  2.49400 42.79500 22.98200
C  0.74200 40.94800 20.36500
C  3.31300 43.43600 20.64100
C  2.70700 44.82900 20.23600
N  2.86600 42.98600 25.96900
C  3.86500 43.06800 25.07400
C  5.13400 43.29600 25.79900
C  4.69800 43.20100 27.12200
C  3.32300 42.96700 27.16400
C  6.51300 43.46500 25.19600
C  5.12700 43.02800 28.53200
O  6.23700 43.05500 29.05500
C  3.83100 42.83400 29.39200
C  4.02900 41.64700 30.26400
O  3.97000 40.50200 29.91200
O  4.21500 42.10000 31.54600
C  4.27400 41.05400 32.56200
H  -2.68000 41.17600 28.19700
H  -1.64500 42.02100 21.77700
H  4.56700 43.17800 23.10100
H  1.16900 41.24700 30.52500
H  -1.48100 42.37200 30.15900
H  -0.89400 39.52800 29.38700
H  -2.24400 40.30300 30.28400
H  -0.75300 40.18800 31.10300
H  -0.22600 43.69500 31.18100
H  1.26600 44.19200 30.28500
H  2.31200 43.91300 32.39000
H  1.80100 42.19500 32.32900
H  -5.57200 41.87800 26.08900
H  -4.55600 41.01200 27.13300
H  -4.99200 40.14100 25.71500
H  -5.84500 40.59100 23.49900
H  -6.32700 41.80900 22.28400
H  -6.06400 42.21800 24.01000
H  0.70100 43.03300 20.54600
H  3.05600 41.47400 21.49000
H  1.67600 40.68600 19.86800
H  0.14600 41.12500 19.47000
H  0.46600 39.98000 20.78200
H  3.40800 42.84500 19.73000
H  4.33500 43.62400 20.97100
H  1.73300 44.88900 20.72100
H  2.60700 44.79200 19.15100
H  3.26800 45.63900 20.70200
H  6.95100 42.47500 25.06700
H  7.04500 44.09100 25.91300
H  6.45900 43.98700 24.24000
H  3.62500 43.74400 29.95500
H  3.29800 40.57900 32.66200
H  4.47100 41.52100 33.52700
H  5.02800 40.28700 32.38900

