158

Mg 39.67900 8.39500 29.22300
C  41.77000 9.59700 31.82200
C  37.29300 7.76200 31.53600
C  37.99600 6.74100 26.82500
C  42.41600 8.81400 27.05200
N  39.59600 8.59700 31.46900
C  40.48000 9.29000 32.20600
C  39.88900 9.38800 33.63600
C  38.58500 8.57200 33.59600
C  38.42400 8.26500 32.09000
C  38.49400 7.35700 34.58700
C  39.73000 10.82500 34.31200
C  39.13900 10.81300 35.71300
H  40.02600 11.23400 36.90700
N  37.88500 7.44300 29.17900
C  37.00000 7.34600 30.22300
C  35.79200 6.72200 29.70900
C  36.08500 6.27900 28.38400
C  37.38400 6.78900 28.03800
C  34.61600 6.48400 30.65100
C  35.29100 5.47200 27.37500
O  35.57900 5.11400 26.23300
C  33.86800 5.04900 27.80300
N  40.13500 7.87700 27.27600
C  39.29800 7.20300 26.42400
C  39.82300 7.09500 25.01500
C  41.06700 7.94900 25.09100
C  41.27000 8.19400 26.55000
C  40.05300 5.69400 24.38800
C  41.10200 9.29100 24.28200
C  40.32000 10.48200 24.94300
N  41.70700 9.08300 29.30700
C  42.63300 9.22500 28.38600
C  43.84600 9.85800 28.96000
C  43.48000 9.99800 30.28500
C  42.24900 9.41300 30.53200
C  45.01000 10.23800 28.14600
C  43.83700 10.68200 31.52500
O  44.78300 11.46000 31.71700
C  42.87500 10.23000 32.64800
C  43.50300 9.24700 33.56300
O  43.38600 8.02900 33.46400
O  44.26200 9.91400 34.48200
C  44.52800 9.14000 35.72600
H  36.38100 7.69600 32.13200
H  37.45300 6.35300 25.96100
H  43.15600 8.93000 26.25700
H  40.62900 8.84400 34.22300
H  37.69800 9.15600 33.84300
H  37.83300 7.63200 35.40900
H  39.42300 7.09400 35.09400
H  38.02600 6.52700 34.05800
H  39.00400 11.24800 33.61800
H  40.63200 11.43600 34.29100
H  38.80100 9.80300 35.94100
H  38.33600 11.54900 35.66500
H  33.72400 7.00600 30.30500
H  34.82900 6.60000 31.71400
H  34.34100 5.43400 30.54700
H  34.03300 4.26700 28.54300
H  33.36200 4.78600 26.87400
H  33.31600 5.87100 28.26000
H  39.11300 7.58800 24.35100
H  41.90700 7.33800 24.76100
H  41.04400 5.63700 23.93800
H  39.34800 5.48300 23.58400
H  39.95300 4.89000 25.11600
H  40.64900 9.15000 23.30100
H  42.13500 9.61500 24.15300
H  39.62600 10.24500 25.75000
H  39.63700 10.94200 24.22900
H  41.05500 11.25300 25.17500
H  44.74500 10.18000 27.09000
H  45.83900 9.57500 28.39700
H  45.37600 11.24200 28.35800
H  42.70500 11.16500 33.18200
H  43.57600 8.89600 36.19600
H  45.07600 9.85800 36.33600
H  45.17700 8.27200 35.60700
Mg 26.32900 50.00600 25.35600
C  24.34500 51.33600 28.03100
C  28.83000 49.44500 27.61800
C  28.39800 48.98200 22.82900
C  24.20000 51.53300 23.09000
N  26.52000 50.25200 27.65000
C  25.59700 50.81300 28.48500
C  26.19900 50.89300 29.88500
C  27.55700 50.12800 29.76200
C  27.68400 49.96000 28.27000
C  28.63100 51.03000 30.43600
C  25.28200 50.34900 31.09500
C  25.87600 49.56000 32.21400
H  25.14700 49.26600 33.52500
N  28.31800 49.23000 25.25600
C  29.16900 49.07700 26.31500
C  30.46600 48.54500 25.82300
C  30.37600 48.50500 24.36600
C  29.00500 48.96400 24.09800
C  31.63200 48.27700 26.80500
C  31.47900 48.20800 23.41100
O  31.31500 48.25900 22.21500
C  32.78500 47.73100 23.98100
N  26.23700 50.15000 23.26100
C  27.23200 49.62000 22.43400
C  26.84300 49.72100 20.91700
C  25.47700 50.55800 20.95600
C  25.28400 50.74800 22.51000
C  27.92700 50.40300 20.06500
C  24.35100 49.83800 20.14700
C  23.79500 50.64800 18.99800
N  24.50500 51.08000 25.47600
C  23.79300 51.71300 24.47100
C  22.66600 52.45900 25.00700
C  22.84400 52.35100 26.38700
C  23.96000 51.51500 26.62800
C  21.75700 53.25300 24.17800
C  22.31600 52.73500 27.70400
O  21.44400 53.54800 28.06000
C  23.26100 52.11700 28.82300
C  23.80600 53.23600 29.62000
O  24.45200 54.17800 29.18400
O  23.41800 53.09800 30.89400
C  23.94500 54.11900 31.80000
H  29.59500 49.30300 28.38400
H  28.82700 48.59300 21.90300
H  23.64200 52.03000 22.29300
H  26.41400 51.95200 30.02300
H  27.65600 49.15600 30.24600
H  28.33100 51.87000 31.06200
H  29.35600 51.22600 29.64600
H  29.09900 50.45800 31.23800
H  24.62700 49.66400 30.55600
H  24.65700 51.13200 31.52400
H  26.90000 49.91900 32.31600
H  26.01100 48.60100 31.71500
H  31.87200 47.21400 26.84200
H  31.44500 48.44100 27.86600
H  32.54800 48.83100 26.59700
H  32.75200 46.84800 24.62000
H  33.15400 48.64000 24.45600
H  33.48900 47.39800 23.21800
H  26.64700 48.73900 20.48600
H  25.72900 51.58800 20.70400
H  28.29600 49.77300 19.25500
H  28.71100 50.66000 20.77600
H  27.51100 51.31200 19.63100
H  23.58100 49.64600 20.89500
H  24.68900 48.88000 19.75200
H  22.74900 50.43900 18.77200
H  24.41300 50.34200 18.15300
H  23.77200 51.72900 19.13200
H  21.03800 52.60800 23.67200
H  22.33900 53.83600 23.46400
H  21.07200 53.82800 24.80100
H  22.70600 51.47400 29.50700
H  23.95300 55.06300 31.25600
H  24.94800 53.95300 32.19400
H  23.36700 54.28400 32.71000

