158

Mg 48.02500 16.03800 28.55700
C  45.99300 15.65700 31.35200
C  50.17400 17.95300 30.44500
C  49.81700 16.38800 25.78200
C  45.45800 14.44600 26.61500
N  48.06000 16.69100 30.63200
C  47.17000 16.37600 31.60800
C  47.63300 16.78800 32.96300
C  48.73100 17.83900 32.62600
C  49.02200 17.56100 31.14700
C  48.16200 19.31300 32.93500
C  48.12900 15.59900 33.76800
C  48.15200 15.89000 35.31200
H  47.72000 17.22400 35.85100
N  49.74100 16.93100 28.17900
C  50.48200 17.71100 29.07200
C  51.71500 18.23700 28.41500
C  51.69000 17.66500 27.11700
C  50.32700 17.00100 26.94000
C  52.71800 19.12600 29.09800
C  52.83200 17.66200 26.09200
O  52.71100 17.18300 24.94900
C  54.24000 18.15700 26.39600
N  47.57600 15.68500 26.41100
C  48.57900 15.74000 25.52600
C  48.22500 15.11800 24.17400
C  46.82900 14.51900 24.48400
C  46.58300 14.87700 25.91900
C  48.25500 16.20300 23.02100
C  46.78900 12.92600 24.25900
C  45.57600 12.15900 23.80700
N  46.16500 15.14900 28.86700
C  45.21900 14.64000 27.97500
C  44.07600 14.32100 28.73600
C  44.32000 14.58700 30.09500
C  45.61100 15.19000 30.06900
C  42.85900 13.70500 28.21700
C  43.67500 14.64500 31.40000
O  42.53000 14.30100 31.74500
C  44.84300 15.18000 32.34600
C  44.31000 16.22900 33.24800
O  44.40100 17.44600 32.98400
O  43.84200 15.67400 34.45500
C  43.24900 16.55800 35.45600
H  50.84400 18.55100 31.06600
H  50.53400 16.46100 24.96100
H  44.74000 13.85800 26.04000
H  46.79000 17.23700 33.48800
H  49.64600 17.61900 33.17600
H  47.08300 19.45900 32.88400
H  48.65700 20.00300 32.25300
H  48.40600 19.63300 33.94800
H  49.18700 15.40600 33.59100
H  47.49700 14.75000 33.51000
H  49.13300 15.67600 35.73600
H  47.45700 15.12000 35.64600
H  53.53900 18.54300 29.51500
H  52.35100 19.71700 29.93700
H  53.13500 19.85400 28.40100
H  54.52100 17.83800 27.39900
H  54.19800 19.20600 26.10100
H  54.95200 17.63500 25.75600
H  49.02900 14.38400 24.13000
H  46.00700 14.96300 23.92300
H  48.91700 15.84600 22.23200
H  48.64300 17.11200 23.48000
H  47.25700 16.36100 22.61300
H  47.03700 12.42000 25.19200
H  47.61000 12.61800 23.61100
H  45.38700 11.44000 24.60400
H  45.86500 11.66200 22.88100
H  44.65600 12.72900 23.67300
H  43.10200 12.77500 27.70300
H  42.53800 14.42500 27.46400
H  42.20100 13.61800 29.08200
H  45.04000 14.34200 33.01600
H  42.19600 16.62200 35.18000
H  43.58800 17.59400 35.47400
H  43.24600 16.14100 36.46300
Mg 48.57500 45.42400 43.43100
C  45.28500 45.83500 42.23400
C  48.40700 42.21900 42.08300
C  51.94000 45.22400 43.82800
C  48.64400 48.70500 44.58400
N  47.07700 44.25900 42.16000
C  45.75600 44.61600 41.87200
C  45.00400 43.56400 41.03300
C  45.90500 42.31200 41.35400
C  47.24600 42.94200 41.93000
C  45.16000 41.38200 42.34600
C  44.86200 43.93900 39.51300
C  43.60100 43.48800 38.73000
H  43.80700 42.40800 37.74500
N  50.00600 43.95200 42.90900
C  49.69700 42.67700 42.44200
C  50.98300 41.94200 42.33300
C  51.99100 42.82200 42.82400
C  51.32500 44.02100 43.24800
C  51.00700 40.41300 41.87400
C  53.44500 42.45200 42.87600
O  53.85700 41.41100 42.36300
C  54.47300 43.35300 43.44500
N  50.04500 46.68100 44.30700
C  51.34600 46.43800 44.22100
C  52.19800 47.60200 44.76000
C  51.09700 48.67200 45.01500
C  49.87600 47.94200 44.71700
C  53.06400 47.29800 46.07400
C  51.21800 50.02400 44.15300
C  50.69100 51.27600 44.85100
N  47.14300 46.98000 43.60100
C  47.35200 48.24800 44.12300
C  46.19900 49.00300 43.88900
C  45.32400 48.06100 43.19200
C  45.97700 46.85000 43.00300
C  45.96300 50.40300 44.34700
C  44.02300 47.94600 42.60500
O  43.08300 48.74400 42.56700
C  43.85000 46.56400 41.80300
C  42.67200 45.79600 42.13900
O  41.84700 45.42700 41.27400
O  42.57600 45.53500 43.45000
C  41.36000 44.87800 43.92100
H  48.28000 41.16200 41.83600
H  53.02500 45.34000 43.80300
H  48.54100 49.74800 44.88900
H  43.96600 43.55800 41.36600
H  46.13100 41.80100 40.41700
H  45.23000 40.40500 41.86700
H  44.17400 41.81100 42.52400
H  45.59800 41.39800 43.34400
H  45.72700 43.51900 38.99900
H  45.06800 45.00400 39.41000
H  43.20200 44.39400 38.27400
H  42.86600 43.04300 39.40100
H  51.79500 40.14800 41.16900
H  50.09600 40.06900 41.38400
H  51.04400 39.83700 42.79900
H  54.05300 43.78300 44.35400
H  54.75500 44.17400 42.78600
H  55.30200 42.64800 43.51900
H  53.03300 47.82200 44.09500
H  50.99200 48.83900 46.08700
H  53.80700 48.06500 46.29400
H  53.59800 46.35800 45.93100
H  52.46800 47.10300 46.96500
H  50.72700 49.74400 43.22100
H  52.26300 50.13600 43.86400
H  51.38700 52.11200 44.78500
H  50.44300 50.94100 45.85800
H  49.73900 51.51900 44.37900
H  44.89900 50.61100 44.46200
H  46.43800 51.06600 43.62400
H  46.38300 50.54000 45.34400
H  44.00500 46.70500 40.73400
H  41.39600 43.79000 43.86000
H  40.52200 45.23400 43.32200
H  41.15500 45.05100 44.97800

