158

Mg 1.14900 8.30700 26.58600
C  1.78000 10.19000 29.34400
C  1.29400 5.47700 28.49800
C  1.30200 6.58900 23.73900
C  1.47100 11.36400 24.67500
N  1.64400 7.92400 28.64600
C  1.78300 8.83000 29.63400
C  1.54800 8.09900 31.00800
C  1.56800 6.60500 30.67800
C  1.44700 6.65200 29.18600
C  2.85200 5.88500 31.17100
C  0.21300 8.51000 31.69500
C  0.30600 8.58900 33.20700
H  1.48500 7.93000 33.96800
N  1.28000 6.29000 26.14400
C  1.26900 5.32200 27.09900
C  1.38000 3.99700 26.43300
C  1.44400 4.29500 25.02500
C  1.39900 5.77700 24.89600
C  1.26300 2.62100 27.11100
C  1.44300 3.40000 23.86600
O  1.45800 3.77100 22.72200
C  1.49500 1.90000 24.08700
N  1.18400 8.86300 24.60700
C  1.31400 8.00600 23.58400
C  1.54000 8.65600 22.26500
C  1.05700 10.09100 22.51800
C  1.25000 10.15400 24.00100
C  3.01800 8.52400 21.78700
C  -0.39800 10.52400 21.98000
C  -0.61500 12.02500 21.68600
N  1.42000 10.42500 26.90500
C  1.60300 11.50300 26.05800
C  1.94500 12.65500 26.84000
C  2.08200 12.14500 28.10900
C  1.74300 10.80400 28.12800
C  2.04400 14.04000 26.31800
C  2.32100 12.57300 29.43600
O  2.68000 13.61100 29.90300
C  1.85400 11.36300 30.34100
C  2.81600 11.21100 31.40200
O  3.98400 10.94900 31.23300
O  2.16600 11.39900 32.56900
C  2.81800 11.50900 33.87100
H  1.11600 4.50300 28.95800
H  1.19200 6.04800 22.79700
H  1.51800 12.24800 24.03600
H  2.38100 8.24300 31.69700
H  0.74400 6.00800 31.06900
H  2.58200 5.29000 32.04400
H  3.61700 6.57900 31.51900
H  3.17700 5.25700 30.34200
H  -0.54900 7.87400 31.24400
H  0.01300 9.56500 31.50600
H  -0.58400 8.14100 33.64800
H  0.38500 9.65500 33.42000
H  2.14000 2.00500 26.91500
H  0.39700 2.09600 26.70900
H  1.10900 2.62400 28.19000
H  2.27700 1.50600 24.73700
H  1.51100 1.30100 23.17700
H  0.55400 1.69300 24.59700
H  0.90800 8.21700 21.49300
H  1.84200 10.78600 22.22000
H  3.47700 7.94000 22.58400
H  3.52800 9.45400 21.53900
H  2.94800 7.89300 20.90000
H  -1.21900 10.26000 22.64700
H  -0.54200 9.88300 21.11100
H  -1.20500 12.03300 20.76900
H  0.36000 12.50000 21.58000
H  -1.20600 12.49600 22.47200
H  1.62800 14.39700 25.37600
H  3.11100 14.25400 26.24600
H  1.69700 14.70100 27.11200
H  0.84600 11.60500 30.67700
H  3.86000 11.19100 33.83200
H  2.20200 11.00900 34.61800
H  2.85100 12.54800 34.19700
Mg 6.89900 53.97800 41.13500
C  6.12100 50.60500 41.08100
C  10.09200 53.21100 39.96900
C  7.42100 57.31400 40.13600
C  3.65800 54.66400 42.00700
N  7.85200 52.14300 40.30200
C  7.36800 50.88300 40.47300
C  8.36100 49.86600 39.90500
C  9.68100 50.59200 40.03800
C  9.20500 52.08500 40.10800
C  10.60800 50.31500 41.30600
C  8.01500 49.27500 38.49000
C  8.21200 50.29200 37.33700
H  6.94000 50.59400 36.57000
N  8.55700 55.10000 40.22400
C  9.76700 54.60500 39.89600
C  10.60400 55.69300 39.48000
C  9.85100 56.85200 39.39600
C  8.50200 56.43900 39.97000
C  12.02200 55.40700 39.17400
C  10.26300 58.25900 38.88300
O  11.43400 58.37700 38.43600
C  9.37000 59.47700 39.03200
N  5.74100 55.75000 41.16700
C  6.17400 57.00200 40.87400
C  4.98500 58.02300 41.03900
C  3.89200 57.15500 41.68100
C  4.41700 55.75100 41.63900
C  5.26700 59.43200 41.64000
C  2.55200 57.30400 40.90400
C  1.38900 57.93700 41.66600
N  5.24700 52.86700 41.63100
C  3.94300 53.26300 41.98900
C  3.13400 52.14400 42.25200
C  4.01200 51.06800 41.97400
C  5.25500 51.56500 41.57800
C  1.68300 52.14800 42.51900
C  4.07500 49.59300 41.93600
O  3.23500 48.79100 42.32100
C  5.51900 49.24700 41.37300
C  5.17100 48.42700 40.15800
O  4.63700 48.87600 39.15900
O  5.53900 47.12100 40.33400
C  5.36000 46.11900 39.24300
H  11.08700 52.92800 39.62000
H  7.38700 58.35200 39.79900
H  2.58800 54.79600 42.18100
H  8.24400 48.95900 40.49700
H  10.32600 50.51900 39.16200
H  11.62700 50.29100 40.91900
H  10.29600 49.38000 41.77100
H  10.45500 51.14900 41.99200
H  7.05700 48.75600 38.52300
H  8.64700 48.43200 38.21200
H  9.05700 49.91300 36.76300
H  8.52500 51.25000 37.75300
H  12.16400 54.81400 38.27100
H  12.38200 54.93200 40.08700
H  12.70400 56.24200 39.01600
H  9.95900 60.28900 38.60500
H  9.13700 59.54100 40.09500
H  8.46600 59.32000 38.44400
H  4.68600 58.21000 40.00700
H  3.74500 57.43100 42.72500
H  4.62600 59.63700 42.49700
H  5.17900 60.13200 40.80900
H  6.28300 59.59900 41.99800
H  2.22100 56.34400 40.50600
H  2.73200 57.92000 40.02300
H  0.76400 57.13100 42.05100
H  0.80000 58.52100 40.95900
H  1.76200 58.50200 42.52000
H  1.24600 52.98600 41.97600
H  1.36500 52.18100 43.56100
H  1.13300 51.26600 42.18900
H  6.02200 48.80000 42.23000
H  6.32900 45.81500 38.84800
H  4.83100 46.52100 38.37900
H  4.86500 45.17300 39.46500

