158

Mg 48.03800 34.91200 27.55800
C  46.28300 33.02700 29.98300
C  48.22100 37.53100 29.68000
C  49.19100 36.77800 24.98300
C  47.24500 32.28900 25.17500
N  47.38800 35.16800 29.57500
C  46.86800 34.22500 30.47100
C  47.09900 34.72000 31.96200
C  47.31300 36.30500 31.80500
C  47.71200 36.34500 30.26700
C  46.15200 37.29100 32.22600
C  48.34600 34.01100 32.54200
C  48.24100 33.55900 34.11800
H  47.56000 34.57300 34.99900
N  48.80700 36.86600 27.43500
C  48.71700 37.80500 28.40900
C  49.34100 39.00300 27.91800
C  49.70800 38.76400 26.52800
C  49.17800 37.47200 26.26300
C  49.54800 40.15000 28.85200
C  50.46000 39.64300 25.51800
O  50.66400 39.21300 24.40700
C  50.96400 41.01500 25.91200
N  48.10900 34.62600 25.44600
C  48.79400 35.45900 24.66500
C  49.00200 34.99000 23.22000
C  48.73300 33.43400 23.36300
C  47.90600 33.44900 24.73200
C  48.01200 35.71000 22.26900
C  49.93400 32.40400 23.37900
C  49.91100 31.25500 22.27900
N  47.05700 33.03900 27.53900
C  46.73800 32.15400 26.48300
C  45.99500 30.99300 27.01300
C  45.81900 31.33900 28.36300
C  46.37600 32.59600 28.61000
C  45.62500 29.68200 26.32000
C  45.18800 30.85300 29.55000
O  44.47300 29.88500 29.71200
C  45.38700 31.94900 30.72100
C  45.87900 31.20600 32.03000
O  47.05500 30.92700 32.17100
O  44.82200 31.05800 32.94700
C  45.18200 30.80100 34.31900
H  48.51700 38.30700 30.38900
H  49.69800 37.32700 24.18600
H  47.06700 31.39100 24.57900
H  46.26900 34.51000 32.63600
H  48.17000 36.57800 32.42100
H  46.37500 38.07000 32.95600
H  45.40600 36.70700 32.76600
H  45.80300 37.89200 31.38700
H  49.24200 34.63100 32.51900
H  48.53900 33.10100 31.97400
H  49.23700 33.32100 34.49100
H  47.66800 32.63500 34.03000
H  49.47500 40.99900 28.17300
H  50.55600 40.13300 29.26900
H  48.83200 40.25400 29.66700
H  51.28200 40.93900 26.95200
H  50.25000 41.83800 25.94300
H  51.89500 41.29200 25.41900
H  50.04000 35.20100 22.96500
H  48.04400 33.16000 22.56400
H  48.62400 36.41500 21.70700
H  47.25000 36.33900 22.73000
H  47.59700 35.16100 21.42300
H  50.00500 31.99000 24.38500
H  50.83900 32.94000 23.09100
H  50.65400 31.24900 21.48200
H  48.92900 31.28500 21.80700
H  49.99700 30.27900 22.75700
H  44.76000 29.80700 25.66800
H  45.35000 28.89700 27.02500
H  46.55100 29.33400 25.86100
H  44.46100 32.38000 31.10100
H  46.23600 30.72200 34.58400
H  44.56200 30.00800 34.73700
H  44.76400 31.69000 34.79200
Mg 29.82000 58.06700 41.65400
C  26.96000 56.64000 39.99500
C  31.73300 55.99400 39.89800
C  32.34400 60.28300 42.22200
C  27.50800 60.66700 42.91800
N  29.40100 56.69200 40.06600
C  28.19600 56.16000 39.60100
C  28.36700 55.02700 38.64300
C  29.88300 54.64200 38.87600
C  30.36800 55.88900 39.65500
C  30.35100 53.26700 39.46500
C  27.99400 55.28800 37.11100
C  26.88000 54.46600 36.48100
H  26.16600 54.97400 35.25100
N  31.85700 57.97400 41.34600
C  32.45900 56.99100 40.59800
C  33.93700 57.19400 40.73600
C  34.09600 58.43700 41.44400
C  32.71900 58.98000 41.72100
C  34.82800 56.14400 40.11000
C  35.46800 59.17400 41.70500
O  36.52000 58.60100 41.48000
C  35.61500 60.57300 42.24900
N  29.89700 60.30600 42.38700
C  31.08200 60.92000 42.54800
C  30.90900 62.32800 43.07100
C  29.39200 62.34800 43.42100
C  28.85200 61.05500 42.84600
C  31.95800 62.88800 44.06800
C  28.60000 63.66200 43.12100
C  27.86500 64.35100 44.23300
N  27.65700 58.46900 41.71200
C  26.95400 59.55500 42.18000
C  25.56700 59.33400 41.90600
C  25.58600 58.14800 41.14100
C  26.85500 57.72300 40.92600
C  24.39600 60.05000 42.41500
C  24.73700 57.31800 40.42100
O  23.53200 57.43700 40.32100
C  25.55600 56.29200 39.66900
C  25.25700 54.96800 40.19100
O  25.51500 54.56200 41.34100
O  24.51300 54.20500 39.32300
C  23.76700 53.03000 39.77400
H  32.33200 55.14900 39.55200
H  33.15500 61.01200 42.28900
H  26.76300 61.37800 43.28300
H  27.69600 54.20800 38.89900
H  30.45700 54.74100 37.95500
H  30.59200 53.24400 40.52700
H  31.24000 52.93800 38.92600
H  29.52600 52.61500 39.17600
H  28.88500 55.03500 36.53700
H  27.71300 56.33700 37.01900
H  26.16000 54.32600 37.28600
H  27.30300 53.51400 36.16100
H  34.79400 55.21900 40.68600
H  35.82800 56.56700 40.02000
H  34.50700 55.96000 39.08500
H  35.27400 61.24000 41.45600
H  36.63100 60.79100 42.57800
H  34.93000 60.68100 43.09000
H  30.95100 62.97200 42.19200
H  29.29600 62.09400 44.47700
H  31.65700 62.75600 45.10700
H  32.14000 63.94700 43.88400
H  32.97300 62.50900 43.94800
H  27.82900 63.29300 42.44400
H  29.16600 64.42500 42.58600
H  27.92800 65.43000 44.08900
H  28.31500 64.15700 45.20700
H  26.81300 64.07000 44.18200
H  24.20900 59.69600 43.42900
H  23.48300 60.01900 41.81900
H  24.69300 61.08300 42.59500
H  25.22800 56.34200 38.63000
H  22.70100 53.22900 39.66900
H  23.95900 52.64400 40.77600
H  23.99300 52.21600 39.08600

