158

Mg 1.57100 -1.44900 44.86400
C  4.88300 -0.39100 44.02600
C  0.52100 1.26500 43.03200
C  -1.48500 -2.88500 44.89700
C  3.00600 -4.49100 45.89200
N  2.71500 0.13200 43.33000
C  3.99300 0.42400 43.37400
C  4.27000 1.73900 42.72000
C  2.84300 2.38200 42.73000
C  1.92900 1.15100 42.94400
C  2.55900 3.45000 43.81600
C  4.87700 1.52300 41.32000
C  5.96200 2.48900 40.88700
H  5.78600 3.47600 39.75500
N  -0.12000 -0.89400 44.10300
C  -0.43400 0.30700 43.41600
C  -1.83500 0.51300 43.25000
C  -2.44100 -0.66000 43.74000
C  -1.38300 -1.55800 44.28200
C  -2.40600 1.76900 42.61500
C  -3.91700 -0.88000 43.83800
O  -4.60500 0.03900 43.42400
C  -4.62800 -2.07500 44.42200
N  0.83100 -3.41800 45.41600
C  -0.50700 -3.79200 45.35500
C  -0.73000 -5.18900 45.95600
C  0.74000 -5.64300 46.28500
C  1.60000 -4.45300 45.86000
C  -1.94400 -5.29800 46.99900
C  1.14100 -7.02600 45.63100
C  1.70400 -8.16800 46.58100
N  3.52400 -2.15900 45.18400
C  3.91200 -3.44300 45.63300
C  5.34700 -3.43600 45.87400
C  5.76700 -2.16900 45.34800
C  4.56700 -1.52400 44.84800
C  6.30400 -4.48300 46.46400
C  6.91300 -1.36700 45.05500
O  8.07900 -1.53700 45.37700
C  6.33200 -0.14300 44.25900
C  6.56700 1.10000 45.06300
O  6.03800 1.49300 46.12100
O  7.64400 1.69900 44.43400
C  7.94500 3.17500 44.80900
H  0.09300 2.16500 42.58400
H  -2.50100 -3.28100 44.95900
H  3.40400 -5.41900 46.30800
H  4.97100 2.26500 43.36900
H  2.56700 2.89400 41.80800
H  1.78300 3.21700 44.54600
H  2.27300 4.30400 43.20200
H  3.49900 3.67300 44.32200
H  4.13600 1.65000 40.53100
H  5.21300 0.49400 41.19600
H  6.86700 1.88200 40.87500
H  6.21500 3.14800 41.71800
H  -2.18700 2.55500 43.33700
H  -3.48200 1.83800 42.46000
H  -1.93800 1.98500 41.65400
H  -5.69800 -1.86600 44.42700
H  -4.24300 -2.20900 45.43300
H  -4.41400 -2.91400 43.76000
H  -1.00900 -5.73200 45.05300
H  0.66700 -5.79200 47.36200
H  -2.53900 -4.38600 47.03900
H  -1.50400 -5.56300 47.96100
H  -2.57900 -6.16300 46.81100
H  1.98500 -6.86200 44.96100
H  0.30600 -7.45900 45.08000
H  0.88900 -8.89200 46.62200
H  2.04900 -7.82000 47.55500
H  2.63000 -8.61600 46.22200
H  6.77800 -5.05200 45.66400
H  5.83500 -5.20100 47.13700
H  7.13500 -3.99900 46.97700
H  6.79200 -0.07600 43.27300
H  8.39500 3.70300 43.96800
H  8.75600 3.17500 45.53800
H  7.10300 3.73800 45.21200
Mg -2.63700 34.40100 26.54600
C  -4.52000 32.90800 29.14500
C  -1.66800 36.85500 28.94600
C  -1.03600 36.09100 24.17000
C  -4.25200 32.36700 24.27100
N  -3.18600 34.82300 28.70900
C  -3.80500 33.99700 29.60000
C  -3.78300 34.49900 31.08200
C  -3.06100 35.93200 30.90900
C  -2.52700 35.81100 29.44800
C  -3.95800 37.16600 31.21600
C  -3.05700 33.58300 32.11800
C  -3.62100 33.44200 33.53700
H  -2.71400 33.84400 34.71100
N  -1.39600 36.19300 26.52600
C  -1.10100 37.04100 27.64700
C  -0.19600 38.08500 27.24000
C  0.05400 37.83600 25.84400
C  -0.81100 36.64200 25.43600
C  0.27700 39.16700 28.11500
C  0.91900 38.57300 24.87000
O  1.11000 38.17400 23.74400
C  1.69100 39.82600 25.31000
N  -2.77700 34.35900 24.49600
C  -1.91100 35.08500 23.71700
C  -1.95600 34.60500 22.23000
C  -2.79500 33.31500 22.36200
C  -3.36700 33.34600 23.76500
C  -2.41500 35.69900 21.25000
C  -2.13700 31.98200 21.98300
C  -3.02800 30.93500 21.28200
N  -4.05300 32.92800 26.67000
C  -4.62700 32.18400 25.63800
C  -5.50100 31.16900 26.20500
C  -5.42300 31.44000 27.53000
C  -4.60900 32.53900 27.80700
C  -6.39000 30.19800 25.44900
C  -5.85100 30.88600 28.81500
O  -6.46700 29.85200 29.10200
C  -5.37400 31.90400 29.89500
C  -6.50200 32.50100 30.54900
O  -7.27200 33.28000 30.01000
O  -6.60800 32.16100 31.86900
C  -7.63700 32.82700 32.66800
H  -1.34800 37.61700 29.66000
H  -0.40200 36.47800 23.37000
H  -4.75300 31.71400 23.55400
H  -4.79700 34.68300 31.43700
H  -2.19500 36.14200 31.53600
H  -4.08600 37.27300 32.29300
H  -4.92200 36.94800 30.75700
H  -3.56600 38.09900 30.81100
H  -1.99500 33.82300 32.08000
H  -3.10200 32.58000 31.69400
H  -3.73000 32.36400 33.65300
H  -4.53100 34.03200 33.64800
H  1.36000 39.25500 28.19700
H  -0.10200 39.12300 29.13600
H  -0.10400 40.11400 27.73300
H  0.99500 40.36700 25.95100
H  2.06100 40.34900 24.42800
H  2.59900 39.52700 25.83300
H  -0.90300 34.43000 22.01000
H  -3.64300 33.50700 21.70400
H  -2.44400 36.57600 21.89600
H  -3.29100 35.47900 20.64000
H  -1.70000 35.95900 20.46900
H  -1.58900 31.42400 22.74200
H  -1.38700 32.27500 21.24900
H  -3.20900 30.09600 21.95400
H  -2.41500 30.58100 20.45300
H  -3.99400 31.34500 20.98900
H  -6.80100 30.47500 24.47800
H  -7.31900 30.00000 25.98500
H  -5.82400 29.29900 25.20700
H  -4.77800 31.36400 30.63100
H  -7.14700 33.65000 33.18900
H  -8.06600 32.15400 33.41000
H  -8.39100 33.17300 31.96200

