158

Mg 1.67100 -2.28400 43.79100
C  5.10500 -1.32600 43.27600
C  0.81000 0.54000 41.96900
C  -1.29200 -3.48500 43.72200
C  2.88300 -5.30600 45.04400
N  2.88200 -0.50900 42.83200
C  4.24600 -0.34800 42.80300
C  4.57200 0.97100 42.02600
C  3.21200 1.72100 42.10200
C  2.21500 0.53100 42.27500
C  3.10200 2.97800 43.13000
C  5.31300 0.60500 40.65400
C  6.59200 1.42200 40.28600
H  6.73000 2.00900 38.88600
N  -0.04000 -1.54600 42.99500
C  -0.23300 -0.39200 42.26700
C  -1.62200 -0.25300 41.94100
C  -2.27300 -1.34000 42.52200
C  -1.17700 -2.19400 43.15000
C  -2.33900 1.05300 41.29000
C  -3.76500 -1.57800 42.46700
O  -4.57900 -0.80500 41.89500
C  -4.38500 -2.79900 42.98100
N  0.92700 -4.34300 43.95800
C  -0.38800 -4.44600 44.14200
C  -0.75900 -5.79100 44.81100
C  0.61200 -6.41200 45.12300
C  1.52300 -5.27000 44.68700
C  -1.60100 -5.57000 45.98200
C  1.06100 -7.61500 44.26800
C  1.50100 -8.86900 44.94400
N  3.55700 -3.18600 44.20300
C  3.83400 -4.37500 44.74300
C  5.29600 -4.41300 44.93900
C  5.89700 -3.29000 44.34800
C  4.72100 -2.51000 43.92200
C  5.97300 -5.42000 45.74000
C  7.08900 -2.63600 43.87600
O  8.22200 -2.99500 44.09600
C  6.68000 -1.28700 43.21400
C  7.19400 -0.18600 43.99800
O  6.73100 0.19700 45.06200
O  8.25400 0.45100 43.42200
C  8.96300 1.57600 44.10200
H  0.49800 1.23900 41.19100
H  -2.33500 -3.81000 43.72800
H  3.29200 -6.10900 45.66000
H  5.36500 1.45700 42.59400
H  2.98500 2.16300 41.13200
H  4.10300 3.38900 43.25900
H  2.69000 2.76800 44.11700
H  2.52000 3.81900 42.75100
H  4.50700 0.72300 39.93000
H  5.62500 -0.43900 40.68600
H  7.45500 0.80700 40.53900
H  6.71400 2.27300 40.95600
H  -2.87600 0.91800 40.35100
H  -1.56900 1.80500 41.11600
H  -2.96000 1.61300 41.98800
H  -5.40800 -2.74500 42.60800
H  -4.15900 -2.83000 44.04700
H  -3.90300 -3.63900 42.48100
H  -1.23500 -6.42000 44.05900
H  0.81000 -6.71400 46.15100
H  -1.10700 -5.80300 46.92500
H  -2.48400 -6.18800 45.82100
H  -1.98100 -4.55600 46.10000
H  2.01600 -7.45800 43.76600
H  0.30200 -7.82000 43.51200
H  0.90100 -8.96900 45.84800
H  2.53000 -8.80700 45.30000
H  1.39800 -9.76800 44.33600
H  5.40600 -5.90800 46.53300
H  6.92200 -5.09300 46.16500
H  6.28700 -6.21700 45.06700
H  7.06000 -1.22500 42.19400
H  8.19300 2.16300 44.60300
H  9.37900 2.15000 43.27500
H  9.79400 1.19300 44.69500
Mg 24.67000 -6.21100 45.80400
C  27.05500 -3.99200 44.41800
C  22.32800 -5.06500 43.46300
C  22.83100 -8.81800 46.49700
C  27.38500 -7.79800 47.51800
N  24.66400 -4.50900 44.25300
C  25.75100 -3.82100 43.83900
C  25.38500 -2.84300 42.68800
C  23.80700 -3.00800 42.53400
C  23.54800 -4.27600 43.46500
C  23.09000 -1.68000 42.96600
C  26.18500 -2.93200 41.33200
C  26.79000 -1.70700 40.68300
H  26.22500 -1.42800 39.27900
N  22.88600 -6.75300 45.14100
C  22.03600 -6.13600 44.24400
C  20.86000 -6.86900 44.21300
C  20.91200 -7.85000 45.20300
C  22.25100 -7.86100 45.68700
C  19.63200 -6.40300 43.32100
C  19.79000 -8.81400 45.54900
O  18.79500 -8.74800 44.87600
C  19.72500 -9.73900 46.73500
N  25.05800 -8.04000 46.89500
C  24.09900 -8.96600 46.99400
C  24.56200 -10.29100 47.68800
C  26.01000 -9.81700 48.10000
C  26.17600 -8.50000 47.44800
C  23.69200 -10.86300 48.87300
C  27.01000 -10.89500 47.56500
C  27.28100 -12.08400 48.55300
N  26.73800 -5.88300 46.07800
C  27.68800 -6.55700 46.86600
C  29.01500 -5.96400 46.72800
C  28.75900 -4.96400 45.77800
C  27.37400 -4.88700 45.44900
C  30.24300 -6.42300 47.51400
C  29.38800 -3.87100 45.13800
O  30.52000 -3.42200 45.18500
C  28.34100 -3.23200 44.09800
C  28.34700 -1.81100 44.37700
O  28.02700 -1.26900 45.48800
O  28.67700 -1.04800 43.26600
C  28.32600 0.36500 43.42200
H  21.74100 -4.56000 42.69400
H  22.11900 -9.60700 46.74800
H  28.24200 -8.16600 48.08600
H  25.61300 -1.81500 42.96700
H  23.63400 -3.25800 41.48800
H  23.21300 -1.50600 44.03500
H  22.03300 -1.71700 42.70400
H  23.51400 -0.80600 42.47100
H  25.57300 -3.38100 40.54900
H  26.88800 -3.73800 41.54000
H  27.86500 -1.83200 40.55600
H  26.49700 -0.81900 41.24200
H  19.09900 -7.11400 42.69100
H  20.01900 -5.72700 42.55900
H  18.97000 -5.89700 44.02400
H  18.74400 -10.17200 46.92900
H  20.10800 -9.23600 47.62300
H  20.33300 -10.55700 46.34900
H  24.58000 -11.17100 47.04500
H  26.04300 -9.61600 49.17100
H  23.50500 -11.92300 48.70100
H  22.67200 -10.47800 48.87500
H  24.04900 -10.75400 49.89700
H  28.01300 -10.52300 47.35900
H  26.59300 -11.38200 46.68400
H  28.34200 -12.28500 48.70500
H  26.75300 -12.94100 48.13400
H  26.86600 -11.80300 49.52100
H  30.43600 -7.47500 47.30600
H  29.95000 -6.30500 48.55800
H  31.03700 -5.77500 47.14200
H  28.68600 -3.36700 43.07300
H  29.06000 0.76500 44.12100
H  27.27900 0.47000 43.70500
H  28.32500 0.73200 42.39500

