158

Mg 16.41600 -1.77200 27.86900
C  15.56100 0.37900 30.40100
C  18.55500 -3.37900 30.25500
C  17.80900 -3.68400 25.34600
C  14.84200 0.20600 25.64600
N  17.00700 -1.51200 30.14400
C  16.35700 -0.67100 30.89800
C  16.79400 -0.77400 32.34000
C  17.89200 -1.87700 32.16100
C  17.83600 -2.30300 30.73500
C  19.37500 -1.58200 32.61200
C  15.45200 -1.12800 33.20100
C  15.57000 -1.06800 34.66200
H  16.82000 -0.36600 35.30000
N  17.87900 -3.41700 27.82900
C  18.58200 -3.91900 28.90600
C  19.29100 -5.11600 28.42900
C  19.04600 -5.29800 27.04600
C  18.19400 -4.12600 26.63800
C  19.93700 -6.09300 29.39400
C  19.43900 -6.28600 26.06100
O  18.92900 -6.28100 24.93300
C  20.34600 -7.46900 26.46300
N  16.54400 -1.63100 25.73700
C  17.00300 -2.66600 24.90600
C  16.86700 -2.17100 23.43200
C  15.78200 -1.01400 23.55900
C  15.69000 -0.77200 25.09600
C  18.19800 -1.78600 22.87100
C  14.42200 -1.38300 22.95500
C  13.97100 -0.50800 21.86800
N  15.36700 -0.03700 27.89800
C  14.75500 0.67900 26.94100
C  13.96000 1.70500 27.47400
C  14.25800 1.68700 28.86500
C  15.10400 0.52500 29.06500
C  13.14000 2.70500 26.72700
C  14.05400 2.36100 30.05900
O  13.47700 3.40300 30.26600
C  14.87400 1.61100 31.17300
C  15.92100 2.52800 31.75400
O  16.88200 3.00800 31.19200
O  15.48300 2.83300 32.98200
C  16.27000 3.58200 33.88600
H  19.23100 -3.83900 30.97800
H  18.21800 -4.24400 24.50200
H  14.27800 0.73200 24.87200
H  17.27700 0.11600 32.74400
H  17.64500 -2.69000 32.84400
H  19.41000 -0.82200 33.39200
H  19.82800 -1.12700 31.73100
H  19.89900 -2.48000 32.93900
H  15.35700 -2.18400 32.94800
H  14.56000 -0.60100 32.86400
H  15.46500 -2.08800 35.03100
H  14.80700 -0.42100 35.09400
H  19.79100 -7.11500 29.04500
H  19.46100 -5.97700 30.36800
H  20.98900 -5.86200 29.56100
H  20.94200 -7.68900 25.57700
H  19.77100 -8.35900 26.72100
H  21.06300 -7.15900 27.22300
H  16.52000 -3.06000 22.90400
H  16.13100 -0.14100 23.00700
H  18.34300 -0.71700 22.71500
H  18.31200 -2.18900 21.86500
H  19.05100 -2.12800 23.45700
H  13.61300 -1.50200 23.67500
H  14.62000 -2.29700 22.39600
H  14.42800 -0.87200 20.94800
H  14.25400 0.52500 22.07300
H  12.88600 -0.54400 21.76400
H  13.00600 2.38200 25.69400
H  13.73000 3.61900 26.78800
H  12.14400 2.77800 27.16400
H  14.13800 1.34300 31.93200
H  17.29200 3.57200 33.50500
H  16.16800 3.19200 34.89900
H  15.89900 4.60600 33.88800
Mg 36.68200 48.95100 24.63400
C  36.59400 47.43400 27.80300
C  36.08400 51.92800 26.22300
C  36.42200 50.23700 21.63300
C  37.07900 45.76000 23.26900
N  36.25100 49.54700 26.82900
C  36.36700 48.82800 27.92400
C  36.05200 49.62000 29.23700
C  35.81200 51.05300 28.69000
C  36.05500 50.85400 27.14900
C  34.46100 51.69400 29.07700
C  37.32800 49.52200 30.13000
C  37.03600 49.13700 31.61200
H  35.84500 49.77700 32.24800
N  36.24000 50.80300 23.96800
C  36.17500 51.92200 24.76000
C  36.10600 53.08100 23.92500
C  36.26000 52.66900 22.63400
C  36.26500 51.15400 22.67600
C  35.88100 54.47100 24.51800
C  36.28600 53.44700 21.38000
O  36.29000 52.88900 20.21300
C  36.33400 55.04600 21.30600
N  36.52900 48.08100 22.60800
C  36.55900 48.85700 21.60400
C  36.68100 48.02200 20.25000
C  37.05900 46.58500 20.79800
C  36.83200 46.77800 22.29000
C  35.40300 48.12000 19.34800
C  38.49600 46.18000 20.29800
C  39.64400 46.58400 21.25400
N  36.94500 47.07700 25.34000
C  37.10900 45.82100 24.70200
C  37.44600 44.76800 25.64400
C  37.12500 45.30100 26.86000
C  36.83700 46.69200 26.60800
C  37.82800 43.37600 25.27600
C  37.08400 44.97800 28.27400
O  37.29700 43.95200 28.90500
C  36.68200 46.42900 28.94700
C  35.42400 46.21900 29.72100
O  34.26400 46.29000 29.27500
O  35.71100 45.93500 31.05300
C  34.58700 45.81800 32.00000
H  35.99700 52.87000 26.76800
H  36.20400 50.53800 20.60700
H  37.24400 44.79500 22.78400
H  35.23600 49.10000 29.74000
H  36.54600 51.78900 29.01700
H  33.86400 51.95400 28.20300
H  34.57600 52.63700 29.61200
H  33.88200 51.14200 29.81800
H  37.80800 50.49600 30.22200
H  38.08900 48.84700 29.73700
H  37.89900 49.55900 32.12700
H  37.07900 48.04900 31.55900
H  36.89700 54.83400 24.66900
H  35.30700 54.46500 25.44500
H  35.44400 55.14500 23.78100
H  37.09400 55.50300 21.94000
H  35.33100 55.36100 21.59300
H  36.50600 55.23200 20.24600
H  37.57300 48.38800 19.74200
H  36.28100 45.84900 20.59400
H  34.58000 48.40600 20.00400
H  35.17200 47.12700 18.96300
H  35.41000 48.82300 18.51500
H  38.54400 46.52000 19.26400
H  38.50300 45.09400 20.20600
H  39.35000 47.16100 22.13100
H  40.35200 47.16800 20.66600
H  40.16400 45.66700 21.53100
H  38.40800 43.34400 24.35300
H  36.91900 42.78100 25.19500
H  38.52000 42.91600 25.98200
H  37.50300 46.66100 29.62500
H  34.74300 46.24200 32.99200
H  34.46300 44.81200 32.40100
H  33.61900 46.16800 31.64000

