158

Mg 44.32000 3.77800 47.17500
C  42.48000 6.81500 47.44100
C  41.36100 2.06300 46.61400
C  46.11400 1.15900 46.33900
C  47.32700 5.82500 47.08800
N  42.19300 4.46600 47.20600
C  41.71700 5.68100 47.46900
C  40.18000 5.55200 47.53400
C  39.90400 4.05100 47.27200
C  41.23200 3.47400 47.05100
C  39.26900 3.24600 48.47700
C  39.46200 6.54600 46.50400
C  39.99700 6.57000 45.05800
H  39.12800 6.06100 43.85100
N  43.84600 1.76000 46.65700
C  42.57500 1.27200 46.55500
C  42.70100 -0.10500 45.98400
C  44.10800 -0.42800 45.92000
C  44.74700 0.82600 46.33500
C  41.47800 -0.98200 45.75500
C  44.76000 -1.67800 45.39300
O  43.96100 -2.57800 45.09200
C  46.29500 -1.94100 45.35700
N  46.36200 3.59100 46.63100
C  46.85200 2.31100 46.56000
C  48.39500 2.33500 46.36400
C  48.68700 3.86900 46.54700
C  47.36500 4.48100 46.80400
C  49.19900 1.30000 47.23600
C  49.57900 4.54700 45.47600
C  51.00400 4.92900 45.85200
N  44.84300 5.89800 47.21600
C  46.07500 6.54700 47.19500
C  45.87800 7.91900 47.14600
C  44.44000 8.09700 47.34800
C  43.90200 6.87600 47.30400
C  46.93500 9.01000 47.30700
C  43.45700 9.05700 47.54700
O  43.48200 10.30300 47.56200
C  42.13500 8.31900 47.57500
C  41.37100 8.48700 48.84000
O  41.39700 7.77000 49.84600
O  40.52800 9.59900 48.75600
C  39.74500 9.90400 49.94300
H  40.40100 1.63800 46.31300
H  46.86700 0.42300 46.04900
H  48.28300 6.34600 47.17600
H  40.06300 5.73900 48.60100
H  39.29900 3.94100 46.37200
H  38.62800 2.40300 48.22200
H  38.63500 3.96400 48.99700
H  40.06500 2.81400 49.08400
H  39.55000 7.56800 46.87200
H  38.39600 6.32400 46.46100
H  40.87700 5.94600 44.90000
H  40.40600 7.57800 44.98800
H  41.51500 -1.83600 46.43100
H  41.43000 -1.28500 44.71000
H  40.58000 -0.42700 46.02800
H  46.82200 -1.78100 46.29800
H  46.73700 -1.33700 44.56500
H  46.42600 -2.96900 45.01800
H  48.60600 2.02800 45.33900
H  49.20500 3.95000 47.50300
H  48.58900 0.65600 47.86900
H  50.02600 1.76700 47.77200
H  49.69200 0.76000 46.42800
H  48.98100 5.37700 45.10100
H  49.71600 3.83300 44.66300
H  51.61200 4.56700 45.02300
H  51.40100 4.44300 46.74300
H  51.05800 6.01700 45.84400
H  47.77300 8.75900 46.65600
H  47.45200 8.95300 48.26500
H  46.61600 10.01000 47.01300
H  41.64400 8.51900 46.62300
H  40.17300 10.78900 50.41400
H  39.51600 9.07300 50.61000
H  38.74300 10.18100 49.61500
Mg 31.39200 59.14100 40.55400
C  28.63900 57.18300 39.78700
C  33.43400 56.57300 39.49600
C  33.98800 61.12700 40.88900
C  29.23800 61.90700 41.07000
N  31.04500 57.15300 39.72800
C  29.82600 56.50000 39.54700
C  30.01700 55.10400 38.97200
C  31.50500 54.83300 39.25500
C  32.04000 56.24800 39.53100
C  31.73900 53.78400 40.39400
C  29.61600 55.12400 37.44600
C  28.48300 54.16700 36.97800
H  27.52500 54.74800 35.89600
N  33.44800 58.92400 40.29900
C  34.07900 57.80700 39.82600
C  35.43500 58.11100 39.65800
C  35.65000 59.37500 40.16200
C  34.34200 59.89100 40.44500
C  36.30800 57.15700 38.74500
C  37.04600 60.04800 40.22900
O  38.03700 59.35200 39.98200
C  37.38200 61.46900 40.53500
N  31.53300 61.40100 40.77000
C  32.80200 61.77300 41.17200
C  32.69500 63.20700 41.85800
C  31.11600 63.47700 41.72900
C  30.56000 62.17300 41.19000
C  33.27900 63.22800 43.28500
C  30.67500 64.59000 40.65000
C  29.45500 65.41500 40.96600
N  29.35400 59.49900 40.48600
C  28.63900 60.65300 40.73700
C  27.21500 60.31200 40.68200
C  27.11300 58.97800 40.36100
C  28.44800 58.52300 40.21800
C  26.08200 61.20900 40.86100
C  26.20600 57.86600 40.12600
O  24.98500 57.72800 40.20600
C  27.17600 56.58900 39.68400
C  27.09900 55.45600 40.59400
O  27.69200 55.33900 41.62400
O  26.29800 54.46100 40.05000
C  26.23100 53.24000 40.90900
H  34.05700 55.69400 39.31700
H  34.85600 61.70400 41.21600
H  28.59800 62.64400 41.55900
H  29.43500 54.46500 39.63600
H  31.85200 54.40600 38.31400
H  31.21500 54.30800 41.19300
H  32.82500 53.85600 40.46100
H  31.32400 52.78100 40.29600
H  30.55100 55.02200 36.89600
H  29.26800 56.13100 37.21900
H  27.97800 53.87100 37.89800
H  28.88600 53.26000 36.52800
H  35.61800 56.63000 38.08700
H  36.89700 56.49000 39.37600
H  37.01600 57.69100 38.11200
H  37.30500 61.56600 41.61800
H  36.68600 62.11900 40.00600
H  38.34900 61.69700 40.08600
H  33.11200 63.98000 41.21200
H  30.73300 63.83100 42.68600
H  33.81100 62.27700 43.32900
H  32.55700 63.25800 44.10100
H  33.94400 64.08500 43.38600
H  30.19000 63.99100 39.88000
H  31.47800 65.21900 40.26500
H  29.12500 65.27300 41.99600
H  28.55800 65.19000 40.39100
H  29.72700 66.45200 40.77200
H  25.30000 60.82700 40.20400
H  26.28400 62.26200 40.66800
H  25.76100 61.21500 41.90300
H  27.16500 56.24900 38.64900
H  25.20200 52.88300 40.96100
H  26.55600 53.37600 41.94000
H  26.87000 52.54800 40.36000

