158

Mg -1.88100 17.67900 26.90200
C  -2.36200 15.26400 29.33500
C  -2.26900 20.02500 29.37000
C  -1.74400 20.03700 24.43200
C  -1.99000 15.20000 24.43500
N  -2.21600 17.55300 29.19600
C  -2.24700 16.45900 29.98700
C  -2.44000 16.87100 31.43000
C  -2.60000 18.41000 31.31600
C  -2.34500 18.71100 29.86000
C  -4.08600 18.87600 31.75100
C  -1.30800 16.32900 32.38800
C  -0.91900 17.04300 33.63800
H  -0.75600 16.17000 34.76600
N  -1.88400 19.67600 26.91700
C  -2.07800 20.46100 28.00300
C  -1.91400 21.84500 27.63700
C  -1.75700 21.88500 26.23200
C  -1.79400 20.49000 25.81400
C  -2.04200 23.08500 28.60700
C  -1.55300 23.03600 25.22800
O  -1.50900 22.96100 24.00700
C  -1.47600 24.38100 25.79700
N  -2.04900 17.58500 24.72400
C  -1.79900 18.70800 23.92200
C  -1.50400 18.30400 22.45800
C  -1.73700 16.77100 22.45200
C  -1.89100 16.49200 23.97800
C  -2.31600 19.10300 21.37600
C  -0.46900 15.89200 21.85500
C  0.87500 15.96000 22.59800
N  -2.13400 15.67300 26.81600
C  -2.18000 14.80100 25.79600
C  -2.34900 13.48400 26.23100
C  -2.47800 13.65000 27.61800
C  -2.30100 14.97600 27.92500
C  -2.45500 12.16200 25.43900
C  -2.63800 12.88800 28.93100
O  -2.88100 11.68200 29.12500
C  -2.66300 13.89100 30.04400
C  -1.70300 13.40600 31.09300
O  -0.48800 13.48800 30.98300
O  -2.38700 12.81700 32.16200
C  -1.59600 12.06600 33.09100
H  -2.27500 20.77800 30.16100
H  -1.70300 20.77000 23.62300
H  -1.84600 14.36200 23.74900
H  -3.34500 16.37800 31.78500
H  -1.81400 18.94900 31.84500
H  -4.75000 18.02700 31.91100
H  -4.61200 19.40900 30.96000
H  -4.05900 19.48200 32.65700
H  -0.35000 16.29600 31.86900
H  -1.76300 15.36800 32.62500
H  -1.58000 17.84400 33.96900
H  0.06900 17.46900 33.46200
H  -2.50300 24.02000 28.28700
H  -1.01900 23.38700 28.83200
H  -2.55100 22.78800 29.52400
H  -2.43700 24.66300 26.22600
H  -1.17500 25.02700 24.97100
H  -0.73400 24.54500 26.57800
H  -0.46600 18.63500 22.41800
H  -2.60200 16.62300 21.80600
H  -2.88200 19.83800 21.94900
H  -3.05500 18.47300 20.88200
H  -1.56700 19.60800 20.76700
H  -0.26000 16.14600 20.81600
H  -0.68500 14.82500 21.78600
H  0.65300 16.07800 23.65900
H  1.45300 16.79500 22.20200
H  1.49100 15.07000 22.47100
H  -1.80500 11.48600 25.99500
H  -2.05900 12.15800 24.42400
H  -3.41200 11.64500 25.36200
H  -3.66800 13.96900 30.45800
H  -2.18700 11.23000 33.46400
H  -1.24800 12.82400 33.79200
H  -0.69300 11.66300 32.63200
Mg 6.77100 54.76600 40.65100
C  6.09600 51.37000 40.20100
C  9.93800 54.24000 39.29700
C  6.99100 58.02500 40.27500
C  3.32800 55.20300 41.50200
N  7.80100 53.03700 39.72100
C  7.36600 51.75100 39.66700
C  8.43000 50.82600 38.96600
C  9.68400 51.62900 39.24500
C  9.15100 53.07600 39.51900
C  10.66400 51.10500 40.32900
C  8.18300 50.50900 37.47200
C  8.27000 49.01800 36.99400
H  7.22300 48.37900 36.06000
N  8.25500 55.98600 39.99800
C  9.50200 55.57300 39.55400
C  10.30100 56.74300 39.26400
C  9.61800 57.85800 39.68300
C  8.19800 57.32600 39.99500
C  11.73400 56.60800 38.67900
C  10.20600 59.28800 39.66600
O  11.36000 59.55300 39.27800
C  9.32000 60.46300 40.14200
N  5.26700 56.36200 40.53200
C  5.74600 57.61000 40.56200
C  4.66800 58.55700 41.12000
C  3.36100 57.70300 41.11600
C  4.00600 56.34500 41.02800
C  4.96500 59.13300 42.48600
C  2.45100 57.97400 39.90300
C  1.02600 58.48200 40.01700
N  4.98500 53.60700 40.82300
C  3.73400 53.90600 41.25500
C  3.09800 52.73300 41.44800
C  3.95800 51.62800 41.10600
C  5.10300 52.27400 40.67300
C  1.67500 52.71100 41.92700
C  4.13100 50.12200 41.03100
O  3.42400 49.18200 41.26300
C  5.59800 49.96500 40.43600
C  5.31800 49.00800 39.27000
O  4.62700 49.20000 38.30700
O  5.83400 47.75500 39.66000
C  5.36700 46.54600 38.86500
H  10.94500 53.94000 38.99700
H  7.06600 59.10600 40.41300
H  2.32300 55.27400 41.92400
H  8.37400 49.90200 39.54000
H  10.22700 51.65800 38.30100
H  11.39100 50.42500 39.88500
H  10.08800 50.41900 40.95000
H  11.05400 51.90000 40.96500
H  8.78300 51.05900 36.74800
H  7.17000 50.86100 37.28100
H  8.26200 48.45500 37.92800
H  9.17800 48.81500 36.42700
H  12.36200 57.48600 38.82800
H  11.70500 56.37600 37.61400
H  12.14400 55.74900 39.20900
H  9.83100 61.42600 40.11900
H  8.95500 60.32900 41.16000
H  8.54000 60.50500 39.38200
H  4.64600 59.44100 40.48300
H  2.85100 57.76800 42.07700
H  4.38200 58.76600 43.33000
H  4.82700 60.21200 42.41900
H  6.04700 59.01900 42.56100
H  2.49200 57.04000 39.34300
H  2.98700 58.54600 39.14600
H  0.94100 59.47000 39.56500
H  0.72300 58.46900 41.06400
H  0.33800 57.78500 39.53900
H  1.39900 52.84900 42.97300
H  1.20300 51.74400 41.75200
H  1.08800 53.38900 41.30800
H  6.28200 49.43300 41.09700
H  4.34400 46.34600 39.18500
H  5.99000 45.70300 39.16600
H  5.39700 46.70000 37.78700

