158

Mg 43.92400 2.67200 47.88500
C  41.85400 5.32400 46.96800
C  41.11500 0.67800 47.91400
C  45.89300 -0.08600 47.97400
C  46.71000 4.54700 47.19000
N  41.69300 2.99600 47.34800
C  41.08100 4.16700 47.09600
C  39.57500 3.88700 46.80700
C  39.34900 2.48500 47.43200
C  40.82300 1.98500 47.53200
C  38.47800 2.47400 48.74100
C  39.17300 4.00300 45.30200
C  38.26100 5.27100 45.01700
H  38.76000 6.23500 43.89200
N  43.56100 0.61400 48.02200
C  42.33100 0.01900 48.07700
C  42.52900 -1.38400 48.33600
C  43.94400 -1.73300 48.19200
C  44.50800 -0.36400 47.99600
C  41.35000 -2.32200 48.55100
C  44.54500 -3.10600 48.35500
O  43.79500 -4.09000 48.63100
C  45.99100 -3.37000 48.20100
N  46.03900 2.16700 47.37400
C  46.61600 1.01200 47.75800
C  48.17900 1.17100 47.66400
C  48.37600 2.69300 47.40000
C  46.94300 3.16300 47.26400
C  49.02300 0.75700 48.85800
C  49.34500 3.03000 46.21400
C  50.32700 4.22900 46.51600
N  44.24000 4.51900 47.31000
C  45.39700 5.18900 47.11500
C  45.15200 6.55200 46.92600
C  43.75300 6.65800 46.83600
C  43.23000 5.43700 47.07500
C  46.15800 7.65400 46.64400
C  42.64900 7.60200 46.54900
O  42.64900 8.82000 46.32400
C  41.32800 6.73100 46.65300
C  40.39400 7.29000 47.53600
O  40.06900 6.79500 48.60200
O  39.92600 8.47200 47.06100
C  38.97100 9.24100 47.86200
H  40.24900 0.05300 48.14100
H  46.55900 -0.91400 48.22500
H  47.56800 5.20800 47.05500
H  38.94100 4.54600 47.39900
H  38.89800 1.77700 46.73600
H  37.67400 1.74100 48.81500
H  38.01800 3.44200 48.94100
H  39.13700 2.38300 49.60300
H  38.54700 3.17400 44.97200
H  40.12300 3.98600 44.76600
H  37.99000 5.81600 45.92200
H  37.33200 4.87900 44.60300
H  40.43800 -1.78000 48.29900
H  41.26700 -2.54400 49.61500
H  41.14500 -3.29100 48.09500
H  46.27400 -2.90300 47.25800
H  46.33900 -4.40000 48.27800
H  46.51500 -2.81300 48.97900
H  48.48300 0.71500 46.72200
H  48.70200 3.25600 48.27400
H  49.84400 1.45700 49.01300
H  49.45900 -0.22800 48.69000
H  48.49900 0.62100 49.80400
H  48.80900 3.29000 45.30100
H  49.76000 2.05300 45.97000
H  51.33700 3.95800 46.20800
H  50.29700 4.43300 47.58600
H  50.00000 5.15800 46.04800
H  46.84100 7.80500 47.47900
H  45.64600 8.61600 46.68200
H  46.72700 7.52500 45.72200
H  40.86400 6.70100 45.66700
H  38.33500 9.82800 47.19900
H  39.55900 9.87300 48.52800
H  38.32200 8.68600 48.53900
Mg 30.34700 59.69200 40.05500
C  27.61000 57.88500 38.65500
C  32.36100 56.88200 39.34100
C  33.10400 61.57400 40.63600
C  28.30300 62.48200 40.14300
N  29.99200 57.77300 38.91100
C  28.81500 57.25800 38.51500
C  29.03200 55.89400 37.90100
C  30.33700 55.46700 38.64000
C  30.96500 56.78900 38.96100
C  30.21900 54.62100 39.94300
C  29.15300 55.93900 36.36400
C  28.14100 55.03600 35.57400
H  27.28200 55.91900 34.69100
N  32.43300 59.29100 40.00700
C  33.05300 58.08400 39.78000
C  34.46300 58.31400 39.95300
C  34.65300 59.60900 40.33400
C  33.37700 60.19100 40.37900
C  35.35800 57.11400 39.93600
C  35.96500 60.12100 40.76500
O  37.01000 59.47300 40.56400
C  36.18900 61.36200 41.49800
N  30.67000 61.74900 40.12100
C  31.89500 62.29600 40.48000
C  31.76100 63.80800 40.68700
C  30.24500 64.07200 40.44800
C  29.69700 62.65200 40.27800
C  32.32800 64.44100 42.04500
C  30.00000 65.00400 39.25100
C  29.51300 66.43100 39.51200
N  28.28800 60.05900 39.67700
C  27.62300 61.23400 39.87800
C  26.14700 61.02000 39.52600
C  26.10100 59.68600 39.07100
C  27.44200 59.20500 39.12900
C  25.01400 61.95700 39.65000
C  25.19800 58.67500 38.65500
O  23.98600 58.65000 38.52300
C  26.09700 57.43800 38.37400
C  25.67800 56.27800 39.24300
O  26.34600 55.97500 40.17700
O  24.49800 55.70100 38.78200
C  23.82500 54.80900 39.68000
H  32.91500 55.94900 39.21400
H  33.91500 62.20200 41.01200
H  27.69000 63.38300 40.07300
H  28.21300 55.27200 38.26500
H  30.94000 54.86900 37.95700
H  30.25700 53.54600 39.76900
H  29.23700 54.79900 40.38200
H  30.94100 54.88800 40.71500
H  30.10300 55.61500 35.93800
H  28.83200 56.95000 36.11400
H  27.64700 54.33100 36.24300
H  28.68100 54.31000 34.96600
H  35.01100 56.27400 39.33500
H  35.30600 56.80500 40.98000
H  36.40600 57.26400 39.67700
H  37.19400 61.44000 41.91200
H  35.54400 61.33800 42.37600
H  36.01300 62.25600 40.90000
H  32.41700 64.21900 39.91900
H  29.73800 64.40200 41.35400
H  31.49100 64.75500 42.66900
H  32.91200 65.32800 41.79800
H  32.94400 63.77500 42.64900
H  29.15600 64.51300 38.76600
H  30.85100 65.04500 38.57200
H  28.57400 66.78300 39.08300
H  30.31800 67.08800 39.18400
H  29.34300 66.36500 40.58700
H  24.79600 62.31300 38.64300
H  25.26400 62.85800 40.21000
H  24.17400 61.44700 40.12300
H  25.84700 57.13400 37.35800
H  23.40000 54.14500 38.92600
H  23.09200 55.36300 40.26600
H  24.51300 54.28500 40.34300

