158

Mg 35.20600 1.82500 28.79500
C  33.43500 3.27100 31.45300
C  37.94100 1.63200 30.76000
C  36.85100 0.98800 26.00500
C  32.36700 2.57100 26.71900
N  35.56800 2.38700 30.80700
C  34.66800 2.78500 31.79700
C  35.37600 2.81600 33.18200
C  36.81800 2.67000 32.86900
C  36.82600 2.24200 31.40200
C  37.72900 3.92700 33.40200
C  34.80700 1.72000 34.10300
C  34.72000 1.98900 35.69200
H  35.24600 3.35300 36.24100
N  37.09200 1.28800 28.50700
C  38.08300 1.25100 29.39700
C  39.32000 0.84200 28.73000
C  38.94300 0.45500 27.39000
C  37.56800 0.83500 27.26900
C  40.65000 0.81100 29.48000
C  39.86000 -0.10000 26.26400
O  39.43600 -0.31400 25.09900
C  41.25800 -0.38100 26.58300
N  34.58600 1.78500 26.58900
C  35.52100 1.34300 25.75000
C  34.84600 1.17400 24.35300
C  33.31100 1.43600 24.64200
C  33.37800 1.89900 26.03100
C  35.48100 2.14500 23.31900
C  32.50900 0.08700 24.52900
C  32.07300 -0.34600 23.09800
N  33.27200 2.71600 29.02800
C  32.31300 2.94900 28.07200
C  31.13300 3.57900 28.78300
C  31.50000 3.62600 30.16200
C  32.81000 3.18000 30.19400
C  29.84300 4.01800 28.18000
C  31.01500 3.99500 31.44600
O  29.94600 4.41800 31.83900
C  32.32900 3.80900 32.35200
C  32.71700 4.95900 33.15900
O  33.42100 5.84200 32.78200
O  31.98500 4.98600 34.31500
C  32.18800 6.12500 35.33100
H  38.82300 1.53600 31.39700
H  37.29700 0.70600 25.04800
H  31.37500 2.60700 26.26300
H  35.17800 3.81400 33.57300
H  37.28200 1.85800 33.42900
H  37.20700 4.51900 34.15400
H  38.09000 4.55000 32.58300
H  38.69100 3.59000 33.78900
H  35.43200 0.83100 34.01400
H  33.78500 1.47900 33.81200
H  35.29600 1.30200 36.31200
H  33.68300 1.82500 35.98500
H  41.26900 -0.02200 29.14700
H  40.61300 0.63200 30.55400
H  41.09100 1.78100 29.24600
H  41.82100 -0.41300 25.65000
H  41.32700 -1.26100 27.22200
H  41.65800 0.43900 27.17900
H  35.13200 0.15400 24.09800
H  32.84800 2.09600 23.90900
H  36.31100 2.77100 23.64500
H  34.77400 2.85900 22.89800
H  35.70900 1.59500 22.40600
H  31.68500 0.18900 25.23400
H  33.11200 -0.68000 25.01500
H  30.98400 -0.34200 23.14900
H  32.40800 -1.36100 22.88600
H  32.44100 0.25700 22.26800
H  29.94600 4.42200 27.17300
H  29.40800 4.68100 28.92800
H  29.18700 3.16600 28.00100
H  31.98900 3.09500 33.10300
H  32.94000 6.86100 35.04800
H  32.62900 5.74400 36.25200
H  31.27300 6.67000 35.56600
Mg 26.82700 50.66100 27.52100
C  24.61200 51.84600 29.92000
C  28.88500 49.68000 29.94000
C  28.87300 49.72200 25.09000
C  24.57300 52.03200 25.11200
N  26.69300 50.72500 29.61500
C  25.74300 51.29500 30.46000
C  26.00400 51.05200 31.90000
C  27.51200 50.49700 31.88700
C  27.71700 50.27200 30.37500
C  28.62700 51.48900 32.36700
C  25.07600 49.97200 32.54100
C  24.44700 50.34500 33.90400
H  25.42200 50.93700 35.01100
N  28.61000 49.86300 27.46500
C  29.30600 49.51300 28.61300
C  30.60700 48.98600 28.27000
C  30.71700 49.12300 26.85600
C  29.35700 49.56400 26.38400
C  31.60400 48.52700 29.21100
C  31.88500 48.77200 25.91300
O  31.80400 48.76000 24.67500
C  33.21400 48.27500 26.34100
N  26.76100 50.84400 25.31800
C  27.69400 50.32200 24.57200
C  27.26200 50.31200 23.14100
C  25.84700 50.91000 23.16900
C  25.71200 51.32000 24.62700
C  28.21000 51.07600 22.10400
C  24.71500 49.86800 22.84700
C  23.52900 50.40900 22.07000
N  24.97000 51.80400 27.44600
C  24.19100 52.36100 26.41600
C  23.08700 53.04800 26.94500
C  23.17200 52.91100 28.31200
C  24.35200 52.15400 28.57500
C  22.01300 53.72700 26.26500
C  22.56400 53.24600 29.55500
O  21.59600 53.95500 29.72000
C  23.52300 52.66900 30.69700
C  23.92700 53.86300 31.58300
O  24.94200 54.52400 31.33600
O  23.04700 54.02100 32.60400
C  23.46200 54.90400 33.70500
H  29.42300 49.26600 30.79600
H  29.55000 49.41800 24.28900
H  23.97700 52.34100 24.25100
H  25.85300 51.96700 32.47300
H  27.61800 49.54300 32.40400
H  29.29400 51.73700 31.54200
H  29.20000 50.97000 33.13500
H  28.27900 52.42700 32.79800
H  25.66300 49.06400 32.67800
H  24.26800 49.70800 31.85800
H  23.84500 49.49900 34.23700
H  23.76000 51.14100 33.61500
H  31.75000 47.44700 29.19600
H  31.36100 48.70500 30.25800
H  32.54800 49.07100 29.21300
H  33.62700 47.79400 25.45400
H  32.90300 47.40600 26.92100
H  33.59600 49.19200 26.79100
H  27.22300 49.24700 22.91100
H  25.78400 51.85600 22.63100
H  29.10100 51.55500 22.51200
H  27.65700 51.75900 21.46000
H  28.59000 50.27300 21.47200
H  24.40300 49.38800 23.77500
H  25.11500 49.00700 22.31000
H  22.55400 50.46200 22.55500
H  23.49200 49.63300 21.30600
H  23.69800 51.35600 21.55800
H  22.32700 54.09300 25.28700
H  21.69700 54.53700 26.92200
H  21.19200 53.02000 26.14900
H  22.90000 52.01800 31.31000
H  23.47800 55.93700 33.35800
H  24.40200 54.60400 34.16900
H  22.79700 54.85800 34.56800

