158

Mg -1.34700 17.38200 27.18800
C  -1.94800 15.17100 30.05200
C  -1.85500 20.00300 29.46500
C  -1.35300 19.32800 24.71500
C  -1.73700 14.47300 25.13200
N  -1.92800 17.54500 29.49400
C  -1.84000 16.51400 30.44300
C  -2.06100 17.04900 31.84900
C  -2.16800 18.58100 31.62000
C  -2.00600 18.77400 30.11300
C  -3.57900 19.20500 32.11800
C  -0.87800 16.60500 32.84300
C  -0.59500 17.51900 34.00900
H  -0.34200 17.03900 35.42700
N  -1.34600 19.39900 27.09700
C  -1.56200 20.33700 28.13600
C  -1.44200 21.68200 27.56100
C  -1.23200 21.44800 26.10800
C  -1.35900 20.01900 25.88400
C  -1.46900 22.95600 28.35400
C  -1.03200 22.41400 25.01900
O  -1.02300 22.10200 23.83100
C  -0.90400 23.91000 25.25200
N  -1.74900 16.96400 25.22700
C  -1.59900 17.99800 24.33400
C  -1.53000 17.54100 22.82500
C  -1.50100 15.96000 23.02100
C  -1.66800 15.75100 24.52000
C  -2.77700 18.11600 21.99500
C  -0.23500 15.25600 22.49800
C  1.15700 15.42200 23.23200
N  -1.71000 15.24600 27.45300
C  -1.76500 14.25100 26.55000
C  -2.10700 13.07100 27.24300
C  -2.06200 13.31400 28.61800
C  -1.88100 14.71700 28.70600
C  -2.35600 11.71800 26.48800
C  -2.25400 12.70600 29.96900
O  -2.51600 11.58700 30.38300
C  -2.17200 13.93700 30.96400
C  -1.04300 13.58100 31.82600
O  0.12500 13.71500 31.44900
O  -1.44800 13.21300 33.12000
C  -0.39300 13.11600 34.12100
H  -1.81700 20.80200 30.20800
H  -1.35300 19.93400 23.80600
H  -1.73200 13.54500 24.55600
H  -3.05300 16.64900 32.05800
H  -1.43400 19.21400 32.11800
H  -3.82700 18.58400 32.97900
H  -4.25900 19.02100 31.28700
H  -3.42000 20.26500 32.31400
H  0.04500 16.31100 32.34500
H  -1.32400 15.72700 33.31000
H  -1.52300 18.09000 33.97900
H  0.21800 18.21900 33.81600
H  -1.62100 23.80400 27.68600
H  -0.44000 22.92500 28.71300
H  -2.07900 23.05300 29.25200
H  0.00700 24.06600 25.83000
H  -1.80300 24.30400 25.72600
H  -0.85000 24.37400 24.26700
H  -0.56900 17.69800 22.33600
H  -2.43100 15.56500 22.61400
H  -3.25200 18.92100 22.55500
H  -3.40700 17.28900 21.66600
H  -2.33400 18.42500 21.04800
H  -0.13300 15.70700 21.51000
H  -0.39700 14.19600 22.30300
H  1.01900 15.77500 24.25500
H  1.75000 16.16500 22.69800
H  1.52900 14.39800 23.27200
H  -2.74100 11.91800 25.48800
H  -3.10400 11.17300 27.06400
H  -1.49700 11.04800 26.51200
H  -3.08400 13.98000 31.55900
H  0.24100 14.00100 34.06800
H  0.22700 12.22700 34.00100
H  -0.82900 13.07800 35.11900
Mg 46.45400 25.97400 28.19600
C  47.13600 28.09100 30.85300
C  45.58000 23.50100 30.62000
C  46.02400 23.88300 25.70900
C  48.02800 28.15800 26.09000
N  46.28100 25.87100 30.50000
C  46.57600 26.91700 31.33200
C  46.30300 26.54600 32.77800
C  46.06500 25.03100 32.67400
C  45.99500 24.70600 31.20500
C  47.11100 24.15100 33.41700
C  45.13800 27.44200 33.38100
C  44.84600 27.12700 34.80500
H  44.90300 28.24400 35.80900
N  45.86500 23.97300 28.13500
C  45.58400 23.16500 29.22200
C  45.35000 21.84600 28.65000
C  45.47500 21.89900 27.21400
C  45.75600 23.30000 26.97500
C  45.12200 20.60700 29.58100
C  45.44100 20.82700 26.18900
O  45.76400 20.99200 25.00400
C  45.01600 19.50200 26.61900
N  47.00200 25.99400 26.23200
C  46.54600 25.05300 25.35500
C  46.60800 25.50100 23.86100
C  47.27000 26.95500 23.97100
C  47.37800 27.06800 25.53700
C  47.32500 24.57900 22.86900
C  46.48800 28.12100 23.27700
C  47.40800 29.07800 22.39100
N  47.34500 27.79900 28.33700
C  48.05900 28.56800 27.42000
C  48.56200 29.72800 28.03400
C  48.22900 29.65700 29.37800
C  47.54100 28.40400 29.53500
C  49.42000 30.75700 27.35000
C  48.35500 30.27200 30.67800
O  48.85200 31.31300 31.09500
C  47.69500 29.20700 31.73700
C  48.81300 28.68600 32.64000
O  49.67600 27.93400 32.28100
O  48.80400 29.39500 33.79000
C  49.95400 29.13400 34.67000
H  45.13500 22.75700 31.28400
H  45.97200 23.31500 24.77800
H  48.33600 28.85400 25.30700
H  47.18400 26.78300 33.37500
H  45.06900 24.95100 33.10900
H  47.75800 24.68300 34.11500
H  47.71000 23.65300 32.65400
H  46.56900 23.40300 33.99500
H  44.21300 27.15900 32.87800
H  45.42300 28.48900 33.27900
H  45.65100 26.47400 35.14300
H  43.91300 26.56300 34.81000
H  44.20400 20.11000 29.26700
H  44.91800 20.77600 30.63800
H  45.94100 19.89800 29.46200
H  45.83300 19.09100 27.21100
H  45.00100 18.78700 25.79700
H  44.05300 19.56200 27.12600
H  45.61600 25.64800 23.43400
H  48.26000 26.83800 23.53200
H  46.51600 23.91500 22.56600
H  48.13300 24.06600 23.39000
H  47.75800 25.10600 22.01900
H  46.12300 28.69600 24.12800
H  45.65400 27.61000 22.79700
H  47.21400 29.03000 21.32000
H  48.45700 28.78500 22.43800
H  47.33400 30.08800 22.79400
H  49.71100 30.61400 26.31000
H  50.36100 30.92600 27.87200
H  48.81900 31.65700 27.48400
H  47.05200 29.92400 32.24700
H  50.31100 28.10500 34.62700
H  49.67400 29.48500 35.66300
H  50.73600 29.86500 34.46300

