158

Mg 16.81700 52.08500 25.99800
C  18.42200 50.48400 28.70100
C  14.71100 53.37000 28.25400
C  15.36800 53.38500 23.45100
C  19.16900 50.31900 23.84200
N  16.51000 51.86100 28.30300
C  17.29600 51.18000 29.17600
C  16.82000 51.41900 30.67400
C  15.50400 52.25700 30.38300
C  15.56300 52.55900 28.92500
C  14.09800 51.71300 30.80200
C  17.87600 52.29500 31.37000
C  18.28500 51.82700 32.88200
H  17.61200 52.56800 33.95800
N  15.17600 53.21100 25.80500
C  14.50900 53.72500 26.87400
C  13.42800 54.55500 26.39900
C  13.64600 54.67200 25.00100
C  14.73200 53.73600 24.66100
C  12.47000 55.34300 27.19700
C  12.84800 55.38500 23.91500
O  13.14500 55.39200 22.71100
C  11.55000 56.21800 24.24500
N  17.07100 51.70200 23.92100
C  16.40000 52.47300 23.07800
C  16.90500 52.34200 21.64300
C  18.21200 51.46800 21.79000
C  18.17100 51.13200 23.26400
C  15.88500 52.10100 20.47600
C  19.55300 52.28600 21.42200
C  19.84000 53.62600 22.08300
N  18.48200 50.69300 26.16300
C  19.34300 50.11900 25.20000
C  20.41900 49.47300 25.88700
C  20.12300 49.52700 27.23500
C  18.92000 50.22100 27.34400
C  21.56100 48.89300 25.12500
C  20.55800 49.25000 28.61600
O  21.49300 48.65300 29.01700
C  19.43500 49.85900 29.62100
C  18.82000 48.90700 30.51800
O  17.92300 48.13600 30.23000
O  19.53300 48.97800 31.65400
C  19.14900 48.12100 32.77700
H  13.99300 53.87500 28.90200
H  14.97900 53.74300 22.49600
H  19.92700 49.87800 23.19100
H  16.59000 50.51700 31.24100
H  15.49500 53.26700 30.79300
H  13.78800 51.17100 29.90800
H  13.43300 52.51300 31.12800
H  14.23100 51.03100 31.64200
H  17.41200 53.24000 31.65500
H  18.79000 52.54400 30.83300
H  19.34700 52.02200 33.02700
H  18.12400 50.75100 32.95700
H  11.45700 54.94000 27.19600
H  12.56100 56.35300 26.79700
H  12.79900 55.33400 28.23600
H  10.89400 55.60900 24.86700
H  11.21800 56.52300 23.25200
H  11.70400 57.07400 24.90200
H  17.23100 53.33300 21.32600
H  18.13000 50.55500 21.20000
H  15.76100 52.96600 19.82500
H  14.90800 52.00000 20.94900
H  16.03900 51.17700 19.91800
H  19.64300 52.28100 20.33600
H  20.38700 51.63800 21.69100
H  20.22700 54.28100 21.30200
H  20.49100 53.43700 22.93600
H  18.91500 54.01600 22.50700
H  21.21400 48.17600 24.38100
H  22.21800 48.40400 25.84400
H  22.05100 49.71400 24.60100
H  19.80200 50.67600 30.24300
H  18.26600 47.49700 32.64100
H  18.93000 48.64000 33.71100
H  19.97400 47.48200 33.09100
Mg 9.33100 47.88400 26.87200
C  7.32600 47.72400 29.65000
C  12.01100 48.78800 28.72800
C  11.14600 48.54500 24.00800
C  6.41300 47.70800 24.75000
N  9.50000 48.48000 28.89100
C  8.63900 48.16200 29.89600
C  9.33400 48.43400 31.25200
C  10.75000 48.76500 30.88800
C  10.75100 48.76000 29.34000
C  11.19500 50.16400 31.42200
C  9.03300 47.31100 32.28700
C  9.94100 47.07600 33.49900
H  9.26900 46.56900 34.82900
N  11.36100 48.37300 26.39100
C  12.28600 48.59000 27.33600
C  13.58400 48.68000 26.64800
C  13.36400 48.48400 25.22000
C  11.85600 48.45900 25.17600
C  14.83500 49.12700 27.37000
C  14.37300 48.47100 24.09300
O  13.94700 48.47400 22.92900
C  15.86500 48.33000 24.45200
N  8.86700 48.28200 24.65400
C  9.81200 48.36200 23.75100
C  9.22000 48.11400 22.33300
C  7.79300 47.75800 22.62700
C  7.67100 47.86800 24.11100
C  9.40400 49.25700 21.35100
C  7.32100 46.37800 22.09700
C  5.93900 46.29700 21.34900
N  7.28400 47.70400 27.13400
C  6.24900 47.62300 26.20300
C  5.00000 47.38300 26.98000
C  5.36900 47.27800 28.34600
C  6.79900 47.56500 28.36700
C  3.68700 47.05700 26.26400
C  4.94500 46.98900 29.70500
O  3.91500 46.55900 30.17400
C  6.17700 47.29200 30.62100
C  6.31800 45.94300 31.30000
O  7.14200 45.04800 31.09400
O  5.48400 45.92300 32.38700
C  5.72500 44.77900 33.35800
H  12.90200 48.95300 29.33600
H  11.69600 48.59200 23.06600
H  5.62200 47.51200 24.02300
H  8.82300 49.31900 31.63100
H  11.39600 48.03100 31.36900
H  12.17600 50.02500 31.87600
H  10.47800 50.50700 32.16800
H  11.26800 50.89100 30.61200
H  9.00500 46.38600 31.71100
H  8.05900 47.70300 32.58100
H  10.51400 47.98000 33.70700
H  10.63300 46.29000 33.19700
H  14.65700 49.54900 28.35900
H  15.28800 49.90500 26.75600
H  15.64300 48.39600 27.41700
H  16.02200 47.61500 25.26000
H  16.32300 49.31100 24.57600
H  16.26700 47.91800 23.52600
H  9.78400 47.30300 21.87200
H  7.18200 48.55700 22.20700
H  8.41900 49.30000 20.88500
H  10.34100 49.28500 20.79600
H  9.35200 50.12300 22.01200
H  7.07000 45.75200 22.95300
H  8.06600 45.90600 21.45600
H  5.40600 47.24200 21.45400
H  5.47100 45.45300 21.85600
H  5.96500 46.00900 20.29800
H  3.35100 48.02100 25.88300
H  2.98400 46.74300 27.03500
H  3.88200 46.30300 25.50200
H  6.00300 47.98500 31.44400
H  6.33600 45.01200 34.23000
H  6.02600 43.82900 32.91700
H  4.74000 44.44900 33.68700

