158

Mg 9.03900 48.86400 25.96400
C  6.97900 48.98000 28.71300
C  11.69200 49.83900 27.81200
C  10.90000 48.67600 23.16900
C  6.11600 48.15800 23.97700
N  9.24300 49.33000 27.98600
C  8.31000 49.32400 28.96400
C  8.95500 49.60600 30.34700
C  10.25600 50.35900 29.95300
C  10.44600 49.86500 28.47100
C  10.00600 51.95900 29.94800
C  9.33600 48.27500 31.14200
C  9.63800 48.48300 32.70200
H  9.20500 47.30800 33.58900
N  10.96600 49.18500 25.54900
C  11.96100 49.50300 26.46200
C  13.30300 49.38100 25.81500
C  13.02200 49.14200 24.43700
C  11.57000 49.02100 24.35100
C  14.54100 49.56800 26.52700
C  14.00200 49.16300 23.20000
O  13.61100 49.30200 22.07200
C  15.47900 49.18200 23.41100
N  8.55600 48.60300 23.84800
C  9.54400 48.54700 22.94700
C  9.06200 48.03000 21.57600
C  7.53300 47.84800 21.79100
C  7.36900 48.16900 23.29700
C  9.33200 49.05100 20.48300
C  7.00000 46.43300 21.41300
C  5.81800 46.44900 20.48200
N  6.98000 48.70300 26.20700
C  5.93000 48.34400 25.35100
C  4.69900 48.31400 26.09700
C  5.04900 48.51400 27.45500
C  6.44400 48.73200 27.42000
C  3.34000 48.02900 25.47400
C  4.53700 48.67600 28.77700
O  3.40900 48.59400 29.26300
C  5.82500 48.89700 29.62800
C  5.94600 47.80500 30.54700
O  6.11900 46.70800 30.21200
O  5.64200 48.29000 31.81400
C  5.52600 47.29200 32.86400
H  12.45400 50.18200 28.51500
H  11.59300 48.47900 22.34900
H  5.22600 47.90800 23.39500
H  8.31500 50.23200 30.96800
H  11.16300 50.04400 30.46900
H  9.99000 52.24700 28.89700
H  10.88300 52.54400 30.22300
H  9.10600 52.11100 30.54300
H  10.21600 47.90000 30.62000
H  8.54100 47.54300 30.99700
H  9.28300 49.47400 32.98300
H  10.72500 48.41600 32.73800
H  14.28000 49.62800 27.58400
H  15.02800 50.53400 26.39600
H  15.24300 48.75300 26.35400
H  15.82400 48.18500 23.68600
H  15.71100 49.92800 24.17000
H  15.89000 49.58500 22.48500
H  9.52500 47.05300 21.43300
H  6.82900 48.58500 21.40400
H  9.72600 50.02200 20.78300
H  8.48700 49.14300 19.80000
H  10.09400 48.58700 19.85800
H  6.65900 45.96500 22.33600
H  7.80800 45.95900 20.85600
H  5.47700 47.45100 20.22000
H  4.95100 45.95000 20.91400
H  6.08100 46.00300 19.52300
H  3.23900 46.96100 25.28000
H  3.15100 48.62800 24.58400
H  2.57000 48.18700 26.22900
H  5.77200 49.88000 30.09600
H  6.27700 46.50900 32.76700
H  4.55900 46.80500 32.74100
H  5.67600 47.60200 33.89900
Mg -4.99200 25.89300 25.67100
C  -3.82400 27.41200 28.66400
C  -6.76700 23.70000 27.62100
C  -5.75200 24.31100 22.88400
C  -2.60700 27.93800 23.90700
N  -5.23500 25.66400 27.90200
C  -4.74300 26.39400 28.97300
C  -5.29400 25.88800 30.31000
C  -6.07800 24.59600 29.90200
C  -5.96100 24.56500 28.36000
C  -5.64000 23.31700 30.59400
C  -6.22700 26.96600 31.05900
C  -5.86300 27.34500 32.57400
H  -5.35300 26.13300 33.41100
N  -6.08100 24.27800 25.31400
C  -6.81900 23.53600 26.24100
C  -7.63400 22.63000 25.49800
C  -7.45700 22.76200 24.09500
C  -6.40800 23.86600 24.00700
C  -8.58200 21.61900 26.17900
C  -8.16700 22.11100 22.92800
O  -7.79000 22.22400 21.74800
C  -9.52600 21.40000 23.14100
N  -4.20900 26.12200 23.68100
C  -4.72700 25.32600 22.70100
C  -4.01700 25.65700 21.33200
C  -3.27900 27.02000 21.62400
C  -3.37900 27.04800 23.14300
C  -3.13800 24.50300 20.84000
C  -3.94700 28.19500 20.90400
C  -2.97400 28.82500 19.89000
N  -3.54300 27.43300 26.16300
C  -2.69200 28.13000 25.36400
C  -1.89100 29.03300 26.14800
C  -2.35000 28.81800 27.42600
C  -3.35700 27.80200 27.40300
C  -0.83900 30.13400 25.70400
C  -2.15800 29.24300 28.75600
O  -1.44900 30.05500 29.24200
C  -3.12200 28.36900 29.59800
C  -2.29600 27.64200 30.56800
O  -1.49900 26.77400 30.36300
O  -2.60500 28.09300 31.91000
C  -1.62800 27.61300 32.87600
H  -7.29600 23.02400 28.29600
H  -5.98400 23.88600 21.90600
H  -1.89600 28.65100 23.48400
H  -4.40900 25.65200 30.90100
H  -7.12900 24.73600 30.15300
H  -6.49400 22.84600 31.08200
H  -4.85300 23.54300 31.31400
H  -5.21500 22.69200 29.80900
H  -7.24600 26.58000 31.09300
H  -6.29200 27.90000 30.50100
H  -6.83600 27.71400 32.89800
H  -5.13400 28.13900 32.41100
H  -9.55800 22.10400 26.20700
H  -8.24500 21.30300 27.16600
H  -8.66300 20.68100 25.63000
H  -9.28300 20.35200 23.31500
H  -9.99100 21.46700 22.15700
H  -10.16900 21.94400 23.83300
H  -4.78200 25.75800 20.56300
H  -2.24200 26.88000 21.31700
H  -2.09700 24.81800 20.90400
H  -3.47700 24.22400 19.84200
H  -3.27500 23.71800 21.58400
H  -4.26100 28.89900 21.67500
H  -4.81800 27.85400 20.34400
H  -3.31000 28.48200 18.91100
H  -1.92100 28.55400 19.96000
H  -3.00300 29.91100 19.98200
H  -0.19700 30.51500 26.49800
H  -1.31900 30.94000 25.14900
H  -0.15700 29.67400 24.99000
H  -3.83400 28.98000 30.15200
H  -2.02200 26.68700 33.29500
H  -1.65800 28.29800 33.72300
H  -0.57600 27.49700 32.61400

