158

Mg 47.59600 16.50400 28.63100
C  45.60400 16.26200 31.57400
C  49.81100 18.33200 30.50800
C  49.23200 17.02700 25.81700
C  45.04500 14.66500 26.89800
N  47.69200 17.20400 30.80100
C  46.76600 17.00300 31.78800
C  47.18500 17.60700 33.12300
C  48.41500 18.53500 32.74500
C  48.74300 17.95900 31.27500
C  48.17400 20.09900 32.75400
C  47.36900 16.47800 34.20300
C  46.83100 16.82400 35.57200
H  46.65200 18.34100 35.92500
N  49.33300 17.46300 28.25200
C  50.15100 18.16400 29.07500
C  51.40300 18.53900 28.43100
C  51.21800 18.16200 27.06200
C  49.87200 17.58000 26.96800
C  52.53400 19.22000 29.20000
C  52.24100 18.17000 25.95800
O  52.01000 17.83700 24.83200
C  53.66600 18.59000 26.27900
N  47.21600 15.87900 26.64100
C  48.09900 16.21800 25.66500
C  47.64100 15.68300 24.33900
C  46.26900 14.89900 24.66500
C  46.13300 15.16000 26.14300
C  47.29500 16.74200 23.27700
C  46.23100 13.35900 24.16600
C  45.08100 12.94200 23.21500
N  45.68800 15.61600 29.13700
C  44.83100 14.90400 28.29200
C  43.61600 14.67900 29.00200
C  43.85900 15.13300 30.33000
C  45.17100 15.71600 30.33400
C  42.33900 14.07600 28.44300
C  43.32700 15.33200 31.65600
O  42.25100 14.87300 32.10800
C  44.39500 16.04000 32.49900
C  43.74600 17.22400 33.04100
O  43.73300 18.30800 32.44000
O  43.04800 16.93600 34.18700
C  42.11100 17.91100 34.74500
H  50.48200 18.94000 31.11800
H  49.68100 17.26300 24.85000
H  44.29200 14.14900 26.29900
H  46.36100 18.25600 33.41800
H  49.27900 18.30100 33.36800
H  47.25500 20.50900 33.17200
H  48.26300 20.47800 31.73600
H  48.98700 20.45900 33.38600
H  48.43800 16.32200 34.34300
H  46.88500 15.54500 33.91500
H  47.47700 16.43000 36.35600
H  45.79800 16.48900 35.65600
H  52.15200 19.87500 29.98300
H  53.03400 19.82500 28.44400
H  53.31600 18.56900 29.59200
H  54.17000 18.14600 27.13800
H  53.64200 19.67900 26.32100
H  54.27000 18.29300 25.42200
H  48.44900 15.08600 23.91600
H  45.39400 15.45900 24.33500
H  47.70400 17.67800 23.66000
H  46.25200 16.88700 22.99800
H  47.87700 16.42600 22.41100
H  46.08500 12.65700 24.98700
H  47.24000 13.32900 23.75600
H  45.72800 12.72300 22.36600
H  44.34400 13.71700 23.00000
H  44.59600 12.04900 23.60900
H  42.18600 13.05900 28.80600
H  42.37400 13.99100 27.35700
H  41.45900 14.68600 28.64400
H  44.67100 15.37400 33.31600
H  42.55500 18.90700 34.74000
H  41.69800 17.71500 35.73400
H  41.32700 17.97300 33.99000
Mg 9.48500 47.59800 26.40100
C  7.70400 47.74100 29.37400
C  12.19600 48.79300 27.91000
C  11.17600 47.86300 23.35800
C  6.45500 47.12300 24.66200
N  9.81800 48.37100 28.40900
C  9.03700 48.14900 29.51200
C  9.90800 48.33100 30.76900
C  11.17800 49.14500 30.21200
C  11.08300 48.79100 28.70400
C  11.33300 50.64400 30.58400
C  10.35100 46.98300 31.41500
C  10.99500 47.11000 32.86400
H  10.29900 46.36300 34.01100
N  11.51200 48.05100 25.76300
C  12.45400 48.48400 26.57900
C  13.69100 48.63500 25.82400
C  13.41400 48.29100 24.49500
C  11.97200 47.99300 24.52100
C  15.03100 48.92600 26.50500
C  14.36500 48.29400 23.24200
O  13.97700 48.11500 22.04800
C  15.78400 48.31800 23.46800
N  8.87400 47.66500 24.37100
C  9.74800 47.65600 23.35100
C  9.04000 47.30900 22.01400
C  7.63100 46.91600 22.34800
C  7.66200 47.25800 23.90800
C  9.04700 48.60600 21.14500
C  7.38800 45.38100 22.09200
C  7.88800 44.34900 23.12700
N  7.45600 47.41900 26.89200
C  6.37200 47.17900 26.08700
C  5.17800 47.18800 26.86700
C  5.61200 47.35400 28.19200
C  7.01700 47.49100 28.16100
C  3.75400 47.04400 26.41000
C  5.22100 47.49100 29.58200
O  4.13800 47.56400 30.21900
C  6.58900 47.60200 30.35800
C  6.63400 46.43600 31.21400
O  7.02600 45.31800 30.98700
O  6.13200 46.79000 32.45100
C  6.17600 45.75300 33.47100
H  13.03700 49.21800 28.46300
H  11.60700 47.70100 22.36800
H  5.56400 46.61400 24.28900
H  9.47600 48.93500 31.56700
H  12.06500 48.65200 30.60900
H  12.19200 50.77500 31.24100
H  10.41000 50.92000 31.09500
H  11.39100 51.16000 29.62600
H  11.05200 46.41200 30.80600
H  9.44400 46.38200 31.49100
H  11.09600 48.17200 33.09000
H  12.01800 46.73500 32.89900
H  15.39100 49.95000 26.40300
H  15.82900 48.34800 26.03900
H  14.92700 48.71300 27.56900
H  16.27300 48.14100 22.51000
H  15.94400 47.35100 23.94400
H  16.09700 49.19100 24.04100
H  9.56900 46.54100 21.44900
H  6.90800 47.51100 21.78900
H  9.42400 49.41600 21.77000
H  8.10600 48.84500 20.64800
H  9.67600 48.52700 20.25800
H  7.81900 45.06900 21.14000
H  6.30300 45.36200 21.98900
H  8.48800 44.71700 23.96000
H  8.39900 43.60900 22.51200
H  7.04800 43.79600 23.54700
H  3.16500 47.01900 27.32700
H  3.72400 46.14300 25.79700
H  3.45300 47.91000 25.82100
H  6.49600 48.56000 30.87000
H  5.51500 45.93000 34.32000
H  7.22000 45.65700 33.77100
H  5.87600 44.75600 33.14900

