158

Mg 23.74000 -5.80300 45.43100
C  26.09400 -3.58800 43.79500
C  21.43600 -4.57100 43.21600
C  21.91500 -8.49800 46.07900
C  26.45800 -7.24000 47.09100
N  23.80400 -4.23700 43.75700
C  24.86500 -3.50200 43.21200
C  24.39500 -2.64600 41.99300
C  22.82600 -2.62000 42.24800
C  22.64600 -3.94500 43.09300
C  22.30100 -1.34400 42.96500
C  24.88000 -3.18700 40.61100
C  25.53200 -2.30200 39.43800
H  24.94200 -2.37200 38.03800
N  21.87700 -6.43600 44.76500
C  21.00700 -5.75500 43.88100
C  19.70500 -6.42900 43.91500
C  19.83900 -7.64400 44.68400
C  21.26400 -7.57500 45.18200
C  18.57500 -5.82100 43.15900
C  18.80600 -8.74300 44.87500
O  17.64600 -8.47300 44.49400
C  18.94400 -9.98200 45.75300
N  24.11500 -7.71400 46.45500
C  23.19300 -8.59800 46.64500
C  23.67300 -9.82500 47.55100
C  25.12700 -9.26100 47.95400
C  25.28000 -8.00000 47.14500
C  22.67000 -10.15300 48.79600
C  26.26600 -10.30500 47.72300
C  27.16800 -10.61800 48.95200
N  25.80100 -5.42000 45.62800
C  26.72700 -6.09200 46.34300
C  27.99400 -5.42400 46.13300
C  27.85000 -4.49600 45.19500
C  26.48600 -4.52000 44.86300
C  29.32300 -5.86500 46.71000
C  28.51600 -3.49600 44.34900
O  29.77600 -3.35400 44.18200
C  27.36500 -2.80600 43.50000
C  27.33200 -1.39200 43.97500
O  26.54300 -0.90400 44.75300
O  28.19300 -0.58600 43.24800
C  27.70400 0.82600 43.11200
H  20.62100 -4.23300 42.57300
H  21.36300 -9.41100 46.31000
H  27.23800 -7.84100 47.56300
H  24.84300 -1.66200 42.12600
H  22.30300 -2.77200 41.30400
H  21.38000 -0.94100 42.54500
H  23.04700 -0.56900 43.14100
H  22.05700 -1.54600 44.00800
H  23.97200 -3.53800 40.12000
H  25.45600 -4.09100 40.80700
H  26.59100 -2.56100 39.40900
H  25.54000 -1.26200 39.76300
H  18.40600 -6.09600 42.11800
H  18.71000 -4.74600 43.27900
H  17.61900 -6.00700 43.64800
H  18.03200 -10.57000 45.85000
H  19.24300 -9.54500 46.70600
H  19.74400 -10.61600 45.37100
H  23.59800 -10.72000 46.93300
H  25.02400 -8.93800 48.99000
H  22.00500 -9.30200 48.94600
H  23.11700 -10.12500 49.79000
H  22.10300 -11.08000 48.71800
H  26.98400 -9.90400 47.00800
H  25.82200 -11.25300 47.42100
H  28.19800 -10.56900 48.59900
H  26.99800 -11.64000 49.29000
H  26.90700 -9.97200 49.79000
H  29.87300 -6.59800 46.12100
H  29.08600 -6.29700 47.68200
H  29.88900 -4.93400 46.76300
H  27.63400 -2.80300 42.44300
H  26.62400 0.81500 42.96400
H  28.03500 1.21800 42.15000
H  28.01500 1.40600 43.98000
Mg 30.18800 58.33700 39.93700
C  27.10600 56.87600 38.95400
C  31.73100 55.52300 38.93900
C  33.12100 59.97100 40.29900
C  28.54500 61.22900 40.71100
N  29.42100 56.30800 39.22800
C  28.17000 55.93000 38.86300
C  28.17200 54.55400 38.11900
C  29.62200 54.05200 38.44700
C  30.33300 55.35800 38.89900
C  29.83900 53.03000 39.63700
C  27.80600 54.50000 36.57100
C  28.69600 55.40900 35.63600
H  27.86400 56.32900 34.78800
N  32.15300 57.86400 39.57000
C  32.56300 56.61100 39.26400
C  33.98400 56.66400 39.16400
C  34.49100 57.92100 39.54300
C  33.24000 58.61600 39.86800
C  34.73100 55.38000 38.72800
C  35.91100 58.38600 39.44100
O  36.72500 57.52200 39.01800
C  36.34700 59.78500 39.69100
N  30.76900 60.38300 40.25900
C  32.06000 60.74200 40.57000
C  32.10900 62.20800 40.75000
C  30.66300 62.59300 41.08600
C  29.89800 61.30800 40.69100
C  33.10300 62.77400 41.81800
C  30.01400 63.84100 40.43800
C  29.42700 64.83400 41.48700
N  28.25500 58.93900 39.95900
C  27.70800 60.19400 40.28300
C  26.28700 60.17000 40.08600
C  25.98400 58.85900 39.56500
C  27.22800 58.14800 39.47600
C  25.29000 61.23400 40.39900
C  24.88600 57.98100 39.15500
O  23.69700 58.07300 39.17500
C  25.67400 56.73700 38.64000
C  24.99800 55.59800 39.30700
O  24.93000 55.37600 40.49200
O  24.63700 54.79600 38.31000
C  23.95900 53.51000 38.74900
H  32.26300 54.64300 38.57100
H  34.08900 60.47400 40.35800
H  27.92300 62.05100 41.07400
H  27.45300 53.93300 38.65300
H  30.14100 53.70400 37.55300
H  28.93000 53.15700 40.22500
H  30.72000 53.23200 40.24700
H  29.92000 51.99900 39.29100
H  26.74000 54.72600 36.55400
H  27.85000 53.45600 36.26000
H  29.20300 54.74300 34.93700
H  29.40600 56.00700 36.20800
H  34.75800 55.29500 37.64200
H  34.21300 54.46400 39.01500
H  35.75700 55.34800 39.09500
H  35.75600 60.36700 38.98300
H  37.39900 59.94300 39.45700
H  36.32400 60.09800 40.73400
H  32.25300 62.64000 39.76000
H  30.70700 62.51600 42.17300
H  33.87000 62.10800 42.21400
H  32.57800 63.11600 42.71000
H  33.64700 63.55900 41.29300
H  29.18100 63.55900 39.79300
H  30.66000 64.49800 39.85600
H  28.54000 65.34100 41.10800
H  30.18800 65.61200 41.54100
H  29.25300 64.34800 42.44700
H  25.60100 61.62000 41.37000
H  24.25600 60.88800 40.39300
H  25.39400 62.02400 39.65400
H  25.45800 56.62500 37.57800
H  24.07200 52.71600 38.01100
H  22.90100 53.76700 38.79300
H  24.34700 53.05500 39.66000

