158

Mg -1.20100 17.48000 25.76900
C  -1.97400 15.34500 28.57200
C  -2.36200 20.14300 27.69500
C  -0.95300 19.44100 23.12700
C  -0.99500 14.55200 23.86300
N  -1.88200 17.71900 28.03100
C  -2.18900 16.68500 28.91500
C  -2.79900 17.31500 30.24200
C  -3.21500 18.66800 29.66700
C  -2.46300 18.92600 28.34900
C  -4.78500 18.70400 29.33900
C  -1.75200 17.49500 31.39300
C  -2.30800 17.38300 32.74900
H  -1.32600 16.95500 33.80800
N  -1.28600 19.48100 25.54200
C  -1.78800 20.45500 26.41600
C  -1.52200 21.73000 25.88700
C  -1.13000 21.58400 24.51700
C  -1.23700 20.11400 24.30000
C  -1.69300 23.06500 26.65100
C  -0.82500 22.66000 23.49500
O  -0.59100 22.35700 22.31300
C  -0.67600 24.16400 23.84000
N  -0.97900 17.03800 23.83800
C  -0.85000 18.07600 22.99000
C  -0.47000 17.50800 21.58400
C  -0.07500 15.99100 21.95000
C  -0.66000 15.78900 23.32900
C  -1.53800 17.62300 20.41700
C  1.48700 15.68500 21.79500
C  2.44600 16.26000 22.81900
N  -1.47800 15.31600 26.06400
C  -1.35300 14.26300 25.24000
C  -1.29000 12.99800 25.97300
C  -1.56100 13.39000 27.30700
C  -1.69600 14.81500 27.28000
C  -0.86400 11.71200 25.33100
C  -1.72400 12.91200 28.60500
O  -1.68800 11.80200 29.07300
C  -1.88400 14.16400 29.54100
C  -0.71400 14.20100 30.43300
O  0.44800 14.49200 30.15400
O  -1.03000 13.61900 31.57600
C  0.06500 13.45500 32.57600
H  -2.68500 21.02400 28.25400
H  -0.70300 19.94000 22.18800
H  -0.85600 13.67000 23.23400
H  -3.68000 16.76800 30.57800
H  -2.94200 19.55600 30.23600
H  -5.43900 17.90300 29.68300
H  -4.99900 18.79500 28.27400
H  -5.14800 19.65800 29.72200
H  -1.28300 18.47800 31.35100
H  -0.95200 16.76700 31.25500
H  -3.09100 16.62600 32.79900
H  -2.73000 18.33200 33.08000
H  -0.85100 23.71900 26.42200
H  -1.83000 22.97200 27.72800
H  -2.51900 23.61500 26.20200
H  0.23500 24.36200 24.40500
H  -1.59000 24.52700 24.30900
H  -0.47600 24.66400 22.89300
H  0.47800 17.95400 21.28300
H  -0.67800 15.31100 21.34800
H  -1.99800 18.60200 20.55500
H  -2.26700 16.81400 20.45600
H  -0.97200 17.52500 19.49100
H  1.83800 16.11500 20.85800
H  1.56400 14.59900 21.83100
H  1.99000 16.37000 23.80300
H  2.92100 17.18000 22.47900
H  3.24000 15.54600 23.03800
H  -1.77000 11.20600 24.99600
H  -0.30100 11.08600 26.02300
H  -0.21800 11.96800 24.49200
H  -2.78000 14.11500 30.15900
H  0.96000 14.03800 32.36200
H  0.36200 12.41300 32.45000
H  -0.28200 13.59700 33.59900
Mg 47.40400 14.37600 27.41800
C  45.41900 14.27400 30.31400
C  49.61500 16.43200 29.10100
C  49.24600 14.30600 24.64000
C  44.88200 12.54600 25.77100
N  47.50300 15.21900 29.45100
C  46.64100 14.95000 30.53100
C  47.13900 15.65000 31.77500
C  48.24700 16.57600 31.25000
C  48.45600 16.05500 29.80500
C  47.98400 18.16600 31.21100
C  47.54600 14.67300 32.90500
C  47.16200 15.21200 34.28200
H  48.03600 14.83900 35.49500
N  49.19000 15.35400 26.93400
C  49.97100 16.07200 27.79100
C  51.19100 16.43500 27.12600
C  51.14700 15.84000 25.81700
C  49.83400 15.09500 25.72000
C  52.31200 17.23800 27.76700
C  52.07000 15.84500 24.70800
O  51.91500 15.17000 23.66900
C  53.36900 16.65800 24.76000
N  46.93100 13.74600 25.38100
C  47.93500 13.75300 24.46200
C  47.52500 13.13500 23.14000
C  46.15200 12.43100 23.53400
C  45.98700 12.86200 24.99100
C  47.42800 14.08000 21.93100
C  46.21800 10.89600 23.33800
C  46.68600 10.09600 24.55800
N  45.56800 13.57800 27.88100
C  44.63100 12.90500 27.09300
C  43.47900 12.55900 27.91300
C  43.73000 13.07100 29.14900
C  45.01200 13.65600 29.13800
C  42.25400 11.85300 27.57700
C  43.19300 13.29800 30.41700
O  42.12600 13.03200 30.87800
C  44.31500 13.98400 31.34000
C  43.67900 15.15600 32.09100
O  43.06300 16.04100 31.48400
O  43.79500 15.14600 33.43600
C  42.97300 16.19100 34.09400
H  50.24900 17.17600 29.58800
H  49.76900 14.18600 23.69000
H  44.22400 11.88200 25.20800
H  46.29500 16.32700 31.91100
H  49.22900 16.32000 31.64600
H  47.20700 18.50300 31.89700
H  47.65600 18.49000 30.22400
H  48.85800 18.80700 31.32100
H  48.61600 14.48000 32.82900
H  47.00800 13.73200 32.79300
H  46.19900 14.75400 34.50800
H  47.05200 16.29300 34.37100
H  52.33200 17.25700 28.85600
H  52.12700 18.29600 27.57900
H  53.34100 17.02300 27.47700
H  54.14900 16.09700 25.27600
H  53.24500 17.65900 25.17100
H  53.69300 16.83000 23.73400
H  48.28000 12.40500 22.85000
H  45.30800 12.82500 22.96700
H  47.87500 15.03700 22.19900
H  46.38300 14.14600 21.62600
H  48.02600 13.66000 21.12200
H  46.88800 10.54800 22.55300
H  45.20500 10.58600 23.08000
H  47.16200 9.15800 24.27100
H  45.83100 9.59900 25.01600
H  47.41600 10.58200 25.20600
H  42.04000 12.10800 26.53900
H  41.47800 12.29000 28.20600
H  42.24500 10.78900 27.81200
H  44.65000 13.28500 32.10600
H  41.99600 16.17300 33.61100
H  43.56200 17.10700 34.06000
H  42.88900 15.93400 35.15000

