158

Mg -1.79500 17.49500 25.42900
C  -2.13700 15.34800 28.35200
C  -1.90900 20.18100 27.44500
C  -1.47700 19.32300 22.74600
C  -1.67400 14.47000 23.41800
N  -1.93500 17.59900 27.66500
C  -2.05000 16.70200 28.67500
C  -2.33700 17.34100 30.03600
C  -2.61600 18.85600 29.63300
C  -2.09800 18.92000 28.18200
C  -4.13800 19.25700 29.74900
C  -1.14800 17.00900 31.02900
C  -1.19400 17.84400 32.38300
H  -1.09000 17.02900 33.73200
N  -1.56900 19.50000 25.16700
C  -1.57000 20.43400 26.12700
C  -1.30300 21.71500 25.47300
C  -1.22700 21.51600 24.08000
C  -1.42100 20.04400 23.91600
C  -1.22800 22.93600 26.20500
C  -1.11900 22.47900 22.94000
O  -1.12300 22.02300 21.81800
C  -0.91800 23.95900 23.23300
N  -1.58000 16.93600 23.33400
C  -1.61500 17.94700 22.44100
C  -1.74900 17.42500 21.00800
C  -1.39200 15.93800 21.17600
C  -1.63200 15.72700 22.70100
C  -3.17100 17.87200 20.39000
C  -0.00100 15.56700 20.67100
C  1.25000 15.62300 21.55800
N  -1.94000 15.39700 25.79100
C  -1.78900 14.29600 24.87100
C  -1.90400 13.12200 25.57300
C  -2.02300 13.43000 26.90200
C  -2.01900 14.86100 27.03800
C  -1.83000 11.73600 25.03900
C  -2.16400 12.84200 28.22900
O  -2.16400 11.67600 28.62500
C  -2.25300 14.09300 29.21600
C  -1.01600 13.74100 29.98600
O  0.09300 13.84200 29.44100
O  -1.24300 13.37000 31.31400
C  -0.09300 12.99700 32.17400
H  -1.95700 21.14400 27.95700
H  -1.69200 19.91400 21.85300
H  -1.55400 13.63200 22.72800
H  -3.21900 16.91000 30.51100
H  -2.09000 19.56500 30.27300
H  -4.25400 19.66000 30.75500
H  -4.85000 18.43100 29.72700
H  -4.54400 19.95200 29.01400
H  -0.20700 17.21500 30.52000
H  -1.27800 15.94500 31.22900
H  -2.06500 18.49900 32.41900
H  -0.40200 18.58300 32.25500
H  -0.79800 22.86200 27.20300
H  -2.24400 23.32900 26.26000
H  -0.56700 23.67300 25.74900
H  -0.86100 24.59800 22.35200
H  -0.00400 23.88200 23.82100
H  -1.78000 24.32100 23.79200
H  -1.02600 17.85000 20.31200
H  -2.12800 15.33300 20.64800
H  -3.16100 18.07800 19.32000
H  -3.59600 18.77300 20.83300
H  -3.81600 17.02300 20.61800
H  0.14300 16.01700 19.68800
H  -0.02800 14.53700 20.31500
H  1.92800 16.14600 20.88400
H  1.52800 14.61700 21.87300
H  1.05600 16.12700 22.50500
H  -2.35900 11.76100 24.08700
H  -2.32400 11.06300 25.74000
H  -0.79200 11.52000 24.78600
H  -3.16500 13.99100 29.80500
H  0.32300 13.88300 32.65300
H  0.61200 12.46900 31.53100
H  -0.44600 12.33800 32.96600
Mg 30.30100 59.37800 39.15700
C  27.18300 58.06200 38.25500
C  31.74900 56.53500 38.02100
C  33.15100 60.99400 39.44600
C  28.65900 62.49600 39.87200
N  29.55800 57.53200 38.21900
C  28.22000 57.20300 37.92300
C  28.18600 55.81100 37.20200
C  29.63100 55.22500 37.36700
C  30.36300 56.49300 37.94500
C  29.72100 53.94600 38.28400
C  27.67700 55.93800 35.71400
C  26.77600 54.79200 35.18100
H  25.87100 55.05400 33.98100
N  32.17400 58.86900 38.87300
C  32.64400 57.63200 38.42100
C  34.07900 57.60200 38.48700
C  34.52500 58.88500 38.90000
C  33.27400 59.66900 39.10100
C  34.82900 56.50100 37.97900
C  35.93600 59.21400 38.94100
O  36.78000 58.44600 38.57600
C  36.56500 60.45100 39.55200
N  30.82500 61.44200 39.60500
C  32.07100 61.81100 39.74400
C  32.22800 63.34300 40.03100
C  30.75000 63.73000 40.42400
C  30.03700 62.47900 39.85800
C  33.18400 63.82300 41.20200
C  30.26000 65.02300 39.61500
C  29.24200 65.93700 40.29900
N  28.36600 60.21100 39.06500
C  27.87800 61.44800 39.37500
C  26.47300 61.52700 39.28800
C  26.11000 60.19500 38.90100
C  27.33700 59.44200 38.75300
C  25.51800 62.63400 39.65400
C  25.09200 59.29100 38.50100
O  23.87800 59.52000 38.43000
C  25.71600 57.96100 38.11500
C  25.19700 56.83600 38.92000
O  25.18400 56.73200 40.14100
O  24.70700 55.87300 38.05000
C  24.34700 54.61100 38.75300
H  32.15700 55.56800 37.72000
H  34.13900 61.41500 39.64400
H  28.24100 63.47200 40.12900
H  27.43800 55.26200 37.77500
H  30.12100 55.01500 36.41500
H  28.77100 53.69400 38.75500
H  30.54400 54.09600 38.98300
H  29.99600 53.16900 37.57000
H  28.58900 55.92600 35.11600
H  27.09600 56.84500 35.54800
H  26.18700 54.68100 36.09100
H  27.40400 53.91100 35.05200
H  35.57300 56.80300 37.24100
H  34.22700 55.65800 37.64100
H  35.32900 56.14600 38.87900
H  37.53000 60.16700 39.97100
H  35.90300 60.75100 40.36400
H  36.55600 61.31300 38.88500
H  32.61000 63.76100 39.10000
H  30.61400 63.76300 41.50500
H  33.91000 63.01900 41.32800
H  32.74600 64.04200 42.17500
H  33.65000 64.67900 40.71300
H  29.73400 64.64800 38.73600
H  31.10700 65.58800 39.22700
H  29.26300 65.78200 41.37800
H  28.25600 65.61400 39.96400
H  29.55900 66.94400 40.03100
H  24.52200 62.27500 39.39600
H  25.93000 63.50600 39.14800
H  25.62300 62.72800 40.73500
H  25.47900 57.79600 37.06400
H  24.05600 53.88300 37.99700
H  23.44900 54.76400 39.35200
H  25.07700 54.15600 39.42200

