158

Mg 53.16700 23.98800 44.67100
C  50.52400 26.25600 43.89200
C  51.34000 21.56400 43.30400
C  56.05200 22.31000 44.45000
C  55.02200 26.95900 45.37700
N  51.16100 23.93000 43.81000
C  50.28200 24.96000 43.53900
C  48.99500 24.37100 42.90100
C  49.08000 22.85900 43.33000
C  50.62200 22.73300 43.45200
C  48.41800 22.59600 44.78400
C  48.83100 24.73100 41.38000
C  50.16200 24.70700 40.52300
H  50.92200 23.39700 40.26100
N  53.56700 22.09700 44.08000
C  52.66800 21.22800 43.61300
C  53.33300 19.99000 43.45800
C  54.72300 20.11400 43.71700
C  54.85400 21.55000 44.16000
C  52.61400 18.74000 42.88100
C  55.86600 19.04300 43.64900
O  55.62600 18.00000 43.13000
C  57.18200 19.18300 44.24100
N  55.25600 24.52100 44.88200
C  56.25600 23.64800 44.75000
C  57.65300 24.38700 44.74500
C  57.29200 25.86300 45.06400
C  55.75200 25.82100 45.13600
C  58.65900 23.75700 45.83600
C  57.80000 26.92300 44.09500
C  57.20800 27.11700 42.63800
N  52.85500 26.23300 44.83000
C  53.63600 27.20300 45.30800
C  52.81700 28.46900 45.47500
C  51.57900 28.14000 44.86200
C  51.65800 26.77000 44.48500
C  53.28900 29.71800 46.16400
C  50.23400 28.56000 44.49500
O  49.77800 29.70100 44.53000
C  49.59300 27.43700 43.75100
C  49.40900 27.91900 42.36800
O  50.22000 27.80800 41.44800
O  48.11900 28.39000 42.20400
C  47.79800 28.85900 40.82000
H  50.69100 20.74400 42.99100
H  57.03000 21.83100 44.54000
H  55.53200 27.91700 45.26000
H  48.11900 24.83200 43.35900
H  48.70900 22.15800 42.58300
H  48.96800 23.25200 45.45900
H  48.65000 21.57100 45.07400
H  47.33700 22.70100 44.70000
H  48.17400 25.56900 41.14500
H  48.33500 23.90900 40.86600
H  50.77500 25.37100 41.13200
H  49.91600 25.11800 39.54400
H  51.52900 18.76300 42.98200
H  52.83200 17.82700 43.43600
H  52.66500 18.58700 41.80300
H  57.77000 19.78800 43.55000
H  57.64500 18.19700 44.23700
H  57.08000 19.58200 45.25000
H  58.10700 24.35800 43.75400
H  57.58400 26.06200 46.09500
H  58.14400 22.87000 46.20400
H  58.84200 24.41100 46.68800
H  59.60200 23.45400 45.38100
H  58.85000 26.78200 43.84000
H  57.88100 27.86800 44.63100
H  56.88500 28.14900 42.50800
H  56.43500 26.37000 42.45300
H  57.94800 27.05700 41.84000
H  53.64100 30.34600 45.34600
H  54.07800 29.51400 46.88700
H  52.39600 30.23600 46.51500
H  48.59900 27.20900 44.13400
H  46.84400 29.37300 40.69600
H  47.87500 28.03600 40.11000
H  48.58400 29.55900 40.53700
Mg -12.13200 37.66800 41.76500
C  -9.52300 35.25400 41.24300
C  -10.07600 40.04300 40.51600
C  -14.82200 39.78200 41.15400
C  -14.24000 35.10400 42.60200
N  -10.11600 37.55700 40.80000
C  -9.18100 36.57700 40.76200
C  -7.84200 37.08400 40.16900
C  -7.97400 38.61500 40.18300
C  -9.43000 38.76000 40.61000
C  -6.85300 39.38100 40.99300
C  -7.62700 36.31300 38.81400
C  -6.34800 35.42800 38.65800
H  -5.24500 35.83800 37.70000
N  -12.38200 39.75700 41.11600
C  -11.37300 40.50300 40.64500
C  -11.90100 41.75800 40.20300
C  -13.32900 41.72300 40.25300
C  -13.61600 40.42700 40.88600
C  -11.02600 42.82600 39.67900
C  -14.33900 42.82400 39.75100
O  -13.94500 43.91000 39.21700
C  -15.85700 42.60900 39.87500
N  -14.28100 37.49600 41.82200
C  -15.15100 38.50800 41.58700
C  -16.66300 37.85500 41.61600
C  -16.32800 36.42600 42.10300
C  -14.83900 36.28400 42.12400
C  -17.58500 38.81700 42.45600
C  -16.93200 35.26500 41.15300
C  -18.15900 34.57300 41.83200
N  -11.97800 35.61700 41.87800
C  -12.89100 34.71200 42.35600
C  -12.20900 33.46100 42.68400
C  -10.83300 33.72400 42.28800
C  -10.78600 34.97900 41.74100
C  -12.79800 32.27800 43.33000
C  -9.50400 33.05400 42.27000
O  -9.21700 31.88600 42.64100
C  -8.59400 34.04100 41.50200
C  -7.40800 34.39100 42.37300
O  -6.24200 34.03600 42.15600
O  -7.79600 34.98300 43.56200
C  -6.80600 34.81800 44.67400
H  -9.38300 40.74200 40.04400
H  -15.70400 40.39200 40.95100
H  -14.80000 34.22300 42.92200
H  -7.08200 36.73500 40.86900
H  -7.79500 39.12300 39.23500
H  -6.37600 40.07400 40.30100
H  -6.11300 38.69900 41.41100
H  -7.32100 39.96100 41.78900
H  -7.47500 37.15200 38.13400
H  -8.50000 35.73600 38.51000
H  -6.73300 34.46800 38.31400
H  -5.92200 35.16200 39.62500
H  -11.53800 43.08000 38.75100
H  -10.02900 42.50800 39.37300
H  -11.13700 43.71100 40.30600
H  -16.34000 43.55300 39.62100
H  -16.02800 42.36600 40.92300
H  -16.31700 41.87100 39.21800
H  -17.05800 37.86800 40.60000
H  -16.74900 36.31900 43.10300
H  -17.12500 39.73700 42.81600
H  -18.02000 38.19000 43.23500
H  -18.30000 39.10100 41.68400
H  -16.27600 34.41100 40.97800
H  -17.17600 35.69000 40.17900
H  -18.75400 35.27000 42.42200
H  -17.77100 33.75000 42.43100
H  -18.76400 34.13400 41.03900
H  -12.10700 31.76600 43.99900
H  -13.11100 31.51900 42.61300
H  -13.77600 32.49300 43.75900
H  -8.20800 33.67200 40.55200
H  -6.67500 33.76400 44.91800
H  -7.09800 35.23600 45.63800
H  -5.85400 35.26400 44.38600

