158

Mg 47.92400 25.70800 28.58800
C  48.86800 27.80600 31.13500
C  46.65300 23.55900 31.02400
C  47.41900 23.46400 26.23000
C  49.58300 27.84300 26.33600
N  47.74300 25.71000 30.76500
C  48.11600 26.77600 31.57200
C  47.85300 26.46700 33.02700
C  47.22600 25.00800 32.92100
C  47.25900 24.69300 31.49100
C  47.81100 23.86600 33.81200
C  46.81100 27.47600 33.66700
C  47.16600 27.92100 35.02100
H  46.06700 27.77600 36.11300
N  47.01000 23.82000 28.61700
C  46.58700 23.13100 29.69800
C  45.86200 21.96400 29.21500
C  45.94000 22.01400 27.80100
C  46.83900 23.13900 27.49200
C  45.21500 21.00700 30.06700
C  45.32300 21.11300 26.62900
O  45.36100 21.41700 25.40800
C  44.53200 19.95400 27.09000
N  48.76500 25.55100 26.64900
C  48.23000 24.52600 25.86300
C  48.50000 24.75900 24.32200
C  49.05500 26.17700 24.34700
C  49.11000 26.63000 25.86600
C  49.38100 23.57200 23.83100
C  48.26600 27.08100 23.37700
C  48.75200 27.20500 21.94900
N  49.08200 27.48300 28.63500
C  49.61600 28.28100 27.67000
C  50.09700 29.47000 28.26200
C  49.94800 29.30400 29.66400
C  49.26400 28.09300 29.78700
C  50.62300 30.66700 27.52600
C  50.16000 29.90500 30.95300
O  50.75900 30.93300 31.15000
C  49.43400 28.97500 32.00600
C  50.36900 28.54000 32.96500
O  51.25000 27.74200 32.76900
O  50.33300 29.30500 34.13400
C  51.35100 29.31500 35.15900
H  46.28800 22.90400 31.81800
H  47.19600 22.84000 25.36200
H  49.89300 28.53200 25.54700
H  48.78500 26.56000 33.58500
H  46.19500 25.02500 33.27700
H  48.47700 24.31500 34.54900
H  48.28200 23.05400 33.25700
H  46.96100 23.35900 34.27000
H  45.79000 27.11100 33.78200
H  46.72500 28.39800 33.09300
H  47.32300 29.00000 34.99700
H  48.02400 27.41000 35.45900
H  45.72300 20.04600 29.99000
H  44.19600 20.94200 29.68600
H  45.17200 21.28100 31.12100
H  44.16300 19.33000 26.27700
H  43.79200 20.51700 27.65900
H  45.12800 19.30800 27.73500
H  47.49500 24.74700 23.90100
H  50.04700 26.21000 23.89500
H  49.61800 22.94100 24.68800
H  50.31000 23.80000 23.30700
H  48.83400 22.87000 23.20200
H  48.19000 28.06700 23.83500
H  47.21600 26.79000 23.40100
H  49.43800 26.39400 21.70400
H  49.22000 28.16700 21.74100
H  47.88800 27.08000 21.29700
H  51.68900 30.69700 27.75300
H  50.19200 31.51400 28.06000
H  50.46100 30.62300 26.44900
H  48.71600 29.56900 32.57100
H  51.89200 30.21300 34.86000
H  51.98200 28.43000 35.24500
H  50.88700 29.58600 36.10700
Mg 27.35800 49.73400 26.91700
C  25.49000 50.92800 29.62600
C  29.93800 49.16600 29.03600
C  29.57600 49.33900 24.30600
C  25.01600 51.10600 24.81600
N  27.69500 50.15700 29.10200
C  26.71300 50.30200 30.00000
C  27.19900 50.18300 31.40800
C  28.64300 49.61400 31.28000
C  28.76400 49.64100 29.70800
C  29.81600 50.31300 32.06100
C  26.17900 49.46700 32.44200
C  25.80400 50.31700 33.64500
H  26.48300 50.03400 34.93000
N  29.30800 49.05500 26.71900
C  30.19500 48.93100 27.72600
C  31.40500 48.36000 27.26200
C  31.35200 48.38700 25.87000
C  30.03400 48.95600 25.55100
C  32.53300 47.82400 28.01400
C  32.42100 48.05000 24.88400
O  32.32100 48.29800 23.69300
C  33.72400 47.42200 25.28300
N  27.40400 50.26100 24.83000
C  28.33400 49.91600 23.93600
C  27.83500 50.08600 22.50800
C  26.32500 50.27300 22.70600
C  26.19300 50.64800 24.19200
C  28.57500 51.22900 21.78600
C  25.36200 49.20000 22.22000
C  24.02200 49.69200 21.60000
N  25.58500 50.72400 27.08900
C  24.71600 51.21600 26.14600
C  23.55800 51.80800 26.76000
C  23.75300 51.71900 28.17000
C  25.03500 51.05700 28.28400
C  22.42100 52.45300 26.08500
C  23.25400 51.96400 29.54600
O  22.19300 52.42100 29.94400
C  24.36300 51.45300 30.51000
C  24.78700 52.70200 31.23000
O  25.85000 53.29200 31.04300
O  23.88800 53.09900 32.22400
C  24.42300 54.03500 33.15200
H  30.69900 48.81600 29.73700
H  30.27200 49.15200 23.48600
H  24.19100 51.46800 24.20000
H  27.35100 51.17800 31.82500
H  28.71200 48.55200 31.51700
H  30.52500 50.74100 31.35200
H  30.27400 49.52100 32.65400
H  29.47100 51.06600 32.76900
H  26.64500 48.54100 32.78100
H  25.22400 49.17300 32.00600
H  24.76800 50.02600 33.81600
H  26.00200 51.38100 33.51200
H  32.31100 47.57200 29.05100
H  33.40900 48.47000 28.07700
H  32.84600 46.88200 27.56300
H  33.55100 46.42800 25.69600
H  34.17400 48.10600 26.00300
H  34.29500 47.38400 24.35500
H  28.05100 49.16400 21.97000
H  26.07300 51.27100 22.34800
H  28.98200 50.97600 20.80700
H  29.42400 51.61300 22.35100
H  27.94700 52.11400 21.68100
H  24.94500 48.70200 23.09600
H  25.67700 48.26700 21.75100
H  24.23200 49.99900 20.57500
H  23.67000 50.58600 22.11500
H  23.22600 48.95800 21.72300
H  21.86700 51.81800 25.39400
H  22.87800 53.29000 25.55600
H  21.81900 52.77500 26.93400
H  23.92800 50.72300 31.19200
H  24.87000 53.35600 33.87800
H  23.63100 54.66100 33.56300
H  25.19900 54.74600 32.86900

