158

Mg 35.27700 48.59900 25.19800
C  35.70200 46.73100 28.11000
C  34.62600 51.32600 27.18600
C  34.74200 50.28900 22.45500
C  35.89000 45.62100 23.36900
N  34.85500 48.89800 27.35300
C  35.26200 48.07100 28.35900
C  35.35500 48.72500 29.73500
C  34.55500 50.09200 29.42700
C  34.65700 50.13300 27.91200
C  33.10900 50.20000 30.01300
C  36.80600 48.97000 30.26900
C  37.00600 49.14500 31.76600
H  35.84800 49.03100 32.78300
N  34.78800 50.53600 24.86800
C  34.60500 51.48100 25.79000
C  34.45500 52.77600 25.14400
C  34.46000 52.57900 23.75700
C  34.64300 51.04100 23.61100
C  34.38300 54.18700 25.74500
C  34.22000 53.55200 22.54500
O  34.42200 53.20100 21.36400
C  33.79900 54.92400 22.77400
N  35.21500 48.04600 23.19000
C  35.06800 48.95600 22.26800
C  35.42700 48.43600 20.86700
C  35.71100 46.89200 21.13900
C  35.57800 46.82000 22.65900
C  34.24200 48.52200 19.90000
C  37.15200 46.48500 20.69700
C  38.34400 47.00100 21.53300
N  35.52200 46.53900 25.59700
C  35.90000 45.49100 24.80100
C  36.50000 44.34700 25.59000
C  36.35600 44.83500 26.89400
C  35.76400 46.14200 26.87100
C  37.08900 43.06600 25.07000
C  36.72900 44.43600 28.23600
O  37.27300 43.40500 28.65100
C  36.27300 45.67700 29.08600
C  35.12300 45.24700 30.01500
O  33.91100 45.24600 29.74800
O  35.62900 44.94100 31.18500
C  34.69600 44.77200 32.35300
H  34.48500 52.24000 27.76700
H  34.63100 50.79500 21.49300
H  36.15900 44.81700 22.68200
H  34.67100 48.10600 30.31700
H  35.08200 50.99600 29.73100
H  32.39900 50.56100 29.26900
H  32.97300 50.86500 30.86600
H  32.82300 49.24600 30.45700
H  37.17100 49.95200 29.96700
H  37.46600 48.19300 29.88100
H  37.53100 50.07800 31.97100
H  37.66200 48.37100 32.16400
H  35.32500 54.70100 25.55500
H  34.31400 54.11000 26.83000
H  33.53300 54.83700 25.53900
H  32.79400 54.83000 23.18400
H  33.71000 55.42500 21.80900
H  34.54800 55.49200 23.32600
H  36.32900 48.92200 20.49400
H  34.98000 46.23400 20.67000
H  34.26400 47.65800 19.23600
H  34.36800 49.45900 19.35700
H  33.29200 48.51800 20.43400
H  37.23800 46.80200 19.65800
H  37.14300 45.40300 20.56700
H  39.27500 47.10500 20.97500
H  38.53000 46.26100 22.31100
H  38.11600 47.95300 22.01300
H  37.00000 42.95400 23.98900
H  36.62700 42.21800 25.57600
H  38.15000 43.07500 25.32000
H  37.11200 46.10400 29.63500
H  33.80200 45.38100 32.22400
H  35.31700 45.09900 33.18700
H  34.51700 43.71100 32.53100
Mg 8.94100 48.43100 25.88700
C  6.83600 49.11700 28.75600
C  11.53900 49.80500 27.77500
C  10.81400 48.14700 23.30200
C  5.91500 48.21400 24.03000
N  9.14900 49.24000 28.00100
C  8.17300 49.26300 28.99300
C  8.81100 49.62700 30.34900
C  10.14300 50.34700 29.91000
C  10.29900 49.73700 28.47800
C  9.98300 51.89400 29.82100
C  9.10800 48.41600 31.28600
C  9.38400 48.81800 32.80800
H  8.89200 47.90300 33.88200
N  10.91100 48.65800 25.66000
C  11.82300 49.24900 26.54000
C  13.10200 49.22700 26.00700
C  12.99000 48.66500 24.67700
C  11.51600 48.43700 24.49000
C  14.37500 49.49900 26.83900
C  14.00500 48.30700 23.62400
O  13.77600 47.70400 22.54700
C  15.45000 48.74800 23.83900
N  8.42300 48.35400 23.91000
C  9.42000 48.11600 23.11500
C  8.85700 47.80900 21.67100
C  7.33700 47.66400 21.92500
C  7.22000 48.14300 23.35600
C  9.18100 48.84800 20.58100
C  6.71000 46.21500 21.77800
C  5.51400 46.26900 20.81700
N  6.70200 48.57000 26.26600
C  5.64900 48.40100 25.39500
C  4.42600 48.71800 26.13800
C  4.89800 48.89100 27.49400
C  6.27100 48.81000 27.49300
C  3.03100 48.61200 25.58300
C  4.43300 49.17800 28.86200
O  3.28800 49.21600 29.28500
C  5.70600 49.45000 29.70500
C  5.65300 48.57100 30.83100
O  5.57100 47.36200 30.85300
O  5.56200 49.38300 31.94200
C  4.94200 48.74400 33.16700
H  12.26900 50.26800 28.44300
H  11.45800 48.22300 22.42400
H  5.12200 48.14800 23.28300
H  8.19000 50.33000 30.90400
H  11.01100 50.01100 30.47800
H  9.06000 52.24100 30.28400
H  10.08000 52.13300 28.76200
H  10.83800 52.29700 30.36400
H  9.95000 47.90000 30.82600
H  8.27600 47.71500 31.22300
H  8.78700 49.72500 32.90000
H  10.44200 48.90600 33.05500
H  14.21100 49.87800 27.84800
H  14.99000 50.12000 26.18700
H  14.91600 48.56100 26.96400
H  15.54500 49.71600 23.34700
H  16.20800 48.21000 23.27100
H  15.79500 48.87800 24.86500
H  9.22800 46.90500 21.19000
H  6.81500 48.40200 21.31600
H  9.52400 49.72300 21.13300
H  8.43100 49.04200 19.81300
H  10.07500 48.60200 20.00800
H  6.37500 45.92000 22.77200
H  7.52900 45.62700 21.36400
H  4.76200 45.72300 21.38600
H  5.78100 45.84000 19.85100
H  5.07800 47.25800 20.67500
H  2.90900 47.57800 25.26000
H  2.88600 49.39100 24.83500
H  2.35600 48.88800 26.39300
H  5.77000 50.46200 30.10300
H  4.40900 49.37000 33.88300
H  5.79900 48.22800 33.60000
H  4.19300 47.99400 32.91300

