158

Mg 47.80200 25.18800 28.33400
C  48.56200 27.39200 30.89300
C  46.59200 22.88400 30.88500
C  47.21300 22.91500 26.05700
C  49.34000 27.22900 25.97700
N  47.48400 25.16900 30.62400
C  47.82100 26.26500 31.38700
C  47.25200 26.11600 32.84700
C  46.78600 24.57600 32.90100
C  46.96900 24.12700 31.41800
C  47.51900 23.65100 33.93800
C  46.07600 27.08200 33.13500
C  46.20800 27.96100 34.41200
H  45.01300 27.80500 35.34400
N  46.77200 23.34100 28.41500
C  46.50300 22.52900 29.55400
C  46.10800 21.26900 29.02200
C  46.15500 21.27000 27.58500
C  46.73900 22.57100 27.30500
C  45.84100 20.09200 29.94000
C  45.71400 20.19000 26.56000
O  45.83200 20.31700 25.33000
C  45.03100 18.97500 27.07300
N  48.24100 25.06400 26.30300
C  47.88300 24.01500 25.55200
C  47.99000 24.29800 24.07300
C  48.70700 25.67900 24.04600
C  48.82500 25.99200 25.56900
C  48.78900 23.29300 23.22300
C  48.00200 26.70400 23.26200
C  48.78000 27.43000 22.16100
N  48.79900 26.96900 28.43600
C  49.38900 27.69800 27.37100
C  49.85500 28.91000 27.95900
C  49.50500 28.87200 29.31500
C  48.90500 27.65800 29.55900
C  50.45100 30.08500 27.18400
C  49.49300 29.58400 30.54800
O  49.90100 30.71700 30.79100
C  48.80200 28.70500 31.56000
C  49.58900 28.72000 32.86400
O  50.72600 28.29400 33.01900
O  48.88400 29.34000 33.82400
C  49.59500 29.74300 35.03400
H  46.17300 22.27100 31.68500
H  47.10300 22.26900 25.18300
H  49.84500 27.73400 25.15100
H  48.10000 26.30300 33.50600
H  45.73200 24.47600 33.16200
H  48.04900 24.30500 34.63100
H  48.34100 23.09300 33.48900
H  46.80200 23.04200 34.49000
H  45.13400 26.53500 33.17900
H  46.02800 27.87000 32.38400
H  46.13900 29.02800 34.20200
H  47.05800 27.69500 35.04100
H  46.43100 19.23300 29.61900
H  44.84300 19.67600 29.80000
H  46.12500 20.28300 30.97500
H  44.06500 19.23100 27.50800
H  45.60100 18.33900 27.74900
H  44.83100 18.27200 26.26400
H  46.98700 24.28000 23.64700
H  49.69900 25.47900 23.64200
H  48.04600 22.81600 22.58400
H  49.16100 22.50800 23.88100
H  49.66200 23.64300 22.67200
H  47.75100 27.52600 23.93300
H  47.09300 26.28100 22.83400
H  48.37900 28.44000 22.06900
H  48.45000 26.97000 21.23000
H  49.84500 27.34700 22.37700
H  49.78800 30.47800 26.41400
H  51.33200 29.70500 26.66700
H  50.70700 30.87100 27.89400
H  47.79900 29.09400 31.73200
H  49.67900 28.90300 35.72400
H  48.99700 30.48800 35.55800
H  50.58700 30.10200 34.76000
Mg 49.81000 46.23800 43.23700
C  46.60600 46.78500 41.96900
C  49.85100 43.10800 41.79200
C  53.17700 46.09100 43.74000
C  49.82900 49.47000 44.54800
N  48.33600 45.12200 41.91700
C  47.06700 45.47000 41.58400
C  46.32600 44.30500 40.90100
C  47.30900 43.06700 41.15600
C  48.64000 43.81200 41.53600
C  46.75300 42.03400 42.15900
C  46.13900 44.68000 39.38200
C  44.72700 44.42300 38.85500
H  44.63000 43.35700 37.75200
N  51.30100 44.72500 42.91900
C  51.08400 43.53100 42.32000
C  52.26700 42.72900 42.41300
C  53.28900 43.54000 42.96700
C  52.65700 44.88300 43.19200
C  52.32300 41.23300 41.96500
C  54.70900 43.06000 43.23700
O  54.99900 41.87800 43.11200
C  55.68500 43.94200 43.84100
N  51.32800 47.66000 43.72600
C  52.54800 47.25800 44.07400
C  53.33800 48.32500 44.85100
C  52.19900 49.33000 45.25400
C  51.09700 48.81600 44.38800
C  54.19000 47.71000 46.07400
C  52.46000 50.83500 45.07800
C  52.10100 51.75200 46.26000
N  48.56400 47.88800 43.22500
C  48.62700 49.10200 43.86700
C  47.42900 49.88100 43.56200
C  46.59900 49.00700 42.84600
C  47.31900 47.78200 42.64400
C  47.19600 51.28200 43.89700
C  45.29100 48.88800 42.21700
O  44.33300 49.65300 42.05800
C  45.29000 47.45100 41.54600
C  44.08200 46.68500 42.09500
O  44.15500 46.11000 43.22500
O  42.98900 46.80000 41.37700
C  41.72700 46.20300 41.84600
H  49.80400 42.04600 41.54000
H  54.24200 46.00900 43.96400
H  49.82500 50.34100 45.20700
H  45.36400 44.14400 41.38800
H  47.42400 42.63400 40.16200
H  47.01500 41.06700 41.73200
H  45.67000 42.11000 42.25300
H  47.30300 42.11900 43.09700
H  46.84700 44.23200 38.68500
H  46.23200 45.76500 39.40600
H  44.23400 45.28000 38.39600
H  44.03500 44.10900 39.63700
H  51.47600 40.92900 41.35000
H  52.31400 40.54100 42.80700
H  53.19500 41.07100 41.33200
H  56.57000 43.38000 44.14100
H  55.30900 44.44800 44.73000
H  55.84500 44.70000 43.07400
H  54.06800 48.75800 44.16600
H  51.83300 49.16700 46.26800
H  53.87700 48.30600 46.93000
H  55.26600 47.82200 45.94600
H  53.83800 46.69800 46.27600
H  51.98400 51.25500 44.19200
H  53.53400 50.96300 44.94400
H  51.58900 52.63900 45.88500
H  52.98200 52.09200 46.80400
H  51.44200 51.34000 47.02400
H  48.03700 51.73900 44.42000
H  46.25900 51.30100 44.45300
H  47.02600 51.90300 43.01800
H  45.16200 47.62900 40.47900
H  41.90600 45.37100 42.52600
H  41.18700 45.68500 41.05400
H  41.16900 46.98100 42.36700

