158

Mg 27.02000 49.95000 26.04200
C  25.49700 51.45900 28.67200
C  29.81000 49.35700 27.96500
C  28.80000 49.13800 23.17800
C  24.51100 51.28100 23.91500
N  27.55300 50.48100 28.04300
C  26.70200 50.94500 28.99000
C  27.08100 50.55100 30.38400
C  28.56600 50.12300 30.15100
C  28.65000 49.95700 28.67100
C  29.75900 50.93000 30.76900
C  26.17100 49.44100 31.11700
C  25.64000 49.64400 32.55800
H  26.48000 50.37400 33.62000
N  28.99900 49.22900 25.66800
C  29.97500 49.03400 26.59900
C  31.13100 48.51300 26.00200
C  30.94600 48.49000 24.59200
C  29.48200 48.96500 24.42200
C  32.25500 48.05400 26.81700
C  31.94200 48.17500 23.56100
O  31.63300 48.15800 22.36700
C  33.34700 47.82200 23.92000
N  26.76500 50.24800 23.82400
C  27.53400 49.61600 22.92900
C  26.91000 49.48200 21.49200
C  25.50600 50.15400 21.77500
C  25.52000 50.53900 23.26400
C  27.64200 50.23900 20.31300
C  24.27900 49.23200 21.63600
C  23.01000 49.98200 21.11400
N  25.33600 51.11400 26.24700
C  24.39500 51.61000 25.29500
C  23.33900 52.33300 25.97600
C  23.64100 52.25900 27.33100
C  24.88500 51.49600 27.43500
C  22.01800 52.76800 25.47100
C  23.22400 52.56000 28.68500
O  22.16200 53.04200 29.10400
C  24.49300 52.12800 29.61500
C  25.00300 53.22700 30.46800
O  25.87400 53.95800 30.12300
O  24.27400 53.34000 31.59300
C  24.72500 54.13700 32.69600
H  30.60300 49.14700 28.68600
H  29.35900 48.71200 22.34200
H  23.79400 51.58600 23.14900
H  27.09500 51.47800 30.95800
H  28.72500 49.11300 30.53000
H  30.27600 51.57000 30.05400
H  30.47700 50.20600 31.15500
H  29.36500 51.58800 31.54300
H  26.70600 48.49200 31.10200
H  25.32900 49.21400 30.46200
H  25.45300 48.63900 32.93800
H  24.62800 50.04200 32.48500
H  32.02500 47.99900 27.88100
H  33.04600 48.78600 26.65700
H  32.60300 47.09100 26.44300
H  33.36800 46.95900 24.58500
H  33.72300 48.75500 24.34100
H  33.83800 47.51800 22.99600
H  26.82700 48.46500 21.10800
H  25.33100 51.14800 21.36300
H  28.63400 49.82700 20.12600
H  27.71500 51.30600 20.52700
H  27.10700 50.14000 19.36900
H  24.01900 48.79000 22.59800
H  24.54800 48.40700 20.97700
H  23.26700 50.99700 20.80900
H  22.34200 50.14000 21.96100
H  22.53200 49.38600 20.33700
H  21.81300 52.35700 24.48300
H  21.85700 53.84200 25.57100
H  21.21200 52.34900 26.07300
H  24.19600 51.40200 30.37200
H  24.01600 54.02000 33.51500
H  24.67200 55.19600 32.44200
H  25.71500 53.78700 32.99000
Mg -1.41000 33.76700 27.26400
C  -3.07500 31.66200 29.61800
C  0.17700 35.21900 29.88400
C  -0.02500 35.92800 25.16900
C  -3.27800 32.33200 24.69000
N  -1.51100 33.42700 29.54500
C  -2.23900 32.55200 30.26900
C  -1.96000 32.75700 31.74700
C  -1.12900 34.07500 31.79600
C  -0.76800 34.30000 30.31100
C  -1.81600 35.30700 32.47800
C  -1.42800 31.47200 32.38500
C  -2.16500 31.04800 33.68100
H  -1.34800 30.92900 35.03800
N  -0.05100 35.32300 27.52600
C  0.54000 35.75400 28.69000
C  1.54900 36.78400 28.39200
C  1.45300 36.99700 26.99500
C  0.47500 36.01700 26.47600
C  2.39300 37.48400 29.44600
C  2.24900 38.00400 26.08000
O  2.11200 38.01900 24.84600
C  3.28500 38.90200 26.61400
N  -1.80800 34.21000 25.27500
C  -1.03100 35.14400 24.61600
C  -1.33900 35.05500 23.06400
C  -2.23400 33.79600 22.96500
C  -2.47100 33.40700 24.39300
C  -1.96000 36.35700 22.45900
C  -1.65900 32.64200 22.07500
C  -0.67900 31.63200 22.75700
N  -2.83000 32.28300 27.08300
C  -3.51600 31.79200 25.98700
C  -4.33600 30.70000 26.42600
C  -4.27000 30.65700 27.82200
C  -3.27400 31.57900 28.18900
C  -5.12300 29.83800 25.46300
C  -4.79500 29.99600 29.03900
O  -5.52900 29.04300 29.16900
C  -4.10400 30.65500 30.27100
C  -5.16100 31.28300 31.09200
O  -5.60000 32.39500 30.96100
O  -5.44500 30.45600 32.12900
C  -6.66000 30.76700 32.87400
H  0.66800 35.78100 30.68100
H  0.46300 36.55900 24.42300
H  -3.89600 31.98700 23.85800
H  -2.95300 32.98500 32.13500
H  -0.21000 34.05000 32.38100
H  -1.55600 35.42000 33.53100
H  -2.90400 35.25400 32.44700
H  -1.53000 36.24300 31.99900
H  -0.44900 31.77800 32.75200
H  -1.23700 30.66200 31.68100
H  -2.45000 30.04300 33.37000
H  -3.02000 31.70900 33.82000
H  3.43200 37.16300 29.51600
H  2.12800 37.23100 30.47300
H  2.25800 38.53600 29.19700
H  2.62400 39.69700 26.95900
H  4.05200 39.26100 25.92700
H  3.90900 38.35000 27.31600
H  -0.35900 35.01600 22.58800
H  -3.21200 34.08500 22.58100
H  -2.53700 36.06400 21.58200
H  -1.25100 37.12900 22.16100
H  -2.66100 36.71400 23.21500
H  -1.18600 33.00500 21.16200
H  -2.50300 32.09200 21.65900
H  -0.55500 32.01100 23.77100
H  0.25000 31.58800 22.18900
H  -1.10900 30.63000 22.74000
H  -6.07100 29.61600 25.95300
H  -4.58200 28.96100 25.10600
H  -5.26900 30.37200 24.52400
H  -3.56100 29.89900 30.84000
H  -7.55300 31.11700 32.35700
H  -6.27700 31.47700 33.60800
H  -6.94000 29.86000 33.41000

