158

Mg 40.37700 8.57200 28.93800
C  42.48200 9.80400 31.56100
C  38.38400 7.05200 31.40300
C  38.52900 7.44100 26.48800
C  42.83700 9.66000 26.57100
N  40.48500 8.42300 31.16400
C  41.35900 9.13500 32.01700
C  40.87600 9.02200 33.51800
C  39.75200 7.86200 33.40100
C  39.51200 7.71200 31.91600
C  39.96300 6.58000 34.16800
C  40.28200 10.42300 34.02500
C  41.07900 11.12100 35.15700
H  40.42300 11.94900 36.22600
N  38.71200 7.35900 28.91200
C  37.96900 6.85500 30.00000
C  36.82300 6.10000 29.51400
C  36.84100 6.20400 28.03500
C  38.04400 7.06700 27.76200
C  35.72500 5.48100 30.36300
C  35.97100 5.54700 27.01300
O  36.01000 5.76700 25.82300
C  34.95400 4.44700 27.34600
N  40.69100 8.48700 26.80900
C  39.71100 8.09300 26.02600
C  40.08400 8.30200 24.53100
C  41.37600 9.05000 24.60000
C  41.65900 9.08600 26.05300
C  40.09400 7.05900 23.59700
C  41.42500 10.37900 23.91900
C  40.76500 11.58500 24.53900
N  42.26300 9.54900 28.97900
C  43.12700 9.84800 27.96100
C  44.28300 10.49200 28.52000
C  44.00400 10.54500 29.92200
C  42.83100 9.92100 30.18200
C  45.59700 10.76300 27.92300
C  44.61000 10.84100 31.18600
O  45.72700 11.27700 31.39600
C  43.60000 10.49300 32.28800
C  44.30500 9.69000 33.31900
O  44.85300 8.60600 33.14000
O  44.34100 10.32000 34.55200
C  44.79100 9.38700 35.59100
H  37.72700 6.70300 32.20300
H  37.88800 7.09700 25.67400
H  43.63700 9.95200 25.88700
H  41.65800 8.73000 34.22000
H  38.82800 8.30800 33.76800
H  39.14700 6.30600 34.83600
H  40.85600 6.75000 34.76900
H  40.04000 5.66900 33.57400
H  39.25200 10.44500 34.37900
H  40.27900 11.05200 33.13400
H  41.77800 11.86000 34.76600
H  41.63900 10.28000 35.56600
H  34.76000 5.96800 30.21800
H  35.80300 5.64300 31.43800
H  35.76900 4.44600 30.02500
H  35.39400 3.73700 28.04600
H  34.78200 3.96600 26.38300
H  34.06700 4.86900 27.81700
H  39.26700 8.87700 24.09500
H  42.14400 8.41100 24.16400
H  40.72600 7.38800 22.77200
H  39.12600 6.79000 23.17400
H  40.53900 6.16600 24.03700
H  40.99100 10.23800 22.92900
H  42.48600 10.62700 23.89000
H  41.40500 12.45000 24.36600
H  40.42600 11.56200 25.57500
H  39.86200 11.83400 23.98100
H  46.41700 10.27500 28.45000
H  45.75600 11.84100 27.93200
H  45.80200 10.74400 26.85300
H  43.38000 11.48900 32.67100
H  44.11400 8.55000 35.76100
H  44.78400 10.00700 36.48800
H  45.75700 8.91500 35.41200
Mg 0.74900 43.30200 26.09300
C  2.87100 43.35100 28.87700
C  -1.85900 42.57000 28.36300
C  -1.03800 42.43900 23.45900
C  3.70200 43.84100 24.03300
N  0.53600 43.23200 28.39500
C  1.54600 43.38000 29.28200
C  1.02600 43.47100 30.67700
C  -0.52700 42.96800 30.46500
C  -0.67900 42.94800 28.97000
C  -0.72900 41.58600 31.04500
C  1.08200 44.87700 31.36200
C  1.13700 44.81100 32.86100
H  0.82600 43.52200 33.63000
N  -1.21600 42.71500 25.95000
C  -2.07200 42.41100 26.93800
C  -3.30000 41.92000 26.36500
C  -3.15700 41.92200 24.89300
C  -1.74600 42.33700 24.75000
C  -4.55500 41.63100 27.14000
C  -4.13700 41.47600 23.83500
O  -3.87500 41.46800 22.63600
C  -5.55400 41.03600 24.18100
N  1.34400 43.00800 23.99500
C  0.29800 42.71100 23.07300
C  0.84000 42.84400 21.68300
C  2.27700 43.50300 21.86700
C  2.51000 43.42100 23.38100
C  0.84500 41.44600 20.87000
C  2.34500 44.98500 21.31700
C  2.17200 46.11400 22.23700
N  2.92100 43.57700 26.32400
C  3.98100 43.74200 25.39700
C  5.25000 43.67600 26.09700
C  4.85300 43.61000 27.50400
C  3.38800 43.42200 27.53900
C  6.61400 43.80500 25.54200
C  5.32400 43.56000 28.92600
O  6.41400 43.61400 29.38900
C  4.11100 43.43800 29.82500
C  4.18600 42.23300 30.63300
O  3.93800 41.10200 30.26400
O  4.72900 42.48100 31.88300
C  4.84700 41.47900 32.91600
H  -2.71600 42.29100 28.97900
H  -1.69900 42.09000 22.66300
H  4.62600 44.02900 23.48200
H  1.63200 42.69800 31.14900
H  -1.24200 43.66700 30.89900
H  -0.94800 40.90800 30.22000
H  -1.51600 41.53000 31.79700
H  0.16700 41.05600 31.37000
H  0.19100 45.46000 31.12800
H  1.99600 45.39500 31.07000
H  0.46800 45.58700 33.23300
H  2.13600 45.09800 33.18700
H  -4.66800 40.55300 27.25700
H  -5.36000 42.14100 26.61200
H  -4.69200 42.16400 28.08200
H  -5.41600 40.26800 24.94300
H  -5.98200 40.37300 23.42900
H  -6.19800 41.85900 24.49000
H  0.10600 43.40600 21.10600
H  2.90100 42.78900 21.33100
H  1.82900 41.19900 20.47200
H  0.24100 41.65900 19.98700
H  0.58500 40.59800 21.50300
H  1.60600 45.05600 20.51900
H  3.26300 45.02600 20.73100
H  1.69600 45.73900 23.14300
H  1.46400 46.88700 21.93600
H  3.14000 46.54900 22.48500
H  7.04300 44.80600 25.58400
H  6.53800 43.50400 24.49700
H  7.28700 43.04400 25.93600
H  4.10500 44.28000 30.51700
H  5.83500 41.57200 33.36600
H  4.62500 40.47100 32.56800
H  4.12500 41.79000 33.67200

