158

Mg 46.81600 44.21200 42.17400
C  43.31200 43.68600 41.99700
C  47.11800 40.88700 42.06600
C  50.07600 44.82000 42.02400
C  46.11400 47.64600 42.17700
N  45.33300 42.53000 41.76900
C  44.02500 42.47700 41.86600
C  43.39000 41.08400 41.83000
C  44.63200 40.21200 41.89200
C  45.76400 41.28100 41.82800
C  44.67600 39.22400 43.00400
C  42.38000 40.74300 40.61100
C  42.55400 41.47900 39.26500
H  42.71600 40.66900 38.00200
N  48.40900 42.97800 42.07900
C  48.34300 41.62300 42.08600
C  49.72400 41.12500 42.13700
C  50.60600 42.24000 42.29400
C  49.68400 43.42900 42.15800
C  50.03500 39.66300 42.09700
C  52.20100 42.11400 42.55800
O  52.77500 41.01500 42.64000
C  53.13200 43.32300 42.66900
N  47.94700 46.00200 41.93400
C  49.29300 45.98700 41.98700
C  49.87200 47.41400 42.00500
C  48.59500 48.20600 42.23000
C  47.47400 47.26700 42.04200
C  51.04100 47.64800 43.05500
C  48.48300 49.45500 41.26400
C  48.14100 50.82200 41.87000
N  45.15700 45.45100 41.98300
C  45.00100 46.83300 42.03200
C  43.63900 47.27500 42.08700
C  42.95700 46.00000 42.07400
C  43.90000 44.93400 41.98100
C  43.03700 48.65700 42.06800
C  41.58600 45.43500 42.10900
O  40.48100 45.92400 42.12400
C  41.84600 43.85700 42.19500
C  41.44000 43.20500 43.50500
O  40.65800 42.26800 43.60400
O  42.05000 43.76900 44.55200
C  41.99300 42.84000 45.67000
H  47.20400 39.81300 42.24700
H  51.16200 44.91500 41.97400
H  46.02700 48.69700 42.46200
H  42.89300 40.95200 42.79100
H  44.57200 39.64100 40.96600
H  45.15100 39.55300 43.92800
H  45.18900 38.32500 42.66000
H  43.68100 38.87500 43.28000
H  41.40800 41.06100 40.99000
H  42.42900 39.66500 40.45700
H  43.52300 41.97600 39.29500
H  41.76400 42.21000 39.09700
H  49.14700 39.21300 41.65300
H  50.28500 39.33900 43.10800
H  50.95000 39.46200 41.53900
H  53.12000 43.73400 41.66000
H  54.16500 43.12800 42.95800
H  52.65200 44.08800 43.27900
H  50.36300 47.58800 41.04800
H  48.69600 48.56400 43.25400
H  51.98500 47.43800 42.55200
H  50.98500 46.81100 43.75100
H  51.08500 48.59200 43.59700
H  47.69300 49.23900 40.54500
H  49.39800 49.55300 40.68000
H  48.99600 51.47800 41.71300
H  47.76700 50.71900 42.88900
H  47.27500 51.10000 41.27000
H  43.73600 49.35400 41.60500
H  42.95200 48.92300 43.12200
H  42.10300 48.64600 41.50700
H  41.19100 43.50600 41.39800
H  42.31700 43.35600 46.57400
H  42.52000 41.93200 45.37700
H  41.02600 42.45100 45.99000
Mg 16.39200 51.94800 25.22800
C  18.27400 51.07600 28.01900
C  13.80200 53.09600 27.20800
C  14.40300 52.25000 22.47700
C  18.83400 50.44200 23.13300
N  16.03000 52.00900 27.32900
C  17.02100 51.74400 28.27800
C  16.47000 52.01800 29.67000
C  15.06600 52.60600 29.39100
C  14.86200 52.47700 27.85100
C  13.87800 51.82900 30.16900
C  17.39000 52.99600 30.48700
C  17.85400 52.56300 31.91500
H  16.90100 51.79800 32.76200
N  14.41400 52.79400 24.88300
C  13.54800 53.27600 25.78000
C  12.34800 53.85000 25.09200
C  12.56200 53.61900 23.73500
C  13.88900 52.93800 23.59400
C  11.17200 54.36900 25.90100
C  11.55500 53.95800 22.62100
O  11.82900 53.62400 21.45600
C  10.11200 54.48500 22.88500
N  16.59300 51.40900 23.15400
C  15.58400 51.58200 22.20500
C  16.02100 51.05600 20.77500
C  17.51500 50.76800 21.02000
C  17.67200 50.91100 22.51200
C  15.22800 49.86300 20.21100
C  18.53100 51.59200 20.19700
C  18.45700 53.05700 20.56600
N  18.17300 50.90000 25.47200
C  19.13300 50.48600 24.52700
C  20.27900 49.90500 25.23300
C  20.01100 50.16000 26.60600
C  18.74900 50.69400 26.67900
C  21.42500 49.29500 24.64500
C  20.52000 50.05400 27.99700
O  21.63600 49.70100 28.39000
C  19.38500 50.56200 28.99000
C  18.91000 49.45800 29.93500
O  17.78500 48.94800 29.81400
O  19.82900 49.09900 30.83100
C  19.34100 48.16600 31.90800
H  12.96200 53.52700 27.75600
H  13.80800 52.30000 21.56300
H  19.61700 49.92800 22.57100
H  16.39900 51.14600 30.31900
H  14.98400 53.64600 29.70800
H  12.93900 51.92500 29.62400
H  13.70500 52.36700 31.10100
H  14.15500 50.82200 30.48000
H  16.85000 53.94200 30.46600
H  18.29100 53.17600 29.90100
H  17.94000 53.45600 32.53400
H  18.82800 52.07700 31.84700
H  11.29600 54.32100 26.98300
H  10.36300 53.69000 25.63300
H  11.01500 55.42700 25.68700
H  9.30900 53.77000 23.06100
H  9.82500 55.06600 22.00800
H  10.24800 55.32400 23.56800
H  15.94200 51.89900 20.08900
H  17.73400 49.77600 20.62500
H  14.51600 49.61300 20.99700
H  15.79300 48.93900 20.08700
H  14.58200 50.15800 19.38400
H  18.32800 51.52400 19.12800
H  19.58700 51.35400 20.32400
H  18.58600 53.25500 21.63000
H  17.52700 53.50300 20.21200
H  19.25300 53.61800 20.07600
H  21.76500 49.77000 23.72600
H  21.35000 48.21600 24.51100
H  22.17600 49.52000 25.40200
H  19.74500 51.35500 29.64600
H  20.11800 47.59400 32.41400
H  18.69600 47.34600 31.59400
H  18.79600 48.72500 32.66900

