158

Mg 8.01600 1.77400 27.90600
C  9.76600 0.73700 30.75100
C  6.23000 3.78500 30.11300
C  6.31700 2.76400 25.32400
C  9.88000 -0.51000 26.04900
N  8.00600 2.12600 30.21300
C  8.88700 1.70600 31.19800
C  8.57300 2.29100 32.54100
C  7.27500 3.03000 32.25200
C  7.12100 2.98300 30.73900
C  5.96400 2.65000 33.12900
C  9.80400 3.24900 32.98600
C  10.67700 2.77900 34.20800
H  10.95300 3.68000 35.38600
N  6.38900 3.05200 27.69700
C  5.89200 3.86800 28.68800
C  4.90700 4.72300 28.19600
C  4.97400 4.58000 26.73500
C  5.96100 3.44800 26.53400
C  3.94500 5.62400 28.99200
C  4.14500 5.18100 25.64200
O  4.03400 4.79400 24.47800
C  3.36800 6.41500 26.03000
N  7.98800 1.15300 25.98700
C  7.28400 1.83000 25.06900
C  7.43500 1.19500 23.71000
C  8.68900 0.18500 23.82300
C  8.89000 0.30400 25.36100
C  6.21200 0.34200 23.14900
C  9.92600 0.78600 23.14100
C  10.17100 0.16500 21.70400
N  9.61800 0.40100 28.25600
C  10.18100 -0.51500 27.43500
C  11.15700 -1.33400 28.14700
C  11.05900 -0.87600 29.40700
C  10.06900 0.18900 29.43700
C  12.10400 -2.30900 27.57300
C  11.53600 -1.06400 30.71900
O  12.38500 -1.86500 31.11100
C  10.85800 0.02300 31.60000
C  10.31400 -0.68800 32.78800
O  9.28100 -1.31200 32.79600
O  11.28200 -0.62600 33.80500
C  10.91100 -1.21000 35.09600
H  5.70000 4.43800 30.81000
H  5.84400 3.04000 24.37900
H  10.32100 -1.26600 25.39600
H  8.36500 1.60300 33.36100
H  7.43500 4.10000 32.38200
H  6.14000 1.69300 33.62000
H  5.05400 2.75700 32.53800
H  5.84400 3.43300 33.87700
H  9.66900 4.32800 33.05900
H  10.53600 3.09200 32.19400
H  11.63600 2.36200 33.90100
H  10.16900 1.90300 34.61100
H  4.31100 6.63200 28.79600
H  3.90600 5.37400 30.05200
H  2.96200 5.45500 28.55200
H  2.36300 6.12100 26.33400
H  3.19100 7.15700 25.25100
H  3.89700 6.92100 26.83900
H  7.66100 1.98900 22.99900
H  8.51500 -0.83800 23.48900
H  5.37900 0.19000 23.83600
H  6.54100 -0.57900 22.66700
H  5.74300 1.03000 22.44500
H  10.87500 0.64300 23.65900
H  9.77200 1.86500 23.14600
H  9.62700 -0.75100 21.47500
H  11.24100 -0.00800 21.58500
H  9.91700 0.96000 21.00200
H  12.25400 -2.21500 26.49800
H  11.68900 -3.30600 27.72200
H  13.08900 -2.24900 28.03400
H  11.52200 0.77600 32.02300
H  10.50800 -0.41700 35.72600
H  11.77300 -1.60700 35.63200
H  10.12100 -1.93200 34.88600
Mg 35.12100 2.23400 29.72900
C  32.97000 3.34000 32.07800
C  37.66900 2.32800 31.97200
C  37.60100 1.86900 27.15900
C  32.65000 2.54700 27.39200
N  35.28200 2.79500 31.72700
C  34.28600 3.12500 32.58000
C  34.82700 3.51800 33.93300
C  36.30400 3.40000 33.79000
C  36.42600 2.74200 32.43500
C  37.17000 4.61600 33.90900
C  34.21200 2.58600 35.10900
C  34.03000 3.20400 36.43400
H  35.14200 4.23300 36.97100
N  37.28200 1.95300 29.65200
C  38.07100 1.91600 30.69300
C  39.40200 1.49500 30.28500
C  39.39500 1.37900 28.85400
C  38.04500 1.70900 28.47600
C  40.53100 1.38100 31.31500
C  40.45100 1.05600 27.91800
O  40.31000 0.85400 26.68900
C  41.89200 0.92800 28.50400
N  35.18100 2.60500 27.59900
C  36.24600 2.24000 26.79500
C  35.81000 1.98500 25.35600
C  34.24900 1.84500 25.42800
C  34.00600 2.51000 26.82300
C  36.30700 3.13300 24.37300
C  33.67500 0.44300 25.30800
C  32.19000 0.22200 24.84700
N  33.15500 2.75100 29.67100
C  32.31700 2.80600 28.64100
C  30.99900 3.19100 29.10100
C  31.16600 3.37100 30.48600
C  32.48900 3.17500 30.79900
C  29.76600 3.25700 28.27500
C  30.54500 3.74000 31.75200
O  29.35900 3.92500 32.00600
C  31.69100 3.75700 32.86500
C  31.74200 5.07800 33.39500
O  31.86000 6.11100 32.76000
O  31.54300 5.02600 34.74500
C  31.13700 6.23200 35.48300
H  38.46700 2.22000 32.71000
H  38.13300 1.65600 26.22900
H  31.92500 2.42700 26.58500
H  34.57700 4.55400 34.15900
H  36.75400 2.76200 34.55000
H  36.63800 5.39800 34.45100
H  37.32000 5.12000 32.95400
H  38.06900 4.21600 34.37600
H  34.76500 1.64900 35.17500
H  33.20400 2.32800 34.78700
H  34.13800 2.31600 37.05700
H  33.06600 3.69100 36.29000
H  40.75300 0.31400 31.33300
H  40.14000 1.74200 32.26600
H  41.47000 1.79700 30.94900
H  42.00900 0.01000 29.07900
H  42.23100 1.88600 28.89900
H  42.51400 0.84600 27.61200
H  36.23900 1.02000 25.08500
H  33.73600 2.53500 24.75700
H  36.57600 4.03200 24.92700
H  35.46200 3.37700 23.72900
H  37.16200 2.72900 23.83100
H  33.80900 -0.09400 26.24700
H  34.30400 -0.09500 24.59800
H  32.24900 -0.26200 23.87200
H  31.62200 1.15200 24.81200
H  31.63000 -0.37500 25.56800
H  29.40500 4.27000 28.10000
H  28.97500 2.75500 28.83200
H  29.88800 2.78600 27.29900
H  31.59500 2.91300 33.54900
H  30.87200 7.06400 34.83100
H  32.04500 6.53700 36.00300
H  30.33400 5.97500 36.17400

