158

Mg 56.45500 25.24400 45.07300
C  54.16700 27.64100 43.75900
C  54.88100 22.84100 43.64800
C  59.29500 23.42400 45.57900
C  58.32000 28.15300 46.18000
N  54.91900 25.32800 43.67000
C  54.06100 26.34700 43.28300
C  53.08600 25.80600 42.28500
C  53.04500 24.24200 42.58800
C  54.41600 24.12500 43.28800
C  51.84700 23.79200 43.49400
C  53.58200 26.02200 40.76900
C  52.55700 26.01100 39.64700
H  52.48000 24.83700 38.57700
N  56.94700 23.23500 44.81100
C  56.09800 22.36900 44.26600
C  56.73300 21.11200 44.08100
C  58.10300 21.32900 44.43900
C  58.19100 22.70100 44.97500
C  56.10300 19.89900 43.45400
C  59.27800 20.21800 44.25000
O  58.97100 19.10200 43.76600
C  60.68400 20.51000 44.60200
N  58.52600 25.75600 45.81100
C  59.47200 24.75600 45.88600
C  60.81200 25.21900 46.38300
C  60.46400 26.70400 46.63000
C  59.00300 26.93500 46.13800
C  61.32300 24.45200 47.61200
C  61.43900 27.67600 45.92100
C  61.86400 28.91200 46.71500
N  56.22900 27.48200 45.17000
C  57.01700 28.47500 45.70800
C  56.24300 29.77500 45.65600
C  55.14700 29.46800 44.89800
C  55.20400 28.10500 44.57900
C  56.64900 31.05700 46.24600
C  53.98000 30.02400 44.26600
O  53.58700 31.15400 44.23000
C  53.21400 28.81700 43.57400
C  53.06300 29.19000 42.08800
O  53.90100 29.77500 41.40000
O  51.78700 28.90800 41.75200
C  51.49300 29.15900 40.30400
H  54.39100 22.01500 43.12900
H  60.21300 22.84800 45.70800
H  58.96700 28.93400 46.58400
H  52.07700 26.20500 42.39300
H  52.94400 23.72900 41.63200
H  51.23300 24.60900 43.87500
H  52.25300 23.39200 44.42300
H  51.33200 23.07600 42.85400
H  54.42800 25.37400 40.54000
H  53.90200 27.06300 40.72600
H  52.74500 26.91400 39.06600
H  51.50300 26.07700 39.91800
H  56.23200 19.10900 44.19400
H  56.57900 19.51500 42.55100
H  55.03600 20.08200 43.32800
H  61.26200 19.73300 44.10200
H  60.69600 20.41000 45.68800
H  60.96200 21.50400 44.25400
H  61.42600 25.15400 45.48500
H  60.44800 26.91000 47.70000
H  61.89100 25.15700 48.22000
H  61.89500 23.63600 47.17100
H  60.50900 24.01500 48.19100
H  60.96700 27.92800 44.97200
H  62.35700 27.14600 45.66900
H  61.21500 29.77700 46.57300
H  62.89800 29.23600 46.59900
H  61.72900 28.73900 47.78300
H  57.37700 31.05400 47.05700
H  55.80900 31.45400 46.81600
H  56.99200 31.76500 45.49100
H  52.25300 28.56500 44.02200
H  52.30400 29.43100 39.62800
H  50.86200 30.04100 40.41100
H  50.89600 28.33100 39.92200
Mg 16.98000 51.57300 26.19800
C  18.83700 50.11100 28.90600
C  14.45800 52.15000 28.44200
C  15.20200 52.33500 23.65900
C  19.15700 49.74900 24.05600
N  16.65900 51.13300 28.36800
C  17.60200 50.67200 29.28700
C  17.14100 50.88300 30.69200
C  15.60700 51.19200 30.52100
C  15.55300 51.55100 29.05000
C  14.72100 50.01100 30.85500
C  18.01300 52.06800 31.27800
C  18.30300 51.91800 32.79000
H  17.30500 51.09500 33.65100
N  15.14200 52.33900 26.10400
C  14.28000 52.53500 27.10300
C  13.15900 53.23300 26.54000
C  13.32400 53.22800 25.07400
C  14.59600 52.66000 24.84800
C  12.00700 53.59600 27.39300
C  12.36100 53.75300 24.02800
O  12.65500 53.86300 22.85700
C  11.05300 54.11800 24.42700
N  17.01700 50.97700 24.16200
C  16.30500 51.58200 23.32000
C  16.58500 51.17000 21.83100
C  18.00000 50.63500 21.99600
C  18.11700 50.49000 23.51000
C  15.56100 50.17200 21.21700
C  19.12600 51.54000 21.39000
C  19.68800 51.13800 20.02600
N  18.76100 50.38600 26.32800
C  19.50000 49.65500 25.42800
C  20.62500 48.93700 26.06200
C  20.38600 49.12700 27.43400
C  19.24800 49.96700 27.55800
C  21.70100 48.18700 25.34200
C  20.90500 48.70600 28.74300
O  21.91800 48.09000 29.06400
C  19.88500 49.35800 29.70200
C  19.31000 48.33100 30.55100
O  18.30600 47.59200 30.35700
O  20.21100 48.21800 31.62200
C  20.10900 47.07900 32.55200
H  13.69400 52.35400 29.19600
H  14.80700 52.77800 22.74200
H  19.85800 49.35500 23.31700
H  17.25100 50.04200 31.37600
H  15.27000 52.08400 31.04900
H  13.92400 50.25700 31.55600
H  15.31600 49.17900 31.23200
H  14.31400 49.71900 29.88700
H  17.45100 52.97900 31.07200
H  18.93400 52.04600 30.69500
H  18.27900 52.95000 33.13800
H  19.28700 51.53300 33.05700
H  11.17000 52.94700 27.13600
H  11.78100 54.65500 27.27000
H  12.18100 53.48000 28.46200
H  10.96000 55.00500 25.05300
H  10.71300 53.27400 25.02700
H  10.39700 54.17100 23.55800
H  16.63000 52.13900 21.33500
H  17.98800 49.61200 21.62100
H  14.84700 49.88900 21.99000
H  16.10900 49.31000 20.83900
H  14.94300 50.73400 20.51600
H  19.95900 51.79800 22.04400
H  18.64000 52.48100 21.13300
H  19.45800 51.80300 19.19400
H  19.34900 50.13000 19.78800
H  20.77700 51.13700 20.07000
H  21.97900 48.95200 24.61600
H  21.26300 47.28200 24.92100
H  22.66700 47.91400 25.76600
H  20.45100 50.06800 30.30500
H  19.63300 46.26600 32.00300
H  19.46900 47.53800 33.30500
H  21.03200 46.69100 32.98200

