158

Mg 39.84800 9.81600 30.24900
C  41.90000 10.67700 33.04200
C  37.58300 8.42200 32.60600
C  38.30200 8.34300 27.82200
C  42.34300 10.90500 28.09900
N  39.73200 9.59600 32.53700
C  40.66500 10.05000 33.41700
C  40.13800 10.02800 34.82100
C  38.80800 9.17900 34.74400
C  38.68200 9.03400 33.23500
C  38.68500 7.79500 35.43600
C  40.00000 11.45800 35.39700
C  39.29100 11.60800 36.73300
H  39.98200 10.99900 37.92100
N  38.05500 8.72700 30.18300
C  37.34000 8.22900 31.19600
C  36.19300 7.51000 30.66000
C  36.37700 7.52800 29.26200
C  37.63400 8.20600 29.01500
C  35.21400 6.74900 31.49100
C  35.54400 6.95700 28.12800
O  35.92800 7.02100 26.92500
C  34.23300 6.36100 28.35300
N  40.33200 9.44700 28.22700
C  39.41800 8.94400 27.42100
C  39.76000 9.25400 25.91300
C  40.96200 10.24200 26.02900
C  41.16700 10.31300 27.59900
C  39.92900 7.92000 24.97600
C  40.63000 11.65500 25.41400
C  39.69500 12.57200 26.05300
N  41.75100 10.63300 30.46300
C  42.63200 11.02500 29.47600
C  43.78400 11.51100 30.16800
C  43.50700 11.38600 31.54200
C  42.28700 10.85200 31.69600
C  45.13200 11.82000 29.48900
C  44.04700 11.69400 32.79400
O  45.13400 12.20000 33.02600
C  43.01100 11.20900 33.84500
C  43.59200 10.12100 34.72700
O  43.78100 8.93800 34.42500
O  43.90400 10.58600 35.91200
C  44.34400 9.77000 37.00800
H  36.84500 8.11800 33.35200
H  38.03600 7.73800 26.95200
H  43.18900 11.20700 27.47800
H  40.90100 9.52000 35.41100
H  37.88100 9.60800 35.12300
H  37.67200 7.44500 35.63600
H  39.30500 7.78000 36.33200
H  39.13400 7.09200 34.73300
H  39.64700 12.13600 34.62000
H  41.01500 11.76000 35.65400
H  38.25100 11.28600 36.68300
H  39.27400 12.68800 36.88300
H  35.41500 5.68000 31.42600
H  34.27200 7.09000 31.06100
H  35.20700 6.99700 32.55300
H  33.61100 6.44000 27.46100
H  33.74900 6.90000 29.16700
H  34.33200 5.32400 28.67500
H  38.86300 9.76300 25.56200
H  41.87400 9.83800 25.58900
H  40.93200 7.85600 24.55500
H  39.24600 7.98600 24.12900
H  39.71300 7.00000 25.51900
H  40.10200 11.36700 24.50500
H  41.54200 12.20700 25.18900
H  38.75500 12.53800 25.50200
H  40.00400 13.61600 26.08600
H  39.42100 12.18000 27.03200
H  45.23000 12.83300 29.09700
H  45.41200 11.10300 28.71700
H  45.90500 11.80400 30.25800
H  42.76700 12.13500 34.36600
H  43.92800 10.13200 37.94800
H  45.42600 9.87000 37.08300
H  44.12200 8.70300 36.98700
Mg 27.35100 50.81500 26.41800
C  25.48100 51.72100 29.29400
C  29.94700 49.82200 28.52100
C  29.03700 50.06900 23.73200
C  24.65300 52.08900 24.44400
N  27.67800 50.93800 28.66900
C  26.78000 51.27800 29.64100
C  27.33000 51.07900 31.09400
C  28.81900 50.63200 30.75600
C  28.80200 50.40500 29.19600
C  29.86600 51.75900 31.16500
C  26.51500 50.13600 32.04600
C  25.86200 50.84000 33.27100
H  26.53600 50.62100 34.53400
N  29.23200 50.11100 26.10500
C  30.13400 49.63500 27.12900
C  31.33000 49.21000 26.43300
C  31.13100 49.35500 25.03600
C  29.72100 49.89300 24.88700
C  32.46400 48.57700 27.20100
C  32.13600 48.95000 23.91300
O  31.89400 49.00700 22.68700
C  33.51700 48.47600 24.26900
N  26.95400 51.21300 24.37400
C  27.68900 50.53200 23.46100
C  27.11400 50.61500 21.98400
C  25.69700 51.13800 22.33600
C  25.80600 51.62900 23.76900
C  28.11600 51.46500 21.10600
C  24.61000 50.03600 22.29100
C  23.51400 50.16900 21.22400
N  25.55100 51.80300 26.74300
C  24.48600 52.20700 25.86000
C  23.45200 52.73800 26.62300
C  23.78600 52.50200 27.97500
C  25.04100 51.86100 27.98000
C  22.19000 53.42200 26.02600
C  23.24300 52.60500 29.31600
O  22.17600 53.12900 29.67700
C  24.33900 52.14500 30.20900
C  24.74600 53.26600 31.12600
O  25.52200 54.14900 30.84200
O  23.97600 53.14200 32.33200
C  24.25100 54.11600 33.33600
H  30.75700 49.49000 29.17300
H  29.57100 49.70800 22.85000
H  23.70900 52.22500 23.91200
H  27.19900 52.10700 31.43100
H  29.22300 49.78600 31.31100
H  30.16600 52.30100 30.26900
H  30.80700 51.38000 31.56300
H  29.40500 52.40600 31.91200
H  27.25300 49.46600 32.48700
H  25.73400 49.70000 31.42300
H  24.80000 50.59900 33.21400
H  25.97100 51.92000 33.16800
H  32.37900 47.50200 27.03800
H  32.38000 48.77200 28.27000
H  33.42500 48.93900 26.83600
H  34.00800 48.12200 23.36200
H  33.42500 47.61700 24.93400
H  33.94100 49.27300 24.88000
H  27.02700 49.61400 21.56200
H  25.46200 51.90900 21.60300
H  29.04700 51.69900 21.62200
H  27.69200 52.39000 20.71500
H  28.41500 50.84000 20.26400
H  24.08000 49.92600 23.23700
H  25.12700 49.09400 22.10900
H  23.65000 51.14800 20.76300
H  22.52000 50.31200 21.64800
H  23.56200 49.40700 20.44700
H  22.53700 54.35300 25.57700
H  21.39800 53.60300 26.75300
H  21.62100 52.83200 25.30900
H  24.03800 51.26400 30.77600
H  25.30700 54.38700 33.34200
H  23.99700 53.86900 34.36700
H  23.80400 55.09200 33.14800

