158

Mg 0.10500 7.83900 27.02000
C  0.80900 9.90400 29.81800
C  0.57200 5.23400 28.83500
C  -0.04500 6.11400 24.18700
C  0.57600 10.82100 25.02500
N  0.48100 7.66600 29.04300
C  0.60000 8.55800 30.09500
C  0.55900 7.94300 31.46200
C  0.83500 6.42200 31.08200
C  0.66100 6.44000 29.51700
C  2.17900 5.76200 31.51200
C  -0.76600 8.33100 32.13300
C  -0.69200 8.76400 33.61900
H  0.53000 8.28200 34.46400
N  0.24500 5.86600 26.54800
C  0.32300 4.92300 27.51700
C  0.16800 3.59800 26.92800
C  0.09600 3.84700 25.50200
C  0.05100 5.33800 25.36000
C  0.44800 2.29700 27.67400
C  0.08100 2.89900 24.32600
O  -0.10100 3.20700 23.10400
C  0.26800 1.39700 24.62800
N  0.21000 8.36800 24.95300
C  0.04700 7.45500 23.93000
C  0.28100 8.07400 22.54500
C  0.13500 9.61700 22.81700
C  0.40000 9.58800 24.35100
C  1.62800 7.51000 22.04600
C  -1.26900 10.22900 22.48900
C  -1.23200 11.09000 21.28200
N  0.53600 10.00600 27.29900
C  0.68600 11.07100 26.41500
C  0.85600 12.28800 27.12700
C  0.87700 11.87700 28.46700
C  0.75300 10.50600 28.52000
C  1.13100 13.71500 26.42100
C  1.11800 12.41000 29.79200
O  1.33200 13.65400 30.10000
C  0.91000 11.17600 30.81700
C  2.02500 11.24000 31.76500
O  3.11000 10.67200 31.72000
O  1.57300 11.89800 32.90700
C  2.41600 11.77100 34.11400
H  0.77200 4.35700 29.45500
H  -0.09500 5.57500 23.23900
H  0.59900 11.68600 24.35800
H  1.32800 8.45800 32.03800
H  0.14700 5.81200 31.66800
H  2.73000 6.37400 32.22700
H  2.82700 5.45300 30.69200
H  1.98700 4.87800 32.12100
H  -1.44000 7.47400 32.10900
H  -1.19100 9.17300 31.58700
H  -1.56600 8.36500 34.13300
H  -0.70100 9.85200 33.68300
H  -0.20200 1.50400 27.30500
H  0.34900 2.39800 28.75400
H  1.48800 2.06800 27.43800
H  -0.72900 1.17100 25.00800
H  1.07100 1.24900 25.35000
H  0.38900 0.82200 23.71000
H  -0.44000 7.73500 21.80100
H  0.91500 10.23700 22.37600
H  1.95100 8.08200 21.17600
H  1.57800 6.46800 21.73100
H  2.34700 7.56300 22.86400
H  -1.61000 10.88500 23.29100
H  -2.02700 9.48600 22.23900
H  -0.37300 10.88900 20.64200
H  -1.11300 12.13900 21.55400
H  -2.11400 10.82900 20.69800
H  1.70500 13.47100 25.52700
H  1.78800 14.31600 27.05000
H  0.24000 14.26200 26.11500
H  -0.07400 11.24400 31.28000
H  3.28600 11.14900 33.90200
H  1.84000 11.30800 34.91400
H  2.87000 12.72600 34.38000
Mg 7.90600 3.85500 27.14500
C  9.48500 2.30600 29.88600
C  5.89300 5.52300 29.34800
C  6.62700 5.45800 24.63000
C  9.83700 1.86800 25.06200
N  7.76700 3.88200 29.39500
C  8.46400 3.19600 30.26400
C  8.06000 3.51700 31.73800
C  6.79800 4.40100 31.48100
C  6.79200 4.62300 29.95500
C  5.44200 3.70500 31.85800
C  9.07500 4.16400 32.61200
C  8.62500 4.93000 33.87100
H  9.63000 5.16700 34.99100
N  6.47700 5.35500 27.01400
C  5.79600 5.98400 28.02800
C  4.86800 6.94800 27.49800
C  5.18200 7.03400 26.12600
C  6.07400 5.93100 25.80700
C  3.93100 7.72700 28.40500
C  4.64800 7.91600 25.08100
O  4.86500 7.82700 23.88100
C  3.79200 8.96000 25.52400
N  8.05200 3.57400 25.16500
C  7.45400 4.36700 24.29000
C  7.68000 3.91800 22.85700
C  8.94200 2.94900 23.05100
C  8.99900 2.76900 24.51100
C  6.53500 3.43900 21.88800
C  10.27900 3.46700 22.40600
C  11.28500 4.19800 23.36600
N  9.33800 2.30900 27.32500
C  9.99700 1.58500 26.42300
C  10.74800 0.56000 27.03200
C  10.65200 0.85500 28.43900
C  9.78700 1.95300 28.55100
C  11.62900 -0.51100 26.48900
C  11.10600 0.48800 29.78900
O  11.87100 -0.30700 30.23300
C  10.38900 1.45100 30.71900
C  9.73400 0.52400 31.67100
O  8.72300 -0.12900 31.49800
O  10.42500 0.48500 32.82000
C  9.74600 -0.06500 34.01000
H  5.27800 6.10100 30.04200
H  6.34700 6.01100 23.73100
H  10.47300 1.28500 24.39300
H  7.76300 2.54100 32.12000
H  6.88900 5.35700 31.99700
H  5.56200 2.68400 32.22100
H  4.64200 3.75300 31.11900
H  5.06800 4.31300 32.68200
H  9.64600 4.83200 31.96800
H  9.85500 3.49800 32.98100
H  7.89400 4.25000 34.30800
H  8.19900 5.91700 33.68800
H  4.31800 8.74300 28.47200
H  3.65600 7.33600 29.38500
H  2.96000 7.78100 27.91200
H  2.76600 8.60400 25.61900
H  3.75700 9.65700 24.68600
H  4.37000 9.39300 26.34000
H  8.08200 4.83100 22.41700
H  8.82500 1.94600 22.64100
H  5.60800 3.33900 22.45200
H  6.78500 2.46200 21.47200
H  6.42800 4.20700 21.12200
H  10.13000 4.14800 21.56900
H  10.75500 2.54900 22.06200
H  12.34100 3.92600 23.39400
H  11.08300 4.23200 24.43700
H  11.32400 5.26200 23.13100
H  11.38300 -0.67600 25.44000
H  11.51300 -1.44800 27.03500
H  12.70800 -0.37300 26.42000
H  11.21000 1.97100 31.21100
H  9.40500 0.79400 34.58900
H  10.53800 -0.52000 34.60400
H  8.90600 -0.74800 33.88400

