158

Mg 9.54700 48.20500 26.69100
C  7.18300 48.13200 29.31800
C  11.96300 48.68100 28.98900
C  11.71200 48.28500 24.19000
C  6.90500 47.90700 24.45200
N  9.52200 48.31900 28.89300
C  8.54700 48.27900 29.80100
C  9.04200 48.33300 31.24600
C  10.61600 48.47000 31.02500
C  10.71800 48.55500 29.55400
C  11.14000 49.79100 31.74700
C  8.51800 47.19600 32.22200
C  9.33600 46.62100 33.40300
H  8.66800 46.56300 34.83300
N  11.53200 48.67500 26.62700
C  12.37600 48.80100 27.62600
C  13.67700 49.09000 27.13600
C  13.65000 48.86800 25.77000
C  12.25500 48.55900 25.46700
C  14.83200 49.38800 28.10100
C  14.70000 48.95700 24.77600
O  14.47100 48.80100 23.56500
C  16.06500 49.29900 25.15200
N  9.34800 48.08000 24.55200
C  10.41800 48.10400 23.70400
C  10.03500 47.74700 22.28100
C  8.46300 47.55800 22.41500
C  8.15900 47.88900 23.91000
C  10.48400 48.80300 21.24700
C  8.01100 46.16500 21.92300
C  7.25100 46.20500 20.60400
N  7.46500 48.19600 26.82100
C  6.53100 47.99300 25.86200
C  5.18500 47.97000 26.40700
C  5.44200 47.97600 27.78900
C  6.80800 48.14700 27.97600
C  3.83500 47.79900 25.76400
C  4.76300 47.88200 29.00300
O  3.56800 47.85700 29.29900
C  5.92000 47.85800 30.09300
C  5.87500 46.48500 30.63400
O  6.24500 45.46900 30.10700
O  5.12800 46.51600 31.74300
C  4.91400 45.21500 32.42400
H  12.86200 48.88100 29.57600
H  12.37900 48.29400 23.32600
H  6.18800 47.73000 23.64700
H  8.74100 49.25800 31.73800
H  11.02700 47.53300 31.40200
H  11.70100 49.37700 32.58600
H  10.38800 50.47100 32.14800
H  11.79600 50.42700 31.15300
H  8.32500 46.34300 31.57100
H  7.55200 47.56500 32.56700
H  10.31100 47.10700 33.43800
H  9.66400 45.62900 33.09200
H  15.76400 49.03800 27.65800
H  14.80600 48.79000 29.01100
H  14.85600 50.45100 28.34100
H  16.65400 49.61000 24.29000
H  16.58900 48.48700 25.65600
H  15.94600 50.19100 25.76800
H  10.62000 46.86000 22.03600
H  7.94500 48.30000 21.80700
H  11.43600 48.50000 20.81100
H  10.62100 49.77900 21.71200
H  9.72600 48.92600 20.47400
H  7.30200 45.85100 22.68900
H  8.81600 45.43000 21.90600
H  6.19500 45.99500 20.77300
H  7.65800 45.55500 19.83000
H  7.32200 47.23000 20.24100
H  3.46900 46.77200 25.76000
H  3.95800 48.15700 24.74200
H  3.11800 48.40900 26.31500
H  5.71200 48.60400 30.86000
H  3.93500 44.80400 32.17800
H  4.97300 45.31100 33.50800
H  5.80300 44.60800 32.24900
Mg -11.10100 16.27900 42.24200
C  -7.79700 17.29600 42.28200
C  -11.89500 19.77700 41.47800
C  -14.32600 15.48400 41.50400
C  -10.27500 12.93500 42.39100
N  -9.96000 18.25900 41.78300
C  -8.62900 18.38700 41.98600
C  -8.22200 19.90200 41.81500
C  -9.57800 20.59700 42.10200
C  -10.50900 19.51100 41.75000
C  -9.85100 21.16900 43.57300
C  -7.70900 20.05400 40.32900
C  -6.20000 20.43500 40.10200
H  -5.36800 19.44800 39.26500
N  -12.88000 17.38400 41.47800
C  -12.93600 18.77400 41.32000
C  -14.20500 19.03600 40.73400
C  -14.97300 17.82500 40.65500
C  -14.10300 16.85200 41.24900
C  -14.53600 20.36000 40.27000
C  -16.37800 17.63800 40.03300
O  -16.97500 18.56700 39.52500
C  -17.03800 16.26000 40.00500
N  -12.03700 14.52800 41.74000
C  -13.40100 14.51100 41.81000
C  -13.89100 13.15700 42.43000
C  -12.63500 12.26200 42.10500
C  -11.55200 13.30800 42.06700
C  -14.36700 13.21600 43.86600
C  -12.73000 11.59400 40.76300
C  -12.48100 10.06500 40.88300
N  -9.45200 15.23100 42.53700
C  -9.21500 13.89100 42.46400
C  -7.77400 13.64300 42.56100
C  -7.19600 15.01500 42.66600
C  -8.28300 15.91900 42.45200
C  -7.06300 12.37100 42.58400
C  -5.91700 15.74700 42.71100
O  -4.79000 15.30000 42.90300
C  -6.27700 17.27700 42.61900
C  -5.98800 17.98900 43.95100
O  -6.30200 17.51600 45.02500
O  -5.32600 19.14000 43.70300
C  -5.37600 20.19600 44.73300
H  -12.22500 20.81400 41.38500
H  -15.32400 15.04400 41.46500
H  -9.90700 11.91900 42.54700
H  -7.37000 20.11200 42.46200
H  -9.70000 21.40600 41.38200
H  -8.91400 20.86200 44.03600
H  -10.63300 20.67700 44.15200
H  -9.97100 22.24300 43.42800
H  -8.36300 20.78300 39.85100
H  -7.85300 19.12300 39.78100
H  -5.73900 20.61900 41.07200
H  -6.11200 21.40000 39.60300
H  -14.85800 21.03400 41.06400
H  -15.22000 20.43900 39.42600
H  -13.62200 20.76400 39.83400
H  -18.02800 16.21700 39.55200
H  -17.29700 15.99400 41.03000
H  -16.39300 15.52300 39.52600
H  -14.72600 12.79600 41.83000
H  -12.39800 11.41600 42.75100
H  -15.43300 12.99100 43.86000
H  -14.40400 14.18000 44.37300
H  -13.76800 12.54600 44.48300
H  -12.07300 11.91000 39.95300
H  -13.72800 11.68400 40.33600
H  -13.21400 9.49800 40.30900
H  -12.45100 9.56200 41.84900
H  -11.55600 9.97100 40.31500
H  -7.74600 11.59700 42.23200
H  -6.81000 12.35900 43.64400
H  -6.15300 12.36200 41.98500
H  -5.67700 17.69600 41.81100
H  -4.41700 20.71400 44.70000
H  -5.50600 19.82000 45.74700
H  -6.23600 20.84900 44.58600

