158

Mg 40.62800 8.29000 29.76400
C  42.31700 9.61200 32.68900
C  38.23300 7.03500 31.83700
C  39.41700 7.06700 27.09200
C  43.69400 9.27700 27.96100
N  40.31700 8.40700 32.03200
C  41.11200 8.97400 33.02100
C  40.48700 8.93600 34.42200
C  39.18600 8.04700 34.11200
C  39.22600 7.78900 32.55600
C  39.10400 6.83100 35.06100
C  40.15500 10.32900 34.94600
C  40.05700 10.35700 36.45800
H  40.91900 11.26800 37.30100
N  39.00500 7.21000 29.50700
C  38.11000 6.78800 30.44800
C  37.05700 6.09900 29.77700
C  37.27100 6.24100 28.37700
C  38.63800 6.84300 28.26100
C  35.88700 5.54500 30.53300
C  36.41600 5.81300 27.20700
O  36.63600 6.13400 26.02300
C  35.26000 5.04200 27.50600
N  41.56800 8.03700 27.80100
C  40.74300 7.54700 26.88400
C  41.34700 7.70300 25.44300
C  42.75100 8.45000 25.66800
C  42.68000 8.63500 27.23700
C  41.44300 6.39000 24.74400
C  42.88900 9.74700 24.95200
C  41.77300 10.73700 25.11500
N  42.56400 9.21400 30.17400
C  43.65500 9.55300 29.31500
C  44.70400 10.09600 30.08200
C  44.27100 10.08800 31.41600
C  42.91600 9.65800 31.39600
C  45.98900 10.56200 29.45900
C  44.65000 10.33900 32.78600
O  45.72400 10.77600 33.27500
C  43.41400 10.01100 33.66800
C  43.77400 8.90400 34.67500
O  44.32200 7.84300 34.43900
O  43.32800 9.25300 35.96500
C  43.55300 8.32000 37.06700
H  37.49900 6.60400 32.52200
H  38.98300 6.72900 26.14800
H  44.57600 9.65300 27.43700
H  41.26300 8.40300 34.97100
H  38.27800 8.64700 34.15700
H  38.68100 5.99700 34.50000
H  38.47900 7.04300 35.92900
H  40.11100 6.50900 35.32700
H  39.23800 10.75500 34.53700
H  40.92700 10.97900 34.53400
H  40.15800 9.33700 36.82800
H  39.06200 10.66400 36.77800
H  35.61900 4.54400 30.19400
H  34.95800 6.09900 30.39800
H  36.15600 5.34700 31.57000
H  35.53300 4.18600 28.12400
H  34.89700 4.58300 26.58700
H  34.45200 5.59200 27.98900
H  40.60000 8.35800 24.99500
H  43.57300 7.81200 25.34300
H  42.33400 6.15600 24.16200
H  40.69500 6.52600 23.96300
H  41.34300 5.53600 25.41400
H  42.85700 9.41900 23.91300
H  43.85900 10.16600 25.21900
H  41.20000 10.69800 24.18900
H  42.18900 11.70800 25.38600
H  41.03000 10.54000 25.88800
H  45.98400 11.24500 28.61000
H  46.70300 9.74100 29.38400
H  46.35700 11.14300 30.30400
H  43.17700 10.95300 34.16100
H  43.08300 8.90400 37.85800
H  44.62900 8.22800 37.22100
H  43.08500 7.35400 36.87900
Mg 9.09500 47.29900 27.71400
C  7.37900 46.83500 30.71500
C  11.92800 47.87000 29.58200
C  10.70000 48.07500 24.86000
C  6.02900 47.68200 26.05500
N  9.56300 47.43200 29.84500
C  8.69200 47.13400 30.87700
C  9.34500 47.43800 32.24600
C  10.73500 47.92300 31.88700
C  10.77200 47.75200 30.36900
C  10.99100 49.40600 32.42300
C  9.40800 46.18800 33.22100
C  9.18800 46.49300 34.70400
H  9.67700 45.39700 35.64600
N  11.08300 47.65800 27.29500
C  12.15000 47.78500 28.16100
C  13.34200 48.02100 27.39300
C  12.99700 47.95000 26.02100
C  11.50800 47.89400 25.99000
C  14.62200 48.26100 27.96800
C  13.83500 47.80200 24.77900
O  13.36300 47.80500 23.65200
C  15.30700 47.64900 24.94900
N  8.44500 47.86800 25.74300
C  9.34300 48.08300 24.75600
C  8.69900 48.53200 23.41500
C  7.15600 48.29300 23.76800
C  7.17300 47.87200 25.23400
C  8.95900 49.99900 23.11300
C  6.54200 47.28400 22.78600
C  6.63000 47.57000 21.26000
N  7.07600 47.18300 28.22500
C  5.95100 47.35200 27.44700
C  4.72200 47.09700 28.30900
C  5.23900 46.91000 29.59300
C  6.69900 46.90700 29.49800
C  3.30300 47.10600 27.89600
C  4.92500 46.63800 30.95900
O  3.81300 46.50200 31.42700
C  6.28600 46.63600 31.76200
C  6.34300 45.28800 32.33700
O  6.76300 44.24900 31.82000
O  5.97600 45.45200 33.66300
C  6.33300 44.25000 34.52600
H  12.78100 47.99100 30.25300
H  11.10600 48.27800 23.86700
H  5.07900 47.91200 25.56700
H  8.79700 48.27700 32.67300
H  11.56800 47.31300 32.23700
H  10.22300 50.08300 32.04900
H  11.96900 49.64900 32.00800
H  10.95900 49.39900 33.51300
H  10.40000 45.74500 33.30400
H  8.93500 45.32800 32.74600
H  8.16900 46.72100 35.01600
H  9.65800 47.46500 34.85300
H  15.20000 47.33700 27.93300
H  14.32200 48.54100 28.97800
H  15.03800 49.09400 27.40100
H  15.82500 48.58300 25.16900
H  15.71000 47.12300 24.08300
H  15.37100 46.92300 25.75900
H  8.96800 47.91600 22.55700
H  6.60200 49.23100 23.79800
H  9.61800 50.09400 22.25000
H  9.37200 50.50700 23.98400
H  8.06700 50.55500 22.82300
H  5.47800 47.26900 23.02200
H  7.03700 46.34700 23.04100
H  5.67700 47.57800 20.73300
H  7.30300 46.84400 20.80500
H  7.01100 48.59200 21.26100
H  2.62300 47.53700 28.63200
H  2.92200 46.08800 27.81900
H  3.10700 47.65100 26.97200
H  6.29000 47.43100 32.50900
H  6.36000 44.53800 35.57700
H  7.34800 43.93100 34.29200
H  5.67600 43.39900 34.34700

