158

Mg 9.03200 4.10400 27.08400
C  9.90800 2.26300 29.91900
C  6.88500 5.99800 28.89100
C  7.76000 5.33300 24.13600
C  10.89300 1.71800 25.17000
N  8.40100 4.04800 29.15500
C  9.11400 3.41000 30.23800
C  8.62300 3.82600 31.61000
C  7.54100 4.97900 31.14800
C  7.59500 5.01300 29.57500
C  6.13000 4.77400 31.75600
C  9.65300 4.31300 32.66500
C  8.96400 5.07500 33.85900
H  9.75300 5.18800 35.19300
N  7.42100 5.43100 26.55400
C  6.70700 6.16200 27.48900
C  5.95500 7.09900 26.79900
C  6.28200 6.96900 25.41100
C  7.19000 5.89600 25.32000
C  4.99700 8.06400 27.52800
C  5.85200 7.90400 24.25800
O  6.18800 7.74500 23.08100
C  5.05600 9.03500 24.52600
N  9.30000 3.54900 24.96900
C  8.68500 4.30700 24.00800
C  9.20500 3.84400 22.62100
C  10.23000 2.73400 22.91300
C  10.20500 2.69200 24.46200
C  8.07800 3.48800 21.63800
C  11.69600 3.05400 22.24900
C  12.55300 4.04500 23.06900
N  10.35600 2.43100 27.46100
C  10.95800 1.54500 26.58400
C  11.67300 0.49400 27.28900
C  11.38400 0.74300 28.69000
C  10.46300 1.90200 28.69700
C  12.47500 -0.66200 26.67000
C  11.39600 0.26100 30.05800
O  11.90600 -0.73600 30.47100
C  10.64800 1.32900 30.92000
C  9.78200 0.61500 31.88700
O  8.63500 0.27800 31.67500
O  10.36600 0.75100 33.11700
C  9.58100 0.42800 34.27200
H  6.54600 6.65000 29.69800
H  7.35200 5.62700 23.16700
H  11.44600 1.00800 24.55300
H  8.17700 2.93300 32.04900
H  7.85400 6.01000 31.30600
H  5.89600 5.73000 32.22400
H  6.03200 4.05300 32.56800
H  5.46300 4.47800 30.94600
H  10.38700 4.99000 32.22800
H  9.99700 3.33400 32.99800
H  7.96500 4.66500 34.00800
H  8.91900 6.07800 33.43400
H  5.03400 7.91000 28.60600
H  4.04100 7.75500 27.10700
H  5.29500 9.10900 27.44300
H  5.54500 9.57500 25.33700
H  4.15200 8.50900 24.83400
H  4.99300 9.70100 23.66500
H  9.77800 4.69600 22.25500
H  9.92100 1.72600 22.63600
H  7.07500 3.61400 22.04500
H  8.19400 2.49200 21.21100
H  8.14300 4.10800 20.74300
H  11.46200 3.50400 21.28400
H  12.22300 2.11500 22.08100
H  13.46800 3.55000 23.39600
H  12.08000 4.40900 23.98100
H  12.93200 4.90100 22.50900
H  12.86000 -0.37700 25.69100
H  11.86700 -1.55500 26.52800
H  13.30000 -0.99700 27.29900
H  11.38700 1.92200 31.45900
H  10.02500 0.98800 35.09500
H  9.52400 -0.60100 34.62600
H  8.55200 0.76600 34.14400
Mg 49.81900 46.51200 40.25100
C  46.70200 47.88600 39.32000
C  48.85600 43.61900 38.83200
C  53.05600 45.41100 40.44200
C  50.90200 49.78400 40.91600
N  47.92000 45.83000 39.20300
C  46.78900 46.52000 38.95700
C  45.70100 45.62300 38.36600
C  46.29000 44.14400 38.48900
C  47.75800 44.50900 38.86300
C  45.47800 43.21500 39.46200
C  45.34700 45.95200 36.86500
C  43.78500 45.93000 36.59600
H  43.36500 44.89200 35.60800
N  50.81900 44.76300 39.72300
C  50.20800 43.68800 39.15000
C  51.13900 42.54700 39.10900
C  52.41300 43.07300 39.47800
C  52.13700 44.44900 39.95200
C  50.75200 41.12300 38.60500
C  53.71000 42.27900 39.54500
O  53.75700 41.07600 39.35100
C  54.96100 42.84700 39.99600
N  51.73200 47.49300 40.53800
C  52.90600 46.76800 40.71300
C  54.03000 47.67700 41.05700
C  53.34100 49.08100 41.00200
C  51.90200 48.77600 40.88100
C  54.68000 47.26300 42.39600
C  53.90700 50.02900 39.93500
C  54.67300 51.31700 40.39400
N  48.93100 48.45600 40.37300
C  49.54100 49.66900 40.54900
C  48.49500 50.72000 40.36600
C  47.29700 50.06500 40.02800
C  47.68700 48.71200 39.89700
C  48.78500 52.14100 40.49700
C  45.94300 50.20700 39.70300
O  45.24100 51.21300 39.77000
C  45.47400 48.86400 39.12000
C  44.22300 48.38800 39.77600
O  43.98900 48.48700 40.94900
O  43.36200 47.87700 38.85700
C  42.02000 47.62000 39.33700
H  48.63000 42.67900 38.32400
H  54.09700 45.10900 40.57100
H  51.15700 50.75100 41.35500
H  44.90600 45.79300 39.09200
H  46.29800 43.52700 37.59100
H  46.01200 42.92200 40.36600
H  45.12200 42.31300 38.96400
H  44.62200 43.74000 39.88400
H  45.87700 45.26600 36.20400
H  45.83200 46.91500 36.70700
H  43.48900 46.93300 36.28700
H  43.29300 45.70800 37.54300
H  50.21800 41.13300 37.65500
H  50.27900 40.53700 39.39200
H  51.64200 40.53200 38.38700
H  54.90700 42.92800 41.08200
H  55.14400 43.77000 39.44500
H  55.76900 42.19700 39.66000
H  54.77100 47.65500 40.25800
H  53.46600 49.54500 41.98100
H  54.09300 46.56400 42.99200
H  54.94100 48.16500 42.94900
H  55.66300 46.90400 42.09100
H  53.13700 50.27300 39.20300
H  54.59000 49.41900 39.34300
H  54.15000 52.25300 40.19600
H  55.65500 51.27900 39.92400
H  54.84800 51.23300 41.46600
H  48.43100 52.46000 41.47700
H  48.24800 52.70800 39.73700
H  49.82800 52.45600 40.53800
H  45.37000 48.87400 38.03500
H  41.89300 47.30100 40.37200
H  41.67400 46.75400 38.77300
H  41.38800 48.48000 39.11700

