158

Mg 2.30500 -1.99100 44.43700
C  5.51600 -1.14100 43.62200
C  1.03600 0.60500 42.72400
C  -0.77000 -3.29100 44.82400
C  3.61800 -5.17100 45.64700
N  3.21900 -0.50400 43.20900
C  4.52400 -0.31300 43.06600
C  4.83000 0.94200 42.24000
C  3.31600 1.63000 42.06500
C  2.45200 0.49700 42.69300
C  3.11900 3.09200 42.71800
C  5.56900 0.80800 40.91100
C  6.51600 1.97900 40.55900
H  6.82800 2.30300 39.08600
N  0.35800 -1.49300 43.70300
C  0.06900 -0.26900 43.15400
C  -1.39200 -0.14000 42.98300
C  -1.89000 -1.23000 43.73100
C  -0.73200 -2.10900 44.09900
C  -2.08500 1.03400 42.22700
C  -3.31000 -1.49300 44.10900
O  -4.08700 -0.70300 43.63700
C  -3.77300 -2.57800 45.02900
N  1.49700 -3.99300 45.10700
C  0.18000 -4.18400 45.25600
C  -0.15400 -5.55900 45.89800
C  1.30100 -6.22200 45.89800
C  2.21200 -5.02800 45.60500
C  -0.97400 -5.50300 47.21300
C  1.68300 -7.45000 44.98000
C  2.60800 -8.53000 45.54700
N  4.12000 -2.94800 44.68900
C  4.56400 -4.18600 45.19500
C  5.99500 -4.23800 45.34200
C  6.44400 -3.08500 44.71300
C  5.25400 -2.29000 44.31200
C  6.75800 -5.39100 45.91100
C  7.55900 -2.27300 44.37000
O  8.75800 -2.37200 44.58100
C  7.03900 -1.06500 43.56300
C  7.60000 0.13200 44.27200
O  7.22300 0.54000 45.35200
O  8.65600 0.57100 43.48300
C  9.10100 1.89700 43.91300
H  0.54400 1.39000 42.14700
H  -1.74300 -3.78500 44.85900
H  4.03800 -6.11400 46.00200
H  5.45900 1.62100 42.81600
H  2.95500 1.71900 41.04000
H  2.42500 3.19700 43.55200
H  2.78300 3.81700 41.97600
H  4.05000 3.56700 43.02900
H  4.88600 0.61900 40.08200
H  6.17600 -0.09100 41.01600
H  7.40600 1.68600 41.11500
H  6.14500 2.86000 41.08200
H  -2.97600 0.66500 41.72000
H  -1.39500 1.43000 41.48200
H  -2.32600 1.86400 42.89100
H  -4.82500 -2.44600 45.28200
H  -2.94700 -2.75700 45.71800
H  -3.90500 -3.48400 44.43800
H  -0.77200 -6.12400 45.20000
H  1.53900 -6.43100 46.94100
H  -1.17900 -4.43400 47.25400
H  -0.54300 -5.70600 48.19300
H  -1.90100 -6.07500 47.17800
H  2.32500 -6.92700 44.27100
H  0.84300 -7.95300 44.50100
H  3.65500 -8.54200 45.24600
H  2.04000 -9.42900 45.30700
H  2.46500 -8.59500 46.62600
H  6.72700 -6.26000 45.25300
H  6.30000 -5.81100 46.80700
H  7.76200 -5.01400 46.10300
H  7.36800 -0.98800 42.52700
H  9.86500 2.30400 43.25100
H  9.30800 2.01300 44.97700
H  8.22500 2.53000 43.77100
Mg 1.05700 8.07400 27.70700
C  1.96900 10.42300 30.15500
C  1.42000 5.60500 30.00800
C  0.80000 5.95800 25.23400
C  1.29300 10.66400 25.24600
N  1.52600 8.03500 29.92300
C  1.78600 9.14800 30.71200
C  1.69400 8.75500 32.18500
C  2.00500 7.18100 32.08800
C  1.65900 6.85800 30.61500
C  3.47000 6.75100 32.49700
C  0.32500 9.10400 32.83000
C  0.07700 8.91000 34.31600
H  1.18800 8.26200 35.12400
N  0.89700 6.00400 27.62100
C  1.07500 5.16000 28.67700
C  0.95200 3.82300 28.24700
C  0.59200 3.87700 26.87400
C  0.76800 5.28900 26.47100
C  0.93300 2.59300 29.14700
C  0.16300 2.79600 26.00200
O  -0.20300 3.04400 24.85700
C  0.02600 1.43800 26.53800
N  1.19900 8.28100 25.56500
C  1.00100 7.25200 24.78200
C  0.87600 7.65700 23.36000
C  0.76000 9.23100 23.39200
C  1.08600 9.41900 24.84800
C  2.17000 7.22600 22.63100
C  -0.55500 9.80600 22.91100
C  -0.49800 10.85000 21.73300
N  1.47700 10.08400 27.65100
C  1.56200 10.94400 26.60200
C  2.02500 12.23600 27.14400
C  2.26800 12.04900 28.50300
C  1.93300 10.74500 28.76300
C  2.12500 13.42600 26.28300
C  2.59000 12.74600 29.68800
O  3.05600 13.82900 29.91100
C  2.41400 11.68900 30.80600
C  3.62700 11.43900 31.64100
O  4.53800 10.66700 31.36000
O  3.57100 12.18700 32.80300
C  4.73300 12.06400 33.63100
H  1.55100 4.85300 30.78900
H  0.56500 5.26100 24.42700
H  1.43000 11.41800 24.46800
H  2.45200 9.32200 32.72500
H  1.27600 6.68100 32.72600
H  3.83000 6.24000 31.60500
H  3.28600 5.98700 33.25100
H  4.16200 7.48500 32.91200
H  -0.47100 8.55600 32.32500
H  0.24200 10.17300 32.63100
H  -0.88000 8.41800 34.48700
H  -0.08200 9.81200 34.90700
H  -0.11800 2.32100 29.24300
H  1.35900 2.85200 30.11600
H  1.63100 1.79300 28.90300
H  -0.43600 0.90600 25.70600
H  -0.64100 1.42000 27.40000
H  1.03700 1.03200 26.56600
H  -0.03500 7.19500 22.97900
H  1.54600 9.78700 22.88100
H  2.53100 6.29900 23.07600
H  2.94500 7.99100 22.58900
H  2.00200 6.85300 21.62100
H  -1.01100 10.38200 23.71600
H  -1.24000 9.05700 22.51200
H  -0.79800 11.69100 22.35900
H  -1.11800 10.45200 20.93000
H  0.53800 10.97100 21.41800
H  1.12500 13.71400 25.96000
H  2.74200 13.25900 25.40000
H  2.53500 14.27500 26.83100
H  1.66800 11.95700 31.55400
H  4.73900 12.72200 34.50000
H  5.62200 12.44100 33.12600
H  5.00500 11.04000 33.88700

