158

Mg -0.33700 7.00700 26.97500
C  0.57100 9.08600 29.52700
C  -0.61200 4.35200 29.41200
C  -1.04400 4.92400 24.50000
C  0.52800 9.46000 24.63000
N  -0.09900 6.78700 29.30500
C  0.21900 7.85100 30.13500
C  0.11100 7.42700 31.60400
C  0.11300 5.86800 31.48500
C  -0.24400 5.59300 29.98500
C  1.51700 5.23400 31.77600
C  -1.18700 7.95900 32.32200
C  -1.31300 8.19800 33.84800
H  -0.06900 7.88000 34.73700
N  -0.85100 5.00000 26.96300
C  -0.95000 4.08900 28.04800
C  -1.24100 2.76700 27.51000
C  -1.29800 2.87500 26.05800
C  -1.03400 4.32800 25.80900
C  -1.30400 1.57600 28.37900
C  -1.52500 1.82400 25.04300
O  -1.49300 2.00100 23.81500
C  -1.62500 0.45000 25.50800
N  -0.14000 7.17000 24.77600
C  -0.55100 6.13100 23.99500
C  -0.54100 6.53600 22.50200
C  -0.12000 8.04800 22.55100
C  0.04100 8.28600 24.03300
C  0.20200 5.69900 21.50800
C  -0.99500 9.03900 21.84100
C  -2.03600 9.76100 22.63200
N  0.42300 8.85100 27.04500
C  0.67900 9.79800 26.03400
C  1.11700 11.02200 26.57400
C  1.05500 10.85500 27.91700
C  0.71200 9.47200 28.13300
C  1.52300 12.36300 25.78800
C  1.26700 11.46500 29.20900
O  1.71000 12.61100 29.45600
C  0.99900 10.33700 30.26700
C  2.20500 10.21900 31.09200
O  3.22900 9.72200 30.70600
O  1.93500 10.75900 32.35600
C  3.15000 10.86400 33.18800
H  -0.63000 3.62900 30.22900
H  -1.17800 4.26000 23.64400
H  0.74200 10.24800 23.90400
H  1.01700 7.82600 32.05900
H  -0.67300 5.43800 32.10600
H  1.95200 4.91100 30.83000
H  1.39800 4.31900 32.35700
H  2.02800 5.98000 32.38400
H  -2.01600 7.31600 32.02700
H  -1.52300 8.90100 31.88900
H  -2.11500 7.66900 34.36200
H  -1.57500 9.24900 33.96400
H  -1.38000 1.84700 29.43200
H  -0.48800 0.91800 28.08200
H  -2.23100 1.06400 28.12000
H  -2.47000 0.35800 26.19000
H  -0.66500 0.11400 25.89900
H  -1.76700 -0.19300 24.63900
H  -1.60000 6.41300 22.27200
H  0.93900 8.13700 22.30900
H  0.81900 5.01400 22.09000
H  0.88500 6.31600 20.92400
H  -0.46200 5.05000 20.93700
H  -1.49300 8.38100 21.12800
H  -0.41900 9.81600 21.33800
H  -2.93900 10.03800 22.08900
H  -1.54200 10.72300 22.77100
H  -2.25000 9.27800 23.58500
H  2.20200 12.22500 24.94600
H  2.07100 13.15300 26.30200
H  0.62600 12.84400 25.39800
H  0.17300 10.64500 30.90900
H  3.09300 11.61400 33.97700
H  4.07400 11.05900 32.64400
H  3.42100 9.91400 33.65000
Mg 25.26900 2.04200 29.76600
C  27.34000 1.98100 32.53700
C  22.46500 2.46900 32.03000
C  23.19600 1.82000 27.13200
C  27.92800 1.25400 27.66600
N  24.91500 2.21800 32.08400
C  25.99400 2.25100 32.90200
C  25.54600 2.53400 34.37900
C  23.93400 2.54100 34.24000
C  23.74100 2.36600 32.71100
C  23.25700 1.49600 35.01600
C  26.27900 3.66100 35.18100
C  27.17100 3.23100 36.42500
H  27.15100 4.08700 37.71100
N  23.14900 1.99600 29.63300
C  22.17500 2.19400 30.64600
C  20.85500 2.03000 30.04100
C  21.10800 1.92800 28.65100
C  22.58200 1.98400 28.41000
C  19.56500 2.20000 30.93300
C  20.05600 1.75200 27.59400
O  20.29200 1.64400 26.35100
C  18.65500 1.80700 27.94800
N  25.50000 1.61800 27.73600
C  24.55100 1.66800 26.82000
C  24.99200 1.69100 25.36700
C  26.50400 1.65800 25.52600
C  26.68200 1.56100 27.09300
C  24.36900 0.65000 24.44300
C  27.16900 2.99800 24.96900
C  26.91000 4.21200 25.84000
N  27.26200 1.84400 30.00200
C  28.22500 1.45300 29.04900
C  29.53600 1.33000 29.71000
C  29.19300 1.47400 31.06000
C  27.78600 1.75300 31.19400
C  30.82200 0.90200 29.09100
C  29.72000 1.36800 32.39600
O  30.89200 1.09200 32.74900
C  28.57600 1.67100 33.39100
C  28.40700 0.55100 34.35100
O  27.68100 -0.44900 34.22100
O  29.26100 0.87000 35.40100
C  29.16300 -0.14000 36.52600
H  21.53700 2.65200 32.57500
H  22.55200 1.77100 26.25100
H  28.71600 1.14500 26.91800
H  25.91600 1.66500 34.92200
H  23.61500 3.50200 34.64400
H  22.91400 0.72600 34.32500
H  22.44200 1.92800 35.59700
H  23.95900 1.04800 35.72000
H  25.52900 4.31800 35.62200
H  26.97500 4.11400 34.47500
H  28.18200 3.33900 36.03100
H  27.05500 2.18000 36.69000
H  19.33000 3.26400 30.89400
H  19.70100 1.99200 31.99400
H  18.69000 1.67500 30.54700
H  18.34100 0.87000 28.40800
H  18.09400 1.98400 27.03000
H  18.43400 2.65800 28.59200
H  24.57700 2.61800 24.97100
H  26.94700 0.74000 25.14000
H  23.42100 0.16100 24.66900
H  25.19600 -0.03100 24.24400
H  24.29200 1.11800 23.46100
H  26.84400 3.14600 23.93900
H  28.21600 2.78800 24.74800
H  26.56900 4.97600 25.14200
H  27.91100 4.36400 26.24400
H  26.16700 3.99500 26.60700
H  30.71700 0.99400 28.01000
H  31.02900 -0.14700 29.30400
H  31.64600 1.49500 29.48900
H  28.85100 2.61600 33.86000
H  28.16100 -0.08200 36.95200
H  29.82000 0.03300 37.37800
H  29.31100 -1.17100 36.20400

