158

Mg 26.02600 0.55700 29.36100
C  28.08000 0.12900 32.15500
C  23.41200 1.12800 31.32600
C  24.28900 0.82200 26.56800
C  28.83000 -0.47700 27.39100
N  25.77600 0.52000 31.50900
C  26.71600 0.43800 32.47200
C  26.16600 0.79000 33.83600
C  24.65100 0.95600 33.55200
C  24.62800 0.88300 32.00400
C  23.59500 -0.02000 34.20900
C  26.79700 2.05500 34.55600
C  27.35400 1.73400 36.03000
H  27.18200 2.84400 37.07200
N  24.04900 1.01600 28.98900
C  23.13900 1.21100 30.01400
C  21.86900 1.57800 29.25700
C  22.10900 1.39600 27.84600
C  23.54800 1.01500 27.70700
C  20.60800 1.96800 29.97500
C  21.13900 1.57200 26.76600
O  21.48400 1.46400 25.58700
C  19.71300 1.76600 27.04000
N  26.43000 0.09300 27.23800
C  25.57100 0.44200 26.28200
C  26.19700 0.41800 24.87300
C  27.68200 0.20900 25.18300
C  27.64200 -0.16600 26.67600
C  25.70100 -0.76700 23.97200
C  28.43600 1.58800 24.94800
C  29.92500 1.31600 24.37100
N  28.07200 -0.04900 29.63600
C  29.02100 -0.45300 28.78600
C  30.25800 -0.65300 29.47600
C  29.96000 -0.45000 30.80200
C  28.63200 -0.07800 30.87100
C  31.66700 -0.95900 28.81800
C  30.50500 -0.41900 32.13900
O  31.61200 -0.80400 32.55000
C  29.29900 0.05100 33.07700
C  29.11000 -0.96000 34.18100
O  28.59700 -2.06200 33.99800
O  29.73900 -0.59300 35.34700
C  29.56200 -1.50900 36.46100
H  22.52800 1.30900 31.94100
H  23.72900 1.10900 25.67600
H  29.74300 -0.64700 26.81600
H  26.21200 -0.15500 34.37700
H  24.32100 1.98100 33.72300
H  24.11600 -0.29400 35.12700
H  23.52500 -0.84200 33.49700
H  22.60300 0.29400 34.53300
H  26.09700 2.89000 34.56600
H  27.72000 2.27500 34.01900
H  28.42200 1.57600 35.88000
H  26.82000 0.81900 36.28600
H  19.98000 2.74800 29.54500
H  20.93300 2.49900 30.87000
H  19.87500 1.17200 30.10800
H  19.10800 1.68600 26.13800
H  19.59200 2.80500 27.34900
H  19.29600 1.15800 27.84300
H  25.97500 1.33600 24.32800
H  28.09200 -0.59400 24.57100
H  25.70300 -0.48800 22.91800
H  24.68600 -1.00900 24.28900
H  26.24700 -1.69500 24.14100
H  28.51400 2.00400 25.95200
H  27.88500 2.32000 24.35700
H  30.05100 1.57500 23.32000
H  30.27300 0.30200 24.57000
H  30.54900 2.07300 24.84700
H  32.36500 -0.99300 29.65400
H  31.80100 -0.10500 28.15400
H  31.68400 -1.79100 28.11400
H  29.50800 1.02100 33.52900
H  30.19500 -1.10100 37.24900
H  29.87600 -2.53900 36.28900
H  28.54500 -1.58300 36.84700
Mg 29.45400 58.00500 39.41400
C  26.93600 55.77200 38.23500
C  31.72500 55.43500 38.34500
C  31.87400 60.15000 40.01900
C  27.10800 60.42800 39.67600
N  29.29300 55.88000 38.34200
C  28.17500 55.20300 38.05500
C  28.44900 53.69600 37.65200
C  29.96900 53.62600 37.82200
C  30.37100 55.13500 38.13100
C  30.65400 52.65800 38.90000
C  28.04900 53.31500 36.22600
C  28.42800 54.36000 35.02200
H  27.32100 54.80800 34.02800
N  31.49500 57.89500 39.24300
C  32.25300 56.66800 38.86200
C  33.67200 57.02600 38.97400
C  33.75200 58.33800 39.56200
C  32.33700 58.87000 39.60800
C  34.70100 56.12200 38.45100
C  35.07200 59.01100 39.91600
O  36.12500 58.50900 39.77700
C  35.06800 60.34300 40.42900
N  29.54700 60.19800 39.41900
C  30.59500 60.80700 40.01100
C  30.24400 62.25000 40.42900
C  28.73900 62.06600 40.61600
C  28.39200 60.82900 39.83500
C  31.01300 62.91400 41.63900
C  28.01800 63.28500 40.01900
C  27.00700 64.02100 40.99800
N  27.35400 58.08400 39.11600
C  26.58500 59.14800 39.29200
C  25.20400 58.83000 39.07900
C  25.29600 57.46700 38.65900
C  26.63600 57.05500 38.66800
C  24.00400 59.78700 39.15000
C  24.44800 56.36200 38.28900
O  23.21400 56.27400 38.19100
C  25.50000 55.16100 38.09500
C  25.17000 54.06300 39.10000
O  25.73700 53.82600 40.13000
O  23.95900 53.42100 38.75300
C  23.44500 52.34100 39.57800
H  32.45900 54.62800 38.39300
H  32.66600 60.84000 40.31600
H  26.33800 61.16300 39.92000
H  27.96300 53.03300 38.36700
H  30.49000 53.45700 36.88000
H  29.98300 51.80200 38.97500
H  30.81700 53.11400 39.87600
H  31.61400 52.25600 38.57700
H  27.00500 53.01000 36.30500
H  28.71000 52.49100 35.95800
H  29.26600 53.89400 34.50300
H  28.81500 55.30500 35.40400
H  35.42700 55.93800 39.24200
H  35.14800 56.57300 37.56500
H  34.33700 55.11400 38.25300
H  36.05700 60.77100 40.59100
H  34.68300 60.19500 41.43800
H  34.62600 61.08700 39.76600
H  30.63700 62.87100 39.62400
H  28.55800 61.86100 41.67200
H  30.29200 63.32100 42.34800
H  31.79800 63.57300 41.26900
H  31.54400 62.15400 42.21100
H  27.42100 63.03800 39.14100
H  28.71200 64.08400 39.75600
H  26.98300 65.05200 40.64700
H  27.21800 64.02200 42.06700
H  26.01300 63.64900 40.74800
H  24.30200 60.80100 38.88400
H  23.56200 59.67000 40.14000
H  23.31300 59.44500 38.37900
H  25.41100 54.95500 37.02800
H  24.08600 51.46000 39.61100
H  22.46500 51.99400 39.24900
H  23.25600 52.50600 40.63800

