158

Mg 40.75900 40.14600 27.45100
C  40.16900 42.66300 29.84500
C  41.93900 38.10500 30.01700
C  41.39000 37.85000 25.08800
C  40.04200 42.55400 24.92400
N  41.01200 40.39200 29.71300
C  40.61300 41.47100 30.45600
C  40.65100 41.14800 31.98100
C  41.35000 39.70700 31.94800
C  41.44500 39.36000 30.44400
C  42.68600 39.72100 32.70900
C  39.23800 41.23300 32.74000
C  39.23100 42.07700 33.97700
H  38.67100 41.40200 35.26200
N  41.51400 38.21300 27.61800
C  41.96800 37.56000 28.71400
C  42.40400 36.21500 28.31400
C  42.27700 36.08700 26.95000
C  41.69900 37.39300 26.46700
C  42.96800 35.25000 29.30200
C  42.78800 35.05000 26.01200
O  42.76200 35.18700 24.81300
C  43.46600 33.78000 26.52300
N  40.93000 40.32600 25.31400
C  41.06100 39.17000 24.54500
C  40.73400 39.39700 23.02200
C  39.98500 40.80400 23.07700
C  40.27100 41.26000 24.53500
C  41.90000 39.36400 22.12800
C  38.51100 40.64500 22.70400
C  37.69700 39.81100 23.65400
N  40.22500 42.19400 27.36000
C  40.00200 43.06400 26.27100
C  39.52500 44.29300 26.75300
C  39.66400 44.24900 28.14400
C  40.10000 42.93600 28.47400
C  39.04400 45.45700 25.93200
C  39.54200 44.98900 29.30300
O  39.24000 46.21600 29.32600
C  39.78200 43.92700 30.54900
C  40.86100 44.44900 31.38000
O  41.94300 44.69000 30.89700
O  40.43500 44.76800 32.69100
C  41.28800 45.61700 33.49400
H  42.22400 37.59500 30.93900
H  41.36300 37.09000 24.30400
H  39.65500 43.18800 24.12300
H  41.34600 41.88600 32.38200
H  40.76300 38.85600 32.29400
H  42.87700 38.67500 32.95000
H  42.43600 40.23600 33.63700
H  43.49700 40.27100 32.23200
H  39.06400 40.18700 32.99400
H  38.42800 41.52400 32.07100
H  38.49300 42.86300 33.81700
H  40.18800 42.55500 34.18500
H  44.02800 35.03000 29.17600
H  42.42700 34.31300 29.16900
H  42.82300 35.52000 30.34800
H  44.46500 34.08900 26.83100
H  43.65800 33.08700 25.70400
H  42.86900 33.31000 27.30400
H  39.97500 38.67600 22.71800
H  40.55700 41.44900 22.40900
H  42.66400 38.70100 22.53500
H  42.21500 40.32600 21.72500
H  41.55000 38.84700 21.23400
H  38.52700 40.23900 21.69200
H  38.17700 41.68200 22.72500
H  38.20300 39.37300 24.51500
H  37.29000 39.04900 22.99000
H  36.77600 40.25800 24.02700
H  38.84500 45.11700 24.91600
H  39.92000 46.08600 25.77200
H  38.24400 45.94900 26.48600
H  38.87200 43.79200 31.13300
H  41.50600 45.03800 34.39100
H  40.71700 46.48400 33.82700
H  42.16800 45.82700 32.88600
Mg -4.60400 25.72100 26.07400
C  -3.10400 27.07300 29.03000
C  -6.20200 23.45200 28.12400
C  -5.60800 24.28900 23.34200
C  -2.35800 27.83400 24.20900
N  -4.65300 25.34000 28.29400
C  -4.05500 26.06400 29.27500
C  -4.53800 25.62400 30.70600
C  -5.28300 24.26700 30.33100
C  -5.40900 24.33700 28.79800
C  -4.64100 22.90300 30.77200
C  -5.40300 26.69500 31.38100
C  -5.05200 27.21100 32.79200
H  -4.51700 26.22300 33.81200
N  -5.72800 24.19800 25.77700
C  -6.30300 23.41200 26.71400
C  -7.14900 22.33900 26.04800
C  -7.06600 22.55100 24.68700
C  -6.07900 23.68400 24.58300
C  -8.00500 21.37700 26.92100
C  -7.73900 21.79100 23.49800
O  -7.60300 22.08100 22.32200
C  -8.58800 20.65400 23.78500
N  -4.01600 25.97300 24.08400
C  -4.69100 25.30600 23.12800
C  -4.28800 25.78500 21.71500
C  -3.15500 26.90100 22.02800
C  -3.16100 26.90200 23.52300
C  -3.58800 24.66200 20.87000
C  -3.42400 28.32200 21.31300
C  -2.54800 28.61100 20.09500
N  -3.05600 27.18700 26.49200
C  -2.35700 28.00500 25.61800
C  -1.64000 29.01600 26.33200
C  -1.92100 28.74900 27.68000
C  -2.82200 27.61900 27.73300
C  -0.88700 30.25900 25.76900
C  -1.68600 29.15800 29.01400
O  -0.96500 30.07600 29.43600
C  -2.45600 28.13800 29.92100
C  -1.44600 27.49500 30.78000
O  -0.43300 26.93500 30.39200
O  -1.73800 27.69100 32.11800
C  -0.63900 27.37400 33.09900
H  -6.81400 22.79100 28.74000
H  -5.90500 23.70300 22.46900
H  -1.75700 28.46100 23.54800
H  -3.58600 25.49700 31.22300
H  -6.31000 24.21800 30.69300
H  -4.05200 22.63100 29.89600
H  -5.39500 22.14600 30.98900
H  -3.91600 23.02300 31.57700
H  -6.45900 26.42900 31.42800
H  -5.37900 27.59200 30.76300
H  -5.99500 27.60800 33.16800
H  -4.39300 28.07600 32.71600
H  -7.44900 20.95400 27.75800
H  -8.15600 20.46700 26.34100
H  -9.01000 21.78500 27.02600
H  -9.05700 20.39600 22.83500
H  -9.34400 21.15000 24.39400
H  -8.05100 19.84400 24.27800
H  -5.11000 26.13400 21.09000
H  -2.16700 26.50600 21.79600
H  -4.22300 24.56600 19.98900
H  -3.55700 23.69700 21.37500
H  -2.53200 24.85000 20.67700
H  -3.18100 29.07900 22.05800
H  -4.47800 28.49800 21.09700
H  -2.03500 29.57000 20.16500
H  -3.19700 28.73600 19.22800
H  -1.76600 27.92000 19.77800
H  -1.48800 31.13000 25.50700
H  -0.24900 30.14000 24.89300
H  -0.30000 30.55500 26.63800
H  -3.18100 28.53800 30.63000
H  -0.84100 26.30700 33.18400
H  -0.72200 27.82600 34.08700
H  0.37800 27.56800 32.75900

