158

Mg 25.34700 2.07900 30.08400
C  27.50600 1.91900 32.85500
C  22.65200 1.98500 32.27900
C  23.37500 1.63500 27.56700
C  28.10600 1.64900 28.03100
N  25.08400 1.86300 32.28000
C  26.12200 2.02600 33.22600
C  25.65100 2.24300 34.64900
C  24.08600 2.26000 34.39600
C  23.91300 2.07200 32.92300
C  23.26900 1.26000 35.20700
C  26.18600 3.68900 35.14700
C  26.45000 3.68700 36.70300
H  25.92600 4.79100 37.60900
N  23.29600 2.08300 29.95400
C  22.34100 1.94100 30.93000
C  21.07700 1.78300 30.27900
C  21.19600 1.72700 28.87500
C  22.71300 1.78100 28.75100
C  19.78900 1.77600 31.10100
C  20.12500 1.58900 27.76200
O  20.42400 1.51700 26.58400
C  18.61400 1.54600 28.18700
N  25.66400 1.72400 28.02900
C  24.69300 1.45500 27.19300
C  25.15300 1.51000 25.67300
C  26.68300 1.66700 25.91800
C  26.85500 1.65000 27.42900
C  24.69800 0.27700 24.86800
C  27.30500 2.99400 25.32600
C  26.59600 4.34600 25.65800
N  27.39600 1.71300 30.35000
C  28.36300 1.59400 29.37100
C  29.66300 1.33600 29.96900
C  29.42400 1.49000 31.36800
C  27.99800 1.69200 31.51200
C  30.90100 1.09600 29.28500
C  29.93700 1.52200 32.72200
O  31.10300 1.34900 33.07000
C  28.78700 1.93300 33.68000
C  28.73000 1.07500 34.90100
O  28.33800 -0.06700 34.96500
O  29.11800 1.86900 36.02100
C  29.10100 1.18500 37.30000
H  21.80100 2.13000 32.94800
H  22.73400 1.46000 26.70100
H  28.92300 1.39200 27.35400
H  26.00500 1.35200 35.16700
H  23.80400 3.28100 34.65400
H  22.34500 1.74000 35.52900
H  23.94000 1.02500 36.03300
H  23.05700 0.34700 34.65100
H  25.49300 4.48000 34.86300
H  27.05900 3.89100 34.52600
H  27.51200 3.90500 36.81100
H  26.24400 2.71100 37.14400
H  18.99000 2.41700 30.72800
H  19.97100 1.75300 32.17500
H  19.42900 0.74900 31.04000
H  17.94800 1.33500 27.35100
H  18.40500 2.46800 28.73000
H  18.46800 0.78900 28.95800
H  24.74500 2.41300 25.21900
H  27.31300 0.87500 25.51200
H  25.51700 -0.43500 24.96200
H  24.52100 0.54300 23.82600
H  23.74100 -0.09900 25.22900
H  27.47600 2.86000 24.25800
H  28.29900 3.05800 25.76800
H  26.04600 4.28300 26.59700
H  25.90200 4.68000 24.88700
H  27.40300 5.07500 25.72200
H  31.05700 1.82000 28.48600
H  30.96700 0.06600 28.93300
H  31.74700 1.28800 29.94600
H  29.03800 2.98400 33.82600
H  28.34600 1.56200 37.99000
H  30.03100 1.43800 37.80900
H  29.10600 0.10000 37.19500
Mg 17.16900 51.42800 26.43900
C  19.10900 49.88500 28.94100
C  14.86100 52.04900 28.84200
C  15.45100 52.57800 23.96100
C  19.59600 50.20300 24.11200
N  17.00000 50.84700 28.65100
C  17.97100 50.34300 29.42400
C  17.57200 50.33500 30.95500
C  16.08200 50.84300 30.85000
C  15.98300 51.32300 29.36200
C  15.03300 49.77200 31.18500
C  18.56100 51.26600 31.79400
C  18.84400 51.16600 33.24600
H  17.86900 50.30000 34.09600
N  15.38600 52.28900 26.38400
C  14.55500 52.39900 27.44200
C  13.31100 52.99200 26.97300
C  13.50900 53.33700 25.57800
C  14.85100 52.71200 25.17800
C  12.08900 53.40200 27.82300
C  12.61400 54.14100 24.56000
O  12.86500 54.15900 23.35500
C  11.38000 54.85300 24.93600
N  17.43700 51.31700 24.30700
C  16.54000 51.91700 23.51200
C  17.06000 51.94800 22.10700
C  18.48400 51.38100 22.19700
C  18.56100 50.96000 23.60400
C  16.19300 51.07700 21.14800
C  19.60100 52.36400 21.74900
C  19.80000 53.57500 22.69100
N  18.96900 50.35500 26.47300
C  19.81300 49.91900 25.47500
C  21.00400 49.30500 26.02300
C  20.74100 49.32200 27.36800
C  19.49600 49.95000 27.59200
C  22.18400 48.83400 25.31300
C  21.34800 48.98000 28.67300
O  22.38400 48.35900 28.90800
C  20.27700 49.29400 29.73000
C  19.95500 48.02000 30.46000
O  19.51800 46.98400 29.97800
O  20.47500 48.05500 31.69900
C  19.96500 47.07400 32.70600
H  14.08900 52.35800 29.54900
H  14.97300 53.14800 23.16200
H  20.34000 49.90700 23.37000
H  17.53400 49.32400 31.36000
H  15.91000 51.82200 31.29700
H  14.39600 50.27700 31.91200
H  15.38300 48.90800 31.75000
H  14.44900 49.35100 30.36700
H  18.22000 52.26700 31.52800
H  19.57700 51.28400 31.40000
H  18.73000 52.16700 33.66300
H  19.84200 50.79700 33.48100
H  11.85300 54.46300 27.73800
H  12.33400 53.24900 28.87400
H  11.21700 52.81500 27.53400
H  11.57600 55.72800 25.55600
H  10.74300 54.09300 25.38900
H  10.96100 55.21500 23.99800
H  17.05700 52.93100 21.63700
H  18.65800 50.48700 21.59900
H  15.23700 50.93500 21.65200
H  16.53000 50.04400 21.05400
H  16.06400 51.61900 20.21200
H  19.57200 52.62200 20.69000
H  20.51600 51.77400 21.80600
H  20.80500 53.50900 23.10700
H  19.07400 53.67200 23.49800
H  19.81000 54.50700 22.12400
H  23.01800 49.53400 25.35700
H  21.80800 48.48300 24.35200
H  22.51900 47.88200 25.72500
H  20.81800 49.97100 30.39100
H  20.54600 46.15200 32.72500
H  18.94500 46.76900 32.47200
H  20.05700 47.61200 33.65000

