158

Mg 48.80300 35.64300 27.89100
C  46.70900 33.92100 30.10700
C  48.84100 38.29900 30.17700
C  50.17500 37.59200 25.53900
C  48.50100 33.05100 25.57700
N  47.92200 36.08300 29.90500
C  47.28100 35.12800 30.69300
C  47.25900 35.56000 32.14900
C  47.39700 37.07600 31.97600
C  48.14900 37.19400 30.59800
C  46.04500 37.87100 31.99600
C  48.47300 34.97700 33.01300
C  48.43000 34.92400 34.54300
H  47.53700 35.98000 35.28200
N  49.50500 37.63600 27.93800
C  49.44400 38.48700 28.99100
C  50.08800 39.74200 28.61700
C  50.52100 39.56000 27.26100
C  50.10700 38.20100 26.85000
C  50.18200 40.92700 29.63500
C  51.20300 40.55300 26.30000
O  51.58200 40.34400 25.17300
C  51.64200 41.87400 26.87200
N  49.22100 35.33000 25.81600
C  49.79500 36.31300 25.03700
C  50.09300 35.80200 23.57700
C  49.78700 34.29700 23.66100
C  49.17900 34.18800 25.10800
C  49.39400 36.49200 22.44200
C  51.05000 33.32100 23.41200
C  50.98800 32.48700 22.16900
N  47.79300 33.83900 27.77200
C  47.80000 32.78100 26.81000
C  46.98900 31.67700 27.26000
C  46.55800 32.07700 28.54800
C  46.98100 33.42500 28.82200
C  46.71700 30.34100 26.56300
C  45.84400 31.65800 29.73100
O  45.33900 30.56200 29.93300
C  45.85400 32.87700 30.75100
C  46.42500 32.26200 31.94800
O  47.52000 31.74100 32.05600
O  45.53500 32.23100 32.97300
C  45.92200 31.56800 34.20200
H  48.91100 39.12500 30.88700
H  50.75800 38.09600 24.76600
H  48.37900 32.20700 24.89600
H  46.28500 35.38000 32.60400
H  48.04200 37.44000 32.77600
H  45.96300 38.76200 31.37300
H  45.87600 38.17000 33.03100
H  45.31200 37.10700 31.73600
H  49.38200 35.52300 32.75900
H  48.67500 33.96000 32.67700
H  49.42800 35.02700 34.96900
H  48.01600 33.96500 34.85500
H  51.05900 41.51900 29.37200
H  50.31800 40.63300 30.67600
H  49.30700 41.56000 29.48500
H  50.73600 42.43100 27.10900
H  52.14500 42.32700 26.01800
H  52.32600 41.73100 27.71000
H  51.15400 36.00600 23.43200
H  48.98100 34.04900 22.97000
H  48.73400 35.78400 21.94000
H  50.15300 36.93700 21.79800
H  48.88100 37.29700 22.96800
H  51.26600 32.63600 24.23100
H  51.91100 33.97900 23.28900
H  51.51800 32.89400 21.30700
H  49.98100 32.19600 21.86700
H  51.53400 31.61200 22.52200
H  47.70100 29.91200 26.37500
H  46.34100 30.51900 25.55500
H  46.05100 29.72700 27.16800
H  44.88300 33.24900 31.07900
H  46.53100 30.67200 34.08000
H  45.03900 31.35200 34.80500
H  46.55200 32.26100 34.76000
Mg -1.80900 33.17700 27.45600
C  -3.45300 31.49900 29.92900
C  -0.38600 35.07100 29.87700
C  -0.30700 34.78900 25.08900
C  -3.77500 31.60200 25.03300
N  -1.84500 33.11600 29.70700
C  -2.64000 32.44900 30.51600
C  -2.46000 32.80000 32.00900
C  -1.58100 34.04100 31.89200
C  -1.29200 34.14700 30.38600
C  -2.13900 35.36600 32.48100
C  -1.81400 31.56400 32.68600
C  -1.14000 31.68600 34.05600
H  -1.55500 30.72600 35.14200
N  -0.46000 34.73500 27.52200
C  0.03700 35.33800 28.58400
C  1.08200 36.24700 28.13300
C  1.18000 36.19700 26.67600
C  0.13900 35.20900 26.39100
C  1.75000 37.16600 29.08000
C  2.02600 37.10000 25.73900
O  2.04000 36.97100 24.49600
C  2.93200 38.12400 26.34300
N  -2.01800 33.20800 25.34300
C  -1.25600 33.97000 24.53200
C  -1.53500 33.83600 23.03200
C  -2.68600 32.81200 23.03700
C  -2.82700 32.51800 24.53100
C  -1.65600 35.09500 22.11100
C  -2.53500 31.51600 22.09700
C  -1.79600 30.38900 22.62400
N  -3.26300 31.77100 27.45000
C  -4.01700 31.27900 26.39700
C  -4.89500 30.19900 26.93000
C  -4.70800 30.27500 28.31100
C  -3.71300 31.25100 28.53400
C  -5.81500 29.37100 26.16600
C  -5.14500 29.81900 29.54400
O  -5.93900 28.93300 29.79900
C  -4.43600 30.58000 30.63000
C  -5.45900 31.36200 31.41600
O  -6.15900 32.20500 30.95200
O  -5.48800 31.01400 32.73800
C  -6.39800 31.60000 33.69400
H  -0.09400 35.77300 30.66100
H  0.27300 35.24900 24.28500
H  -4.46700 31.09300 24.35900
H  -3.41400 33.01500 32.49100
H  -0.64100 33.75400 32.36300
H  -2.91300 35.08000 33.19300
H  -2.50300 36.03700 31.70300
H  -1.37400 35.84200 33.09500
H  -1.17100 30.88500 32.12600
H  -2.67200 30.95700 32.97400
H  -1.25600 32.69200 34.46000
H  -0.05200 31.66400 34.00300
H  2.81300 37.30600 28.88300
H  1.79100 36.81700 30.11200
H  1.29500 38.15400 29.01700
H  3.64200 37.61600 26.99500
H  2.35600 38.82700 26.94400
H  3.56700 38.63700 25.62000
H  -0.62800 33.31700 22.72300
H  -3.58800 33.34000 22.72700
H  -2.41700 35.04500 21.33300
H  -0.72600 34.99300 21.55100
H  -1.83300 36.07800 22.54800
H  -2.06300 31.87800 21.18400
H  -3.48300 31.14500 21.70600
H  -1.05400 30.14900 21.86300
H  -2.48400 29.54500 22.67300
H  -1.29300 30.60400 23.56600
H  -5.54800 28.35800 26.46600
H  -5.66300 29.51100 25.09600
H  -6.81200 29.70600 26.45300
H  -3.91400 29.93300 31.33600
H  -7.01800 32.41600 33.32200
H  -5.88500 31.87100 34.61600
H  -7.11200 30.84100 34.01600

