158

Mg 17.18200 -1.65700 27.84000
C  16.22300 0.57200 30.34900
C  19.07900 -3.25500 30.01600
C  18.63800 -3.21500 25.19800
C  15.61400 0.55900 25.53500
N  17.73900 -1.19600 29.93800
C  17.08200 -0.41600 30.79000
C  17.40800 -0.70900 32.23900
C  18.56300 -1.74300 32.15100
C  18.42200 -2.19500 30.61600
C  20.00200 -1.09700 32.37800
C  16.10500 -1.24600 32.87200
C  15.97400 -0.89600 34.39300
H  17.15900 -0.30200 35.17600
N  18.57900 -3.14600 27.66100
C  19.16700 -3.74000 28.65600
C  19.89100 -4.89400 28.12000
C  19.68500 -4.90700 26.73200
C  18.87500 -3.71200 26.48000
C  20.31400 -5.97200 29.05800
C  20.16200 -5.91100 25.71200
O  19.92100 -5.73700 24.52100
C  20.88100 -7.14400 26.08100
N  17.09300 -1.40100 25.64500
C  17.84700 -2.18200 24.77200
C  17.64200 -1.72400 23.33000
C  16.47900 -0.62600 23.44200
C  16.33200 -0.49400 24.99000
C  18.97100 -1.47200 22.59100
C  15.14400 -0.89600 22.67900
C  13.86300 -1.39000 23.51600
N  15.98200 0.10400 27.93800
C  15.40300 0.85400 26.94700
C  14.63400 1.91500 27.49700
C  14.93800 1.85700 28.86100
C  15.86500 0.83900 29.02600
C  13.78800 2.91400 26.77200
C  14.59100 2.38000 30.14200
O  13.86300 3.30400 30.46800
C  15.43800 1.56900 31.20500
C  16.28800 2.56700 31.89500
O  17.50100 2.76200 31.77700
O  15.54600 3.07000 32.86500
C  16.15500 3.98800 33.85300
H  19.58000 -3.77400 30.83700
H  19.14800 -3.62900 24.32500
H  15.02500 1.18900 24.86500
H  17.70900 0.24900 32.66400
H  18.35800 -2.66200 32.70000
H  19.88100 -0.09600 32.79200
H  20.53100 -0.96500 31.43500
H  20.59300 -1.65900 33.10200
H  16.12300 -2.30400 32.60800
H  15.24100 -0.77700 32.40300
H  15.63800 -1.78900 34.92100
H  15.20300 -0.13400 34.50400
H  21.37700 -6.15600 28.90400
H  19.70500 -6.85500 28.86100
H  20.35200 -5.68000 30.10800
H  21.77700 -6.93600 26.66500
H  21.20200 -7.52400 25.11100
H  20.18600 -7.89900 26.44900
H  17.14400 -2.55300 22.82700
H  16.89400 0.32400 23.10500
H  18.80300 -0.48100 22.16700
H  19.34900 -2.28600 21.97300
H  19.73800 -1.45000 23.36500
H  15.32300 -1.68500 21.94800
H  14.88800 0.02800 22.16100
H  13.28500 -1.97800 22.80400
H  13.22600 -0.53500 23.74400
H  14.17500 -1.94100 24.40300
H  14.25300 3.36100 25.89300
H  13.57400 3.69900 27.49700
H  12.84700 2.47900 26.43300
H  14.72200 1.11200 31.88800
H  17.09700 4.41300 33.50600
H  16.20600 3.51800 34.83500
H  15.55700 4.89600 33.94200
Mg -2.21900 34.97300 26.36500
C  -3.69400 33.27000 28.94400
C  -0.83300 37.15200 28.70700
C  -1.07200 36.92400 23.84300
C  -4.07200 33.13500 24.09600
N  -2.23500 35.21900 28.61200
C  -2.95100 34.36500 29.43400
C  -2.71800 34.72900 30.93000
C  -1.85400 36.07300 30.82000
C  -1.59000 36.16000 29.29700
C  -2.58000 37.36000 31.30100
C  -1.95700 33.56100 31.69900
C  -2.67600 33.20000 33.01800
H  -1.69300 33.05100 34.21400
N  -1.05300 36.78700 26.23800
C  -0.51400 37.46100 27.34400
C  0.22000 38.59400 26.89900
C  0.19900 38.54500 25.46400
C  -0.70000 37.39100 25.09200
C  0.73800 39.67700 27.79500
C  0.83400 39.46100 24.38600
O  0.78000 39.22500 23.15700
C  1.71700 40.61200 24.83400
N  -2.48100 35.10200 24.33100
C  -1.85600 35.91400 23.43800
C  -2.20200 35.60600 21.99000
C  -2.85900 34.16800 22.15100
C  -3.21600 34.12600 23.62200
C  -3.20700 36.66000 21.31800
C  -1.85800 33.01700 21.75500
C  -1.00600 32.26000 22.89400
N  -3.59400 33.57600 26.43500
C  -4.27500 32.83600 25.50700
C  -4.80700 31.61100 26.08100
C  -4.71100 31.80200 27.44300
C  -3.94800 32.99400 27.58900
C  -5.54800 30.58200 25.34400
C  -5.06200 31.25000 28.70100
O  -5.75500 30.28900 28.96200
C  -4.51000 32.20900 29.73100
C  -5.58800 32.72000 30.66000
O  -6.29800 33.64800 30.28500
O  -5.62000 32.15000 31.93500
C  -6.48100 32.71400 32.98500
H  -0.52100 37.80400 29.52500
H  -0.78900 37.54100 22.98900
H  -4.61200 32.51500 23.37700
H  -3.65000 34.95500 31.44900
H  -1.02600 35.97800 31.52300
H  -3.61900 37.15900 31.56600
H  -2.67500 38.09800 30.50500
H  -2.08900 37.92800 32.09100
H  -0.95700 33.93500 31.91600
H  -1.80600 32.66700 31.09300
H  -3.14100 32.21500 32.99900
H  -3.43900 33.94300 33.25300
H  1.80000 39.63000 27.55400
H  0.47900 39.52100 28.84200
H  0.31600 40.57400 27.34300
H  2.53900 40.22800 25.43800
H  1.02600 41.34100 25.25700
H  2.20900 41.05500 23.96900
H  -1.31100 35.55500 21.36300
H  -3.84700 34.11600 21.69400
H  -4.10800 36.25300 20.85900
H  -2.78600 37.39600 20.63200
H  -3.75900 37.26900 22.03400
H  -1.16500 33.44000 21.02700
H  -2.36900 32.24800 21.17500
H  -0.89400 32.98900 23.69600
H  0.04100 32.25000 22.59300
H  -1.35400 31.26600 23.17400
H  -5.03900 30.33100 24.41300
H  -6.53800 30.96700 25.10200
H  -5.64600 29.69300 25.96700
H  -3.81100 31.56500 30.26500
H  -7.10100 31.84000 33.18000
H  -6.97500 33.62800 32.65200
H  -5.94100 32.97100 33.89600

