158

Mg 1.80400 8.20300 26.29200
C  2.36400 10.31800 28.91700
C  2.92200 5.42100 28.41000
C  1.64600 6.15000 23.60700
C  1.63600 10.94800 24.19700
N  2.54400 7.92800 28.36600
C  2.48500 8.91600 29.33000
C  2.65000 8.33200 30.73900
C  3.04100 6.89600 30.51600
C  2.91900 6.75600 29.00000
C  4.35600 6.41700 31.14900
C  1.42600 8.62300 31.66600
C  1.62700 8.68800 33.20000
H  2.86400 7.90600 33.84600
N  2.19100 6.11500 26.00400
C  2.57800 5.15800 27.01900
C  2.63200 3.87800 26.37900
C  2.22200 3.94800 25.01600
C  1.93800 5.40100 24.82300
C  3.15200 2.63900 27.10300
C  2.02000 2.91000 23.99200
O  1.70100 3.14000 22.81500
C  2.17900 1.41800 24.32400
N  1.67100 8.53900 24.22700
C  1.64400 7.54600 23.32500
C  1.66900 8.05600 21.85200
C  1.39800 9.58600 22.12800
C  1.61500 9.72500 23.61500
C  2.98200 7.74600 21.00600
C  -0.00300 10.13700 21.56100
C  0.09400 11.24500 20.55200
N  1.86200 10.18700 26.49300
C  1.86900 11.19600 25.55300
C  1.97400 12.47000 26.14700
C  2.11100 12.18100 27.54800
C  2.16900 10.78900 27.62900
C  2.08900 13.79900 25.52700
C  2.40700 12.71200 28.85300
O  2.58400 13.84800 29.25700
C  2.31300 11.53300 29.77900
C  3.34500 11.60100 30.81900
O  4.57600 11.48700 30.55900
O  2.82000 11.57400 32.09600
C  3.93200 11.47400 33.12500
H  3.15200 4.61200 29.10700
H  1.82500 5.61700 22.67100
H  1.51400 11.71600 23.43000
H  3.46700 8.81300 31.27800
H  2.18600 6.37100 30.94100
H  4.95500 6.03500 30.32200
H  4.18000 5.57100 31.81300
H  4.89400 7.20800 31.67200
H  0.61900 7.92600 31.43700
H  0.90000 9.50100 31.29100
H  0.75600 8.10200 33.49400
H  1.53800 9.67700 33.64900
H  2.29300 2.09500 27.49600
H  3.69500 3.11400 27.92000
H  3.74700 1.97700 26.47500
H  1.52500 1.18000 25.16300
H  3.24000 1.18600 24.41000
H  1.94700 0.82700 23.43800
H  0.87200 7.55400 21.30400
H  2.27600 10.14000 21.79500
H  2.84400 7.29900 20.02100
H  3.61000 7.14600 21.66500
H  3.47200 8.70900 20.86100
H  -0.52900 10.57000 22.41200
H  -0.65600 9.34700 21.18900
H  -0.59500 10.99500 19.74500
H  1.11100 11.51700 20.26800
H  -0.38600 12.13600 20.95600
H  1.99800 13.64200 24.45300
H  3.02000 14.32000 25.74700
H  1.22100 14.34900 25.89300
H  1.35300 11.47400 30.29100
H  4.48100 10.54600 32.96700
H  3.49200 11.47200 34.12200
H  4.58200 12.34900 33.16400
Mg 26.04300 -0.90000 29.28500
C  28.00200 -0.89100 32.25800
C  23.26300 -0.58500 31.29800
C  24.20700 -0.66100 26.58700
C  28.90400 -1.16400 27.45700
N  25.69800 -0.84500 31.53800
C  26.64300 -0.76800 32.52200
C  26.02000 -0.53500 33.90800
C  24.49300 -0.46100 33.59700
C  24.45500 -0.59000 32.06600
C  23.68000 -1.57700 34.21200
C  26.54300 0.77600 34.59600
C  25.94400 1.17000 35.92000
H  26.89500 1.30400 37.13800
N  24.02900 -0.65000 28.98800
C  23.03500 -0.68800 29.92500
C  21.76600 -0.66700 29.34800
C  21.99600 -0.47000 27.90600
C  23.46200 -0.64800 27.72300
C  20.52900 -0.56300 30.21000
C  20.98200 -0.32700 26.79500
O  21.30700 -0.09500 25.58300
C  19.48800 -0.29900 27.11600
N  26.45500 -1.17000 27.26100
C  25.54800 -0.84500 26.34400
C  26.18000 -0.71700 24.93000
C  27.67300 -0.73800 25.25800
C  27.68000 -1.09600 26.76400
C  25.71500 -1.92600 24.03000
C  28.46200 0.55800 24.90700
C  29.84100 0.37800 24.15500
N  28.05400 -1.11600 29.72000
C  29.10400 -1.28600 28.86200
C  30.36100 -1.30300 29.60000
C  30.00100 -1.20800 30.93500
C  28.56300 -1.07000 30.92800
C  31.71100 -1.38300 28.96500
C  30.51500 -1.19500 32.33700
O  31.65400 -1.52900 32.73400
C  29.24000 -0.89400 33.22900
C  29.08000 -1.84800 34.37500
O  28.62900 -2.95300 34.28100
O  29.52600 -1.25200 35.55700
C  29.41300 -2.12500 36.72700
H  22.40500 -0.47900 31.96600
H  23.79500 -0.68600 25.57600
H  29.80700 -1.15800 26.84400
H  26.41200 -1.29100 34.58800
H  24.09500 0.49300 33.94200
H  24.17800 -2.29800 34.86000
H  23.11800 -2.18100 33.50000
H  22.98400 -1.26300 34.99000
H  26.46500 1.62500 33.91600
H  27.58500 0.57300 34.84300
H  25.04200 0.59100 36.12000
H  25.45600 2.13600 35.78500
H  19.82500 -1.31600 29.85700
H  20.20800 0.46600 30.04500
H  20.47400 -0.72900 31.28600
H  18.96200 0.22900 26.32100
H  19.25100 0.26700 28.01700
H  19.18700 -1.33100 27.29700
H  25.82700 0.25500 24.58600
H  28.19100 -1.50600 24.68400
H  26.58600 -2.41600 23.59500
H  25.04500 -1.63900 23.21900
H  25.20100 -2.70200 24.59600
H  28.72400 1.12700 25.79900
H  27.87800 1.15700 24.20800
H  29.70700 0.33000 23.07400
H  30.18600 -0.63400 24.36900
H  30.65100 1.06800 24.38900
H  31.78200 -2.32700 28.42600
H  32.37700 -1.34600 29.82700
H  31.91800 -0.61600 28.21800
H  29.36100 0.12900 33.58400
H  30.12000 -1.78200 37.48200
H  29.61900 -3.17200 36.50500
H  28.38700 -1.92600 37.03600

