158

Mg 5.01000 53.55800 41.73500
C  4.69200 50.07300 40.53500
C  8.07100 53.58800 40.24900
C  4.87300 56.92700 41.90800
C  1.66600 53.32300 42.65500
N  6.08900 52.11100 40.27500
C  5.74200 50.75000 39.92500
C  6.81500 50.13600 38.99100
C  8.07000 51.01000 39.39100
C  7.41000 52.34000 40.04300
C  9.05300 50.20600 40.31300
C  6.42000 50.38900 37.47700
C  7.09800 49.52600 36.36100
H  6.30000 48.86000 35.20500
N  6.37900 55.02400 41.38300
C  7.52900 54.85000 40.76500
C  8.24500 56.14000 40.67500
C  7.39100 57.10600 41.18900
C  6.17300 56.39800 41.60600
C  9.55300 56.37400 40.10700
C  7.61900 58.58100 41.16200
O  8.70900 58.97500 40.75300
C  6.59600 59.56600 41.53200
N  3.55100 54.80100 42.39700
C  3.72100 56.18500 42.28000
C  2.44100 56.93700 42.42000
C  1.43400 55.86100 42.90600
C  2.22200 54.58600 42.61600
C  2.56900 58.23100 43.37300
C  0.10200 55.93100 42.25100
C  -1.08300 56.16100 43.24000
N  3.56500 52.03100 41.82500
C  2.29900 52.06500 42.27600
C  1.79900 50.72400 42.47000
C  2.72100 49.92500 41.79000
C  3.73600 50.73700 41.34700
C  0.52100 50.23600 43.13300
C  3.00400 48.53900 41.46900
O  2.38200 47.53600 41.73700
C  4.39200 48.54100 40.59000
C  4.08600 47.93300 39.32300
O  3.21200 48.25800 38.56500
O  4.92200 46.89600 39.12200
C  4.62000 46.07700 37.92500
H  9.07400 53.65000 39.82200
H  4.65800 57.99100 41.79600
H  0.65300 53.25800 43.05700
H  7.03500 49.09600 39.23100
H  8.64300 51.16700 38.47700
H  8.80300 49.15200 40.42800
H  9.00700 50.76000 41.25000
H  10.10400 50.36100 40.06700
H  6.78400 51.37800 37.19800
H  5.33700 50.34500 37.36500
H  7.33500 48.66000 36.97900
H  8.03700 49.96500 36.02400
H  10.10400 55.49800 39.76500
H  10.15100 56.92700 40.83100
H  9.51600 57.02000 39.22900
H  6.98800 60.57000 41.37300
H  6.43000 59.46200 42.60400
H  5.72600 59.44000 40.88700
H  2.11200 57.35600 41.46900
H  1.39100 55.87700 43.99500
H  3.55000 58.31700 43.84200
H  1.81200 58.06800 44.13900
H  2.28300 59.05300 42.71600
H  -0.15500 54.99800 41.75000
H  0.15500 56.70700 41.48600
H  -1.92900 55.57100 42.88600
H  -1.34600 57.21600 43.31600
H  -0.74400 55.83500 44.22300
H  -0.10300 51.11700 43.28800
H  0.68900 49.80800 44.12100
H  -0.02600 49.59900 42.43800
H  5.08600 48.01100 41.24200
H  4.16000 45.14900 38.26500
H  5.60800 45.75800 37.59300
H  3.99100 46.55300 37.17300
Mg 10.05500 47.22700 25.87800
C  8.17000 46.97900 28.92700
C  12.67200 48.56700 27.87900
C  11.91900 47.49500 23.19500
C  7.25200 46.24300 24.14800
N  10.41600 47.55200 28.15500
C  9.48900 47.40200 29.16900
C  10.01200 48.00200 30.53200
C  11.29900 48.75000 30.07800
C  11.46700 48.30400 28.63500
C  11.09900 50.27600 30.08800
C  10.21400 46.95100 31.72500
C  9.49200 47.27000 33.04300
H  9.41600 46.11400 34.13000
N  12.09800 47.87200 25.60600
C  13.02100 48.28900 26.53700
C  14.31600 48.32400 25.91500
C  14.06800 48.05100 24.53400
C  12.68500 47.80300 24.37100
C  15.54300 48.65200 26.68600
C  14.94000 48.04700 23.43400
O  14.60200 48.08900 22.24700
C  16.39100 47.91900 23.69400
N  9.54700 46.99600 23.99000
C  10.57400 47.14900 23.06800
C  10.03500 46.53600 21.75000
C  8.65000 45.91200 22.07000
C  8.49700 46.33500 23.45800
C  10.03800 47.54300 20.55900
C  8.69800 44.37700 22.01800
C  8.85800 43.56200 23.28200
N  8.07400 46.77600 26.38800
C  6.99600 46.56100 25.53400
C  5.77300 46.42200 26.28400
C  6.20400 46.55100 27.65500
C  7.57300 46.74700 27.63000
C  4.44400 46.29700 25.73600
C  5.82800 46.58200 29.07700
O  4.73600 46.59400 29.60000
C  7.06800 46.78500 30.00200
C  7.29400 45.55900 30.85400
O  7.94100 44.55400 30.52700
O  6.52000 45.68600 32.01300
C  6.48300 44.45900 32.82400
H  13.51900 48.79800 28.52800
H  12.39800 47.65900 22.22700
H  6.43800 45.75800 23.60500
H  9.21000 48.70000 30.77200
H  12.21200 48.48700 30.61400
H  10.05000 50.57000 30.10700
H  11.35800 50.77200 29.15300
H  11.65300 50.67700 30.93700
H  11.27000 46.94900 31.99500
H  9.93200 46.00500 31.26200
H  8.43600 47.50500 32.90900
H  10.00000 48.14700 33.44500
H  16.06700 49.49700 26.23900
H  16.09500 47.76800 26.36700
H  15.41200 48.75800 27.76300
H  16.79000 48.62700 24.42000
H  16.99100 47.95600 22.78500
H  16.46900 46.91500 24.11200
H  10.79000 45.78400 21.52300
H  7.80400 46.19900 21.44600
H  10.39500 48.52800 20.86000
H  8.99500 47.76700 20.33500
H  10.63600 47.05800 19.78700
H  9.42300 44.02800 21.28200
H  7.78600 44.04300 21.52400
H  8.86800 44.12200 24.21700
H  9.91400 43.29600 23.23500
H  8.22600 42.67500 23.30900
H  4.36100 47.20300 25.13500
H  3.65600 46.25200 26.48700
H  4.44200 45.44600 25.05600
H  6.99400 47.72400 30.55100
H  6.49800 44.74700 33.87600
H  7.29400 43.75100 32.65100
H  5.57400 43.88800 32.63800

