158

Mg 2.15500 -1.69500 44.06600
C  5.45800 -0.78000 43.51000
C  1.23200 1.14800 42.30600
C  -1.09600 -2.63900 44.34900
C  3.17100 -4.79900 45.29700
N  3.21900 -0.03700 42.92700
C  4.54200 0.10100 42.90400
C  4.95900 1.30900 41.95800
C  3.61900 2.00100 41.68700
C  2.63800 1.05100 42.39500
C  3.51800 3.48500 42.27600
C  5.75200 0.86700 40.70600
C  7.15500 1.41500 40.48600
H  7.32800 2.15700 39.05700
N  0.31700 -0.90100 43.38000
C  0.20800 0.30100 42.79200
C  -1.18300 0.60500 42.56800
C  -1.94200 -0.44400 43.12900
C  -0.91100 -1.37700 43.72100
C  -1.62500 1.71400 41.72500
C  -3.41600 -0.55000 43.25100
O  -4.06100 0.34500 42.71800
C  -4.08200 -1.58000 44.10900
N  1.20100 -3.53700 44.66400
C  -0.15500 -3.62400 44.70000
C  -0.60000 -4.91400 45.33400
C  0.73600 -5.68100 45.58200
C  1.80100 -4.64700 45.11400
C  -1.54800 -4.82100 46.57700
C  0.96800 -7.00700 44.83900
C  1.85500 -8.00200 45.60200
N  3.96300 -2.64100 44.40200
C  4.17500 -3.87900 44.89700
C  5.62700 -4.03200 44.99700
C  6.19100 -2.85800 44.47800
C  5.11700 -2.02500 44.11600
C  6.41100 -5.34000 45.42600
C  7.46700 -2.09200 44.23600
O  8.62400 -2.28800 44.47500
C  6.94900 -0.82900 43.53800
C  7.49700 0.29900 44.27800
O  7.16300 0.68400 45.44800
O  8.46000 0.82500 43.41100
C  9.06700 2.10000 43.79100
H  0.94000 2.00900 41.70000
H  -2.13000 -2.99000 44.31700
H  3.44300 -5.75100 45.75700
H  5.65200 1.95200 42.50100
H  3.33100 2.08600 40.63900
H  4.52800 3.86700 42.41800
H  2.83100 3.59600 43.11600
H  3.08200 4.19000 41.56900
H  5.15000 1.05600 39.81700
H  5.87700 -0.21300 40.78700
H  7.84300 0.57100 40.52600
H  7.39800 2.18400 41.22000
H  -1.76300 2.55500 42.40500
H  -2.61500 1.52800 41.30900
H  -0.86000 1.86400 40.96400
H  -5.15000 -1.41700 44.25200
H  -3.59700 -1.61300 45.08500
H  -3.90200 -2.50700 43.56500
H  -1.18800 -5.58300 44.70500
H  0.82500 -5.96100 46.63100
H  -1.39100 -5.56000 47.36300
H  -2.62500 -4.76700 46.42200
H  -1.44400 -3.81100 46.97400
H  1.33100 -6.69000 43.86200
H  0.01400 -7.48600 44.62000
H  2.89500 -8.04200 45.27900
H  1.45300 -8.99900 45.42100
H  1.82600 -7.89300 46.68600
H  6.59000 -5.88800 44.50100
H  5.88100 -5.99200 46.12100
H  7.37900 -5.08600 45.85800
H  7.38400 -0.84900 42.53900
H  9.73700 2.03100 44.64800
H  8.21300 2.71100 44.08200
H  9.56500 2.56600 42.94100
Mg -11.84900 39.08200 42.15900
C  -9.66200 36.39900 41.54300
C  -9.53100 41.24900 40.90600
C  -14.14600 41.59500 42.43000
C  -14.37800 36.79100 43.12100
N  -9.84700 38.72200 41.07000
C  -9.13000 37.59000 41.04300
C  -7.91600 37.80500 40.17700
C  -7.85000 39.42500 40.23600
C  -9.19100 39.85100 40.78000
C  -6.63900 40.15000 40.92700
C  -7.96800 37.14700 38.72500
C  -6.99000 35.93600 38.54400
H  -6.04600 36.00300 37.41500
N  -11.83200 41.16400 41.81000
C  -10.80800 41.83000 41.23900
C  -11.18500 43.25800 41.19000
C  -12.48800 43.48900 41.71500
C  -12.89600 42.00700 41.91200
C  -10.10000 44.20500 40.56300
C  -13.13000 44.77500 41.96900
O  -12.52200 45.80400 41.69600
C  -14.39900 44.86500 42.71500
N  -13.96700 39.14200 42.79200
C  -14.62800 40.34000 42.77900
C  -16.16000 40.11200 43.10400
C  -16.25500 38.60900 43.19000
C  -14.77900 38.05700 42.99400
C  -16.69100 40.86700 44.41700
C  -17.35600 38.05700 42.15400
C  -17.03400 37.92200 40.64100
N  -12.07600 36.99200 42.21600
C  -13.10900 36.23000 42.71800
C  -12.72300 34.83500 42.76600
C  -11.38500 34.84500 42.29800
C  -11.01700 36.19500 42.02100
C  -13.65900 33.69700 43.16000
C  -10.28200 33.99000 41.88300
O  -10.17700 32.82800 42.05400
C  -9.16100 35.01700 41.34500
C  -7.90700 34.57400 41.98500
O  -7.48500 34.97600 43.06200
O  -7.25100 33.65200 41.17900
C  -5.89200 33.19000 41.62100
H  -8.81300 41.98900 40.54600
H  -14.92100 42.36100 42.36900
H  -15.25200 36.19600 43.39300
H  -6.99800 37.54100 40.70300
H  -7.81900 39.72000 39.18700
H  -6.98300 40.92400 41.61300
H  -6.01000 40.54400 40.12900
H  -6.12300 39.51800 41.64900
H  -7.71700 37.83100 37.91400
H  -8.95200 36.73700 38.50000
H  -7.66900 35.10400 38.35700
H  -6.59700 35.65600 39.52200
H  -9.16000 44.14500 41.11200
H  -10.48700 45.19900 40.33800
H  -9.99400 43.81300 39.55100
H  -15.15800 44.48300 42.03200
H  -14.58900 45.93400 42.81100
H  -14.17600 44.37800 43.66500
H  -16.76700 40.55300 42.31300
H  -16.49900 38.35500 44.22200
H  -17.69700 41.20600 44.17000
H  -16.00900 41.63200 44.78700
H  -16.85100 40.19900 45.26400
H  -18.09700 38.85600 42.13100
H  -17.83200 37.18100 42.59500
H  -17.33300 38.85500 40.16300
H  -17.63000 37.13700 40.17500
H  -15.95300 37.80500 40.56700
H  -14.52800 33.86400 42.52500
H  -13.93200 33.70600 44.21500
H  -13.23800 32.72400 42.90800
H  -9.08000 34.72400 40.29800
H  -5.36700 33.94700 42.20300
H  -5.34200 32.90700 40.72300
H  -5.74700 32.28400 42.20900

