158

Mg 1.80700 -1.81700 43.58400
C  5.23500 -0.80200 43.94700
C  1.37500 0.97400 41.62000
C  -1.19900 -2.97800 43.00700
C  2.80300 -4.99400 44.91400
N  3.14600 -0.07000 42.84000
C  4.45300 0.02500 43.15200
C  5.04400 1.26700 42.46000
C  3.81100 1.94300 41.75400
C  2.70500 0.93100 42.03600
C  3.45300 3.35800 42.36200
C  6.21800 1.08700 41.45200
C  6.33500 -0.18700 40.59300
H  6.40800 0.18400 39.08000
N  0.18700 -1.06500 42.56700
C  0.21200 0.09600 41.81700
C  -1.14400 0.34000 41.35400
C  -1.94200 -0.77400 41.66100
C  -1.03100 -1.71900 42.41300
C  -1.46900 1.57200 40.56700
C  -3.42500 -0.98700 41.39900
O  -4.08400 -0.23400 40.70900
C  -4.15600 -2.18200 41.95700
N  0.99200 -3.81100 43.58000
C  -0.33900 -3.93000 43.56200
C  -0.80400 -5.23200 44.22200
C  0.51600 -5.93800 44.50700
C  1.48100 -4.81400 44.38600
C  -1.71500 -4.93400 45.48200
C  0.93500 -7.11600 43.62600
C  0.73700 -8.45900 44.38500
N  3.60600 -2.75700 44.35200
C  3.88100 -4.05300 44.79200
C  5.32200 -4.13700 45.25900
C  5.87800 -2.87200 44.94500
C  4.83400 -2.10100 44.33900
C  5.91000 -5.19100 46.08600
C  7.01900 -1.92400 45.07300
O  8.08900 -2.04600 45.62800
C  6.71400 -0.71400 44.26300
C  6.99000 0.52900 45.01500
O  6.52000 0.77300 46.08400
O  7.78200 1.43100 44.33100
C  7.81700 2.79700 44.89900
H  1.19600 1.86800 41.01800
H  -2.23600 -3.31700 42.95700
H  2.99700 -5.89500 45.49900
H  5.52700 1.88900 43.21400
H  3.96400 2.02500 40.67800
H  4.35000 3.85100 42.73600
H  2.63900 3.40300 43.08600
H  3.18700 4.02100 41.53900
H  7.17300 1.28300 41.94100
H  6.21300 1.89100 40.71700
H  5.46800 -0.81600 40.79500
H  7.24500 -0.64400 40.98200
H  -0.70600 1.77800 39.81700
H  -1.46100 2.43000 41.24000
H  -2.41500 1.41000 40.05000
H  -5.22600 -2.15900 41.75000
H  -4.09300 -2.06100 43.03800
H  -3.69800 -3.09900 41.58500
H  -1.45000 -5.77000 43.52800
H  0.43500 -6.24700 45.54900
H  -1.47700 -5.54700 46.35100
H  -2.72900 -5.22400 45.20500
H  -1.60500 -3.87200 45.70200
H  2.00000 -7.05000 43.40300
H  0.51200 -7.15000 42.62200
H  -0.02800 -8.38000 45.15700
H  1.70100 -8.70700 44.82800
H  0.44200 -9.32400 43.79200
H  6.28500 -5.98200 45.43700
H  5.11000 -5.57800 46.71800
H  6.79500 -4.88000 46.64100
H  7.45100 -0.77500 43.46200
H  6.84800 3.26300 44.72300
H  8.62400 3.36600 44.43600
H  8.07800 2.74200 45.95600
Mg -4.72400 25.28800 26.31600
C  -3.55700 26.75800 29.25600
C  -6.92100 23.44300 28.07600
C  -5.69200 23.99400 23.36800
C  -2.31500 27.23400 24.52900
N  -5.14100 25.12600 28.41900
C  -4.58700 25.80300 29.44700
C  -5.17300 25.45500 30.77900
C  -5.83800 24.08700 30.30400
C  -6.02800 24.21800 28.84300
C  -5.11800 22.81400 30.66100
C  -6.10700 26.61500 31.39100
C  -6.21700 26.66600 32.96200
H  -5.64900 25.46800 33.72300
N  -6.09000 23.84200 25.82800
C  -6.99300 23.31600 26.66500
C  -7.96500 22.60200 25.89200
C  -7.61700 22.70600 24.50500
C  -6.44200 23.61700 24.52600
C  -9.02600 21.83700 26.59800
C  -8.34200 22.12900 23.30100
O  -7.96900 22.42200 22.19900
C  -9.55000 21.22800 23.39600
N  -3.99000 25.57800 24.14600
C  -4.54900 24.74500 23.17200
C  -4.01400 25.23000 21.77200
C  -2.97400 26.32400 22.15900
C  -3.01500 26.36500 23.66900
C  -3.49600 23.99700 20.95900
C  -3.25800 27.64100 21.39200
C  -2.17100 28.27400 20.61400
N  -3.28800 26.78500 26.75000
C  -2.36900 27.41200 25.96600
C  -1.57200 28.24200 26.78300
C  -2.00500 28.03100 28.11000
C  -2.95600 27.07600 28.03500
C  -0.60600 29.23900 26.20400
C  -1.88400 28.51500 29.44500
O  -1.17300 29.39200 29.95200
C  -2.87900 27.66100 30.26800
C  -2.05200 26.81600 31.15000
O  -1.41900 25.85100 30.85400
O  -2.06900 27.36700 32.39200
C  -1.14200 26.92400 33.41500
H  -7.57700 22.74700 28.60300
H  -5.92600 23.48200 22.43200
H  -1.52500 27.91100 24.19800
H  -4.25400 25.25300 31.32700
H  -6.85100 24.09200 30.70700
H  -5.13500 22.20600 29.75700
H  -5.68900 22.30200 31.43500
H  -4.06800 23.00900 30.88300
H  -7.12400 26.37300 31.08200
H  -5.88000 27.61600 31.02400
H  -7.20600 26.90600 33.35100
H  -5.60800 27.52700 33.23900
H  -9.99500 21.80300 26.10000
H  -9.31600 22.11400 27.61200
H  -8.63800 20.81900 26.59000
H  -9.48700 20.53800 24.23800
H  -9.49700 20.66800 22.46200
H  -10.38300 21.92700 23.48000
H  -4.93000 25.70800 21.42700
H  -1.95200 26.10800 21.84700
H  -2.43100 24.08500 20.74300
H  -4.17800 23.83000 20.12500
H  -3.65000 23.03700 21.45100
H  -3.66700 28.37100 22.09100
H  -4.08200 27.51400 20.69000
H  -1.88700 27.66700 19.75400
H  -1.36600 28.63500 21.25300
H  -2.49800 29.20200 20.14500
H  0.30800 28.78600 25.81800
H  -0.41600 29.82700 27.10200
H  -1.05000 29.82400 25.39900
H  -3.59800 28.31700 30.76000
H  -1.38300 25.88600 33.64600
H  -1.39600 27.49500 34.30800
H  -0.06700 26.97800 33.24700

