158

Mg 24.36900 -7.05000 47.94900
C  26.49000 -4.54800 46.83300
C  22.06800 -6.07100 45.48200
C  22.49100 -9.72000 48.74800
C  26.91600 -8.23100 50.04500
N  24.40200 -5.65300 46.13700
C  25.31900 -4.64300 46.03500
C  24.96500 -3.69000 44.95200
C  23.39700 -4.00500 44.62100
C  23.32900 -5.32300 45.38700
C  22.49500 -2.89000 45.07600
C  25.89600 -3.94600 43.76500
C  26.47600 -2.70500 43.16200
H  25.57800 -2.05700 42.08800
N  22.51600 -7.79200 47.18600
C  21.71500 -7.25700 46.19700
C  20.63300 -8.13700 45.93400
C  20.75200 -9.29200 46.74500
C  21.89100 -8.98000 47.67400
C  19.50200 -7.87100 44.90200
C  19.88100 -10.51900 46.81300
O  18.78900 -10.53600 46.21300
C  20.32200 -11.68500 47.58200
N  24.73800 -8.75100 49.10700
C  23.75300 -9.61000 49.40400
C  24.27000 -10.64800 50.48600
C  25.71200 -10.19600 50.81000
C  25.82300 -9.03300 49.95400
C  23.39300 -10.65400 51.74200
C  26.82200 -11.22200 50.50700
C  27.74200 -11.51000 51.72300
N  26.26200 -6.44400 48.45300
C  27.17600 -7.04100 49.27600
C  28.37900 -6.26500 49.19100
C  28.08700 -5.23900 48.27300
C  26.82900 -5.43400 47.79100
C  29.63300 -6.60000 49.98900
C  28.70600 -4.15300 47.61200
O  29.84800 -3.64700 47.72300
C  27.63100 -3.52200 46.75600
C  27.15500 -2.23600 47.08600
O  26.52300 -1.91900 48.08300
O  27.70600 -1.29000 46.18000
C  27.00300 -0.00600 46.29500
H  21.41700 -5.81200 44.64400
H  21.81300 -10.44500 49.20300
H  27.78900 -8.50900 50.64000
H  25.08600 -2.70000 45.38900
H  23.34600 -4.10200 43.53600
H  21.84700 -2.50000 44.29100
H  22.96800 -2.01300 45.51700
H  21.81600 -3.30500 45.82100
H  25.51600 -4.54700 42.94000
H  26.71200 -4.55100 44.16100
H  27.40000 -3.06300 42.70900
H  26.64500 -1.93500 43.91500
H  19.47700 -8.70000 44.19500
H  19.50400 -6.91800 44.37200
H  18.54000 -7.91200 45.41300
H  21.41000 -11.73500 47.61400
H  19.94300 -12.59500 47.11700
H  19.95100 -11.71800 48.60600
H  24.24900 -11.63400 50.02100
H  25.93600 -9.74800 51.77800
H  23.60000 -9.83400 52.43000
H  23.73900 -11.57600 52.20800
H  22.31700 -10.62000 51.56800
H  27.46300 -10.85500 49.70500
H  26.31200 -12.16400 50.30800
H  27.69900 -12.59700 51.79200
H  27.21500 -11.13600 52.60100
H  28.71900 -11.04200 51.59900
H  30.03100 -7.60000 49.81800
H  29.49000 -6.43200 51.05700
H  30.44300 -5.96100 49.63500
H  28.15300 -3.53000 45.79900
H  27.26200 0.58400 47.17500
H  25.91600 -0.03800 46.37300
H  27.31700 0.64600 45.48000
Mg 47.32500 45.17000 43.14500
C  43.89400 44.74800 42.65500
C  47.81000 41.90300 42.21700
C  50.54900 45.88400 43.36000
C  46.67400 48.69400 43.54200
N  45.94300 43.60300 42.26400
C  44.59700 43.58800 42.34700
C  44.01100 42.17800 42.10300
C  45.29000 41.26800 42.09700
C  46.42400 42.30700 42.24800
C  45.19500 40.05100 43.07400
C  43.20400 42.06800 40.83100
C  43.71800 42.80500 39.59300
H  43.52100 42.11200 38.24400
N  49.02500 43.95900 42.85900
C  49.04800 42.58900 42.46200
C  50.43900 42.13000 42.57000
C  51.28500 43.30300 42.84400
C  50.34200 44.50800 42.96400
C  50.72900 40.65100 42.29600
C  52.78100 43.29600 42.94800
O  53.38900 42.25400 42.65800
C  53.47100 44.57000 43.28400
N  48.45200 46.99900 43.51200
C  49.76000 46.98000 43.63500
C  50.31000 48.41500 43.94100
C  48.97300 49.28800 44.03700
C  47.95900 48.25800 43.66300
C  51.24700 48.49100 45.23000
C  49.00800 50.58100 43.10800
C  48.27800 51.82600 43.77200
N  45.66900 46.58100 42.95800
C  45.53500 47.87000 43.29900
C  44.15100 48.27900 43.35000
C  43.47600 47.08400 43.11700
C  44.42000 46.06800 42.90300
C  43.62800 49.61600 43.78700
C  42.17000 46.40400 43.03000
O  41.05900 46.79100 43.17000
C  42.34600 44.86000 42.76100
C  41.73200 44.14100 43.89400
O  40.69400 43.56700 43.75900
O  42.51900 44.19800 45.03800
C  41.99500 43.61600 46.20300
H  47.92700 40.83000 42.05200
H  51.55900 46.17800 43.65600
H  46.40900 49.74300 43.69000
H  43.38800 41.93300 42.96400
H  45.42900 40.71300 41.16900
H  44.18300 39.67900 42.91100
H  45.46600 40.33600 44.09000
H  45.82800 39.29400 42.61200
H  42.15300 42.23500 41.06500
H  43.25400 41.01900 40.54100
H  44.74700 43.16000 39.65100
H  43.10000 43.70200 39.63600
H  50.29600 40.21600 43.19700
H  51.79800 40.44300 42.34200
H  50.25800 40.30200 41.37800
H  53.25000 45.26000 42.47000
H  54.53100 44.46900 43.51600
H  52.98500 44.84000 44.22200
H  50.83100 48.70400 43.02800
H  48.70200 49.55700 45.05800
H  52.27700 48.75600 44.99400
H  51.38800 47.59100 45.82800
H  50.91100 49.16100 46.02100
H  48.55800 50.33200 42.14700
H  50.07400 50.73400 42.93800
H  48.94100 52.68900 43.83400
H  47.85200 51.53400 44.73200
H  47.49900 52.04400 43.04000
H  43.19500 49.41300 44.76600
H  42.85500 49.95700 43.09800
H  44.32300 50.45300 43.84600
H  41.89600 44.66200 41.78800
H  42.60500 43.98500 47.02800
H  41.99100 42.52600 46.19300
H  40.96500 43.93300 46.37000

