158

Mg 26.13200 -0.31000 29.15800
C  28.01900 -0.48600 32.19200
C  23.33900 0.34400 31.27200
C  24.26100 -0.18400 26.42300
C  28.93600 -0.94100 27.38000
N  25.73400 -0.18200 31.55700
C  26.71400 -0.08500 32.46300
C  26.16200 0.37800 33.80900
C  24.55800 0.48600 33.52900
C  24.47800 0.18100 32.02500
C  23.69300 -0.59600 34.30100
C  26.70400 1.69000 34.46800
C  26.03000 2.10700 35.79700
H  27.00800 2.24600 37.00100
N  24.03800 -0.12100 28.88600
C  23.11000 0.14200 29.88400
C  21.78600 0.15600 29.16400
C  22.00400 0.04600 27.76500
C  23.46100 -0.06900 27.60400
C  20.46700 0.28600 29.86400
C  21.02100 0.06600 26.67200
O  21.39800 0.00900 25.51100
C  19.47300 0.15500 26.85100
N  26.56000 -0.61500 27.17600
C  25.62400 -0.44000 26.21600
C  26.26500 -0.29500 24.84900
C  27.78700 -0.66800 25.12800
C  27.78800 -0.78800 26.63000
C  25.65100 -1.09800 23.70700
C  28.81300 0.34400 24.55300
C  30.06200 -0.35600 23.91900
N  28.04200 -0.75300 29.60300
C  29.12500 -1.00300 28.77800
C  30.30500 -1.25600 29.60400
C  29.90900 -1.14600 30.90800
C  28.51600 -0.81400 30.91000
C  31.63100 -1.50400 29.04000
C  30.41000 -1.10200 32.23800
O  31.56600 -1.42400 32.67300
C  29.18200 -0.65900 33.10100
C  28.95300 -1.76500 34.14600
O  28.11000 -2.64800 34.04100
O  29.65400 -1.46000 35.32900
C  29.71800 -2.44300 36.42000
H  22.46900 0.65200 31.85600
H  23.70500 -0.26000 25.48700
H  29.92000 -1.07800 26.92700
H  26.40000 -0.47800 34.43900
H  24.23700 1.50600 33.74000
H  23.77900 -0.58200 35.38800
H  23.95500 -1.61100 34.00300
H  22.63800 -0.39900 34.11100
H  26.38600 2.48700 33.79500
H  27.78600 1.71600 34.59900
H  25.25700 1.36800 36.01000
H  25.66300 3.08400 35.48100
H  19.94400 1.22700 29.69800
H  20.74600 0.26000 30.91700
H  19.79600 -0.53300 29.60400
H  18.98400 -0.53800 27.53500
H  19.02900 -0.06800 25.88100
H  19.28100 1.18200 27.16300
H  26.18100 0.75000 24.55200
H  27.95200 -1.70900 24.85000
H  24.87800 -1.70800 24.17500
H  26.25500 -1.81500 23.15100
H  25.20800 -0.38700 23.01000
H  29.24500 1.05800 25.25300
H  28.31500 0.90200 23.75900
H  30.99700 -0.05800 24.39400
H  30.07700 -0.29900 22.83100
H  29.93900 -1.41400 24.15100
H  32.22200 -0.61400 29.25800
H  31.58300 -1.60600 27.95600
H  32.06400 -2.34400 29.58300
H  29.44400 0.23600 33.66700
H  29.64300 -3.47500 36.07600
H  28.91600 -2.19500 37.11500
H  30.64200 -2.33600 36.98800
Mg 15.42800 51.68900 25.77500
C  17.63500 50.48400 28.41100
C  13.38200 52.68800 28.04700
C  13.80500 52.71200 23.19700
C  17.96700 50.22100 23.50900
N  15.63700 51.60500 27.93500
C  16.55100 51.26300 28.83900
C  16.15000 51.52000 30.32500
C  14.72600 52.09600 30.05300
C  14.58500 52.08400 28.57000
C  13.59100 51.39900 30.82600
C  17.18300 52.47100 31.05500
C  16.55900 53.13500 32.31100
H  15.95200 52.24000 33.36800
N  13.78600 52.68900 25.63700
C  12.93700 52.94800 26.72100
C  11.66600 53.33500 26.18500
C  11.74700 53.22100 24.77100
C  13.11700 52.84100 24.44400
C  10.55100 53.76800 27.05600
C  10.69500 53.38200 23.73100
O  10.89600 53.41000 22.51700
C  9.24900 53.57100 24.09500
N  15.93900 51.60300 23.62000
C  14.99500 52.15200 22.78900
C  15.33900 51.79500 21.33000
C  16.78600 51.14900 21.42000
C  16.93100 50.97000 22.94100
C  14.35600 50.78100 20.67900
C  18.01900 51.90800 20.80200
C  18.71300 51.26600 19.62500
N  17.39200 50.58100 25.90500
C  18.23400 50.06700 24.90700
C  19.36300 49.41900 25.50200
C  19.08600 49.50800 26.87100
C  17.92900 50.26900 27.07500
C  20.44500 48.84900 24.79300
C  19.57500 49.05700 28.16900
O  20.58800 48.36300 28.37800
C  18.74100 49.83200 29.28000
C  18.19100 48.91000 30.27300
O  17.46700 47.90500 29.99600
O  18.64900 49.19900 31.55100
C  18.12600 48.45600 32.64400
H  12.61000 53.09000 28.70700
H  13.20700 52.90600 22.30400
H  18.65500 49.78300 22.78400
H  16.05500 50.71300 31.05200
H  14.70700 53.14300 30.35700
H  13.90800 50.62100 31.52100
H  12.90700 50.83700 30.19100
H  13.06300 52.18300 31.36900
H  17.44100 53.22300 30.30800
H  17.95900 51.86300 31.51900
H  15.83100 53.91500 32.08800
H  17.39400 53.65400 32.78100
H  9.95500 54.61900 26.72800
H  10.85000 53.90400 28.09600
H  9.81800 52.96600 26.97400
H  8.66100 53.41900 23.19000
H  9.23600 54.59900 24.45600
H  8.91000 52.88200 24.86900
H  15.48200 52.75400 20.83100
H  16.66300 50.13400 21.04200
H  13.82200 51.24800 19.85200
H  13.74300 50.36700 21.47900
H  14.84200 49.93400 20.19400
H  18.75500 51.98200 21.60300
H  17.71300 52.91200 20.50700
H  18.76700 51.90100 18.74100
H  17.97600 50.54400 19.27600
H  19.70600 50.98400 19.97500
H  20.14000 47.92800 24.29600
H  21.25600 48.74600 25.51500
H  20.73700 49.62600 24.08700
H  19.24800 50.67000 29.76000
H  18.90900 47.79800 33.02100
H  17.23700 47.88800 32.36900
H  17.75900 49.12800 33.41900

