158

Mg 39.62700 10.38400 29.16700
C  41.65200 11.86400 31.65700
C  37.68200 9.09000 31.75600
C  38.06900 8.67500 26.83700
C  42.20000 11.03400 26.90200
N  39.58400 10.62800 31.43800
C  40.49200 11.36800 32.21000
C  40.13000 11.32300 33.69500
C  38.98200 10.19900 33.69000
C  38.76800 9.86000 32.22400
C  39.16600 8.91200 34.57900
C  39.61300 12.62200 34.35000
C  39.11800 12.48100 35.80300
H  39.90300 13.26500 36.80200
N  37.98000 9.21400 29.24900
C  37.33600 8.68000 30.35800
C  36.23500 7.87200 29.89500
C  36.28400 7.89000 28.46000
C  37.50900 8.57000 28.10900
C  35.25500 7.16000 30.80000
C  35.23700 7.34000 27.47700
O  35.29200 7.55500 26.28500
C  34.03800 6.65200 28.01900
N  40.15400 9.83400 27.10800
C  39.26800 9.18300 26.35000
C  39.73900 9.26100 24.85300
C  40.99300 10.24700 24.93600
C  41.12800 10.36900 26.39300
C  40.14100 7.85500 24.20600
C  40.81900 11.53200 24.16700
C  40.08100 12.79000 24.96500
N  41.50900 11.20400 29.23200
C  42.41500 11.41900 28.18900
C  43.59000 12.15600 28.69700
C  43.34500 12.35000 30.06200
C  42.11600 11.77100 30.33500
C  44.82000 12.64200 27.92300
C  43.85800 12.90900 31.25200
O  44.88700 13.60400 31.40400
C  42.75600 12.73000 32.28100
C  43.32200 12.17800 33.61000
O  43.72500 11.05300 33.78900
O  43.19900 13.08900 34.60400
C  43.56600 12.70600 35.91800
H  37.00200 8.77000 32.54900
H  37.53700 8.08900 26.08400
H  42.96100 11.35500 26.18800
H  40.95500 10.87100 34.24500
H  38.04600 10.60800 34.06900
H  38.28400 8.67500 35.17400
H  39.96700 9.11600 35.29000
H  39.37800 8.02900 33.97700
H  38.86200 13.09800 33.71900
H  40.50900 13.24100 34.41100
H  39.08900 11.50200 36.28100
H  38.09800 12.84300 35.66900
H  34.35500 7.77500 30.82400
H  35.71100 7.17900 31.79000
H  34.94400 6.14700 30.54700
H  33.47000 6.32000 27.15000
H  33.47400 7.24000 28.74300
H  34.41400 5.72000 28.44200
H  38.90500 9.67300 24.28600
H  41.80000 9.74800 24.39900
H  41.22800 7.78000 24.17600
H  39.74200 7.75900 23.19700
H  39.52800 7.21400 24.84000
H  40.12800 11.42500 23.33000
H  41.75600 11.82800 23.69500
H  40.11000 12.51700 26.02000
H  39.12800 13.12300 24.55300
H  40.69700 13.68400 24.87200
H  44.65800 13.52400 27.30400
H  45.28000 11.84300 27.34000
H  45.56400 12.82200 28.69900
H  42.22800 13.66900 32.44700
H  44.64900 12.66000 36.03100
H  43.11700 11.76600 36.23700
H  43.24500 13.45000 36.64700
Mg -4.44400 24.74000 25.92100
C  -2.96300 26.12100 28.84000
C  -6.40800 22.85300 28.01000
C  -5.26400 22.89700 23.23500
C  -2.05800 26.42900 23.99600
N  -4.55200 24.48100 28.15800
C  -3.92100 25.23700 29.12300
C  -4.55200 25.01500 30.49300
C  -5.35900 23.73800 30.22200
C  -5.49200 23.63600 28.69500
C  -4.81800 22.38500 30.77700
C  -5.38400 26.33500 30.93600
C  -5.54300 26.66700 32.42900
H  -5.10400 25.58900 33.39400
N  -5.71200 23.16300 25.65600
C  -6.50000 22.63000 26.63100
C  -7.36400 21.63700 25.93600
C  -6.91600 21.49800 24.63100
C  -5.94100 22.58900 24.42500
C  -8.58000 21.00300 26.64700
C  -7.32600 20.53900 23.55400
O  -6.80800 20.42200 22.45400
C  -8.30900 19.47600 23.92000
N  -3.63500 24.50500 23.93000
C  -4.27100 23.85600 22.98300
C  -3.43400 23.94000 21.67600
C  -2.59400 25.20500 21.89100
C  -2.77000 25.42000 23.38700
C  -2.67100 22.65300 21.29500
C  -2.94400 26.47900 20.98800
C  -1.68600 27.23300 20.43600
N  -2.87700 26.04200 26.27400
C  -1.97100 26.70000 25.41300
C  -1.14700 27.63400 26.16400
C  -1.50300 27.45200 27.53300
C  -2.52200 26.44300 27.53600
C  -0.18200 28.63200 25.58400
C  -1.18500 27.82400 28.84800
O  -0.27800 28.49100 29.35200
C  -2.14500 27.03000 29.77100
C  -1.44900 26.40900 30.83200
O  -0.63000 25.50600 30.67500
O  -1.73700 26.97200 32.05300
C  -1.10500 26.25800 33.22500
H  -7.13300 22.32700 28.63500
H  -5.40400 22.29300 22.33600
H  -1.35400 26.92400 23.32500
H  -3.77400 24.77000 31.21600
H  -6.32800 24.01200 30.64000
H  -3.99300 22.71700 31.40700
H  -4.35900 21.77400 30.00000
H  -5.46900 21.79400 31.42100
H  -6.35700 26.23500 30.45500
H  -5.00600 27.28500 30.55600
H  -6.53400 27.05300 32.66800
H  -4.97700 27.57100 32.65000
H  -9.35700 20.94300 25.88400
H  -8.79700 21.63900 27.50500
H  -8.26700 20.02000 26.99800
H  -8.14700 18.93500 24.85200
H  -8.30700 18.73500 23.12100
H  -9.26100 19.99200 24.04900
H  -4.09600 24.09500 20.82400
H  -1.56700 24.84900 21.81400
H  -1.59400 22.78000 21.18200
H  -2.96600 22.20600 20.34600
H  -2.67400 21.93000 22.11100
H  -3.48500 27.16500 21.64000
H  -3.58000 26.12700 20.17600
H  -1.68400 28.09000 21.11000
H  -1.87400 27.65700 19.44900
H  -0.82500 26.58600 20.60300
H  0.58200 28.81800 26.33900
H  -0.53200 29.61300 25.26100
H  0.29400 28.23700 24.68700
H  -2.81800 27.79900 30.15200
H  -1.47100 26.63800 34.17900
H  -0.02400 26.36700 33.14300
H  -1.31900 25.19300 33.13100

