158

Mg 52.73900 24.20600 44.86600
C  49.90300 26.27300 43.86000
C  51.06600 21.64900 43.26300
C  55.50900 22.56000 45.03000
C  54.38500 27.18600 45.74300
N  50.71800 24.03700 43.61400
C  49.80900 24.95400 43.33300
C  48.75400 24.47700 42.33600
C  48.82800 22.91300 42.53600
C  50.26100 22.80600 43.17100
C  47.60100 22.22300 43.28200
C  49.17900 24.92200 40.88000
C  47.95000 25.02200 40.00200
H  47.53700 23.77000 39.18500
N  53.20500 22.33700 44.28200
C  52.37000 21.39000 43.72900
C  53.03600 20.12800 43.68600
C  54.36000 20.35100 44.18300
C  54.44700 21.80600 44.52800
C  52.29400 18.82300 43.24300
C  55.46800 19.28600 44.22400
O  55.26500 18.18000 43.72600
C  56.80300 19.55800 44.96100
N  54.63200 24.75600 45.43100
C  55.65600 23.86900 45.43800
C  56.97100 24.45800 45.89400
C  56.60600 25.97900 45.83400
C  55.10600 25.97300 45.69800
C  57.54400 23.83800 47.29500
C  57.31600 26.68600 44.69700
C  58.30600 27.76400 45.07500
N  52.24700 26.26700 44.91600
C  52.96600 27.35800 45.43400
C  52.23500 28.45800 45.48100
C  50.93000 28.11800 44.98700
C  51.05300 26.77100 44.59400
C  52.80500 29.74900 46.09900
C  49.59600 28.57200 44.69500
O  49.02800 29.63800 44.98400
C  48.91900 27.43400 43.91600
C  48.38000 27.93900 42.58200
O  49.07100 28.27400 41.54600
O  47.00400 28.17900 42.67100
C  46.43300 28.53600 41.37400
H  50.45200 20.80400 42.94500
H  56.47700 22.06300 45.12600
H  54.87600 28.13800 45.95700
H  47.76700 24.83000 42.63600
H  48.68900 22.53800 41.52200
H  46.71000 22.81500 43.49000
H  47.91600 21.69500 44.18200
H  47.24600 21.49700 42.55100
H  49.88700 24.13000 40.63500
H  49.86500 25.76900 40.92100
H  47.97600 25.87600 39.32600
H  47.00400 25.16400 40.52500
H  52.57900 18.70100 42.19800
H  51.20800 18.79200 43.33200
H  52.72700 18.00200 43.81500
H  57.41000 20.04800 44.20000
H  57.29200 18.61800 45.21600
H  56.70400 20.20900 45.83000
H  57.60000 24.17400 45.05100
H  56.78000 26.49900 46.77600
H  57.33800 24.42600 48.19000
H  58.63000 23.74800 47.29100
H  57.06700 22.92000 47.63800
H  56.59200 27.09600 43.99300
H  57.87500 25.97100 44.09200
H  59.31700 27.61800 44.69500
H  58.54400 27.73100 46.13800
H  58.02200 28.75800 44.72900
H  53.61600 30.14100 45.48500
H  53.26100 29.43600 47.03900
H  52.07200 30.53300 46.28700
H  47.98300 27.14700 44.39600
H  45.37400 28.69600 41.57400
H  46.60900 27.70800 40.68700
H  46.84700 29.47300 41.00300
Mg -1.32600 34.20900 27.67000
C  -2.94400 32.66100 30.47200
C  0.18700 36.30900 29.65900
C  -0.57700 36.01300 24.87200
C  -3.31700 32.02900 25.68700
N  -1.61000 34.53800 29.81500
C  -2.13600 33.70800 30.73200
C  -1.53900 34.02700 32.19400
C  -0.55400 35.23700 31.88700
C  -0.62400 35.35000 30.29600
C  -0.64800 36.57900 32.68500
C  -0.92000 32.84300 33.00100
C  -1.55800 32.25800 34.24700
H  -0.67400 32.13100 35.46500
N  -0.20700 35.87700 27.28300
C  0.37700 36.60600 28.28200
C  1.23400 37.56200 27.65000
C  1.08900 37.38300 26.27400
C  0.04800 36.39700 26.03500
C  2.15900 38.44600 28.41000
C  1.83300 37.98400 25.17400
O  1.80600 37.60800 24.02800
C  2.59900 39.24800 25.53800
N  -1.83900 34.10000 25.59300
C  -1.55200 35.03700 24.70900
C  -2.15200 34.71800 23.30100
C  -2.70100 33.24100 23.54200
C  -2.62000 33.07300 24.99200
C  -3.16900 35.70900 22.73000
C  -2.03300 32.03200 22.82800
C  -0.53600 31.87500 22.58800
N  -2.58400 32.53700 27.96200
C  -3.31900 31.81100 27.04800
C  -4.18700 30.88200 27.70800
C  -4.01500 31.18200 29.04200
C  -3.15300 32.20700 29.14300
C  -5.05500 29.85800 27.16500
C  -4.43800 30.85000 30.37100
O  -5.21900 30.00000 30.74600
C  -3.70200 31.77700 31.39600
C  -4.64700 32.61400 32.20700
O  -5.27100 33.54500 31.76500
O  -4.53800 32.24500 33.48100
C  -5.38100 33.06200 34.48000
H  0.83300 36.75100 30.42000
H  -0.27200 36.48200 23.93400
H  -3.89800 31.31800 25.09600
H  -2.29500 34.51200 32.81300
H  0.46200 34.87000 32.03000
H  -1.29700 36.42800 33.54800
H  -1.22600 37.20900 32.00900
H  0.26500 37.07800 33.00800
H  0.07300 33.20200 33.27000
H  -0.67700 32.08300 32.25900
H  -2.00700 31.29500 34.00400
H  -2.35800 32.92400 34.57000
H  3.16100 38.07600 28.19100
H  2.05100 38.47400 29.49400
H  2.07700 39.51800 28.23400
H  1.87500 39.91100 26.01200
H  3.10600 39.76800 24.72500
H  3.38000 38.83300 26.17500
H  -1.37300 34.71700 22.53800
H  -3.75000 33.25000 23.24800
H  -3.81600 36.04300 23.54100
H  -3.85000 35.30700 21.98000
H  -2.69300 36.53900 22.20900
H  -2.52700 31.96700 21.85800
H  -2.35900 31.03300 23.11600
H  0.02400 32.62100 23.15200
H  -0.34800 32.06400 21.53100
H  -0.29600 30.85400 22.88400
H  -4.87200 29.66400 26.10800
H  -6.06100 30.24300 27.33300
H  -4.94900 28.92200 27.71300
H  -2.99000 31.20000 31.98500
H  -4.84500 33.20800 35.41700
H  -6.32500 32.57200 34.71700
H  -5.59000 34.06400 34.10400

