158

Mg 6.58800 54.32700 41.41200
C  6.23200 50.81700 41.14600
C  9.72100 53.84900 39.84400
C  6.66600 57.50100 40.89800
C  3.19200 54.51200 42.15800
N  7.72500 52.50000 40.39300
C  7.40200 51.19800 40.48200
C  8.62100 50.37100 40.01800
C  9.81300 51.38500 39.97300
C  9.04800 52.64600 40.07200
C  10.95900 51.13400 40.96300
C  8.34200 49.49300 38.74900
C  7.15700 49.85700 37.80000
H  6.40700 48.79600 37.05900
N  7.98700 55.51900 40.51200
C  9.15500 55.17300 39.99900
C  9.98800 56.37800 39.87900
C  9.15700 57.50000 40.12000
C  7.88400 56.86000 40.55500
C  11.44200 56.42800 39.49100
C  9.57700 58.95900 40.05500
O  10.71700 59.31800 39.77100
C  8.60100 60.11400 40.30900
N  5.09500 55.73000 41.27400
C  5.41800 56.97900 41.26000
C  4.28100 57.92600 41.63600
C  3.09200 56.97300 41.63800
C  3.84800 55.63100 41.72000
C  4.54700 58.66200 42.99900
C  2.37000 57.02800 40.24700
C  0.80200 57.15300 40.36700
N  5.08600 53.00900 41.89500
C  3.84000 53.24100 42.34400
C  3.29300 52.01200 42.82200
C  4.21200 51.01100 42.43100
C  5.30000 51.70100 41.80700
C  2.01500 51.79300 43.54500
C  4.53600 49.61700 42.45100
O  3.88900 48.70900 42.97700
C  5.72500 49.40500 41.58700
C  5.29200 48.50800 40.45500
O  4.50200 48.79500 39.54600
O  5.92000 47.27900 40.61200
C  5.44100 46.12800 39.84000
H  10.69400 53.74100 39.36000
H  6.58700 58.57400 41.08200
H  2.16200 54.58700 42.51200
H  8.81800 49.72500 40.87300
H  10.28300 51.42700 38.99000
H  10.67600 50.32100 41.63100
H  11.12600 52.01000 41.59000
H  11.90200 50.88200 40.47900
H  8.20600 48.44000 38.99500
H  9.23600 49.66200 38.14800
H  7.65800 50.52200 37.09700
H  6.52800 50.57200 38.33000
H  11.90100 57.21400 38.89300
H  11.72100 55.45300 39.09000
H  12.06000 56.36800 40.38700
H  8.44000 60.12300 41.38700
H  7.70900 60.00400 39.69200
H  9.11400 61.01000 39.95800
H  4.12400 58.75900 40.95000
H  2.42500 56.99800 42.49900
H  5.62200 58.76900 43.14400
H  3.92500 58.32300 43.82800
H  4.23100 59.67200 42.73900
H  2.41100 55.99800 39.89300
H  2.75500 57.75200 39.52800
H  0.57700 58.21900 40.34300
H  0.48700 56.75500 41.33100
H  0.33500 56.71300 39.48600
H  1.43000 51.02300 43.04100
H  1.37600 52.67400 43.48800
H  2.37400 51.42200 44.50500
H  6.48300 48.97000 42.23800
H  6.07200 45.26800 40.06400
H  5.39100 46.21800 38.75500
H  4.48900 45.85700 40.29500
Mg -10.28500 40.90600 42.74100
C  -9.39500 37.61500 41.74600
C  -7.38500 42.06300 41.48100
C  -11.42100 43.92600 43.13900
C  -13.43100 39.56300 43.46000
N  -8.62000 39.96300 41.62400
C  -8.41000 38.59300 41.40400
C  -7.15300 38.40000 40.52300
C  -6.48400 39.83000 40.57100
C  -7.51100 40.68200 41.30600
C  -5.18400 39.86000 41.32700
C  -7.31100 37.83400 39.07400
C  -6.55000 36.49900 38.72600
H  -5.37500 36.59300 37.74300
N  -9.52800 42.67000 42.31200
C  -8.28000 42.99200 41.86500
C  -8.07800 44.42400 41.77700
C  -9.22800 44.96500 42.35700
C  -10.10900 43.89400 42.65600
C  -6.77900 45.02000 41.44800
C  -9.37000 46.45200 42.69700
O  -8.64500 47.28100 42.15100
C  -10.37700 46.93600 43.70200
N  -12.23700 41.61700 42.99500
C  -12.34600 42.90500 43.38700
C  -13.69400 43.14200 44.09800
C  -14.42400 41.78300 43.83600
C  -13.28700 40.92200 43.46200
C  -13.64100 43.60900 45.58100
C  -15.48400 41.81800 42.72500
C  -16.90100 41.66700 43.26100
N  -11.21700 38.95300 42.87600
C  -12.51200 38.60600 43.04500
C  -12.72600 37.22700 42.93600
C  -11.42800 36.73200 42.52900
C  -10.60800 37.86200 42.35400
C  -14.06600 36.43500 43.02200
C  -10.71500 35.52400 42.15700
O  -11.00300 34.32300 42.12200
C  -9.35700 36.12800 41.47900
C  -8.28800 35.38000 42.05400
O  -7.84400 35.39300 43.18200
O  -7.78900 34.55800 41.09400
C  -6.80900 33.56700 41.40700
H  -6.45600 42.48800 41.09600
H  -11.88300 44.91300 43.21500
H  -14.45500 39.19600 43.56300
H  -6.55600 37.66500 41.06300
H  -6.39200 40.20500 39.55200
H  -4.81600 38.83400 41.35400
H  -5.36100 40.28200 42.31700
H  -4.44700 40.49400 40.83400
H  -7.00500 38.63300 38.39800
H  -8.37600 37.60800 39.02600
H  -7.31400 35.88600 38.24800
H  -6.25400 35.99400 39.64500
H  -7.07900 45.89700 40.87500
H  -6.20000 44.38900 40.77400
H  -6.16700 45.27300 42.31400
H  -9.88300 47.79800 44.15100
H  -10.48700 46.19700 44.49500
H  -11.26600 47.13800 43.10400
H  -14.22100 43.90300 43.52400
H  -14.82400 41.37800 44.76500
H  -14.25900 44.48400 45.78300
H  -12.60300 43.90000 45.74200
H  -13.79600 42.90700 46.39900
H  -15.21400 40.96500 42.10300
H  -15.44600 42.67100 42.04700
H  -17.47000 42.39700 42.68500
H  -16.92500 41.90100 44.32500
H  -17.28500 40.66700 43.05700
H  -14.86700 36.83900 42.40300
H  -14.28100 36.26000 44.07600
H  -13.80700 35.45800 42.61200
H  -9.54900 35.95200 40.42100
H  -6.48900 33.72200 42.43800
H  -5.95900 33.66400 40.73200
H  -7.31500 32.60200 41.39000

