158

Mg 47.36000 34.86800 28.80000
C  45.70100 32.76000 31.19400
C  47.85600 37.15100 31.43900
C  48.21700 37.06700 26.53800
C  46.34600 32.61100 26.29100
N  46.83200 34.93200 30.98400
C  46.22100 33.95900 31.73200
C  46.31900 34.34600 33.28500
C  46.30800 35.88600 33.15600
C  47.12700 35.99400 31.79500
C  44.85400 36.55000 33.00000
C  47.60800 33.82800 34.01600
C  47.30600 33.15800 35.37600
H  46.39900 33.87900 36.41500
N  48.02300 36.81100 29.00900
C  48.32600 37.59000 30.11700
C  49.07200 38.78200 29.76600
C  49.01300 38.80500 28.37600
C  48.45200 37.51000 27.91400
C  49.63700 39.77700 30.74100
C  49.44400 39.86800 27.33500
O  49.21500 39.75100 26.13100
C  50.17000 41.10700 27.85400
N  47.20100 34.83700 26.70300
C  47.67600 35.85700 26.00600
C  47.67000 35.60100 24.51900
C  47.14100 34.14700 24.40400
C  46.87300 33.82200 25.87900
C  46.79800 36.55100 23.61800
C  48.13300 33.06500 23.78200
C  47.58900 32.06800 22.76600
N  46.29600 33.07500 28.66900
C  46.03800 32.24500 27.61500
C  45.46100 31.01300 28.05800
C  45.22000 31.23500 29.48900
C  45.78400 32.45400 29.81700
C  44.95400 29.93500 27.08900
C  44.69100 30.62300 30.67900
O  44.23000 29.48900 30.70200
C  44.94500 31.58700 31.76800
C  45.62600 30.95500 32.89000
O  46.81900 30.76700 33.04800
O  44.63300 30.60300 33.75100
C  45.01000 30.14500 35.07400
H  48.04700 37.88200 32.22800
H  48.59500 37.66700 25.70800
H  46.17400 31.84500 25.53200
H  45.37100 34.10100 33.76400
H  46.87100 36.32600 33.97900
H  44.78000 37.25300 33.83000
H  43.98700 35.91500 33.18100
H  44.73800 36.90700 31.97700
H  48.30000 34.65300 34.18500
H  48.05200 33.02000 33.43500
H  48.27000 32.86000 35.78800
H  46.82700 32.20600 35.15100
H  49.14400 40.73200 30.55600
H  50.71300 39.88100 30.60700
H  49.48900 39.50800 31.78700
H  49.43500 41.74800 28.34100
H  50.63200 41.48300 26.94100
H  51.00700 40.85500 28.50500
H  48.71600 35.70000 24.22600
H  46.18300 34.10000 23.88600
H  46.27800 37.21600 24.30700
H  46.09800 36.19900 22.86100
H  47.46300 37.26900 23.13800
H  48.40300 32.34500 24.55500
H  48.96300 33.63000 23.35900
H  48.12500 32.17200 21.82200
H  46.53800 32.22600 22.52400
H  47.65500 31.00400 22.99200
H  44.12400 30.35500 26.52100
H  44.54400 29.05900 27.59300
H  45.74500 29.46900 26.50200
H  43.95100 31.92200 32.06600
H  44.36600 29.32600 35.39600
H  44.79600 30.94400 35.78400
H  46.07100 29.95900 35.24100
Mg 41.87200 40.68700 27.06300
C  41.13200 43.27800 29.25800
C  42.45800 38.67000 29.72700
C  42.97200 38.46200 24.99100
C  41.71500 43.09400 24.38800
N  41.89300 40.98400 29.18100
C  41.54900 42.07700 29.93200
C  41.37600 41.88900 31.42700
C  41.85900 40.38000 31.56600
C  42.16600 39.99400 30.07100
C  43.09400 40.06000 32.43400
C  39.92700 42.14000 32.03700
C  39.61300 41.65700 33.45500
H  39.05300 42.71000 34.47600
N  42.50200 38.84400 27.32100
C  42.67200 38.09900 28.42900
C  43.08800 36.71900 28.10200
C  42.95800 36.62600 26.71800
C  42.82800 38.02700 26.31200
C  43.39800 35.73300 29.23900
C  42.92200 35.45400 25.81900
O  42.66800 35.68100 24.57100
C  43.10000 34.13300 26.41000
N  42.38100 40.85100 24.92500
C  42.81700 39.70400 24.36400
C  42.95500 39.88700 22.85500
C  42.38400 41.33700 22.63800
C  42.17400 41.80900 24.02400
C  44.30300 39.61600 22.14300
C  41.15100 41.49300 21.70900
C  39.81700 41.20600 22.40200
N  41.48100 42.72600 26.81200
C  41.40500 43.56600 25.69700
C  40.89700 44.88700 26.12300
C  40.81100 44.81900 27.53500
C  41.16000 43.51800 27.85700
C  40.59500 46.07400 25.24000
C  40.50400 45.57900 28.72300
O  40.23400 46.75800 28.85000
C  40.67300 44.60800 29.91700
C  41.74500 45.24600 30.71500
O  42.95400 44.92500 30.66800
O  41.16500 46.13900 31.55800
C  42.13700 46.70700 32.48600
H  42.42900 37.95200 30.54900
H  43.34300 37.77100 24.23200
H  41.44800 43.76700 23.57000
H  42.14400 42.42700 31.98400
H  41.05000 39.71900 31.87900
H  43.74800 40.92700 32.52800
H  43.76000 39.26400 32.10100
H  42.74100 39.77700 33.42600
H  39.07400 41.77700 31.46300
H  39.68200 43.20200 32.03500
H  40.60900 41.47400 33.85900
H  39.00500 40.75200 33.46500
H  43.41100 36.02900 30.28800
H  44.37600 35.30000 29.03200
H  42.74100 34.86600 29.30100
H  42.26900 33.84400 27.05400
H  44.08300 34.00100 26.86000
H  43.15200 33.38200 25.62200
H  42.32600 39.14100 22.37000
H  43.16300 41.96000 22.19900
H  44.57300 40.49900 21.56400
H  44.17700 38.73300 21.51600
H  45.09900 39.33600 22.83400
H  41.34600 40.78800 20.90100
H  41.20300 42.52500 21.36300
H  39.83100 40.54400 23.26800
H  39.15800 40.68900 21.70400
H  39.20400 42.10000 22.51800
H  39.55200 45.99600 24.93300
H  41.13900 46.08900 24.29600
H  40.90800 46.94300 25.82000
H  39.68100 44.64300 30.36700
H  42.99200 47.27100 32.11500
H  42.43100 45.83600 33.07100
H  41.63200 47.37900 33.18000

