158

Mg 47.80700 16.31200 27.94900
C  45.91200 15.98800 30.91100
C  49.89700 18.40800 29.65400
C  49.23800 17.01500 24.98500
C  45.25700 14.46400 26.31800
N  47.89100 17.05400 30.06600
C  47.02600 16.78600 31.07800
C  47.52800 17.36800 32.46700
C  48.61000 18.36600 31.89400
C  48.82400 17.99500 30.41200
C  48.17500 19.80200 32.03900
C  48.02000 16.32600 33.51400
C  47.83800 16.83500 35.00400
H  47.63000 18.27600 35.35400
N  49.50900 17.42800 27.48100
C  50.24600 18.18500 28.33300
C  51.41600 18.73800 27.65500
C  51.20800 18.42500 26.23900
C  49.91600 17.63000 26.12100
C  52.55700 19.41600 28.41800
C  52.16000 18.72200 25.08800
O  51.89400 18.28500 23.95000
C  53.42100 19.55100 25.31000
N  47.37600 15.78700 25.97100
C  48.09000 16.20300 24.91700
C  47.54700 15.64100 23.61200
C  46.30800 14.80700 24.10000
C  46.35500 14.96800 25.59000
C  47.20000 16.68800 22.54400
C  46.35700 13.29900 23.65000
C  45.73300 13.13500 22.25200
N  45.89300 15.50600 28.45200
C  44.94500 14.77900 27.70300
C  43.82200 14.44900 28.50400
C  44.20800 14.81900 29.79200
C  45.43500 15.51100 29.70600
C  42.66700 13.56200 28.09000
C  43.73700 14.77200 31.17500
O  42.75800 14.31700 31.74800
C  44.89500 15.53000 31.90900
C  44.29700 16.73000 32.67100
O  44.03200 17.84100 32.17900
O  44.05100 16.30400 34.00000
C  43.48600 17.36900 34.87000
H  50.57600 19.05100 30.21700
H  49.68200 17.24600 24.01400
H  44.52200 13.75100 25.94000
H  46.64200 17.90900 32.79800
H  49.56700 18.24500 32.40000
H  47.40400 20.15600 32.72300
H  48.04400 20.28400 31.07100
H  49.04100 20.31000 32.46400
H  49.05500 16.09300 33.26500
H  47.39800 15.44900 33.33600
H  48.62600 16.52200 35.68700
H  46.97000 16.29500 35.38000
H  53.43700 18.78200 28.30300
H  52.46900 19.35300 29.50200
H  52.67700 20.42000 28.01200
H  53.58900 20.03500 24.34800
H  54.24100 18.91700 25.64900
H  53.17200 20.35400 26.00400
H  48.25300 14.93400 23.17600
H  45.40300 15.26900 23.70600
H  47.82700 16.63500 21.65400
H  47.41800 17.69100 22.91100
H  46.18200 16.61600 22.16000
H  45.92400 12.60200 24.36700
H  47.40900 13.01300 23.67200
H  44.87600 12.49300 22.45600
H  46.44500 12.74900 21.52300
H  45.32500 14.04800 21.81700
H  43.06300 12.74100 27.49300
H  42.01300 14.26400 27.57300
H  42.11200 13.13900 28.92800
H  45.29700 14.80100 32.61200
H  42.42900 17.39400 34.60600
H  44.06300 18.29300 34.83600
H  43.47400 17.09600 35.92500
Mg 48.18600 35.53500 27.80900
C  46.46800 33.66600 30.26500
C  48.39100 38.04900 30.17400
C  49.42200 37.44200 25.48800
C  47.52000 32.92400 25.56000
N  47.49400 35.79400 30.00500
C  47.04900 34.84400 30.80000
C  47.08100 35.24400 32.27800
C  47.31900 36.78200 32.15800
C  47.79100 36.94800 30.66000
C  46.04100 37.68700 32.47800
C  48.23400 34.50200 33.02200
C  48.14200 34.17900 34.44000
H  47.18500 35.05900 35.25200
N  48.75500 37.51100 27.78800
C  48.90200 38.32000 28.86000
C  49.54800 39.48200 28.47200
C  49.86600 39.35000 27.13500
C  49.36900 38.09100 26.73700
C  49.71200 40.68900 29.41300
C  50.58200 40.38300 26.29600
O  50.79300 40.15700 25.08000
C  51.16500 41.65100 26.79000
N  48.20900 35.30000 25.81600
C  48.83000 36.20100 25.06500
C  49.13600 35.77200 23.67000
C  48.80900 34.26500 23.73300
C  48.14800 34.12200 25.09600
C  48.27100 36.50100 22.57000
C  50.04100 33.37900 23.51200
C  50.02100 32.27600 22.49400
N  47.21100 33.68000 27.89900
C  47.03300 32.72000 26.86800
C  46.35800 31.59000 27.47700
C  46.12600 31.92900 28.79600
C  46.63000 33.16800 29.00500
C  46.05500 30.25100 26.78200
C  45.46500 31.44800 29.97200
O  44.89000 30.40500 30.18200
C  45.58900 32.68400 31.03000
C  45.99900 32.20000 32.35900
O  46.97300 31.45500 32.47000
O  44.99900 32.19700 33.31500
C  45.27100 31.43000 34.54800
H  48.56600 38.73100 31.00900
H  49.96100 37.87300 24.64100
H  47.66200 32.16800 24.78500
H  46.09400 34.99900 32.67000
H  48.13200 37.11500 32.80300
H  46.47500 38.59500 32.89700
H  45.40200 37.08500 33.12500
H  45.49300 37.83900 31.54900
H  49.19300 34.98900 32.84200
H  48.38400 33.56400 32.48600
H  49.09200 34.25600 34.96900
H  47.77200 33.15400 34.44200
H  49.31300 41.53200 28.84800
H  50.77100 40.88900 29.57600
H  49.16600 40.60200 30.35200
H  50.37400 42.39700 26.86700
H  51.93300 41.94900 26.07600
H  51.58200 41.44700 27.77700
H  50.20400 35.93600 23.52500
H  48.06300 34.02900 22.97400
H  48.11600 37.50600 22.96200
H  47.39900 35.92400 22.26200
H  48.93700 36.57500 21.71000
H  50.30000 32.90300 24.45800
H  50.87900 33.96000 23.12600
H  49.19600 32.37500 21.78800
H  49.90100 31.36100 23.07300
H  50.95900 32.25100 21.94000
H  44.99800 30.10900 26.55500
H  46.51300 29.46200 27.37800
H  46.53800 30.11400 25.81400
H  44.62300 33.15700 31.20500
H  46.13400 30.76400 34.57500
H  44.43700 30.77300 34.79400
H  45.34400 32.08500 35.41600

