158

Mg -2.49400 17.16700 27.40000
C  -3.32500 14.73200 29.96600
C  -3.56000 19.63200 29.37800
C  -2.61400 19.14900 24.68700
C  -2.20600 14.25000 25.12100
N  -3.18800 17.14500 29.50000
C  -3.52100 16.08900 30.36500
C  -3.98000 16.57900 31.72800
C  -4.24200 18.09200 31.39200
C  -3.61900 18.31900 29.97100
C  -5.74900 18.59000 31.39000
C  -2.99500 16.29200 32.88800
C  -3.04400 17.28500 34.10300
H  -2.33100 16.65000 35.30700
N  -2.91800 19.24700 27.09700
C  -3.26600 20.11100 28.09600
C  -3.30100 21.45400 27.52000
C  -3.01600 21.29000 26.17400
C  -2.88500 19.84100 25.92100
C  -3.58000 22.70900 28.36300
C  -2.76000 22.30100 25.19000
O  -2.41900 22.06500 24.02500
C  -2.72800 23.78300 25.57200
N  -2.42200 16.75900 25.27800
C  -2.49100 17.80300 24.38700
C  -2.36400 17.29300 22.92600
C  -1.75500 15.87700 23.08700
C  -2.18300 15.57500 24.55700
C  -3.53400 17.40700 21.98300
C  -0.22100 15.72500 22.77700
C  0.73800 16.59700 23.62600
N  -2.57800 14.99300 27.45700
C  -2.38900 13.96400 26.51700
C  -2.53700 12.69200 27.13300
C  -2.76000 12.94300 28.51100
C  -2.88900 14.36600 28.61300
C  -2.56100 11.40500 26.44300
C  -3.05200 12.27900 29.81300
O  -3.05800 11.13800 30.10200
C  -3.54800 13.43700 30.72700
C  -2.72600 13.31100 31.98800
O  -1.48700 13.56900 32.07400
O  -3.37800 12.86300 33.09500
C  -2.57600 12.64800 34.30100
H  -3.97400 20.43400 29.99200
H  -2.49600 19.64000 23.71800
H  -1.97200 13.42400 24.44500
H  -4.90700 16.05800 31.96600
H  -3.68900 18.73800 32.07400
H  -6.03200 18.75100 30.35000
H  -5.83500 19.52600 31.94200
H  -6.39700 17.86200 31.87800
H  -2.00200 16.17200 32.45400
H  -3.21300 15.31200 33.31200
H  -4.05500 17.50800 34.44400
H  -2.50600 18.19800 33.84600
H  -2.77700 23.44500 28.30900
H  -3.76000 22.51800 29.42100
H  -4.49000 23.16400 27.96900
H  -1.97400 24.09600 26.29400
H  -3.74300 23.93800 25.93900
H  -2.66700 24.31700 24.62400
H  -1.52100 17.82300 22.48300
H  -2.31700 15.13100 22.52500
H  -4.04400 16.46200 21.79000
H  -3.33000 18.01300 21.10000
H  -4.32400 17.98500 22.46300
H  0.02500 15.78100 21.71600
H  -0.05700 14.65700 22.92200
H  1.31900 17.18700 22.91600
H  1.38200 15.90700 24.17100
H  0.25400 17.27500 24.32800
H  -2.06700 11.51600 25.47800
H  -3.59100 11.19000 26.15800
H  -2.06100 10.60900 26.99400
H  -4.56200 13.23700 31.07500
H  -2.94600 11.72100 34.73900
H  -2.72400 13.46700 35.00500
H  -1.53000 12.37700 34.16200
Mg 48.01300 24.84300 27.98200
C  48.74400 27.06700 30.49500
C  47.53400 22.33700 30.49400
C  47.37000 22.49300 25.56100
C  48.69600 27.16700 25.62200
N  48.25400 24.71900 30.25800
C  48.54800 25.82900 31.08700
C  48.40200 25.54500 32.58100
C  48.08000 23.92200 32.54700
C  47.96100 23.60700 30.98100
C  49.04600 22.89500 33.32700
C  47.17300 26.36700 33.18700
C  47.45400 27.19500 34.51400
H  46.36600 27.19300 35.54000
N  47.40600 22.77700 28.00600
C  47.24800 21.94900 29.13600
C  46.80500 20.64400 28.61000
C  46.79800 20.62200 27.17000
C  47.21500 21.95300 26.85600
C  46.47600 19.51300 29.60500
C  46.35400 19.52100 26.14300
O  46.44100 19.65800 24.96300
C  45.82700 18.21700 26.62300
N  48.21800 24.72200 25.85200
C  47.84100 23.71000 25.02800
C  47.90400 24.06600 23.52700
C  48.13000 25.59700 23.60800
C  48.32800 25.88400 25.16300
C  48.90600 23.15300 22.67400
C  46.96900 26.38100 22.91000
C  45.76200 26.75500 23.75600
N  48.69000 26.77400 27.96100
C  48.95500 27.61500 26.95200
C  49.47400 28.87500 27.46500
C  49.25700 28.77400 28.92100
C  48.83600 27.43900 29.15600
C  50.06500 30.02900 26.65600
C  49.46900 29.39900 30.20800
O  49.87200 30.51100 30.46800
C  49.13100 28.28600 31.26300
C  50.28000 28.32000 32.19500
O  51.36700 27.83100 31.99500
O  49.92000 29.07700 33.29000
C  50.90200 29.01200 34.42800
H  47.38900 21.59800 31.28400
H  47.30000 21.80500 24.71500
H  49.07200 27.80000 24.81500
H  49.25700 25.81900 33.19800
H  47.05800 23.83700 32.91400
H  49.13300 21.96500 32.76400
H  48.55800 22.55200 34.24000
H  50.01500 23.38600 33.41400
H  46.39400 25.67200 33.50100
H  46.89000 27.05000 32.38600
H  47.58400 28.25400 34.29100
H  48.33800 26.64600 34.83900
H  46.80600 18.56000 29.19100
H  45.42800 19.54100 29.90600
H  46.94000 19.64000 30.58300
H  46.56900 17.61300 27.14600
H  45.54600 17.67300 25.72100
H  44.92700 18.50700 27.16600
H  46.96000 23.78800 23.06000
H  48.97000 25.75800 22.93200
H  48.50700 22.57400 21.84100
H  49.21100 22.34800 23.34200
H  49.79000 23.71200 22.36500
H  46.46500 25.89600 22.07400
H  47.39500 27.30000 22.50800
H  44.88600 26.29700 23.29600
H  45.67500 27.84000 23.81000
H  45.82300 26.41100 24.78800
H  50.33100 29.73300 25.64100
H  50.96500 30.24500 27.23200
H  49.43000 30.91400 26.65000
H  48.20500 28.61900 31.73200
H  50.39800 28.84600 35.38000
H  51.57100 29.86800 34.51400
H  51.48500 28.10600 34.26300

