158

Mg 54.43500 24.16200 44.45500
C  51.62000 26.31200 43.70700
C  52.27200 21.66600 43.25900
C  57.13600 22.40900 44.44800
C  56.00200 26.99700 45.68100
N  52.27200 24.02000 43.43400
C  51.29500 25.03000 43.36500
C  49.99000 24.53400 42.74000
C  50.07500 23.00000 43.15000
C  51.60600 22.87300 43.25000
C  49.41200 22.67500 44.52600
C  49.82500 24.76500 41.23100
C  51.11100 24.61600 40.26400
H  50.83700 25.02000 38.78800
N  54.65800 22.33300 44.01800
C  53.68300 21.45000 43.51200
C  54.35100 20.16400 43.42300
C  55.69800 20.29700 43.88000
C  55.87900 21.73700 44.09000
C  53.77600 18.84000 42.90500
C  56.74800 19.22400 44.01700
O  56.40400 18.04900 43.70000
C  58.09500 19.44500 44.55100
N  56.47500 24.78900 44.73700
C  57.37100 23.76400 44.84100
C  58.64400 24.33000 45.50300
C  58.14200 25.68100 46.23900
C  56.78400 25.78800 45.54800
C  59.55400 23.28800 46.34000
C  59.05700 26.96700 46.05900
C  59.28500 27.52300 44.60100
N  54.07000 26.26900 44.49300
C  54.74000 27.21400 45.11100
C  54.01500 28.44500 45.30500
C  52.74500 28.17600 44.61200
C  52.83300 26.77800 44.29900
C  54.46700 29.75300 45.82000
C  51.38600 28.69000 44.31000
O  50.81400 29.77900 44.52100
C  50.67300 27.50200 43.63700
C  50.23200 28.08300 42.25500
O  50.90600 28.15100 41.22700
O  48.86300 28.28100 42.38100
C  48.09400 28.31600 41.12600
H  51.63900 20.77700 43.25600
H  58.08200 21.88100 44.30900
H  56.36600 27.76900 46.36200
H  49.20600 25.06300 43.28200
H  49.63200 22.29100 42.45000
H  48.60400 21.96400 44.35700
H  48.96500 23.54000 45.01600
H  50.19200 22.21100 45.13100
H  49.46600 25.78800 41.11800
H  49.23500 23.98200 40.75400
H  51.59100 23.64400 40.37400
H  51.87200 25.30200 40.63700
H  54.50800 18.63800 42.12300
H  52.83700 18.93400 42.35800
H  53.72200 18.00900 43.60800
H  57.93900 19.96100 45.49700
H  58.70300 20.01400 43.84700
H  58.60300 18.52200 44.83200
H  59.29000 24.63700 44.68000
H  58.15400 25.48300 47.31000
H  59.33500 22.23600 46.15700
H  59.59000 23.49700 47.40900
H  60.58800 23.53000 46.09200
H  60.05700 26.72000 46.41700
H  58.68000 27.74300 46.72600
H  60.09100 26.98300 44.10400
H  59.39700 28.60400 44.67800
H  58.41100 27.30700 43.98600
H  55.35400 29.81400 46.45100
H  53.56400 30.12200 46.30700
H  54.65100 30.44400 44.99700
H  49.81300 27.27900 44.26900
H  47.37000 27.50100 41.13300
H  48.72700 28.30200 40.24000
H  47.43400 29.18300 41.09600
Mg -2.17400 34.73500 25.77600
C  -3.91300 33.10800 28.33000
C  -1.10500 36.98900 28.01500
C  -0.89300 36.58900 23.15400
C  -3.73700 32.67500 23.44800
N  -2.65100 35.04500 27.94300
C  -3.26900 34.27300 28.80800
C  -3.03800 34.70200 30.28300
C  -2.27000 36.02800 30.15300
C  -1.93500 36.00200 28.60600
C  -3.06400 37.35900 30.53500
C  -2.36900 33.58800 31.13600
C  -3.06900 33.28200 32.45600
H  -2.08400 33.16800 33.60100
N  -1.18400 36.52800 25.67000
C  -0.76100 37.25700 26.73100
C  0.04100 38.43500 26.20400
C  0.09200 38.32900 24.75400
C  -0.64600 37.14000 24.46900
C  0.53500 39.53200 27.10600
C  0.68200 39.27600 23.65000
O  0.72500 39.09900 22.42700
C  1.47900 40.51300 24.11400
N  -2.43400 34.72300 23.71700
C  -1.67200 35.49800 22.82800
C  -1.79100 35.00800 21.34900
C  -2.41100 33.60100 21.59500
C  -2.88900 33.67900 23.03800
C  -2.75100 35.96500 20.52600
C  -1.43600 32.35200 21.38200
C  -0.72500 31.70200 22.62300
N  -3.55900 33.10600 25.80300
C  -4.12000 32.41600 24.78300
C  -4.94000 31.30500 25.39400
C  -4.82500 31.51300 26.75900
C  -4.02600 32.65300 26.98300
C  -5.86000 30.42600 24.74200
C  -5.29800 31.03800 28.03500
O  -5.94900 30.04100 28.31100
C  -4.71500 32.06800 29.15600
C  -5.82500 32.60500 29.88100
O  -6.55000 33.48800 29.46300
O  -5.87400 32.08500 31.14000
C  -6.89100 32.44400 32.15500
H  -0.63600 37.69100 28.70700
H  -0.30600 36.93200 22.30000
H  -4.00900 31.95700 22.67000
H  -4.08100 34.80500 30.58200
H  -1.27700 36.09900 30.59700
H  -3.61300 37.75000 29.67800
H  -2.36300 38.13800 30.83500
H  -3.69600 37.13400 31.39500
H  -1.40700 33.97200 31.47600
H  -2.22200 32.71500 30.50100
H  -3.38500 32.24800 32.31900
H  -3.88300 33.98000 32.65100
H  0.98300 40.39900 26.62000
H  1.32000 39.31500 27.83100
H  -0.24700 39.92200 27.75700
H  1.91000 40.94800 23.21200
H  2.37400 40.03400 24.51000
H  1.00600 41.22800 24.78700
H  -0.89300 34.90100 20.74000
H  -3.31200 33.47500 20.99400
H  -2.21300 36.78300 20.04800
H  -3.47900 36.43400 21.18800
H  -3.08500 35.35900 19.68400
H  -0.64600 32.75000 20.74700
H  -1.92900 31.60500 20.76000
H  -1.15200 32.09900 23.54400
H  0.34300 31.89200 22.51400
H  -0.88200 30.62600 22.69600
H  -5.55800 30.29500 23.70300
H  -6.87400 30.81400 24.83400
H  -5.84700 29.48200 25.28700
H  -4.04900 31.43500 29.74200
H  -7.12800 31.57800 32.77300
H  -7.78600 32.96600 31.81500
H  -6.34600 33.11900 32.81500

