158

Mg 16.37000 -2.00400 28.44100
C  15.33300 0.25100 30.97700
C  18.09400 -3.71700 30.70600
C  17.81500 -3.73600 25.83600
C  14.74800 0.02800 26.05700
N  16.76300 -1.69500 30.56900
C  16.20700 -0.72800 31.42800
C  16.48200 -1.10600 32.84500
C  17.43300 -2.34900 32.71700
C  17.46900 -2.59900 31.25200
C  18.91800 -2.24200 33.29000
C  15.21600 -1.25900 33.80100
C  15.15700 -0.39500 35.10600
H  16.47500 0.21800 35.65300
N  17.75000 -3.53500 28.30600
C  18.31500 -4.13600 29.36800
C  19.06000 -5.31400 28.97200
C  19.07200 -5.25000 27.57400
C  18.14100 -4.17000 27.14500
C  19.76900 -6.26700 29.90600
C  19.85100 -6.16900 26.48300
O  19.92000 -5.80200 25.33000
C  20.62700 -7.40500 26.88900
N  16.30000 -1.85100 26.27700
C  16.95100 -2.72600 25.44400
C  16.86100 -2.30900 24.00500
C  15.81200 -1.17000 24.02400
C  15.60300 -0.92600 25.52400
C  18.24000 -1.93000 23.37200
C  14.44200 -1.39600 23.33900
C  13.36500 -2.26000 24.12900
N  15.17800 -0.28300 28.40100
C  14.55700 0.37200 27.37900
C  13.65000 1.40800 27.93000
C  13.97800 1.45800 29.35500
C  14.87100 0.41100 29.58700
C  12.77000 2.32300 27.10500
C  13.74800 2.15500 30.65000
O  13.07600 3.11600 31.00500
C  14.56200 1.40700 31.76900
C  15.42300 2.42700 32.32500
O  16.38600 2.84200 31.72300
O  14.86700 2.92200 33.49900
C  15.56700 4.03700 34.13700
H  18.57800 -4.34600 31.45600
H  18.23200 -4.26100 24.97500
H  14.19500 0.57400 25.29000
H  17.15600 -0.28400 33.08600
H  16.88500 -3.19800 33.12500
H  19.10800 -1.32800 33.85300
H  19.67000 -2.25200 32.50100
H  19.06400 -3.07400 33.97800
H  15.20900 -2.28300 34.17400
H  14.30100 -0.93600 33.30500
H  14.65100 -0.99200 35.86500
H  14.54200 0.49500 34.96700
H  19.19700 -7.19500 29.91500
H  19.90100 -5.94700 30.94000
H  20.77100 -6.50900 29.55100
H  19.99400 -7.98800 27.55900
H  21.54700 -7.10300 27.39000
H  20.84100 -8.08900 26.06900
H  16.43700 -3.14300 23.44600
H  16.21200 -0.28000 23.53800
H  19.18300 -2.22400 23.83400
H  18.33100 -0.85200 23.23700
H  18.12800 -2.42100 22.40500
H  14.61700 -1.96000 22.42300
H  14.01900 -0.40400 23.18300
H  12.62900 -1.52100 24.44400
H  13.72500 -2.64600 25.08300
H  12.76600 -2.92300 23.50500
H  13.15100 2.66400 26.14200
H  12.53800 3.22800 27.66700
H  11.80700 1.83900 26.94900
H  13.84800 1.09500 32.53100
H  15.71900 4.01800 35.21600
H  15.10200 4.99200 33.89000
H  16.58500 3.95700 33.75500
Mg -1.24000 34.28000 26.40400
C  -2.86600 32.54600 28.96800
C  0.35800 36.16200 28.77400
C  -0.08400 35.98900 23.88700
C  -3.17300 32.40000 24.16600
N  -1.41400 34.39400 28.70500
C  -2.06000 33.55400 29.57700
C  -1.77700 33.90000 31.03900
C  -0.92700 35.19200 30.90800
C  -0.62500 35.27900 29.33000
C  -1.58800 36.46100 31.51500
C  -0.97400 32.80100 31.82400
C  -1.47700 32.69900 33.33100
H  -0.40700 32.68200 34.43900
N  0.03400 35.74000 26.35500
C  0.62000 36.41100 27.39400
C  1.66100 37.27000 26.82400
C  1.61800 37.15200 25.40200
C  0.45400 36.27600 25.16500
C  2.53100 38.13100 27.71500
C  2.50800 37.73200 24.24400
O  2.37200 37.52500 23.08600
C  3.67200 38.53100 24.64300
N  -1.71700 34.26000 24.33700
C  -1.04200 35.05600 23.51000
C  -1.55000 34.90700 22.12900
C  -2.10100 33.42500 22.15900
C  -2.35100 33.36600 23.60000
C  -2.65300 36.01600 21.65700
C  -1.02000 32.33000 21.77700
C  -0.81600 32.22600 20.19300
N  -2.73000 32.82600 26.51700
C  -3.39200 32.12400 25.50600
C  -4.32800 31.22700 26.09600
C  -4.09500 31.21700 27.47000
C  -3.15600 32.34600 27.65300
C  -5.34200 30.37000 25.47600
C  -4.45800 30.73200 28.76500
O  -5.11100 29.78800 29.19100
C  -3.73200 31.62400 29.82500
C  -4.67800 32.27200 30.72500
O  -5.47000 33.18500 30.45100
O  -4.50400 31.71200 31.97000
C  -5.11700 32.50600 32.97500
H  0.91800 36.70900 29.53500
H  0.27400 36.52000 23.00200
H  -3.70200 31.81600 23.41000
H  -2.75400 34.04700 31.50100
H  0.09600 35.16100 31.28300
H  -2.55000 36.07700 31.85400
H  -1.85000 37.26500 30.82700
H  -1.01400 36.88500 32.33900
H  0.07100 33.08700 31.70600
H  -1.11200 31.79900 31.41700
H  -2.02900 31.78100 33.53100
H  -2.09800 33.57700 33.50800
H  2.38400 37.92500 28.77500
H  2.24800 39.16000 27.49600
H  3.54800 37.87800 27.41400
H  4.48900 37.87500 24.94400
H  3.43000 39.35800 25.31100
H  3.83300 39.02800 23.68600
H  -0.79200 34.80600 21.35200
H  -3.05600 33.55500 21.65100
H  -3.04100 36.44200 22.58200
H  -3.46100 35.54900 21.09400
H  -2.08900 36.76300 21.09800
H  -1.43000 31.36800 22.08400
H  -0.13800 32.67400 22.31600
H  -0.83100 31.22200 19.77000
H  0.11300 32.69800 19.87200
H  -1.55600 32.85600 19.69900
H  -5.21700 29.29000 25.55800
H  -5.55800 30.69300 24.45700
H  -6.31600 30.64000 25.88500
H  -3.14400 30.96400 30.46300
H  -4.75400 33.53400 32.97500
H  -5.07800 32.04100 33.96000
H  -6.19900 32.39200 32.90000

