158

Mg 2.58900 -1.10100 43.89000
C  6.01300 -0.59200 43.18400
C  1.78700 1.57900 41.83200
C  -0.54900 -2.23100 43.70900
C  3.57300 -4.29100 45.05900
N  3.79600 0.27700 42.58700
C  5.19100 0.33400 42.57800
C  5.62900 1.59000 41.75700
C  4.27300 2.36500 41.51000
C  3.18300 1.36600 42.00000
C  4.11900 3.85100 42.05900
C  6.40800 1.27100 40.46300
C  5.92700 0.29700 39.40900
H  5.91100 0.80200 38.02100
N  0.80000 -0.29000 43.01800
C  0.68500 0.77700 42.19300
C  -0.65300 0.93500 41.81300
C  -1.39600 -0.04300 42.52100
C  -0.39900 -0.96700 43.11500
C  -1.22000 2.13000 41.02900
C  -2.88200 -0.08800 42.64400
O  -3.61100 0.72700 42.02800
C  -3.57800 -1.04200 43.57700
N  1.69900 -2.95800 44.34500
C  0.42300 -3.09100 44.21300
C  -0.01900 -4.51200 44.66700
C  1.24700 -5.17600 45.12400
C  2.23700 -4.06900 44.85800
C  -1.25800 -4.65600 45.57900
C  1.57400 -6.57300 44.53600
C  0.43600 -7.53400 44.11500
N  4.42500 -2.12700 44.36600
C  4.63500 -3.36600 44.90200
C  6.04000 -3.54500 45.16700
C  6.68100 -2.49500 44.45600
C  5.63100 -1.68000 43.98100
C  6.62300 -4.70600 45.91800
C  7.95700 -1.91400 44.06800
O  9.14000 -2.20900 44.23600
C  7.52100 -0.58000 43.21000
C  8.15700 0.58900 43.97400
O  7.74600 1.08000 44.96800
O  9.24000 0.94900 43.28300
C  9.79000 2.25700 43.55800
H  1.60100 2.51900 41.30700
H  -1.59000 -2.53600 43.57600
H  3.82000 -5.32800 45.29400
H  6.39200 2.13800 42.30900
H  4.02900 2.34700 40.44700
H  4.35000 4.64100 41.34600
H  4.90500 3.86500 42.81500
H  3.17100 3.85600 42.59700
H  7.36200 0.84900 40.77700
H  6.74500 2.21500 40.03400
H  4.93300 0.03000 39.76800
H  6.58800 -0.56800 39.45500
H  -1.64100 2.85100 41.72900
H  -1.90200 1.82300 40.23600
H  -0.46000 2.71500 40.51000
H  -3.62900 -2.01100 43.08100
H  -4.53300 -0.61800 43.89000
H  -2.94500 -0.96200 44.46100
H  -0.22300 -4.90600 43.67200
H  1.30100 -5.36200 46.19700
H  -1.64500 -3.63800 45.53600
H  -1.01500 -4.93600 46.60400
H  -1.99400 -5.34500 45.16300
H  2.29600 -7.08100 45.17600
H  2.07000 -6.43600 43.57500
H  -0.55300 -7.09600 44.24800
H  0.59400 -8.41900 44.73100
H  0.50600 -7.92000 43.09800
H  6.99700 -5.38100 45.14700
H  5.89800 -5.26400 46.51000
H  7.54500 -4.56300 46.48100
H  7.98300 -0.74700 42.23600
H  9.04500 3.02300 43.34100
H  10.52100 2.41800 42.76600
H  10.13900 2.28300 44.59000
Mg 41.52400 7.35900 29.55300
C  43.32200 9.08400 32.04200
C  39.02200 6.64300 31.81000
C  39.79100 5.87100 27.07300
C  44.15700 7.98200 27.39700
N  41.20300 7.86100 31.68000
C  42.14500 8.47600 32.50900
C  41.58100 8.55400 33.94600
C  40.15700 7.90700 33.80100
C  40.12000 7.41500 32.38400
C  39.80400 6.79300 34.85100
C  41.63400 9.99800 34.50600
C  40.66000 10.34900 35.57500
H  41.01100 11.41200 36.63300
N  39.73800 6.30400 29.48800
C  38.84200 6.13800 30.54600
C  37.61600 5.53300 30.06100
C  37.89600 5.19500 28.73500
C  39.20000 5.84100 28.33700
C  36.42400 5.25100 30.89700
C  37.04100 4.43900 27.71000
O  37.39600 4.17000 26.54900
C  35.70000 3.93900 28.15500
N  41.96100 6.80000 27.52600
C  41.05000 6.30900 26.67700
C  41.63900 6.14800 25.29900
C  42.88500 6.97900 25.33300
C  43.05300 7.29600 26.83300
C  41.78400 4.64800 24.82600
C  42.82900 8.31700 24.46000
C  41.93300 9.36700 25.07500
N  43.40100 8.33400 29.65300
C  44.31300 8.58500 28.64700
C  45.34100 9.43900 29.09500
C  45.06100 9.58500 30.49600
C  43.78100 8.99100 30.71600
C  46.48000 9.90300 28.27900
C  45.53500 10.16800 31.74900
O  46.55600 10.83600 31.96200
C  44.41700 9.89600 32.78800
C  44.97000 9.09500 33.98600
O  45.05500 7.90300 34.00200
O  45.20900 9.92100 34.96900
C  45.39400 9.36400 36.29900
H  38.19300 6.65600 32.52000
H  39.21900 5.50800 26.21700
H  44.93700 8.15100 26.65200
H  42.26600 7.93800 34.52900
H  39.50700 8.77500 33.91200
H  38.86500 7.05800 35.33700
H  40.51500 6.55900 35.64400
H  39.72900 5.81600 34.37400
H  41.58400 10.68400 33.66100
H  42.58600 10.12100 35.02100
H  40.53400 9.44400 36.16900
H  39.78900 10.75400 35.06100
H  36.31500 4.16800 30.96200
H  35.53700 5.77300 30.53700
H  36.45800 5.58800 31.93300
H  35.65200 3.25700 29.00400
H  35.16800 3.50700 27.30900
H  35.13000 4.81000 28.48100
H  40.90700 6.57200 24.61100
H  43.68400 6.31000 25.01400
H  41.43600 3.91800 25.55600
H  42.82100 4.42000 24.57700
H  41.13800 4.44900 23.97100
H  42.40600 7.92300 23.53600
H  43.85300 8.68900 24.50000
H  42.51700 10.27500 25.21900
H  41.52200 9.06700 26.03900
H  41.10500 9.52500 24.38400
H  46.96600 10.70400 28.83600
H  46.15500 10.31300 27.32300
H  47.24800 9.13900 28.16300
H  43.89500 10.79500 33.11600
H  45.39700 8.27600 36.36200
H  44.62800 9.66500 37.01400
H  46.38000 9.64100 36.67400

