158

Mg 0.21400 7.97200 26.27800
C  0.98100 9.73300 29.22100
C  0.20500 5.05300 28.19300
C  -0.20000 6.31500 23.48300
C  0.58900 10.94000 24.49700
N  0.46800 7.49100 28.33800
C  0.69400 8.37900 29.41800
C  0.57800 7.73700 30.77700
C  0.51000 6.20700 30.40400
C  0.47500 6.24000 28.87400
C  1.65900 5.36000 31.01400
C  -0.69600 8.28500 31.53000
C  -0.51900 8.42700 33.06600
H  0.71000 7.87200 33.87100
N  0.05800 6.00800 25.86000
C  0.01800 4.94600 26.81500
C  -0.33000 3.69800 26.11300
C  -0.31300 4.03800 24.72100
C  -0.15700 5.53600 24.64000
C  -0.51500 2.34000 26.85800
C  -0.60500 3.13200 23.51500
O  -0.56500 3.50500 22.36200
C  -1.06400 1.83800 23.78900
N  0.38400 8.53100 24.29100
C  -0.01400 7.66500 23.30500
C  -0.20300 8.27900 21.92500
C  -0.03700 9.81000 22.28100
C  0.30500 9.78200 23.77000
C  0.86600 7.75100 20.83500
C  -1.22900 10.69700 21.85000
C  -2.52200 10.61600 22.64000
N  0.80000 9.91700 26.70700
C  0.94600 10.98300 25.83800
C  1.36300 12.13800 26.57900
C  1.36500 11.70900 27.93700
C  1.04500 10.33600 27.95900
C  1.68400 13.50400 25.99100
C  1.55000 12.14000 29.27500
O  1.94700 13.18900 29.70000
C  1.26000 10.92600 30.14000
C  2.32400 10.76300 31.07300
O  3.24200 9.93600 30.99700
O  2.21200 11.70100 32.05900
C  3.19100 11.59600 33.15000
H  0.09900 4.14800 28.79400
H  -0.51600 5.77200 22.59000
H  0.82800 11.84900 23.94100
H  1.42200 8.06200 31.38500
H  -0.44600 5.75400 30.66900
H  1.28700 4.55500 31.64700
H  2.20600 5.89400 31.79100
H  2.39900 4.95400 30.32300
H  -1.34900 7.42900 31.35900
H  -1.08500 9.19700 31.07900
H  -1.38800 7.95000 33.51800
H  -0.56000 9.49400 33.28800
H  -1.26700 1.69900 26.39800
H  -0.84600 2.51600 27.88100
H  0.43800 1.82100 26.74900
H  -1.44000 1.32700 22.90200
H  -1.95400 2.10200 24.35900
H  -0.40400 1.19400 24.37100
H  -1.17900 7.99100 21.53500
H  0.83500 10.23900 21.78800
H  1.58500 7.03000 21.22600
H  1.52300 8.48000 20.36100
H  0.27400 7.13600 20.15700
H  -1.36400 10.54800 20.77900
H  -0.92100 11.73400 21.98200
H  -2.44700 9.80200 23.36000
H  -3.38100 10.44600 21.99100
H  -2.76300 11.52800 23.18700
H  0.67000 13.81800 25.74200
H  2.31200 13.36200 25.11100
H  2.04200 14.20500 26.74500
H  0.36200 11.06800 30.74200
H  4.05000 12.26500 33.09500
H  3.50200 10.57500 33.37300
H  2.59500 11.91600 34.00400
Mg 25.69300 0.46600 29.44000
C  27.53300 0.44600 32.43800
C  22.79800 0.96000 31.33200
C  23.96700 0.44300 26.54200
C  28.65900 -0.17000 27.71100
N  25.18700 0.70200 31.68600
C  26.11900 0.64800 32.70100
C  25.47400 0.81600 34.02400
C  23.90700 0.83200 33.64700
C  23.93900 0.79700 32.13100
C  23.09800 -0.34500 34.31600
C  25.82100 2.20000 34.77000
C  26.09200 1.88600 36.23100
H  26.03500 2.99500 37.26400
N  23.63600 0.71100 29.04300
C  22.61400 0.98900 29.93900
C  21.50800 1.33600 29.17300
C  21.79200 1.04500 27.81900
C  23.16700 0.68700 27.72500
C  20.29900 1.91500 29.80000
C  20.87500 1.19900 26.66100
O  21.23200 0.98700 25.50300
C  19.41600 1.59500 26.92000
N  26.18600 0.02200 27.44600
C  25.31000 0.12800 26.44700
C  26.02600 -0.31700 25.11100
C  27.54300 -0.16400 25.44900
C  27.48400 -0.02700 26.91200
C  25.63100 -1.63300 24.47200
C  28.37000 0.97700 24.77900
C  29.79000 0.66000 24.39800
N  27.68100 0.02400 29.93600
C  28.83000 -0.10400 29.13900
C  29.99400 -0.34900 29.95900
C  29.50600 -0.08300 31.19700
C  28.09200 0.17200 31.14600
C  31.42100 -0.62800 29.44200
C  29.94500 0.05800 32.55700
O  31.07800 0.14500 33.03100
C  28.68100 0.37400 33.40300
C  28.50300 -0.61400 34.56200
O  27.84600 -1.62100 34.66400
O  29.25700 -0.16900 35.61200
C  29.07200 -0.80200 36.89100
H  21.90400 1.07300 31.95000
H  23.40600 0.50500 25.60700
H  29.55100 -0.49700 27.17200
H  25.62700 0.00100 34.73100
H  23.38300 1.75100 33.90800
H  22.49700 -0.90100 33.59700
H  22.44900 -0.00900 35.12400
H  23.78300 -1.05800 34.77600
H  25.13500 3.04700 34.74700
H  26.75800 2.59100 34.37300
H  27.12400 1.54100 36.28400
H  25.41500 1.12100 36.61200
H  20.38900 2.21200 30.84500
H  19.42800 1.26200 29.74000
H  20.00600 2.80000 29.23600
H  19.30700 2.63300 27.23400
H  19.23600 0.77900 27.62000
H  18.76100 1.35400 26.08200
H  25.74700 0.43200 24.37000
H  28.06300 -1.10500 25.26600
H  25.13300 -1.48700 23.51400
H  25.06600 -2.18100 25.22700
H  26.53700 -2.21000 24.28900
H  28.37100 1.73000 25.56600
H  27.90300 1.41000 23.89500
H  30.11100 -0.27900 24.84900
H  30.39400 1.41600 24.89900
H  29.91500 0.77600 23.32200
H  31.45200 -0.23500 28.42600
H  31.67300 -1.68100 29.57500
H  32.09600 -0.07900 30.09800
H  28.86100 1.36300 33.82400
H  29.80500 -0.35900 37.56600
H  29.09800 -1.89100 36.89100
H  28.08900 -0.53700 37.28000

