158

Mg 27.14000 50.30100 25.91300
C  24.94800 51.30300 28.53200
C  29.42900 49.55000 28.29100
C  29.28100 49.61200 23.40700
C  24.95200 51.73600 23.54100
N  27.12800 50.45000 28.17600
C  26.13200 50.78700 29.00200
C  26.52900 50.62700 30.50300
C  27.99400 50.13100 30.38800
C  28.19700 49.92800 28.87600
C  29.06600 51.09900 30.97400
C  25.49100 49.69600 31.27600
C  24.74600 50.23900 32.53400
H  24.42100 49.26200 33.71500
N  29.09900 49.58400 25.85400
C  29.87200 49.33400 26.94800
C  31.16200 48.90800 26.58100
C  31.15700 48.90800 25.12100
C  29.80900 49.31300 24.75400
C  32.17200 48.31000 27.50700
C  32.24900 48.75500 24.06000
O  32.07100 48.94900 22.86100
C  33.67800 48.54400 24.52200
N  27.16100 50.73800 23.74300
C  28.07800 50.18600 22.91900
C  27.70400 50.31300 21.46600
C  26.24500 50.88300 21.52300
C  26.06200 51.12800 23.01700
C  28.74700 51.09800 20.58300
C  25.03100 50.11000 20.93400
C  24.37300 50.68700 19.68300
N  25.31500 51.37700 25.95000
C  24.55900 51.86900 24.91800
C  23.34200 52.41100 25.44300
C  23.48700 52.16700 26.84300
C  24.63200 51.52800 27.12900
C  22.37200 53.16800 24.77100
C  22.80500 52.44600 28.18000
O  21.75400 53.00400 28.34600
C  23.79100 51.94200 29.31400
C  24.10900 53.05700 30.23200
O  24.96700 53.86600 30.07400
O  23.38600 53.13000 31.41900
C  23.90000 53.99700 32.52200
H  30.13400 49.27500 29.07800
H  29.81300 49.13600 22.58000
H  24.18100 51.99700 22.81300
H  26.57900 51.57400 31.04000
H  28.27500 49.18800 30.85700
H  29.69200 51.43000 30.14500
H  29.80000 50.51200 31.52600
H  28.66000 51.88600 31.61000
H  26.10100 48.83600 31.55100
H  24.79400 49.19100 30.60800
H  23.78600 50.64500 32.21300
H  25.34500 51.02000 33.00100
H  33.01800 47.85600 26.99200
H  31.77200 47.45600 28.05500
H  32.46700 49.07200 28.22800
H  33.93200 49.41000 25.13400
H  34.28200 48.53800 23.61500
H  33.79100 47.61800 25.08600
H  27.71300 49.32400 21.00700
H  26.38300 51.86100 21.06300
H  29.17200 51.84500 21.25300
H  28.37100 51.56700 19.67400
H  29.53700 50.40400 20.29500
H  24.28300 49.97900 21.71600
H  25.37000 49.10500 20.68400
H  24.46300 49.96500 18.87100
H  24.97000 51.49000 19.25000
H  23.34000 51.03100 19.72000
H  22.28200 52.92000 23.71300
H  22.68700 54.21100 24.73500
H  21.37700 53.22800 25.21200
H  23.33200 51.17500 29.93700
H  23.40200 54.96100 32.41500
H  24.97600 54.13700 32.61600
H  23.59500 53.55300 33.47000
Mg -1.52000 33.42900 27.20600
C  -3.63200 32.06300 29.79600
C  -0.15400 35.39600 29.68300
C  -0.21400 35.39400 24.88500
C  -3.34800 31.62600 24.94800
N  -1.83800 33.61100 29.54500
C  -2.67500 32.95600 30.33600
C  -2.41600 33.33000 31.78600
C  -1.49100 34.63600 31.71600
C  -1.14500 34.56300 30.23100
C  -2.12400 36.04000 32.05800
C  -1.73300 32.11200 32.54700
C  -2.54000 31.49200 33.67600
H  -1.81000 31.27900 34.99000
N  -0.13200 35.10900 27.30400
C  0.30300 35.72800 28.37200
C  1.26600 36.72600 27.91700
C  1.21100 36.85800 26.52100
C  0.23600 35.76500 26.17500
C  2.12400 37.46800 28.94100
C  1.83300 37.84300 25.52100
O  1.54300 37.78000 24.34400
C  2.67200 38.94000 26.04600
N  -1.72300 33.44600 25.19700
C  -1.01800 34.37200 24.42600
C  -1.33700 34.25100 22.93400
C  -2.10000 32.88400 22.93100
C  -2.37000 32.50300 24.42100
C  -2.13600 35.46000 22.34400
C  -1.31600 31.87300 22.08500
C  0.06200 31.50300 22.59900
N  -3.04300 32.07500 27.30900
C  -3.76700 31.48000 26.30700
C  -4.83200 30.63400 26.77000
C  -4.80000 30.81200 28.15400
C  -3.73800 31.74300 28.44500
C  -5.78300 29.83200 25.88100
C  -5.43400 30.38600 29.35900
O  -6.27700 29.47200 29.52500
C  -4.75600 31.16900 30.50300
C  -5.85900 31.90800 31.30700
O  -6.81300 32.43400 30.83500
O  -5.64100 31.68400 32.63300
C  -6.59800 32.14100 33.56300
H  0.33200 35.95300 30.48700
H  0.12200 36.03400 24.06700
H  -3.87400 31.16700 24.10800
H  -3.36000 33.61200 32.25200
H  -0.55700 34.69600 32.27500
H  -2.53100 36.66500 31.26300
H  -1.34100 36.64000 32.52300
H  -2.93800 35.88900 32.76800
H  -0.75000 32.39000 32.92700
H  -1.49900 31.38100 31.77300
H  -2.68500 30.46400 33.34300
H  -3.42800 32.07700 33.91400
H  3.11400 37.42200 28.48700
H  2.17400 36.91300 29.87800
H  1.92400 38.52500 29.11300
H  3.04500 39.49600 25.18600
H  3.49800 38.64700 26.69400
H  2.14100 39.67500 26.65200
H  -0.40500 34.09400 22.39100
H  -3.08000 32.94500 22.45900
H  -3.00600 35.16400 21.75800
H  -1.60400 36.11500 21.65500
H  -2.44300 35.99800 23.24100
H  -1.18400 32.14000 21.03700
H  -2.04700 31.06500 22.05900
H  0.46600 32.08200 23.43000
H  0.84300 31.51800 21.83900
H  0.07800 30.43200 22.80000
H  -6.79300 30.23900 25.83000
H  -5.77000 28.86200 26.37800
H  -5.41700 29.71800 24.86100
H  -4.23000 30.43700 31.11500
H  -6.11400 32.42200 34.49900
H  -7.35500 31.40900 33.84400
H  -7.11000 33.06600 33.29800

