158

Mg 35.67900 48.44200 24.75600
C  36.00800 46.76500 27.91400
C  34.40500 51.13400 26.47100
C  35.14300 49.87900 21.78100
C  36.67500 45.45400 23.14600
N  35.14100 48.81000 27.01700
C  35.38600 48.04400 28.05200
C  34.99600 48.76200 29.38700
C  34.24200 50.06400 28.85600
C  34.53400 50.00200 27.30900
C  32.64500 50.08300 29.06300
C  36.16500 49.06200 30.44300
C  35.90100 48.74200 31.87000
H  34.55500 49.04000 32.48200
N  35.07200 50.37000 24.16400
C  34.62900 51.34700 25.06000
C  34.55800 52.56800 24.25400
C  34.78600 52.20900 22.88600
C  34.89000 50.75600 22.89600
C  34.37600 53.85600 24.91600
C  34.84300 52.99800 21.68100
O  35.15900 52.56300 20.58500
C  34.33900 54.37200 21.67500
N  35.99900 47.76200 22.77700
C  35.65800 48.55900 21.70900
C  35.98200 47.81400 20.40300
C  36.59500 46.44100 20.86300
C  36.34400 46.53300 22.36800
C  34.84700 47.67800 19.47000
C  38.11800 46.30700 20.59700
C  39.01900 47.38200 21.23500
N  36.24400 46.49300 25.31000
C  36.64900 45.38500 24.57900
C  37.06800 44.30500 25.42300
C  36.81900 44.84100 26.74800
C  36.32800 46.16300 26.65500
C  37.60800 43.08300 24.89700
C  37.00100 44.51300 28.19500
O  37.40500 43.50800 28.79100
C  36.53500 45.86600 29.00400
C  35.43200 45.37200 29.89200
O  34.20700 45.43500 29.58900
O  35.88300 45.06000 31.12700
C  34.84600 44.58300 32.02200
H  34.05000 52.04500 26.95700
H  35.03700 50.35500 20.80400
H  36.98900 44.53700 22.64400
H  34.32800 48.07000 29.90000
H  34.66200 50.94800 29.33600
H  32.08500 50.12400 28.12800
H  32.58200 50.90800 29.77300
H  32.34400 49.17400 29.58300
H  36.32000 50.14000 30.48600
H  37.07200 48.69400 29.96400
H  36.60600 49.36800 32.41700
H  36.11900 47.67900 31.97200
H  35.02300 54.52900 24.35300
H  34.75900 53.73300 25.92900
H  33.36500 54.24500 24.79500
H  34.08500 54.67600 20.65900
H  35.17200 55.00100 21.99000
H  33.35300 54.55300 22.10200
H  36.72100 48.52400 20.03100
H  35.99800 45.64700 20.41400
H  33.85900 47.80000 19.91400
H  34.76700 46.69300 19.01100
H  34.90000 48.42600 18.67800
H  38.17900 46.51200 19.52800
H  38.41100 45.28800 20.85100
H  39.88900 46.88100 21.66000
H  38.67600 48.06000 22.01600
H  39.21600 48.09000 20.43000
H  36.87400 42.75000 24.16300
H  37.69700 42.38300 25.72800
H  38.60200 43.22600 24.47100
H  37.37100 46.29000 29.56100
H  35.14100 44.20800 33.00200
H  34.27200 43.76600 31.58500
H  34.15000 45.38100 32.28000
Mg 9.54500 47.93500 25.95200
C  7.79200 47.88000 29.00400
C  12.37500 48.62400 27.72800
C  11.02000 47.94100 23.03300
C  6.48400 47.01300 24.38700
N  9.90700 48.52000 28.09900
C  9.15500 48.36800 29.17700
C  9.88600 48.84600 30.47600
C  11.22800 49.33600 29.94000
C  11.23200 48.83500 28.50500
C  11.51600 50.95600 30.18100
C  9.94300 47.69000 31.45600
C  10.95700 47.92900 32.53100
H  10.56500 47.55300 33.99100
N  11.39700 48.36500 25.42100
C  12.49500 48.44500 26.27700
C  13.68700 48.57800 25.47800
C  13.34500 48.19900 24.18800
C  11.88100 48.08500 24.16700
C  15.06400 48.81800 26.11500
C  14.23600 47.87400 23.03200
O  13.84400 47.45500 21.95900
C  15.69600 47.99600 23.13900
N  8.83500 47.62200 23.91300
C  9.67700 47.58200 22.90900
C  8.94400 47.31400 21.59100
C  7.64300 46.78300 22.09400
C  7.60000 47.18300 23.58000
C  8.77800 48.72400 20.90800
C  7.41300 45.23800 21.93100
C  8.37400 44.28200 22.64600
N  7.47700 47.68600 26.50200
C  6.44100 47.22000 25.74300
C  5.21800 47.02700 26.60300
C  5.74200 47.24500 27.89500
C  7.10900 47.65800 27.76400
C  3.85700 46.72600 26.09200
C  5.38900 47.24100 29.35800
O  4.34800 46.97100 29.86700
C  6.69800 47.62100 30.18400
C  6.95400 46.34400 30.95500
O  7.71900 45.41600 30.65400
O  6.20100 46.30800 32.10100
C  6.57200 45.28700 33.11500
H  13.32200 48.56800 28.26900
H  11.50600 48.02200 22.05800
H  5.62400 46.65100 23.82100
H  9.25700 49.61400 30.92600
H  12.03500 48.75500 30.38600
H  11.76100 51.44000 29.23600
H  12.42200 51.05200 30.78000
H  10.72700 51.31300 30.84300
H  10.09800 46.68000 31.07600
H  8.99200 47.70700 31.98700
H  11.29600 48.96500 32.56600
H  11.82600 47.35200 32.21500
H  14.95900 49.13000 27.15400
H  15.57000 49.55700 25.49400
H  15.59200 47.86600 26.08000
H  16.19100 47.23500 23.74200
H  15.92900 49.01800 23.43800
H  16.08400 47.81800 22.13600
H  9.48700 46.63600 20.93300
H  6.77900 47.24200 21.61400
H  9.34400 48.85200 19.98600
H  9.07300 49.50900 21.60500
H  7.73700 48.94200 20.66800
H  7.39400 45.01600 20.86400
H  6.40200 44.98900 22.25300
H  8.98600 44.80400 23.38100
H  9.02000 43.79500 21.91500
H  7.78300 43.58800 23.24400
H  3.46200 47.70100 25.80700
H  3.26700 46.42900 26.96000
H  3.89000 45.97200 25.30600
H  6.48500 48.46400 30.84200
H  7.62700 45.35700 33.38200
H  6.41300 44.29600 32.69000
H  5.96400 45.37000 34.01500

