158

Mg -0.79200 7.83900 26.08500
C  0.40400 9.32700 29.13400
C  -1.07500 4.86700 27.81900
C  -1.17800 6.34800 23.15900
C  -0.19800 10.78200 24.52300
N  -0.31300 7.21700 28.27000
C  0.03100 8.05300 29.33000
C  -0.06900 7.28800 30.63500
C  -0.56300 5.88000 30.21900
C  -0.72600 5.94000 28.63200
C  0.30700 4.68500 30.61500
C  -1.05400 8.02400 31.60500
C  -0.53500 8.22000 33.08200
H  0.73400 7.33500 33.39900
N  -1.15100 5.85800 25.54500
C  -1.16800 4.81200 26.38300
C  -1.38000 3.61400 25.59900
C  -1.44700 4.03000 24.23600
C  -1.26900 5.49900 24.21500
C  -1.60900 2.26700 26.25500
C  -1.68300 3.23700 22.98400
O  -1.72100 3.70200 21.84700
C  -1.91800 1.72000 23.11800
N  -0.67200 8.43300 24.14600
C  -0.86000 7.69600 23.09300
C  -0.60900 8.50600 21.85500
C  -0.84000 9.91600 22.26600
C  -0.57800 9.73400 23.76700
C  0.78500 8.28800 21.20900
C  -2.25800 10.47000 21.88100
C  -2.32900 11.20800 20.54000
N  -0.16200 9.69600 26.64900
C  0.05000 10.81000 25.89900
C  0.43900 11.98700 26.70900
C  0.66800 11.38400 27.95500
C  0.27100 10.02400 27.91600
C  0.77800 13.33900 26.23000
C  1.26400 11.63800 29.23700
O  1.85800 12.64300 29.67000
C  1.07100 10.34900 30.08500
C  2.41700 9.93200 30.70500
O  3.29200 9.21500 30.25700
O  2.50500 10.58700 31.89800
C  3.87000 10.90700 32.30400
H  -1.13600 3.96000 28.42500
H  -0.97900 5.86400 22.20100
H  0.02100 11.66300 23.91700
H  1.00600 7.28100 30.81600
H  -1.54900 5.60500 30.59400
H  0.96000 4.40500 29.78800
H  -0.33900 3.89500 30.99900
H  0.92400 5.11700 31.40200
H  -1.97500 7.44000 31.61200
H  -1.37600 9.02800 31.32700
H  -1.31200 7.98200 33.80900
H  -0.50300 9.29900 33.23300
H  -0.70800 1.70000 26.02600
H  -2.50100 1.76800 25.87400
H  -1.75200 2.19100 27.33300
H  -2.92400 1.50100 23.47800
H  -1.07400 1.23800 23.61200
H  -1.74300 1.34100 22.11100
H  -1.40600 8.20800 21.17400
H  -0.10900 10.60900 21.85000
H  0.56700 8.19500 20.14500
H  1.17300 7.33200 21.56000
H  1.51500 9.06300 21.44200
H  -2.49700 11.25600 22.59700
H  -2.99000 9.66400 21.83500
H  -1.52400 10.82900 19.91000
H  -2.01900 12.24600 20.66200
H  -3.26100 11.04900 19.99800
H  1.41500 13.19600 25.35700
H  1.07800 13.77600 27.18200
H  -0.12100 13.85200 25.88700
H  0.37700 10.53500 30.90500
H  3.92600 11.89200 32.76800
H  4.71900 10.84800 31.62300
H  4.16800 10.17000 33.04900
Mg 49.19000 36.06300 27.59500
C  47.17500 34.59000 30.02400
C  49.63700 38.68800 29.61200
C  50.38000 37.81300 24.99200
C  48.52600 33.37100 25.52000
N  48.56700 36.55200 29.62800
C  47.84500 35.77600 30.45600
C  48.00200 36.26900 31.95200
C  48.48800 37.71500 31.74200
C  48.95500 37.66900 30.28800
C  47.39600 38.80200 31.82900
C  49.08800 35.42900 32.65800
C  49.03800 35.40100 34.21300
H  48.11700 36.42000 34.91800
N  49.93900 38.02700 27.34200
C  50.05400 38.93600 28.27500
C  50.63200 40.17900 27.70700
C  50.87700 39.92700 26.34600
C  50.33800 38.55100 26.18500
C  50.88800 41.34300 28.48100
C  51.47400 40.82300 25.25500
O  51.54400 40.49700 24.09400
C  52.18600 42.10400 25.63800
N  49.16100 35.68800 25.45800
C  49.94900 36.51200 24.74200
C  50.35100 35.87600 23.40100
C  49.72300 34.41100 23.54200
C  49.12900 34.45800 24.95700
C  50.14000 36.54400 21.97900
C  50.75900 33.24600 23.22400
C  50.53400 32.42300 21.91900
N  48.10400 34.30700 27.68600
C  48.05500 33.27200 26.84600
C  47.19900 32.21500 27.38600
C  46.72700 32.72800 28.58400
C  47.42200 33.94000 28.76500
C  46.86800 30.94500 26.87800
C  45.81700 32.59100 29.66800
O  45.09900 31.63600 29.88600
C  46.02900 33.80000 30.69900
C  46.23900 33.12700 32.04700
O  47.33400 32.59900 32.35600
O  45.15600 33.45200 32.91100
C  45.20300 33.01900 34.29200
H  49.98900 39.44800 30.31300
H  50.91200 38.26600 24.15300
H  48.51900 32.52200 24.83400
H  47.03800 36.07200 32.42100
H  49.30100 38.02900 32.39700
H  47.16300 38.60400 32.87500
H  46.59400 38.61900 31.11300
H  47.83000 39.80200 31.81600
H  50.05600 35.87500 32.42800
H  49.08000 34.40500 32.28500
H  50.04200 35.59900 34.58900
H  48.66400 34.39700 34.40800
H  50.80900 42.20900 27.82400
H  51.91000 41.24600 28.84900
H  50.15700 41.50200 29.27400
H  52.91100 41.96300 26.44000
H  51.56600 42.96700 25.88100
H  52.75400 42.35500 24.74200
H  51.43700 35.86400 23.49000
H  48.85900 34.34800 22.88100
H  49.48300 37.40000 22.13200
H  49.57900 35.87200 21.32900
H  51.06600 36.81800 21.47400
H  50.94700 32.69700 24.14600
H  51.66000 33.81500 22.99300
H  50.85000 33.01600 21.06000
H  49.44900 32.33100 21.87600
H  51.00100 31.43900 21.96000
H  47.81700 30.57000 26.49700
H  46.11100 30.97500 26.09400
H  46.57100 30.40400 27.77700
H  45.05700 34.28800 30.63000
H  44.17300 32.82500 34.58900
H  45.52200 33.83500 34.94000
H  45.79400 32.11300 34.42600

