158

Mg 1.50300 -1.70000 43.47600
C  4.99000 -0.92600 43.30000
C  0.92000 1.39000 41.97800
C  -1.56800 -2.76000 42.80400
C  2.31900 -4.80800 44.74800
N  2.87300 0.11900 42.69200
C  4.26000 0.14400 42.69000
C  4.80400 1.31000 41.89300
C  3.44500 2.15000 41.63800
C  2.32200 1.24200 42.20000
C  3.41500 3.57500 42.23700
C  5.58400 0.87900 40.63100
C  6.72000 1.88200 40.30300
H  6.42100 2.74500 39.01800
N  -0.09400 -0.77400 42.52000
C  -0.19500 0.48900 42.08800
C  -1.53000 0.65100 41.61600
C  -2.23900 -0.54700 41.84100
C  -1.27600 -1.46200 42.40700
C  -2.10800 2.03700 41.20100
C  -3.68900 -0.75400 41.53300
O  -4.31900 0.24800 41.17700
C  -4.42500 -2.13800 41.67300
N  0.51000 -3.56800 43.80700
C  -0.80800 -3.72000 43.47600
C  -1.42100 -5.01300 44.03500
C  -0.12400 -5.69100 44.58700
C  0.95700 -4.66900 44.39100
C  -2.47300 -4.79400 45.15000
C  0.22800 -7.09600 44.03500
C  0.27100 -8.29400 45.07300
N  3.26300 -2.70200 43.91300
C  3.43300 -3.97200 44.43500
C  4.84600 -4.26600 44.60600
C  5.39700 -3.08200 44.21400
C  4.47900 -2.16500 43.73000
C  5.35700 -5.50100 45.29700
C  6.71900 -2.39600 44.23900
O  7.73400 -2.73700 44.78800
C  6.48000 -1.01400 43.50800
C  6.98900 0.18100 44.18400
O  6.84900 0.49400 45.35900
O  7.78900 0.97500 43.35200
C  8.33200 2.20200 43.95300
H  0.59800 2.27100 41.41900
H  -2.61700 -3.04200 42.91200
H  2.55600 -5.82700 45.06100
H  5.37800 1.95000 42.56300
H  3.29200 2.20100 40.56000
H  4.42400 3.96700 42.36400
H  2.83900 3.45300 43.15400
H  2.85200 4.27100 41.61600
H  4.87800 0.80100 39.80300
H  5.89200 -0.15300 40.79600
H  7.59400 1.23900 40.20000
H  6.87600 2.50600 41.18200
H  -2.87300 1.93900 40.43100
H  -1.42600 2.85400 40.96700
H  -2.56000 2.37500 42.13300
H  -3.81800 -2.92100 41.21900
H  -5.38000 -2.08300 41.15200
H  -4.55900 -2.30400 42.74200
H  -1.91300 -5.51300 43.20100
H  -0.25000 -5.86800 45.65500
H  -3.49700 -4.79600 44.77500
H  -2.27800 -3.79900 45.54900
H  -2.33400 -5.46800 45.99500
H  1.18100 -7.03600 43.51100
H  -0.53200 -7.43200 43.33000
H  0.69500 -7.90200 45.99800
H  1.03300 -8.91100 44.59700
H  -0.72700 -8.73100 45.11600
H  6.38400 -5.25700 45.56800
H  5.29200 -6.32200 44.58400
H  4.78700 -5.76800 46.18700
H  7.00600 -1.15200 42.56400
H  8.85100 1.94400 44.87600
H  7.51400 2.86200 44.24100
H  9.07900 2.66200 43.30800
Mg 48.90700 34.49200 27.15200
C  46.90400 33.42000 29.87500
C  49.69800 37.22700 29.12000
C  50.79000 35.73400 24.66800
C  47.70700 31.89700 25.27000
N  48.44200 35.14100 29.35700
C  47.74700 34.46100 30.25600
C  47.84000 35.14400 31.60500
C  48.39900 36.58000 31.25100
C  48.84600 36.39000 29.79200
C  47.42400 37.78400 31.24300
C  48.86300 34.41500 32.56300
C  48.50600 34.27300 34.05300
H  48.99700 35.48000 34.95800
N  50.10900 36.29100 26.86200
C  50.37100 37.21500 27.84400
C  51.22400 38.19900 27.22000
C  51.53800 37.84200 25.91000
C  50.83600 36.58600 25.74800
C  51.71500 39.41100 27.88500
C  52.40400 38.57900 24.83100
O  52.63600 38.07900 23.75600
C  53.06000 39.87400 25.12200
N  49.06900 33.97200 25.14100
C  49.97500 34.59000 24.33600
C  50.14900 33.79200 22.99200
C  49.27800 32.48600 23.24200
C  48.58400 32.77900 24.60900
C  49.77500 34.66200 21.77700
C  50.14200 31.17400 23.18800
C  50.46100 30.65200 21.71000
N  47.52800 33.01300 27.40800
C  47.12200 31.99700 26.55800
C  46.15700 31.12600 27.26000
C  45.93500 31.73300 28.48600
C  46.87100 32.80700 28.59600
C  45.58400 29.82500 26.58500
C  45.21000 31.62300 29.79600
O  44.43800 30.82300 30.29900
C  45.76000 32.75700 30.70600
C  46.33300 32.04600 31.86800
O  47.22600 31.23100 31.79300
O  45.76600 32.40500 33.02500
C  46.25200 31.60400 34.14400
H  50.02800 38.06800 29.73400
H  51.53500 35.96100 23.90300
H  47.48300 31.04400 24.62600
H  46.91800 35.25300 32.17500
H  49.32000 36.81700 31.78500
H  46.98800 37.95700 30.26000
H  47.97300 38.69300 31.49000
H  46.68900 37.58700 32.02300
H  49.90200 34.72200 32.44600
H  48.82600 33.37100 32.25000
H  49.00200 33.37900 34.43200
H  47.42600 34.14800 33.98000
H  51.39000 40.29900 27.34200
H  52.80400 39.37300 27.91100
H  51.36600 39.53600 28.91000
H  53.78900 39.74100 25.92300
H  52.36000 40.68400 25.32300
H  53.52600 40.27500 24.22300
H  51.19400 33.50800 22.87300
H  48.50200 32.25000 22.51400
H  48.78500 34.36900 21.42800
H  50.47800 34.39800 20.98700
H  49.92700 35.74000 21.83700
H  49.83500 30.40600 23.89800
H  51.13600 31.54700 23.43600
H  49.74900 31.10500 21.02200
H  50.42700 29.56400 21.77100
H  51.49500 30.88500 21.45500
H  46.39000 29.15400 26.29100
H  44.98400 30.10900 25.72100
H  44.99600 29.26100 27.30900
H  44.89500 33.36000 30.98100
H  47.30000 31.78900 34.37700
H  46.02900 30.54300 34.02800
H  45.69100 31.96700 35.00500

