158

Mg -2.17500 17.40500 26.33500
C  -2.14100 15.04900 28.83500
C  -3.40900 19.73300 28.64700
C  -2.19000 19.59700 23.85500
C  -1.55300 14.76300 24.00900
N  -2.67900 17.45600 28.47100
C  -2.36500 16.39200 29.29900
C  -2.52300 16.77000 30.79300
C  -3.18900 18.18900 30.70000
C  -3.07800 18.50100 29.20700
C  -4.66800 18.14000 31.08800
C  -1.13800 16.73600 31.43200
C  -0.77800 17.44400 32.70800
H  -0.89700 16.61400 34.05700
N  -2.74500 19.38000 26.26200
C  -3.26500 20.18500 27.26200
C  -3.59900 21.42700 26.75600
C  -3.27200 21.44300 25.35800
C  -2.69300 20.07700 25.11600
C  -4.35300 22.49000 27.49600
C  -3.40700 22.55300 24.29700
O  -3.00200 22.50200 23.11300
C  -3.81700 23.89900 24.82400
N  -1.87700 17.14300 24.19000
C  -1.78400 18.30200 23.43500
C  -1.31700 18.01000 21.97900
C  -0.87500 16.50000 22.14800
C  -1.49700 16.09800 23.48100
C  -2.38700 18.23800 20.77800
C  0.67700 16.20100 22.01100
C  0.89200 14.92100 21.09800
N  -1.90800 15.34600 26.38500
C  -1.75300 14.43100 25.37200
C  -1.79300 13.07400 25.89500
C  -1.93600 13.26500 27.26100
C  -2.01400 14.64400 27.52700
C  -1.84900 11.84700 25.05100
C  -2.26100 12.60700 28.48600
O  -2.51000 11.43200 28.65400
C  -2.43800 13.72200 29.56000
C  -1.56700 13.45100 30.67300
O  -0.32200 13.51000 30.67200
O  -2.32000 13.14800 31.76900
C  -1.59500 12.64800 32.90800
H  -3.85000 20.44200 29.35100
H  -2.23800 20.27400 23.00000
H  -1.34600 13.92400 23.34200
H  -3.02400 15.89600 31.21100
H  -2.66700 18.93400 31.30200
H  -5.21300 17.86300 30.18500
H  -4.94900 19.12700 31.45500
H  -4.86800 17.41100 31.87200
H  -0.28100 16.78700 30.76000
H  -1.21200 15.77200 31.93500
H  -1.43500 18.29000 32.90800
H  0.19700 17.93000 32.67200
H  -4.46900 22.21300 28.54400
H  -5.36100 22.64200 27.11100
H  -3.77700 23.41500 27.51700
H  -4.85800 23.96100 25.14200
H  -3.58000 24.60200 24.02500
H  -3.21400 24.11900 25.70500
H  -0.41900 18.59500 21.78300
H  -1.41500 15.88400 21.42800
H  -3.22500 18.63400 21.35300
H  -2.65600 17.37600 20.16800
H  -1.84100 18.94700 20.15700
H  1.18800 16.00000 22.95300
H  1.21900 16.95200 21.43700
H  1.62100 14.23200 21.52400
H  1.18100 14.99300 20.05000
H  -0.03500 14.35000 21.16200
H  -1.94100 10.97500 25.69900
H  -0.84200 11.82700 24.63300
H  -2.58100 11.94100 24.24900
H  -3.48100 13.65400 29.87000
H  -1.61800 13.42500 33.67200
H  -0.57000 12.34700 32.69400
H  -2.04200 11.75100 33.33700
Mg 25.90400 50.23400 27.10600
C  24.00400 51.78200 29.45100
C  28.34000 49.41300 29.48900
C  27.91200 49.27700 24.59300
C  23.65400 51.32700 24.60400
N  26.09000 50.45500 29.21600
C  25.09600 51.01800 30.03100
C  25.43800 50.83700 31.51100
C  26.93500 50.26000 31.51600
C  27.14000 49.98700 30.00200
C  27.95600 51.24300 32.06900
C  24.42600 50.00300 32.33500
C  24.05100 50.64100 33.69100
H  24.00700 49.62000 34.82900
N  27.86500 49.46700 27.04000
C  28.69000 49.15500 28.12700
C  29.86800 48.46500 27.61600
C  29.80000 48.55500 26.19300
C  28.49300 49.07500 25.87300
C  30.84800 47.86000 28.52400
C  30.81100 48.05700 25.19300
O  30.62400 48.10300 23.95000
C  32.13600 47.32100 25.66900
N  25.86000 50.42200 24.89600
C  26.67400 49.78100 24.14100
C  26.32000 49.82200 22.67100
C  24.89700 50.48200 22.70000
C  24.79100 50.76200 24.11900
C  27.24700 50.57300 21.66000
C  23.81900 49.54700 22.14000
C  23.29500 48.38600 23.02600
N  24.16500 51.38600 27.03000
C  23.31000 51.60100 25.91000
C  22.11900 52.25300 26.45800
C  22.37100 52.40600 27.86600
C  23.59500 51.85700 28.10800
C  21.05400 52.81900 25.62100
C  21.88300 52.95700 29.06300
O  20.88100 53.60600 29.28400
C  22.85200 52.40100 30.23400
C  23.16600 53.34800 31.33500
O  23.96100 54.24100 31.27100
O  22.26700 53.08900 32.29500
C  22.44600 53.85400 33.53400
H  29.02200 49.14900 30.30000
H  28.60000 48.97200 23.80200
H  22.90900 51.51700 23.82800
H  25.55000 51.80200 32.00600
H  26.99100 49.37900 32.15500
H  28.50100 51.71500 31.25200
H  28.71300 50.63600 32.56600
H  27.53300 51.95900 32.77400
H  24.81500 49.01400 32.57800
H  23.50900 49.96700 31.74700
H  23.07200 51.11000 33.58900
H  24.67700 51.51900 33.85100
H  30.95300 46.79700 28.30700
H  30.43000 47.83700 29.53000
H  31.86000 48.25800 28.59000
H  32.80800 48.01900 26.16800
H  32.53400 46.85300 24.76800
H  31.87800 46.60100 26.44600
H  26.26000 48.77800 22.36600
H  24.96100 51.41000 22.13200
H  26.63600 51.09000 20.92000
H  27.78900 49.79400 21.12400
H  27.93200 51.26500 22.15000
H  24.16600 49.06700 21.22500
H  23.01500 50.21400 21.83100
H  22.21200 48.37200 22.90200
H  23.57700 48.54100 24.06700
H  23.68000 47.48800 22.54100
H  21.44300 53.62600 25.00000
H  20.19500 53.16400 26.19600
H  20.82300 52.02000 24.91700
H  22.37000 51.47400 30.54600
H  23.48300 53.87600 33.87000
H  21.87000 53.22100 34.20900
H  22.06100 54.87200 33.47600

