158

Mg 16.35100 -2.08000 27.55100
C  15.38800 -0.00700 30.31900
C  18.60100 -3.52600 29.62900
C  17.53800 -3.60700 24.85300
C  14.24600 -0.32200 25.55100
N  16.78400 -1.87700 29.70700
C  16.28900 -1.00700 30.68700
C  16.78000 -1.32900 32.08200
C  17.88300 -2.39800 31.79300
C  17.74400 -2.61100 30.25900
C  19.27300 -1.99900 32.27200
C  15.68100 -1.87900 32.98700
C  15.57300 -1.30000 34.51200
H  16.82300 -0.90700 35.26300
N  17.78100 -3.47200 27.32100
C  18.62300 -3.93100 28.28900
C  19.46800 -4.95500 27.73600
C  19.10300 -5.08900 26.35800
C  18.10500 -3.98800 26.07300
C  20.35900 -5.82700 28.44900
C  19.64800 -6.12900 25.31900
O  19.19800 -6.13800 24.21000
C  20.83000 -7.05700 25.63300
N  16.03800 -1.93000 25.45700
C  16.62100 -2.62300 24.51900
C  16.29700 -2.11700 23.10000
C  14.89300 -1.44200 23.37000
C  15.09400 -1.18000 24.87200
C  17.42000 -1.29100 22.38100
C  13.60900 -2.26600 22.98700
C  12.61400 -2.84700 24.04600
N  15.06800 -0.54300 27.82900
C  14.16300 0.01100 26.92000
C  13.46800 1.12400 27.55600
C  13.88600 1.06700 28.91300
C  14.89100 0.08800 29.01100
C  12.71300 2.19100 26.76100
C  13.74100 1.79900 30.15200
O  13.06600 2.80900 30.39900
C  14.61800 1.03000 31.18100
C  15.55000 1.97100 31.91100
O  16.49300 2.55400 31.45200
O  15.11100 2.04100 33.22400
C  15.65100 3.12500 34.09300
H  19.32400 -4.09100 30.22200
H  18.00400 -4.04200 23.96600
H  13.37800 0.03000 24.99000
H  17.23600 -0.37600 32.34900
H  17.64500 -3.31200 32.33800
H  19.33100 -1.19900 33.00900
H  20.03500 -1.79000 31.52100
H  19.72600 -2.84800 32.78400
H  15.63900 -2.96700 32.93600
H  14.76100 -1.81500 32.40600
H  15.09600 -2.08800 35.09500
H  15.02700 -0.35700 34.51600
H  21.32200 -5.90000 27.94300
H  19.92800 -6.82700 28.41200
H  20.44200 -5.67200 29.52500
H  21.76800 -6.64400 25.26300
H  20.68800 -7.90100 24.95800
H  20.93100 -7.60200 26.57100
H  16.25700 -3.04400 22.52700
H  14.77700 -0.42800 22.98800
H  17.15400 -0.27500 22.08800
H  17.71200 -1.88100 21.51200
H  18.27000 -1.35800 23.06000
H  14.06400 -3.15700 22.55500
H  13.10800 -1.77300 22.15400
H  12.90900 -2.58800 25.06300
H  12.43000 -3.92100 24.01100
H  11.62900 -2.39500 23.93900
H  12.88300 3.14700 27.25500
H  11.70800 1.77800 26.84900
H  13.06400 2.19300 25.72900
H  13.88300 0.56700 31.84000
H  14.82900 3.81300 34.28900
H  16.52300 3.62500 33.67000
H  15.97600 2.59400 34.98700
Mg 17.27900 51.95000 27.01400
C  19.42600 50.75800 29.59200
C  15.10800 52.58200 29.44800
C  15.18900 52.84100 24.51700
C  19.62900 50.81600 24.62700
N  17.33400 51.79000 29.28700
C  18.32100 51.33700 30.08400
C  17.93600 51.37400 31.52800
C  16.38700 51.63900 31.42700
C  16.23400 52.01300 29.96500
C  15.40700 50.45900 31.71100
C  18.75700 52.48900 32.27400
C  18.40800 52.92400 33.73200
H  17.59400 52.02300 34.66300
N  15.37500 52.80500 26.94300
C  14.64800 53.00500 28.11500
C  13.31900 53.48300 27.71400
C  13.35100 53.61900 26.26100
C  14.66600 53.05100 25.80500
C  12.27200 53.92100 28.68800
C  12.36200 54.25500 25.32400
O  12.47600 54.41800 24.13500
C  11.14500 54.89000 25.96700
N  17.44000 51.84800 24.83600
C  16.38900 52.31100 24.04400
C  16.61700 52.07400 22.54500
C  18.21400 51.77100 22.59500
C  18.46800 51.42900 24.08900
C  15.70600 50.94200 22.00500
C  19.08000 52.92600 21.93800
C  20.42100 52.51500 21.46800
N  19.08200 50.87300 27.06200
C  19.95400 50.58100 26.02500
C  21.11200 49.87700 26.60100
C  20.96700 49.88900 28.00400
C  19.72300 50.57800 28.25300
C  22.28600 49.38300 25.87500
C  21.60900 49.59400 29.25600
O  22.65100 49.01600 29.46300
C  20.59600 49.91600 30.30400
C  20.14900 48.61300 30.85400
O  19.70000 47.65500 30.20100
O  20.20900 48.61700 32.22900
C  19.83300 47.42800 33.00900
H  14.41500 52.80700 30.26100
H  14.41500 53.10000 23.79100
H  20.43100 50.39100 24.01900
H  18.16900 50.38900 31.93300
H  16.07900 52.39400 32.15100
H  14.74500 50.81300 32.50200
H  15.89800 49.53600 32.01900
H  14.83900 50.25600 30.80300
H  18.57600 53.35000 31.63000
H  19.81100 52.21300 32.28700
H  17.86600 53.86900 33.70300
H  19.42300 53.03400 34.11500
H  11.30500 53.46400 28.47500
H  12.17900 54.98600 28.47700
H  12.58100 53.76600 29.72200
H  11.40600 55.71800 26.62600
H  10.60100 54.13100 26.53000
H  10.56800 55.32300 25.15000
H  16.49800 53.06200 22.10000
H  18.47600 50.86100 22.05400
H  14.95300 51.35700 21.33500
H  15.08400 50.39800 22.71500
H  16.34100 50.20300 21.51500
H  19.25400 53.68300 22.70300
H  18.64000 53.52100 21.13800
H  20.56600 51.44200 21.59600
H  21.20900 53.08700 21.95900
H  20.51300 52.81300 20.42400
H  22.64500 48.44300 26.29500
H  23.14300 50.03600 26.04300
H  22.07700 49.24800 24.81400
H  21.06700 50.52400 31.07800
H  20.48900 46.56400 32.90200
H  18.93900 46.97700 32.57800
H  19.69200 47.55400 34.08300

