158

Mg -1.52100 18.14500 27.44000
C  -2.07700 16.07900 30.17000
C  -2.11600 20.84000 29.46000
C  -0.86400 20.02900 24.80200
C  -1.58400 15.31400 25.33400
N  -2.03000 18.38000 29.70300
C  -2.13000 17.41200 30.64000
C  -2.43400 18.07200 31.99200
C  -2.56100 19.56600 31.56200
C  -2.31200 19.62200 30.10700
C  -3.91800 20.30600 31.98800
C  -1.28400 17.88600 33.05600
C  -1.88300 17.43800 34.39500
H  -0.92700 17.37800 35.54300
N  -1.37000 20.14100 27.23400
C  -1.69500 21.04600 28.11900
C  -1.61700 22.33900 27.48000
C  -1.07500 22.18600 26.19200
C  -1.03000 20.69200 26.05900
C  -2.20300 23.56200 28.17100
C  -0.68400 23.23200 25.21700
O  -0.20700 23.02500 24.09900
C  -0.88400 24.64100 25.68400
N  -1.42000 17.73500 25.34700
C  -1.03200 18.70000 24.49100
C  -1.02900 18.15100 23.09900
C  -0.81600 16.65200 23.31500
C  -1.28400 16.55200 24.70400
C  -2.28700 18.42300 22.18400
C  0.67300 16.09300 23.14500
C  1.81700 16.89400 23.64900
N  -1.79700 16.12000 27.64000
C  -1.80300 15.08600 26.72100
C  -1.75800 13.83000 27.41200
C  -1.93100 14.15700 28.73500
C  -1.95700 15.54500 28.88100
C  -1.61600 12.49900 26.86900
C  -1.88500 13.56400 30.03500
O  -1.64400 12.41600 30.45500
C  -2.14700 14.79600 31.01200
C  -1.02100 14.67200 31.95700
O  0.18800 14.81800 31.71000
O  -1.42200 14.08000 33.18700
C  -0.36700 13.76000 34.18300
H  -2.16400 21.66200 30.17800
H  -0.57100 20.64200 23.94700
H  -1.53200 14.41300 24.71900
H  -3.38400 17.76400 32.42800
H  -1.79600 20.14100 32.08300
H  -4.76800 19.63000 31.90700
H  -4.06800 21.17100 31.34100
H  -3.94000 20.63200 33.02800
H  -0.73900 18.82700 33.13900
H  -0.59800 17.10300 32.73100
H  -2.24600 16.41800 34.27000
H  -2.68700 18.12100 34.66800
H  -1.41200 24.22700 28.51700
H  -2.78800 23.31600 29.05700
H  -2.83700 23.97000 27.38300
H  -1.90800 24.98900 25.54900
H  -0.19000 25.12600 24.99800
H  -0.50100 24.59900 26.70300
H  -0.11500 18.42300 22.57100
H  -1.47300 16.10800 22.63700
H  -1.97900 18.89500 21.25100
H  -2.82800 19.18300 22.74800
H  -3.01500 17.65400 21.92500
H  0.79200 15.86600 22.08600
H  0.80700 15.14300 23.66200
H  2.44200 17.21800 22.81700
H  2.34000 16.35000 24.43500
H  1.46000 17.73000 24.25100
H  -1.34100 12.57500 25.81700
H  -2.54300 11.93300 26.77000
H  -0.80700 11.98800 27.39000
H  -3.06800 14.67800 31.58400
H  -0.75900 13.71400 35.19900
H  0.41000 14.50900 34.33500
H  0.13900 12.87600 33.79400
Mg 9.48800 48.62600 25.47600
C  7.37100 49.29700 28.16000
C  12.12300 49.98000 27.26200
C  11.63100 48.14400 22.77200
C  6.81100 48.03100 23.45500
N  9.73400 49.52200 27.45200
C  8.73400 49.57700 28.42000
C  9.38700 49.94900 29.73400
C  10.66600 50.72500 29.24500
C  10.88200 50.01700 27.90100
C  10.56600 52.30900 29.28800
C  9.61800 48.61600 30.56000
C  9.18700 48.77900 32.02100
H  8.97200 47.44000 32.88300
N  11.57900 48.86900 25.22000
C  12.48900 49.49300 26.01500
C  13.80600 49.35800 25.38900
C  13.65700 48.66500 24.16900
C  12.25600 48.52700 24.03100
C  15.07500 49.77900 26.15400
C  14.74400 48.06000 23.19700
O  14.46300 47.36600 22.24900
C  16.12000 48.32700 23.41100
N  9.20400 48.19500 23.37700
C  10.22800 47.91900 22.48300
C  9.69300 47.41500 21.15300
C  8.15400 47.38200 21.46900
C  8.01900 47.83700 22.83400
C  10.10300 48.25100 19.89500
C  7.48700 45.94300 21.22200
C  6.02300 45.90300 20.65700
N  7.45600 48.76100 25.68600
C  6.45700 48.46100 24.76800
C  5.20100 48.56800 25.37000
C  5.53000 48.80300 26.78200
C  6.92000 48.97800 26.87100
C  3.86800 48.22400 24.72200
C  4.97100 48.90000 28.09900
O  3.91100 48.65300 28.42000
C  6.09200 49.35100 29.06500
C  5.97500 48.23000 30.16100
O  6.46800 47.12300 30.04300
O  5.14400 48.64500 31.12800
C  4.76300 47.70200 32.20500
H  12.87300 50.33500 27.97100
H  12.24000 47.91000 21.89600
H  5.90900 47.90400 22.85300
H  8.76400 50.70400 30.21400
H  11.49000 50.45200 29.90500
H  10.70100 52.69600 30.29700
H  9.58400 52.67700 28.99300
H  11.31900 52.75600 28.63800
H  10.63400 48.22200 30.54800
H  9.03800 47.81900 30.09400
H  8.30400 49.41400 32.10500
H  9.86900 49.47700 32.50600
H  15.49000 48.81600 26.45300
H  14.80400 50.38500 27.01900
H  15.74300 50.36700 25.52600
H  16.27600 49.38200 23.18200
H  16.69800 47.67100 22.76000
H  16.14100 48.16100 24.48800
H  10.18100 46.44100 21.20400
H  7.60400 48.14500 20.91900
H  10.77400 49.09700 20.04700
H  9.20100 48.66300 19.44300
H  10.49900 47.66600 19.06500
H  7.35700 45.43400 22.17800
H  8.12200 45.31700 20.59600
H  5.75900 46.94400 20.47300
H  5.42500 45.50700 21.47800
H  5.88500 45.28800 19.76700
H  3.26500 47.46700 25.22400
H  3.94800 47.95900 23.66700
H  3.22100 49.10100 24.71900
H  5.85200 50.32100 29.50100
H  4.98600 46.65400 32.00700
H  3.68500 47.84800 32.27400
H  5.01000 47.94000 33.24000

