158

Mg 26.06900 0.58300 30.10700
C  28.12000 0.73200 33.02000
C  23.29600 1.08700 32.22200
C  24.02800 0.05900 27.59900
C  28.85000 -0.19600 28.16800
N  25.74300 0.72900 32.42500
C  26.69900 0.85700 33.37100
C  26.12000 1.32900 34.75400
C  24.64500 1.35500 34.40400
C  24.54600 0.99800 32.94200
C  23.71500 0.46200 35.33300
C  26.70300 2.69700 35.19200
C  27.64100 2.62200 36.38200
H  27.08000 3.08600 37.73900
N  23.93300 0.64200 29.94900
C  23.01900 0.90700 30.89800
C  21.71000 0.85300 30.28500
C  21.83800 0.64400 28.91600
C  23.30400 0.42400 28.73800
C  20.40900 1.08100 31.06900
C  20.77200 0.58400 27.81400
O  21.06100 0.35700 26.61700
C  19.35300 0.60100 28.13800
N  26.41400 0.18200 28.12000
C  25.36800 -0.04400 27.29400
C  25.82200 -0.40700 25.89500
C  27.36900 0.01800 25.96400
C  27.62000 -0.07800 27.45000
C  25.52900 -1.83400 25.54300
C  27.88700 1.38900 25.36200
C  28.59400 1.27500 24.02400
N  28.07900 0.27800 30.45800
C  29.09600 -0.04600 29.56400
C  30.38400 -0.03800 30.26700
C  30.02500 0.24600 31.62800
C  28.60900 0.42400 31.69900
C  31.71700 -0.37600 29.75200
C  30.50600 0.41400 32.94900
O  31.67800 0.47600 33.32800
C  29.29700 0.66800 33.89300
C  29.27100 -0.57600 34.64000
O  28.45500 -1.50400 34.50500
O  30.23100 -0.54800 35.65000
C  30.08800 -1.50000 36.70600
H  22.53900 1.30000 32.98000
H  23.37000 -0.15300 26.75300
H  29.76300 -0.46700 27.63400
H  26.33500 0.61500 35.54900
H  24.18700 2.34300 34.44500
H  23.24500 -0.34500 34.77100
H  22.85600 1.08000 35.59300
H  24.20800 0.05100 36.21400
H  25.91200 3.40000 35.45100
H  27.26200 3.21300 34.41100
H  28.46900 3.30300 36.18500
H  28.02500 1.62800 36.61100
H  19.65500 0.37600 30.71900
H  20.12400 2.12500 30.93900
H  20.51100 0.81900 32.12200
H  18.70200 0.60100 27.26400
H  19.15100 1.48300 28.74500
H  19.12500 -0.24800 28.78300
H  25.27100 0.20700 25.18300
H  27.96400 -0.79000 25.53900
H  25.01000 -2.35000 26.35000
H  26.46400 -2.33000 25.28200
H  24.98800 -1.90400 24.59900
H  28.51800 1.96800 26.03700
H  26.95600 1.94100 25.23600
H  27.89600 1.34100 23.19000
H  29.13500 0.32900 24.00400
H  29.45500 1.93900 24.10200
H  31.83300 -0.81700 28.76200
H  31.99400 -1.16800 30.44800
H  32.30700 0.53600 29.66600
H  29.44800 1.65600 34.32800
H  29.88800 -2.51000 36.34900
H  29.16400 -1.23400 37.22000
H  30.95600 -1.50100 37.36500
Mg 36.93700 49.88400 24.54800
C  37.16400 48.11800 27.57100
C  35.27700 52.36400 26.15400
C  36.27700 51.25800 21.46600
C  37.88300 46.85900 22.82700
N  36.47900 50.21100 26.68400
C  36.68100 49.39300 27.75300
C  36.34200 50.14500 29.02300
C  35.76400 51.51800 28.50600
C  35.84900 51.44300 27.01900
C  34.28500 51.82000 29.02000
C  37.67900 50.28800 29.80400
C  37.68700 50.00000 31.35000
H  36.32100 49.81000 32.01300
N  36.04400 51.65700 23.89500
C  35.48600 52.55200 24.70300
C  35.11800 53.75700 23.90600
C  35.38900 53.44600 22.55500
C  35.89800 52.02400 22.54900
C  34.48200 54.94600 24.61800
C  35.24200 54.29800 21.33700
O  35.46900 53.91700 20.16700
C  34.85000 55.83000 21.53700
N  37.04400 49.08700 22.44200
C  36.80400 49.93400 21.39200
C  37.21400 49.21800 20.10300
C  37.78500 47.87200 20.53200
C  37.63400 47.90100 22.01500
C  36.11300 49.12600 19.00900
C  39.33100 47.64900 20.15600
C  40.32600 48.82400 20.57600
N  37.58200 47.94600 25.02100
C  37.82400 46.82000 24.21400
C  38.04100 45.67000 25.03500
C  37.81800 46.16200 26.32200
C  37.44400 47.50700 26.29100
C  38.44300 44.35100 24.55100
C  37.79000 45.72800 27.75100
O  37.97900 44.62500 28.24500
C  37.41500 47.02700 28.56800
C  36.24800 46.62700 29.39200
O  35.09700 46.74800 29.01500
O  36.68200 46.10000 30.58900
C  35.65600 45.47900 31.42100
H  34.99700 53.23400 26.75200
H  36.06600 51.77800 20.53000
H  38.14200 45.94600 22.28800
H  35.65200 49.52200 29.59100
H  36.42900 52.31100 28.84900
H  33.61600 51.63900 28.17900
H  34.20900 52.88400 29.24300
H  33.82300 51.17400 29.76700
H  37.91800 51.34800 29.72000
H  38.53400 49.70500 29.46300
H  38.26700 50.76800 31.86100
H  38.23800 49.06500 31.44500
H  33.45600 55.24000 24.39900
H  34.98400 55.83100 24.22800
H  34.59600 54.95500 25.70200
H  33.82100 55.91800 21.88500
H  34.65600 56.30600 20.57600
H  35.72800 56.22000 22.05300
H  37.99400 49.81300 19.62700
H  37.23400 47.01600 20.14200
H  35.16700 49.39300 19.48200
H  36.10300 48.25000 18.36200
H  36.28300 49.99100 18.36700
H  39.43100 47.64100 19.07000
H  39.55900 46.71100 20.66300
H  39.89100 49.52500 21.28700
H  40.65100 49.44100 19.73800
H  41.19300 48.29800 20.97600
H  39.47900 44.18200 24.84300
H  38.19200 44.28700 23.49200
H  37.86100 43.55700 25.02000
H  38.28200 47.36300 29.13700
H  34.91700 46.20000 31.77000
H  36.14400 44.98900 32.26400
H  35.15000 44.68800 30.86700

