158

Mg -11.44800 37.90500 43.00500
C  -9.75200 35.03000 41.77300
C  -9.01600 39.85800 41.36800
C  -13.45300 40.68400 43.28200
C  -13.93800 35.90100 44.24200
N  -9.68800 37.48700 41.72500
C  -9.22300 36.27400 41.33900
C  -7.99900 36.38500 40.44100
C  -7.54200 37.86700 40.67400
C  -8.81000 38.45100 41.39700
C  -6.14500 38.07100 41.49300
C  -8.20700 35.91200 38.92400
C  -7.26300 34.75000 38.43800
H  -6.30200 35.08900 37.29300
N  -11.24400 39.99600 42.44300
C  -10.20000 40.53600 41.72300
C  -10.38300 42.00800 41.75600
C  -11.59600 42.31700 42.44000
C  -12.20800 40.99300 42.71800
C  -9.40400 43.07000 41.11400
C  -12.17400 43.72900 42.69600
O  -11.62100 44.70900 42.29600
C  -13.41400 43.96200 43.57000
N  -13.40400 38.23600 43.56900
C  -14.03700 39.43800 43.57000
C  -15.46600 39.34500 44.12000
C  -15.64900 37.78300 44.43200
C  -14.24200 37.26500 43.99700
C  -15.82900 40.16200 45.39600
C  -16.74900 37.04100 43.45300
C  -17.53800 35.86400 44.04500
N  -11.85100 35.82200 42.97500
C  -12.85200 35.17300 43.55900
C  -12.56900 33.72000 43.63900
C  -11.39300 33.62000 42.89200
C  -11.01000 34.92100 42.50400
C  -13.44700 32.75400 44.28900
C  -10.33200 32.64000 42.43600
O  -10.23800 31.45800 42.60600
C  -9.22300 33.60500 41.63700
C  -7.84500 33.26400 42.26400
O  -7.26800 32.20300 42.18900
O  -7.31300 34.36400 42.89400
C  -5.96300 34.28500 43.50700
H  -8.21200 40.41700 40.88500
H  -14.14200 41.52700 43.20400
H  -14.68800 35.32000 44.78300
H  -7.20300 35.70700 40.75000
H  -7.49400 38.31700 39.68200
H  -5.44000 38.53900 40.80600
H  -5.66500 37.17000 41.87500
H  -6.40600 38.68700 42.35300
H  -7.97200 36.77400 38.30100
H  -9.23100 35.56700 38.77400
H  -7.92200 33.93600 38.13500
H  -6.61100 34.39100 39.23400
H  -9.82700 43.58900 40.25300
H  -8.44200 42.62400 40.86100
H  -9.28800 43.89000 41.82200
H  -14.30400 43.67400 43.01100
H  -13.34200 45.04200 43.70100
H  -13.36000 43.47300 44.54200
H  -16.04300 39.77200 43.30000
H  -15.89400 37.57900 45.47400
H  -16.46500 40.95400 45.00000
H  -14.89300 40.54800 45.79900
H  -16.30900 39.60700 46.20200
H  -16.24300 36.56800 42.61200
H  -17.43900 37.74300 42.98500
H  -17.73200 36.09300 45.09300
H  -16.90800 34.98100 43.93600
H  -18.48600 35.72700 43.52300
H  -13.23500 31.68400 44.28100
H  -14.39100 32.88800 43.76000
H  -13.45600 33.03800 45.34100
H  -9.32600 33.20400 40.62800
H  -5.49700 33.31400 43.34600
H  -6.16200 34.38600 44.57400
H  -5.40600 35.18200 43.23600
Mg 1.39600 42.11900 25.72100
C  2.92900 42.38900 28.91800
C  -1.30800 40.64700 27.24000
C  0.10800 41.88200 22.80300
C  4.48000 43.23800 24.41300
N  0.86900 41.46700 27.93300
C  1.55800 41.96100 28.99200
C  0.69800 41.67600 30.27400
C  -0.59100 40.99000 29.77700
C  -0.35100 40.99800 28.24800
C  -0.98600 39.70600 30.51100
C  0.51000 42.97000 31.07800
C  0.82300 42.88800 32.60400
H  0.69100 41.53800 33.29100
N  -0.18200 41.15400 25.08200
C  -1.20300 40.66800 25.81400
C  -2.29700 40.26000 24.97000
C  -1.98700 40.76600 23.68200
C  -0.64000 41.29700 23.79900
C  -3.57200 39.59500 25.39600
C  -2.89600 40.83000 22.44900
O  -2.47600 41.32100 21.38100
C  -4.29000 40.49300 22.45000
N  2.25500 42.48000 23.92200
C  1.47600 42.28200 22.78500
C  2.13900 42.84300 21.54500
C  3.43100 43.47700 22.09400
C  3.40200 43.08300 23.54300
C  2.35000 41.87000 20.36400
C  3.48400 45.06500 22.02900
C  4.15600 45.54500 20.76100
N  3.31100 42.70900 26.45800
C  4.45100 43.11100 25.80300
C  5.48800 43.32800 26.76300
C  4.96000 43.00400 27.94200
C  3.63500 42.62700 27.74500
C  7.02400 43.78400 26.55500
C  5.30300 43.01600 29.32600
O  6.28000 43.32500 29.92300
C  3.92900 42.63600 30.13600
C  4.29800 41.41900 30.93000
O  4.37800 40.31600 30.44900
O  4.33500 41.73700 32.24900
C  4.44000 40.60100 33.17400
H  -2.20300 40.31200 27.76700
H  -0.31200 42.04800 21.80900
H  5.41400 43.62800 24.00300
H  1.33000 40.95000 30.78600
H  -1.44900 41.64100 29.94600
H  -1.04600 38.89300 29.78700
H  -1.96600 39.76900 30.98300
H  -0.29600 39.53500 31.33800
H  -0.54400 43.24800 31.06700
H  1.17900 43.74700 30.70800
H  0.01600 43.56100 32.89500
H  1.74500 43.40800 32.86400
H  -4.40900 40.29200 25.35400
H  -3.40700 39.20300 26.40000
H  -3.70200 38.73800 24.73500
H  -4.52100 39.52700 22.90000
H  -4.62800 40.44100 21.41500
H  -4.90300 41.18100 23.03200
H  1.50700 43.67900 21.24600
H  4.33600 43.14600 21.58500
H  1.37700 41.75000 19.88800
H  2.62700 40.87200 20.70400
H  2.96100 42.24700 19.54400
H  3.85300 45.38100 23.00500
H  2.42700 45.33100 22.00400
H  4.42000 44.68400 20.14800
H  5.08500 46.09800 20.90300
H  3.44600 46.20100 20.25700
H  7.58100 42.90000 26.86600
H  7.22700 44.49500 27.35600
H  7.27200 44.14100 25.55500
H  3.64100 43.40200 30.85600
H  5.49800 40.40700 33.34900
H  4.06600 39.70100 32.68600
H  3.85400 40.76000 34.07900

