158

Mg 1.45500 8.38700 27.49200
C  1.59300 10.21900 30.54800
C  1.17900 5.64700 29.15600
C  1.52100 6.79900 24.47200
C  1.77300 11.44600 25.81400
N  1.50200 7.93600 29.60200
C  1.33800 8.79800 30.71400
C  1.07500 8.09500 31.98800
C  1.29400 6.60700 31.57700
C  1.43400 6.67300 30.01100
C  2.49900 5.89300 32.32800
C  -0.21600 8.60700 32.64900
C  -0.06000 9.24200 34.03700
H  1.00700 8.78600 34.98800
N  1.56600 6.41100 26.87900
C  1.31800 5.42300 27.72300
C  1.14500 4.20500 27.02400
C  1.33100 4.45900 25.64500
C  1.55700 5.93700 25.58200
C  0.92200 2.83300 27.74000
C  1.49700 3.52200 24.32900
O  1.75300 4.00500 23.26000
C  1.18700 2.06400 24.42600
N  1.91600 9.00100 25.44700
C  1.88500 8.09700 24.38400
C  1.94600 8.94900 23.10800
C  1.90900 10.36500 23.48300
C  1.82000 10.25200 25.01200
C  3.00400 8.61100 22.00600
C  0.72100 11.10200 22.89900
C  -0.62800 10.92200 23.54200
N  1.67600 10.38600 28.00500
C  1.78200 11.58900 27.20200
C  1.92600 12.79600 28.02100
C  1.80900 12.25400 29.34800
C  1.75800 10.81500 29.27800
C  2.06000 14.22900 27.53200
C  1.67600 12.69100 30.71800
O  1.67600 13.79000 31.22200
C  1.63500 11.39400 31.51300
C  2.80500 11.46900 32.42800
O  3.94600 11.22000 32.05800
O  2.41200 11.79800 33.69800
C  3.38800 12.18900 34.67500
H  0.84200 4.73700 29.65600
H  1.17000 6.37700 23.52800
H  1.75100 12.39900 25.28100
H  1.90100 8.45200 32.60200
H  0.44700 5.96400 31.81400
H  2.79200 6.57800 33.12400
H  3.41400 5.62600 31.80000
H  2.18300 4.95700 32.78700
H  -0.90300 7.77200 32.77900
H  -0.71500 9.39800 32.08900
H  -0.96000 9.20400 34.65100
H  0.11600 10.30700 33.88700
H  -0.15000 2.78600 27.93000
H  1.48100 2.71900 28.66900
H  1.11900 1.96500 27.11100
H  1.38800 1.53900 23.49200
H  0.20500 2.04000 24.89800
H  1.89500 1.66900 25.15400
H  0.96500 8.64900 22.74100
H  2.81400 10.91400 23.22000
H  3.84000 7.98400 22.31900
H  3.38600 9.53900 21.58000
H  2.53900 8.02900 21.21000
H  0.57500 11.04500 21.82000
H  0.92200 12.15800 23.07800
H  -0.98100 11.86400 23.96100
H  -0.55100 10.08400 24.23600
H  -1.37400 10.66000 22.79200
H  1.31600 14.74800 26.92800
H  3.03700 14.51400 27.14200
H  1.92400 14.79800 28.45200
H  0.76100 11.37700 32.16500
H  2.85700 12.74000 35.45100
H  4.03700 12.94700 34.23500
H  3.85900 11.27300 35.03100
Mg 30.12800 57.67200 40.62100
C  27.42700 55.81900 39.31300
C  32.24900 55.69600 38.90700
C  32.64700 59.99900 40.89600
C  27.77600 60.24500 41.49800
N  29.82300 56.00300 39.25200
C  28.66600 55.33500 38.92500
C  28.84800 54.09200 37.96200
C  30.38200 53.85500 38.37300
C  30.91100 55.24100 38.86000
C  30.63900 52.64100 39.36300
C  28.51800 54.47400 36.46000
C  27.70400 53.36600 35.76000
H  26.52600 53.85000 34.84700
N  32.15300 57.74100 40.16600
C  32.83600 56.80600 39.43600
C  34.26300 57.15900 39.34300
C  34.44700 58.36900 40.07800
C  33.06500 58.77000 40.37100
C  35.40200 56.20100 38.66500
C  35.75600 59.02600 40.47800
O  36.82800 58.57600 40.12300
C  35.82100 60.16800 41.55500
N  30.19600 59.94800 40.86500
C  31.37900 60.61000 41.13000
C  31.20300 61.97000 41.88500
C  29.61000 62.08100 41.71500
C  29.08800 60.69800 41.35100
C  31.74400 62.08500 43.34000
C  29.22000 63.12800 40.63500
C  28.91100 64.54900 41.27000
N  28.07100 57.94200 40.65500
C  27.22900 59.05000 41.07900
C  25.86800 58.54300 41.07100
C  25.88600 57.30400 40.37000
C  27.23400 57.00300 40.07700
C  24.64400 59.30200 41.50300
C  25.02700 56.31800 39.73100
O  23.82300 56.17100 39.66900
C  26.08000 55.20700 39.09200
C  25.79700 53.82900 39.62200
O  26.30200 53.37000 40.63800
O  24.90100 53.15300 38.77200
C  24.56900 51.73600 39.19000
H  32.99400 55.03900 38.45300
H  33.47500 60.66900 41.13400
H  26.99600 60.94100 41.81300
H  28.28400 53.23300 38.32400
H  31.01300 53.70200 37.49800
H  30.98800 53.05800 40.30700
H  31.38700 52.05700 38.82700
H  29.72300 52.07200 39.52200
H  29.48700 54.49500 35.96000
H  28.11400 55.48600 36.43500
H  27.27600 52.69500 36.50500
H  28.26300 52.85200 34.97800
H  36.04300 55.63300 39.33900
H  36.10300 56.68700 37.98600
H  34.87300 55.47900 38.04400
H  35.51500 61.06400 41.01500
H  36.84800 60.34300 41.87600
H  35.19600 59.92500 42.41500
H  31.68500 62.75600 41.30400
H  29.26300 62.41200 42.69400
H  32.34700 61.18000 43.40900
H  30.95100 62.26500 44.06700
H  32.31600 63.01300 43.35100
H  28.26000 62.85000 40.20200
H  29.92400 63.13000 39.80200
H  27.87500 64.87500 41.17700
H  29.52400 65.29800 40.76900
H  29.12500 64.48400 42.33700
H  23.91500 58.63700 41.96700
H  24.27900 59.66800 40.54300
H  24.97500 60.08000 42.19100
H  25.82200 55.17500 38.03300
H  24.81100 51.11300 38.32900
H  23.50600 51.64000 39.41100
H  25.07800 51.48300 40.12100

