158

Mg 16.07200 -2.00500 27.73000
C  15.07800 0.35100 30.21500
C  18.00100 -3.48500 30.14800
C  17.13400 -3.94200 25.25200
C  14.34000 0.18600 25.31500
N  16.44300 -1.58900 29.92900
C  15.92500 -0.60900 30.75200
C  16.51800 -0.67200 32.13800
C  17.70900 -1.68500 32.00800
C  17.41600 -2.25200 30.57200
C  19.20100 -1.23000 32.31300
C  15.44200 -1.13100 33.11700
C  15.31400 -0.49500 34.51000
H  16.47200 0.35800 35.05000
N  17.28700 -3.62600 27.68700
C  17.95600 -4.12800 28.76300
C  18.62600 -5.31500 28.29100
C  18.49600 -5.36900 26.88000
C  17.61500 -4.32600 26.49800
C  19.42900 -6.07700 29.28700
C  19.20700 -6.33100 25.98400
O  18.89400 -6.33900 24.78900
C  20.36600 -7.13600 26.52600
N  15.99400 -1.83800 25.68800
C  16.50000 -2.78400 24.82100
C  16.24800 -2.35900 23.34000
C  15.32200 -1.14900 23.43700
C  15.22600 -0.89400 24.94900
C  17.59400 -2.08300 22.50100
C  13.92500 -1.35400 22.76200
C  13.63500 -0.36700 21.61500
N  14.92500 -0.20200 27.71900
C  14.25800 0.55300 26.66300
C  13.63200 1.66100 27.29000
C  13.85400 1.53000 28.66800
C  14.65000 0.40900 28.84400
C  13.06800 2.79200 26.49000
C  13.61500 2.28800 29.84200
O  12.86600 3.25800 30.04900
C  14.33500 1.47600 30.95400
C  15.17900 2.38600 31.72100
O  16.35000 2.49900 31.63100
O  14.40100 3.07800 32.56100
C  14.85500 4.11500 33.56300
H  18.78000 -3.84000 30.82600
H  17.53800 -4.50000 24.40400
H  13.93900 0.87400 24.56700
H  16.93200 0.31400 32.35100
H  17.44500 -2.57200 32.58400
H  19.68900 -1.70000 33.16700
H  18.99000 -0.19300 32.57700
H  19.92500 -1.26000 31.49900
H  15.62300 -2.20000 33.22800
H  14.53000 -0.94700 32.54800
H  15.02300 -1.19100 35.29600
H  14.44800 0.15100 34.36600
H  20.51000 -5.93100 29.28100
H  19.13500 -7.12200 29.19600
H  19.16900 -5.81000 30.31100
H  21.16400 -6.45700 26.82500
H  20.79000 -7.66600 25.67300
H  19.96000 -7.87400 27.21800
H  15.73700 -3.17100 22.82100
H  15.87500 -0.33400 22.97100
H  18.46200 -2.42800 23.06300
H  17.89300 -1.04200 22.37300
H  17.53200 -2.63800 21.56500
H  13.19800 -1.09000 23.52900
H  13.70900 -2.41300 22.61900
H  13.14400 -0.82500 20.75700
H  14.54500 0.00100 21.14100
H  13.04900 0.46300 22.01000
H  12.00000 2.58000 26.43600
H  13.58700 2.96700 25.54700
H  13.24800 3.80100 26.85900
H  13.65400 0.98800 31.65100
H  15.63300 4.74300 33.12800
H  15.08000 3.78600 34.57700
H  14.00100 4.76500 33.75800
Mg -12.04400 38.10100 41.35500
C  -9.79400 35.53000 40.55200
C  -9.92400 40.31600 39.73300
C  -14.60500 40.28600 41.29200
C  -14.33900 35.73800 42.58000
N  -10.19200 37.94900 40.10700
C  -9.39800 36.78100 40.06300
C  -8.05400 37.01800 39.34800
C  -8.02800 38.66100 39.38700
C  -9.49300 39.00700 39.76900
C  -6.97700 39.07200 40.50500
C  -8.02600 36.31600 37.93300
C  -6.76400 35.39500 37.68900
H  -5.69400 35.90300 36.70400
N  -12.25100 40.06300 40.68600
C  -11.23200 40.81800 40.12400
C  -11.66600 42.18100 40.18900
C  -13.09600 42.17100 40.45900
C  -13.34500 40.83400 40.81400
C  -10.79600 43.41400 39.67300
C  -14.10200 43.33100 40.43300
O  -13.73200 44.49300 40.36100
C  -15.61400 43.20400 40.60100
N  -14.10500 38.08700 41.97100
C  -14.93100 39.08800 41.84700
C  -16.36300 38.86100 42.35800
C  -16.22600 37.39500 42.88200
C  -14.81500 37.04000 42.49300
C  -16.90800 39.83800 43.47000
C  -17.30400 36.40000 42.25000
C  -17.91800 35.38700 43.20500
N  -12.09300 35.98800 41.65200
C  -13.06600 35.19300 42.21600
C  -12.59100 33.81500 42.21900
C  -11.26600 33.89800 41.65200
C  -11.04000 35.22200 41.27500
C  -13.31400 32.68000 42.80500
C  -10.00700 33.22100 41.22500
O  -9.66800 32.06800 41.32800
C  -9.09200 34.20400 40.51300
C  -7.76500 34.24900 41.18600
O  -6.89400 33.47000 40.86700
O  -7.65300 35.25400 42.08100
C  -6.39400 35.25400 42.85700
H  -9.22200 41.05600 39.34500
H  -15.51000 40.88100 41.42900
H  -15.14500 35.12900 42.99200
H  -7.26600 36.55700 39.94400
H  -7.78100 39.09500 38.41800
H  -6.78000 38.24500 41.18800
H  -7.39200 39.88700 41.09800
H  -6.03500 39.44800 40.10500
H  -7.90900 37.03300 37.12000
H  -8.96200 35.79900 37.72100
H  -6.98200 34.39100 37.32300
H  -6.31200 35.12100 38.64200
H  -11.03100 43.51500 38.61400
H  -9.73400 43.20100 39.79300
H  -11.19200 44.30200 40.16600
H  -16.05400 44.14400 40.26600
H  -15.79700 42.98400 41.65300
H  -15.86200 42.35900 39.95900
H  -17.06500 38.92100 41.52600
H  -16.31300 37.21000 43.95200
H  -16.11800 40.45700 43.89400
H  -17.33800 39.28400 44.30400
H  -17.66200 40.45000 42.97300
H  -16.92700 35.95100 41.33200
H  -18.12000 36.98900 41.83100
H  -17.35400 35.34500 44.13700
H  -17.95200 34.36100 42.84000
H  -18.90400 35.80200 43.41600
H  -13.25300 31.79100 42.17800
H  -14.36400 32.93800 42.94700
H  -12.77200 32.53400 43.73900
H  -8.81000 33.91900 39.49900
H  -6.47800 35.89000 43.73800
H  -5.56300 35.62600 42.25700
H  -6.28400 34.26300 43.29800

