158

Mg 1.53000 8.50800 26.57900
C  2.02600 10.35400 29.42600
C  1.67200 5.64700 28.45500
C  1.09600 6.77800 23.75000
C  1.85700 11.48200 24.69300
N  1.64400 8.03600 28.75200
C  1.80600 8.99000 29.68000
C  1.67000 8.33200 31.05300
C  1.96700 6.84600 30.76400
C  1.70900 6.84100 29.22300
C  3.42200 6.47000 31.05900
C  0.29800 8.54300 31.67100
C  0.12900 8.72200 33.16900
H  1.31500 8.43800 34.13200
N  1.42800 6.46800 26.16200
C  1.36500 5.42300 27.08100
C  1.00800 4.21400 26.42600
C  1.02600 4.52200 25.06000
C  1.16800 5.98700 24.92600
C  0.85600 2.86400 27.11300
C  0.81800 3.62400 23.89100
O  0.67900 4.06500 22.74900
C  0.68100 2.16700 24.11900
N  1.39600 9.12300 24.58000
C  1.22400 8.16700 23.60700
C  1.28000 8.83400 22.18900
C  1.03800 10.30400 22.55800
C  1.53200 10.34500 24.01500
C  2.52400 8.73900 21.30400
C  -0.44200 10.71300 22.52300
C  -0.99500 11.44500 21.29500
N  2.02700 10.52200 26.95600
C  2.16800 11.61300 26.09300
C  2.39800 12.82200 26.86700
C  2.40700 12.30800 28.20200
C  2.13000 10.95900 28.18800
C  2.45700 14.15400 26.45200
C  2.53000 12.72700 29.60900
O  2.85100 13.79900 30.07400
C  2.21200 11.48000 30.43800
C  3.46100 11.28900 31.20800
O  4.44900 10.66000 30.91400
O  3.37200 12.06300 32.30000
C  4.51900 11.94400 33.28600
H  1.72300 4.68200 28.96400
H  0.97600 6.35400 22.75100
H  1.57400 12.36100 24.11100
H  2.41100 8.78400 31.71100
H  1.27000 6.16300 31.25100
H  3.40200 5.69300 31.82300
H  4.08700 7.32000 31.21100
H  3.92700 5.92100 30.26400
H  -0.31500 7.69100 31.37600
H  -0.15500 9.35000 31.09500
H  -0.68000 8.03700 33.42200
H  -0.15000 9.74800 33.41000
H  0.56400 3.03500 28.14900
H  1.84900 2.41500 27.07600
H  0.14700 2.15200 26.69100
H  1.61200 1.80900 24.55900
H  0.46800 1.51000 23.27600
H  -0.24900 2.06000 24.67600
H  0.41800 8.62000 21.55800
H  1.63500 11.02900 22.00500
H  3.09100 7.80800 21.33400
H  3.21700 9.51800 21.61800
H  2.21100 8.95500 20.28200
H  -0.59600 11.37800 23.37200
H  -1.11600 9.89700 22.78400
H  -1.70200 10.84400 20.72100
H  -0.16300 11.61700 20.61200
H  -1.38100 12.44800 21.47200
H  1.85700 14.80700 27.08600
H  2.09700 14.30700 25.43400
H  3.46300 14.57300 26.48100
H  1.30300 11.62800 31.02200
H  4.55700 11.01200 33.85000
H  4.50300 12.82400 33.93000
H  5.40300 11.92800 32.64800
Mg 6.01100 54.56600 40.44900
C  5.90800 51.04900 40.65100
C  9.29700 54.09600 39.34200
C  5.97800 57.75200 39.89000
C  2.63400 54.52900 41.61700
N  7.38400 52.70200 39.85500
C  7.14100 51.44100 40.15900
C  8.38700 50.55700 39.86500
C  9.54200 51.57500 39.66700
C  8.69100 52.90200 39.55800
C  10.46900 51.67800 40.85300
C  8.29400 49.73200 38.53400
C  7.35000 50.17600 37.39400
H  7.92800 50.42300 36.04700
N  7.36900 55.77900 39.65700
C  8.72500 55.44300 39.36300
C  9.44200 56.61700 39.01600
C  8.51800 57.77600 39.13300
C  7.22400 57.15100 39.57900
C  10.85500 56.61900 38.50500
C  8.79900 59.21700 38.78200
O  9.85300 59.58700 38.35100
C  7.76300 60.31200 38.87400
N  4.44900 55.88400 40.54100
C  4.82400 57.23900 40.37500
C  3.60800 58.12800 40.62300
C  2.59900 57.13300 41.29000
C  3.21400 55.76800 41.08600
C  3.90400 59.42100 41.40600
C  1.25300 57.23200 40.62900
C  0.17900 57.53700 41.68700
N  4.52700 53.12200 40.90300
C  3.24100 53.22700 41.46300
C  2.78700 51.94500 42.03800
C  3.81000 51.04700 41.73300
C  4.74600 51.79300 40.95800
C  1.56800 51.66800 42.94000
C  4.32000 49.70400 41.93500
O  3.93300 48.68400 42.49200
C  5.58300 49.64200 41.10200
C  5.24900 48.64300 40.00100
O  4.88000 48.96200 38.87900
O  5.56400 47.39200 40.39300
C  5.14400 46.30100 39.43100
H  10.36700 53.95900 39.17700
H  5.88600 58.81000 39.63300
H  1.61500 54.56200 42.00600
H  8.54300 49.88100 40.70600
H  10.18500 51.49800 38.79000
H  10.20800 52.30500 41.70500
H  11.44200 51.89800 40.41300
H  10.45000 50.69100 41.31500
H  7.83100 48.80400 38.87100
H  9.26400 49.48300 38.10400
H  6.85700 51.11800 37.63600
H  6.61000 49.38300 37.29100
H  10.84000 57.12300 37.53900
H  11.18800 55.60300 38.29400
H  11.58700 57.17300 39.09200
H  8.27200 61.26400 38.72200
H  7.52800 60.29800 39.93800
H  6.92100 60.23700 38.18600
H  3.23500 58.44400 39.64900
H  2.56900 57.28700 42.36800
H  3.21500 59.38200 42.25000
H  3.52000 60.24600 40.80700
H  4.98100 59.51600 41.54600
H  1.05300 56.36500 39.99900
H  1.10100 58.08600 39.96900
H  -0.56900 56.75900 41.53200
H  -0.25400 58.53000 41.57100
H  0.48800 57.35400 42.71700
H  1.48400 50.59300 43.09900
H  0.64900 51.91800 42.41000
H  1.59200 52.41700 43.73200
H  6.35000 49.12900 41.68200
H  5.04700 45.36900 39.98800
H  5.82900 46.14900 38.59700
H  4.16500 46.58800 39.04700

