158

Mg 8.64300 3.85900 28.04900
C  9.77500 2.29600 30.97300
C  6.52000 5.73000 29.98200
C  7.24600 5.01000 25.08400
C  10.44900 1.44400 26.15400
N  8.32100 3.97100 30.22600
C  8.92100 3.31600 31.23000
C  8.30200 3.74300 32.63300
C  7.25900 4.77200 32.22100
C  7.33900 4.82100 30.68700
C  5.75600 4.64500 32.70600
C  9.44400 4.11900 33.69400
C  9.18600 5.17400 34.71300
H  9.58400 4.90300 36.17400
N  7.20200 5.24500 27.61500
C  6.42200 5.89600 28.54100
C  5.56800 6.86100 27.83800
C  5.79200 6.70000 26.47300
C  6.75300 5.59000 26.36100
C  4.50000 7.63100 28.57200
C  5.15100 7.42200 25.27300
O  5.49900 7.16200 24.14900
C  4.16200 8.57700 25.46400
N  8.65600 3.17400 25.95500
C  8.09900 3.93100 24.97800
C  8.67200 3.50300 23.61400
C  9.95200 2.71000 24.01700
C  9.68700 2.39900 25.44700
C  7.61300 2.73800 22.82100
C  11.32300 3.43000 23.91400
C  11.25600 4.96700 23.83300
N  9.91900 2.18100 28.44400
C  10.56100 1.31200 27.57500
C  11.18500 0.24200 28.40400
C  11.03900 0.66600 29.73200
C  10.13800 1.76400 29.68900
C  11.87700 -1.03600 27.91000
C  11.35700 0.35100 31.08600
O  12.08000 -0.58800 31.52200
C  10.53200 1.37600 32.07300
C  9.60000 0.50300 32.81300
O  8.50800 0.15300 32.43600
O  10.16000 0.27700 34.02800
C  9.44400 -0.72000 34.86800
H  6.07600 6.46500 30.65700
H  6.94100 5.47000 24.14200
H  11.20100 0.88700 25.59200
H  7.79000 2.85100 32.99300
H  7.52100 5.74400 32.64000
H  5.64600 5.37900 33.50400
H  5.62600 3.64400 33.11700
H  5.01000 4.85600 31.93900
H  10.37400 4.38500 33.19200
H  9.64500 3.23700 34.30200
H  8.09800 5.17300 34.65200
H  9.55100 6.15000 34.39400
H  4.35600 7.43600 29.63500
H  3.60700 7.27500 28.05800
H  4.74400 8.67900 28.40000
H  3.60300 8.72000 24.54000
H  4.64500 9.54000 25.63100
H  3.47200 8.42900 26.29400
H  8.98700 4.41300 23.10400
H  9.97800 1.77800 23.45200
H  6.75800 2.45900 23.43600
H  8.02900 1.86800 22.31300
H  7.15600 3.49800 22.18700
H  11.74200 3.32500 22.91300
H  12.09800 3.16300 24.63300
H  11.19200 5.37900 22.82600
H  12.09700 5.52000 24.25100
H  10.35500 5.27500 24.36200
H  12.83500 -0.75200 27.47400
H  11.20700 -1.65100 27.30900
H  12.15500 -1.52500 28.84300
H  11.26600 1.91800 32.67000
H  9.30200 -1.70200 34.41500
H  8.44700 -0.36400 35.12500
H  10.07200 -0.80500 35.75500
Mg -5.44200 25.60600 26.31200
C  -4.54100 27.17500 29.26600
C  -7.48300 23.50200 28.17100
C  -6.17300 23.91500 23.45500
C  -3.37900 27.82400 24.52900
N  -5.89400 25.32200 28.46400
C  -5.38700 26.06400 29.46900
C  -6.01700 25.69700 30.79500
C  -6.61800 24.26500 30.43400
C  -6.76300 24.40800 28.95900
C  -5.74100 22.99600 30.78500
C  -7.08600 26.76500 31.28500
C  -6.90400 27.24800 32.76900
H  -6.45000 26.18800 33.87000
N  -6.64900 23.87000 25.92800
C  -7.47200 23.19600 26.80000
C  -8.31600 22.25900 26.05600
C  -7.79000 22.18600 24.72000
C  -6.85400 23.39000 24.66100
C  -9.40100 21.42900 26.77900
C  -8.00700 21.21800 23.70100
O  -7.49300 21.40700 22.58800
C  -8.73900 19.95700 24.02300
N  -4.84400 25.86900 24.24200
C  -5.26600 24.96500 23.32200
C  -4.63700 25.39900 21.99200
C  -3.94600 26.82200 22.29300
C  -4.03900 26.87300 23.76100
C  -3.80900 24.33300 21.18500
C  -4.66600 28.03900 21.58200
C  -4.02400 28.41400 20.27200
N  -4.20400 27.16100 26.73600
C  -3.41800 27.99200 25.89600
C  -2.67700 28.91900 26.69600
C  -3.19100 28.68500 28.00800
C  -4.02500 27.58600 27.97200
C  -1.65800 29.85800 26.13500
C  -3.07400 29.16700 29.39700
O  -2.42600 30.07900 29.92400
C  -3.95400 28.12900 30.25400
C  -3.12700 27.43500 31.30700
O  -2.13600 26.69800 31.10700
O  -3.54300 27.85300 32.57600
C  -2.78600 27.27700 33.72600
H  -8.09000 22.82000 28.77100
H  -6.31100 23.39200 22.50700
H  -2.73200 28.52500 23.99800
H  -5.20400 25.63800 31.51900
H  -7.64400 24.05600 30.73700
H  -5.62000 22.33600 29.92600
H  -6.21000 22.35500 31.53200
H  -4.76800 23.33400 31.14100
H  -8.08400 26.37300 31.09100
H  -6.96600 27.63800 30.64300
H  -7.89400 27.55800 33.10300
H  -6.20300 28.07900 32.84300
H  -10.16700 21.31800 26.01200
H  -9.86700 21.93000 27.62700
H  -9.05300 20.44300 27.08700
H  -8.48600 19.64500 25.03700
H  -8.46200 19.14900 23.34600
H  -9.80100 20.10300 23.82300
H  -5.53400 25.52600 21.38500
H  -2.90600 26.64900 22.01600
H  -3.93600 23.33200 21.59700
H  -2.73900 24.53900 21.15700
H  -4.06400 24.32500 20.12500
H  -4.47200 28.96200 22.12900
H  -5.72100 27.77100 21.52500
H  -3.29800 29.22300 20.35600
H  -4.76500 28.66600 19.51400
H  -3.42300 27.61700 19.83400
H  -1.44100 29.66000 25.08600
H  -0.69500 30.06000 26.60400
H  -2.10000 30.83900 26.31000
H  -4.83400 28.51700 30.76700
H  -2.46300 26.24800 33.57400
H  -3.49200 27.32100 34.55400
H  -1.86500 27.83800 33.88600

