158

Mg 3.03600 1.30100 44.22600
C  5.89600 3.30500 44.29900
C  1.63400 3.58100 42.08700
C  0.59400 -0.88200 43.52000
C  5.01500 -1.33400 45.51600
N  3.71200 3.14600 43.23900
C  4.91100 3.81500 43.47100
C  4.99600 5.21600 42.82100
C  3.48900 5.35700 42.40800
C  2.90800 3.93600 42.53800
C  2.69100 6.39900 43.26800
C  5.88300 5.46800 41.48100
C  6.04900 4.26200 40.55700
H  5.43700 4.42200 39.09000
N  1.21100 1.44000 43.22300
C  0.80300 2.43800 42.30800
C  -0.41900 2.12100 41.69900
C  -0.82900 0.83700 42.24000
C  0.34000 0.39600 43.09600
C  -1.24400 3.01800 40.77200
C  -2.18100 0.12000 41.95900
O  -3.05300 0.69000 41.26100
C  -2.55700 -1.32100 42.39600
N  2.80700 -0.81400 44.52400
C  1.71600 -1.45400 44.02900
C  1.90600 -2.93400 44.34500
C  3.22900 -3.12700 45.19900
C  3.74600 -1.65900 45.06500
C  0.59800 -3.55100 44.96000
C  4.16500 -4.22700 44.67800
C  4.29500 -5.40800 45.68400
N  5.01100 0.97800 44.89300
C  5.66500 -0.10200 45.44100
C  7.01900 0.30300 45.81400
C  7.14700 1.61700 45.37900
C  5.88600 1.99300 44.81500
C  8.02400 -0.60700 46.57800
C  8.01300 2.79500 45.46100
O  9.16600 2.89900 45.88000
C  7.20200 3.95400 44.78100
C  7.07000 5.11100 45.78000
O  7.94200 5.91100 46.02000
O  5.83700 5.23800 46.43300
C  5.70200 6.36600 47.36500
H  1.16000 4.40700 41.55200
H  -0.14100 -1.64800 43.26200
H  5.52400 -2.16600 46.00700
H  5.42300 5.94000 43.51600
H  3.41400 5.66400 41.36500
H  3.22700 6.71800 44.16200
H  1.78600 5.94100 43.66600
H  2.53400 7.22600 42.57500
H  6.88700 5.73800 41.80700
H  5.39300 6.30200 40.97900
H  5.58500 3.37200 40.98100
H  7.07800 3.90100 40.54100
H  -1.57300 2.48300 39.88100
H  -0.58900 3.82800 40.45000
H  -2.04900 3.38700 41.40800
H  -2.20800 -1.34600 43.42800
H  -2.03100 -2.09500 41.83700
H  -3.64600 -1.36900 42.39400
H  2.08600 -3.48800 43.42400
H  2.91700 -3.25000 46.23700
H  0.24100 -2.69600 45.53500
H  0.81000 -4.47200 45.50200
H  -0.25100 -3.76800 44.31200
H  5.17000 -3.86100 44.46800
H  3.70900 -4.73600 43.82900
H  4.37900 -4.99400 46.69000
H  5.02900 -6.20800 45.58800
H  3.32600 -5.89000 45.81400
H  8.44800 0.02900 47.35500
H  8.73600 -0.99000 45.84700
H  7.48000 -1.40000 47.09000
H  7.83100 4.35100 43.98500
H  4.62100 6.43300 47.49000
H  6.12100 7.31900 47.04100
H  6.27300 6.16700 48.27200
Mg 26.50000 -0.44200 29.11800
C  28.12900 -0.89700 32.12300
C  23.53000 -0.60000 30.87100
C  24.77100 -0.21900 26.17200
C  29.25900 -1.06200 27.37100
N  25.94800 -0.72000 31.22300
C  26.80100 -0.76500 32.31200
C  26.11600 -0.79200 33.70600
C  24.57400 -0.67900 33.25000
C  24.67300 -0.62200 31.69000
C  23.68200 -1.79000 33.84800
C  26.49100 0.33100 34.68500
C  25.67200 0.38000 35.99100
H  26.47100 0.22800 37.27000
N  24.50500 -0.25500 28.63400
C  23.41300 -0.43800 29.48900
C  22.14500 -0.27500 28.75200
C  22.45400 0.01600 27.37800
C  24.00900 -0.15700 27.35200
C  20.77100 -0.43900 29.39600
C  21.49300 0.30600 26.19500
O  21.85100 0.48200 25.02700
C  20.06000 0.34900 26.44500
N  26.96600 -0.75700 27.07000
C  26.15100 -0.39900 26.05900
C  26.85900 -0.23600 24.71500
C  28.36800 -0.40000 25.10100
C  28.22000 -0.69600 26.62400
C  26.26900 -1.36600 23.69700
C  29.31800 0.84900 24.91100
C  30.76200 0.62400 24.65600
N  28.32900 -0.87500 29.59100
C  29.36100 -1.12300 28.76800
C  30.53700 -1.45400 29.51500
C  30.10300 -1.35500 30.87600
C  28.75900 -0.97800 30.87300
C  31.91000 -1.76400 28.94400
C  30.54200 -1.46300 32.19700
O  31.67800 -1.63700 32.70500
C  29.30200 -1.09400 33.13200
C  29.08800 -2.25300 34.04900
O  28.68900 -3.38100 33.76800
O  29.40800 -1.82300 35.29700
C  29.19800 -2.82500 36.43900
H  22.62000 -0.58300 31.47400
H  24.15800 -0.16200 25.27000
H  30.20200 -1.20300 26.83900
H  26.34800 -1.75300 34.16600
H  24.12500 0.29100 33.46300
H  23.55700 -2.53200 33.05900
H  22.72900 -1.33200 34.11200
H  24.13500 -2.14100 34.77600
H  26.59500 1.38200 34.41400
H  27.55000 0.14300 34.86600
H  24.81200 -0.29000 36.01000
H  25.16900 1.33400 36.15000
H  20.14600 -1.11700 28.81400
H  20.22400 0.50400 29.43200
H  21.00100 -0.89700 30.35800
H  19.62700 0.79000 25.54700
H  20.01700 1.11800 27.21600
H  19.47400 -0.55300 26.62300
H  26.61100 0.78400 24.42100
H  28.88700 -1.25500 24.66700
H  25.90900 -2.11100 24.40600
H  27.08600 -1.83100 23.14500
H  25.39500 -1.01300 23.14900
H  29.42100 1.47700 25.79600
H  29.08500 1.54300 24.10400
H  31.34800 1.36100 25.20600
H  31.06500 0.80100 23.62400
H  31.07700 -0.41900 24.69600
H  32.11400 -1.51600 27.90300
H  32.03700 -2.83700 29.08900
H  32.70500 -1.33300 29.55200
H  29.56500 -0.20200 33.70000
H  29.53800 -3.80200 36.09500
H  28.17100 -2.94300 36.78500
H  29.87900 -2.79300 37.29000

