158

Mg 35.88400 48.35500 24.44900
C  36.07700 46.57000 27.41300
C  34.70200 51.10400 26.26000
C  35.37500 49.95900 21.58300
C  36.90100 45.42900 22.75500
N  35.11700 48.66200 26.54500
C  35.50300 47.85800 27.60100
C  35.28000 48.53200 28.97400
C  34.62700 49.88100 28.55000
C  34.91600 49.91900 27.03400
C  33.10500 50.16100 28.92700
C  36.65400 48.75000 29.73400
C  36.74500 48.55000 31.17900
H  35.45400 48.67200 31.97700
N  35.19700 50.31100 23.97800
C  34.83400 51.27800 24.86100
C  34.51500 52.48300 24.16700
C  34.60900 52.14000 22.75900
C  35.07600 50.77100 22.65600
C  34.10900 53.83300 24.88900
C  34.35500 52.95900 21.46200
O  34.44500 52.64000 20.29200
C  33.87100 54.31200 21.79800
N  35.99600 47.72200 22.42100
C  35.81600 48.60100 21.48500
C  36.20500 47.99000 20.07900
C  36.52600 46.45800 20.40100
C  36.48400 46.54800 21.95800
C  35.11200 48.15700 19.01200
C  37.76900 45.89900 19.81400
C  39.06200 46.41300 20.30300
N  36.44400 46.37200 24.92100
C  36.86000 45.38700 24.17300
C  37.32100 44.32100 25.04400
C  37.01700 44.73300 26.35500
C  36.42500 46.00900 26.19100
C  37.78500 42.99800 24.62600
C  37.01600 44.40100 27.70500
O  37.38400 43.36600 28.26100
C  36.42600 45.57000 28.56200
C  35.39600 44.99400 29.39900
O  34.18200 44.95800 29.20600
O  35.93400 44.66500 30.56800
C  35.00200 44.66800 31.67100
H  34.37600 51.98900 26.81200
H  35.01300 50.39600 20.65000
H  37.26200 44.52700 22.25600
H  34.63500 47.84300 29.51900
H  35.15300 50.72600 28.99500
H  32.66000 50.81400 28.17600
H  33.26200 50.74100 29.83600
H  32.50700 49.25300 28.99900
H  37.10300 49.72600 29.55200
H  37.41700 48.16800 29.21800
H  37.50100 49.22700 31.57500
H  37.10900 47.52500 31.25700
H  34.96400 54.47300 24.67200
H  34.06900 53.60600 25.95400
H  33.17700 54.33300 24.62700
H  34.73100 54.85300 22.19200
H  33.00600 54.27900 22.46100
H  33.47200 54.80900 20.91400
H  37.13700 48.41200 19.70300
H  35.66600 45.80000 20.27100
H  34.39100 48.93900 19.24900
H  34.61500 47.20500 18.82600
H  35.64000 48.37900 18.08500
H  37.50100 46.14300 18.78600
H  37.78600 44.82300 19.98500
H  39.62700 46.77600 19.44500
H  39.80400 45.69900 20.66300
H  39.04800 47.19400 21.06400
H  38.84600 42.94600 24.87200
H  37.68400 42.81200 23.55700
H  37.22600 42.16200 25.04700
H  37.19000 45.98300 29.22100
H  34.41600 43.75400 31.57000
H  34.40000 45.57600 31.69000
H  35.54700 44.67100 32.61500
Mg -2.16100 34.70600 26.82600
C  -4.07700 33.31000 29.38600
C  -1.14200 37.12000 29.00700
C  -0.86500 36.22900 24.24900
C  -3.65500 32.28100 24.66500
N  -2.75200 35.22600 28.93100
C  -3.41700 34.48100 29.82100
C  -3.26100 34.97600 31.28900
C  -2.37900 36.24100 31.14200
C  -2.05400 36.21000 29.63300
C  -3.14600 37.57300 31.56500
C  -2.58500 33.88000 32.11300
C  -2.39000 34.33300 33.60900
H  -2.92100 33.51300 34.77700
N  -1.10100 36.38400 26.68200
C  -0.66700 37.21200 27.65700
C  0.17700 38.28400 27.13500
C  0.12600 38.12700 25.67600
C  -0.54100 36.85200 25.50100
C  0.65200 39.38600 28.00400
C  0.79400 38.98200 24.63400
O  0.63800 38.81500 23.41900
C  1.58400 40.11200 25.14500
N  -2.13400 34.16300 24.73500
C  -1.58900 35.08900 23.86100
C  -1.78900 34.53500 22.46700
C  -2.46700 33.12100 22.59000
C  -2.78200 33.16000 24.06600
C  -2.50300 35.46400 21.47200
C  -1.51200 31.96000 22.24200
C  -0.07700 31.80100 22.73700
N  -3.58800 33.17000 26.91800
C  -4.11900 32.29900 25.98700
C  -5.08700 31.38200 26.63200
C  -5.00800 31.67500 28.00000
C  -4.17500 32.81200 28.07900
C  -5.96500 30.30200 26.04900
C  -5.47700 31.27400 29.26400
O  -6.24400 30.37500 29.44400
C  -4.88300 32.32400 30.32500
C  -5.92000 32.90300 31.14900
O  -6.64100 33.79300 30.83000
O  -5.96600 32.29800 32.36400
C  -7.12000 32.57400 33.24700
H  -0.49400 37.61900 29.73100
H  -0.52100 36.57100 23.27100
H  -4.11900 31.46900 24.10200
H  -4.26800 35.13200 31.67700
H  -1.46700 36.15400 31.73300
H  -3.94100 37.51300 32.30700
H  -3.57000 38.06300 30.68800
H  -2.48700 38.28200 32.06700
H  -1.58500 33.72700 31.70600
H  -3.20700 32.98500 32.12800
H  -2.91800 35.27500 33.76200
H  -1.34500 34.62900 33.70300
H  1.73300 39.51100 27.94400
H  0.59800 39.10300 29.05600
H  0.05700 40.28400 27.84000
H  0.94700 40.77900 25.72500
H  2.13400 40.57700 24.32700
H  2.27100 39.73300 25.90200
H  -0.79100 34.36000 22.06600
H  -3.40300 33.13400 22.03100
H  -3.06300 36.17700 22.07600
H  -3.10700 35.00400 20.68900
H  -1.76600 35.99400 20.86900
H  -1.51200 31.88600 21.15400
H  -1.99800 31.04400 22.57600
H  0.08400 30.91000 23.34400
H  0.32900 32.69400 23.21300
H  0.49900 31.76900 21.81300
H  -5.96100 30.26800 24.95900
H  -6.97000 30.43500 26.45000
H  -5.54500 29.35900 26.40000
H  -4.23700 31.68000 30.92100
H  -7.94400 33.06900 32.73200
H  -7.03000 33.05800 34.21900
H  -7.50400 31.61400 33.59000

