158

Mg 7.44000 2.29300 28.06400
C  9.05100 0.93400 30.78600
C  5.91800 4.59600 30.13900
C  5.93700 3.53500 25.38700
C  9.02100 -0.16300 26.01700
N  7.42300 2.74000 30.30300
C  8.18600 2.02800 31.13800
C  7.89300 2.51600 32.61800
C  6.68900 3.58200 32.34000
C  6.66700 3.68100 30.83600
C  5.31700 3.18200 32.94000
C  9.12300 2.91600 33.39400
C  9.03700 4.03000 34.50200
H  9.96900 3.78100 35.67400
N  6.05500 3.72400 27.85400
C  5.59300 4.60800 28.80700
C  4.72400 5.66800 28.17800
C  4.78600 5.40900 26.81800
C  5.61800 4.15600 26.65100
C  3.98300 6.70200 28.95100
C  4.17000 6.25500 25.68500
O  4.28500 5.96100 24.49600
C  3.55600 7.52900 25.90100
N  7.59800 1.79200 25.99500
C  6.85600 2.49200 25.14000
C  6.95300 1.80100 23.74800
C  8.06800 0.81800 23.90200
C  8.23500 0.72700 25.41400
C  5.60200 1.06900 23.30400
C  9.45500 1.18500 23.29300
C  10.52800 1.88000 24.18600
N  8.65000 0.60200 28.31700
C  9.17200 -0.23900 27.34600
C  10.11100 -1.12700 28.14900
C  10.10700 -0.64600 29.43200
C  9.17200 0.34500 29.49800
C  11.17200 -2.20500 27.54800
C  10.77900 -0.81700 30.74300
O  11.64400 -1.53500 31.17100
C  9.92600 0.11700 31.71000
C  9.06600 -0.79000 32.46600
O  7.99100 -1.31000 32.15000
O  9.49600 -0.75100 33.82500
C  8.50700 -1.18100 34.76200
H  5.61800 5.45400 30.74500
H  5.43000 3.94600 24.51200
H  9.77800 -0.81500 25.57700
H  7.43400 1.66800 33.12500
H  6.90100 4.60900 32.63600
H  4.73700 2.71000 32.14600
H  4.85000 4.10300 33.28600
H  5.31700 2.49100 33.78300
H  9.99500 3.05800 32.75600
H  9.22300 2.09200 34.10000
H  8.02600 4.17000 34.88500
H  9.22500 4.96500 33.97500
H  3.94500 6.48500 30.01900
H  3.03300 6.61300 28.42400
H  4.45200 7.67000 28.77700
H  3.31400 7.98200 24.93900
H  4.17400 8.17200 26.52700
H  2.60600 7.37500 26.41400
H  7.22000 2.49400 22.95000
H  7.85400 -0.23800 23.73400
H  4.84300 1.42600 23.99900
H  5.63900 -0.02000 23.26800
H  5.27200 1.49500 22.35700
H  9.24700 1.82100 22.43300
H  9.72300 0.18900 22.93900
H  9.99700 2.55100 24.86100
H  11.23400 2.53300 23.67200
H  11.09600 1.14400 24.75400
H  11.83300 -2.50800 28.36000
H  11.75400 -1.76000 26.74100
H  10.70400 -3.12900 27.20700
H  10.48500 0.77300 32.37800
H  7.56000 -0.65600 34.63300
H  8.92000 -1.00200 35.75500
H  8.41100 -2.25900 34.63500
Mg 48.47500 35.83300 28.43300
C  46.53300 33.87100 30.55900
C  48.74900 38.25100 30.80200
C  49.77100 37.93800 26.09300
C  48.25300 33.32600 25.98800
N  47.61700 36.03000 30.39000
C  47.11300 35.05900 31.15900
C  47.43200 35.30000 32.62100
C  47.60900 36.85800 32.60000
C  48.09000 37.09900 31.21300
C  46.40900 37.79200 33.01500
C  48.72400 34.54300 33.03500
C  49.09500 34.37300 34.50700
H  48.29800 35.21700 35.55900
N  49.37100 37.70700 28.51900
C  49.34800 38.49200 29.61400
C  49.98300 39.77400 29.28900
C  50.30600 39.72100 27.91300
C  49.75700 38.44300 27.44500
C  50.37100 40.84600 30.31100
C  51.04600 40.72100 27.19200
O  51.32000 40.41300 26.04600
C  51.47900 42.03400 27.82200
N  48.88900 35.66100 26.34700
C  49.38500 36.66700 25.56100
C  49.69600 36.09200 24.11900
C  49.47300 34.65000 24.29900
C  48.86500 34.51700 25.62600
C  48.73200 36.76500 23.11800
C  50.86100 33.86800 24.21200
C  50.94800 32.73200 23.16500
N  47.49600 33.95300 28.23700
C  47.55500 32.99200 27.19700
C  46.63100 31.97600 27.52000
C  46.21100 32.24100 28.83800
C  46.84300 33.42300 29.22800
C  46.33000 30.82500 26.60500
C  45.40300 31.77700 29.97400
O  44.64000 30.80800 30.06200
C  45.69900 32.76000 31.14000
C  46.42800 32.01000 32.20200
O  47.48200 31.38000 32.02000
O  45.82600 32.20100 33.48300
C  46.55600 31.79000 34.64600
H  48.89100 38.96500 31.61600
H  50.20400 38.49000 25.25600
H  48.32700 32.59100 25.18300
H  46.53200 35.16800 33.22200
H  48.42300 37.23000 33.22200
H  45.55100 37.15000 33.21500
H  46.08600 38.42500 32.18900
H  46.85500 38.39600 33.80500
H  49.54500 35.00000 32.48300
H  48.56900 33.49600 32.77200
H  50.15900 34.55100 34.66300
H  49.10000 33.30400 34.71900
H  51.43600 41.07000 30.24600
H  50.01200 40.65400 31.32300
H  49.74800 41.72600 30.15000
H  50.64300 42.52100 28.32400
H  51.78500 42.59800 26.94100
H  52.31100 41.87900 28.50800
H  50.68600 36.33100 23.73100
H  48.79200 34.25500 23.54500
H  49.28800 37.03800 22.22100
H  48.33200 37.71200 23.48300
H  47.94400 36.02300 22.99100
H  51.08500 33.50200 25.21400
H  51.63300 34.61600 24.03100
H  51.84100 32.17300 23.44600
H  51.05700 33.21800 22.19500
H  50.07700 32.11300 23.38100
H  45.49000 30.17800 26.85800
H  47.28400 30.30200 26.53300
H  46.04900 31.19200 25.61800
H  44.74200 33.11200 31.52400
H  46.73700 32.66200 35.27400
H  47.50500 31.30800 34.41400
H  45.84800 31.11100 35.12200

