158

Mg 43.43700 3.82200 46.88500
C  41.39000 6.73700 46.61300
C  40.69000 1.92600 46.88900
C  45.30300 1.14800 46.10000
C  46.27400 5.83000 46.42500
N  41.35800 4.36100 46.89100
C  40.71300 5.56500 46.76400
C  39.22100 5.47500 46.95700
C  39.00100 3.96300 47.25400
C  40.44900 3.35300 47.02700
C  38.24600 3.54000 48.56500
C  38.34700 5.97200 45.72800
C  38.57600 5.38800 44.31200
H  39.33800 6.28200 43.40200
N  43.04900 1.78500 46.64000
C  41.82900 1.19300 46.62500
C  41.94100 -0.22500 46.34200
C  43.32900 -0.48000 46.10900
C  43.95900 0.83200 46.23900
C  40.71900 -1.20400 46.42700
C  43.93900 -1.80400 45.76000
O  43.23200 -2.78200 45.71300
C  45.35900 -1.97500 45.29100
N  45.60400 3.55300 46.56900
C  46.06500 2.28000 46.32700
C  47.58900 2.30100 46.40000
C  47.91500 3.87400 46.20900
C  46.54400 4.48100 46.39100
C  48.23900 1.55800 47.65700
C  48.67500 4.25900 44.88200
C  50.22300 4.32100 44.95400
N  43.84000 5.87600 46.64000
C  45.03100 6.54100 46.53700
C  44.72500 7.96400 46.54000
C  43.32200 8.04200 46.53500
C  42.85300 6.74800 46.55200
C  45.75500 9.09500 46.66100
C  42.22900 8.96800 46.42800
O  42.26800 10.13900 46.26200
C  40.91900 8.18600 46.51500
C  40.26400 8.58300 47.78300
O  40.45600 8.10900 48.89800
O  39.26900 9.51500 47.45300
C  38.44500 9.86800 48.62500
H  39.74400 1.38700 46.80700
H  45.89300 0.24500 45.93100
H  47.18800 6.38600 46.20600
H  39.00900 5.97600 47.90200
H  38.42700 3.40600 46.51300
H  37.72300 4.38500 49.01300
H  38.87600 3.23000 49.39800
H  37.55000 2.71200 48.42500
H  38.34900 7.04800 45.55300
H  37.27400 5.95000 45.91700
H  37.55200 5.17500 44.00400
H  39.13500 4.45300 44.30900
H  40.45800 -1.48500 45.40600
H  39.85000 -0.69400 46.84200
H  40.88200 -2.05900 47.08300
H  46.04000 -1.81800 46.12700
H  45.57400 -1.41500 44.38100
H  45.50500 -3.01500 44.99600
H  47.85100 1.70400 45.52600
H  48.55600 4.27900 46.99200
H  48.79100 0.69400 47.28700
H  47.59100 1.09200 48.39900
H  48.85300 2.25200 48.23100
H  48.36200 5.24800 44.54700
H  48.38800 3.60300 44.06000
H  50.52700 3.75100 45.83200
H  50.47200 5.38100 44.91000
H  50.63300 3.78900 44.09500
H  46.26600 9.08900 45.69800
H  46.47400 8.84700 47.44200
H  45.17000 9.98000 46.91000
H  40.18800 8.28500 45.71300
H  37.71600 9.06800 48.75300
H  37.95300 10.78600 48.30600
H  38.98200 10.15300 49.53000
Mg 47.40400 16.57500 28.58300
C  45.32700 15.97100 31.37300
C  49.70000 17.89300 30.82100
C  49.31500 17.30700 25.97000
C  44.83600 15.55800 26.51700
N  47.49700 16.92900 30.82700
C  46.51900 16.56900 31.70100
C  46.89100 16.96000 33.16100
C  48.17700 17.80400 32.95300
C  48.49500 17.51000 31.45800
C  48.03300 19.35400 33.29800
C  47.08600 15.76500 34.19800
C  46.15400 15.69300 35.41100
H  45.59300 16.96900 35.92500
N  49.28900 17.40700 28.44100
C  50.10800 17.78400 29.49000
C  51.39800 18.16300 28.93100
C  51.30200 18.04300 27.51400
C  49.94400 17.49100 27.23400
C  52.52800 18.55000 29.84700
C  52.30100 18.35400 26.46700
O  52.12800 18.11700 25.23200
C  53.72900 18.84900 26.79200
N  47.04700 16.53100 26.59100
C  47.99600 16.99200 25.70400
C  47.50300 16.87100 24.28300
C  46.18500 16.12400 24.43600
C  45.99000 16.02900 25.89700
C  47.38100 18.23900 23.57500
C  46.04400 14.69300 23.75100
C  46.61800 13.45100 24.40900
N  45.57100 15.74800 28.84700
C  44.61800 15.42600 27.91900
C  43.45000 14.87400 28.62300
C  43.78000 14.92000 29.95600
C  45.03800 15.60000 30.02900
C  42.16400 14.30200 28.11500
C  43.24200 14.77800 31.26800
O  42.13900 14.32900 31.51300
C  44.20600 15.44600 32.26200
C  43.39500 16.47200 32.94100
O  43.17500 17.63400 32.56400
O  42.80500 15.88000 33.95500
C  41.68400 16.65300 34.50300
H  50.41500 18.33700 31.51700
H  49.91600 17.44500 25.06900
H  44.00900 15.26800 25.86600
H  46.01300 17.52700 33.47000
H  49.02100 17.46000 33.55200
H  47.09100 19.57400 33.80000
H  48.18300 19.97100 32.41100
H  48.87900 19.60500 33.93800
H  48.13000 15.78700 34.51100
H  47.04500 14.85100 33.60600
H  46.70700 15.26400 36.24700
H  45.38600 14.99400 35.07800
H  52.28500 19.07600 30.77000
H  53.33500 19.11800 29.38300
H  53.00700 17.59500 30.06800
H  53.70500 19.84200 27.24100
H  54.40400 18.84600 25.93600
H  54.02100 18.11600 27.54500
H  48.12400 16.10400 23.82100
H  45.40400 16.77900 24.05000
H  46.39100 18.34600 23.13000
H  48.04700 18.08800 22.72600
H  47.75900 19.09600 24.13200
H  46.56300 14.81200 22.80000
H  44.98400 14.49600 23.59100
H  47.38600 13.71700 25.13500
H  47.13800 12.79400 23.71100
H  45.88100 12.86500 24.95800
H  42.40300 13.32600 27.69400
H  41.74300 14.88200 27.29300
H  41.43200 14.03200 28.87600
H  44.52700 14.61100 32.88500
H  42.05800 17.57900 34.94000
H  41.17500 15.93800 35.14900
H  41.02700 16.84500 33.65500

