158

Mg 47.54300 44.86300 43.56100
C  44.10500 43.90000 43.38100
C  48.31400 41.55100 43.32100
C  50.55500 45.91700 43.02000
C  46.24900 48.22800 43.16400
N  46.31200 42.99800 43.53200
C  44.96000 42.79300 43.44400
C  44.53000 41.29500 43.50900
C  45.92900 40.62100 43.67200
C  46.90100 41.76700 43.39200
C  46.05700 40.08400 45.06600
C  43.97300 41.04800 41.95500
C  44.92700 41.37700 40.76600
H  44.87700 40.51100 39.47500
N  49.26900 43.84200 43.25200
C  49.35300 42.47900 43.25200
C  50.73000 42.12500 43.14600
C  51.43700 43.35400 42.81900
C  50.45300 44.46600 42.96700
C  51.26800 40.73300 43.00500
C  52.90700 43.48200 42.40300
O  53.65400 42.51800 42.29700
C  53.45800 44.79100 42.02000
N  48.26300 46.76100 43.04300
C  49.53100 46.91900 43.13100
C  49.91700 48.43900 43.31200
C  48.49300 49.15100 43.26900
C  47.60700 47.96900 43.06300
C  50.76100 48.82500 44.54600
C  48.37100 50.23800 42.11500
C  48.11600 51.67400 42.65000
N  45.62900 45.89600 43.42500
C  45.30500 47.26500 43.39000
C  43.87000 47.48100 43.45000
C  43.36200 46.17000 43.46300
C  44.45000 45.26700 43.37800
C  43.01900 48.82000 43.48300
C  42.11400 45.42700 43.48600
O  40.95700 45.77600 43.52300
C  42.58900 43.91000 43.37600
C  41.98800 43.16000 44.52800
O  42.07900 43.45500 45.71100
O  41.23800 42.10600 44.06400
C  40.47100 41.34000 45.05100
H  48.67900 40.52500 43.24100
H  51.54700 46.37100 42.98400
H  45.91500 49.26700 43.19900
H  43.79400 41.10500 44.29000
H  46.03600 39.77800 42.98900
H  46.04800 38.99600 45.12300
H  45.21200 40.40300 45.67700
H  46.96500 40.44500 45.54900
H  43.04200 41.58800 41.78400
H  43.63900 40.01100 41.97500
H  45.96900 41.42600 41.08400
H  44.65700 42.36300 40.38800
H  51.60200 40.44700 42.00800
H  50.61200 39.95500 43.39500
H  52.18300 40.66700 43.59300
H  52.75700 45.27900 41.34200
H  54.40500 44.69400 41.49000
H  53.57700 45.52700 42.81600
H  50.41200 48.74800 42.39100
H  48.30000 49.51300 44.27900
H  50.54400 49.82200 44.92900
H  51.78100 48.66400 44.19600
H  50.50400 48.12200 45.33900
H  47.50900 50.19300 41.45000
H  49.24200 50.11700 41.47200
H  49.10900 52.11500 42.56600
H  47.87400 51.68800 43.71300
H  47.36300 52.25900 42.12200
H  43.36000 49.41400 44.33100
H  41.98900 48.49300 43.62800
H  43.06800 49.35700 42.53500
H  42.28100 43.44900 42.43800
H  39.57900 41.88700 45.35300
H  41.15700 41.00800 45.83000
H  40.19500 40.41600 44.54300
Mg 35.80300 48.62700 25.22400
C  35.89400 47.06600 28.26300
C  34.32800 51.27800 26.64700
C  35.20800 49.73400 22.14300
C  37.11200 45.61800 23.76000
N  35.35300 49.17800 27.20700
C  35.56700 48.41200 28.33300
C  35.22600 49.14500 29.72300
C  34.61700 50.40900 29.06100
C  34.84400 50.36300 27.57700
C  33.24900 50.96000 29.59500
C  36.54700 49.18300 30.63600
C  36.27200 48.92300 32.12500
H  35.89500 50.15600 32.96600
N  34.92400 50.37700 24.51000
C  34.38600 51.33600 25.23500
C  34.06000 52.49500 24.34100
C  34.27500 52.01100 23.00500
C  34.84200 50.64100 23.15700
C  33.52300 53.75100 24.88900
C  33.86400 52.55100 21.60100
O  34.02000 52.01800 20.51200
C  33.16100 53.85900 21.52400
N  36.18200 47.76300 23.21300
C  35.69000 48.43200 22.15900
C  35.75000 47.54700 20.89300
C  36.76800 46.46500 21.28100
C  36.76800 46.56900 22.83900
C  34.34500 46.95300 20.53800
C  38.26200 46.61300 20.76600
C  38.46600 46.05800 19.36800
N  36.43300 46.73500 25.83600
C  36.94900 45.61300 25.14400
C  37.09300 44.47600 25.99200
C  36.61300 44.94000 27.27800
C  36.25100 46.33100 27.13100
C  37.53400 43.06100 25.58100
C  36.34500 44.60400 28.71100
O  36.50500 43.56000 29.38100
C  35.96000 46.00400 29.36500
C  34.65400 45.78300 30.09000
O  33.58000 45.93500 29.60300
O  34.97100 45.47700 31.43000
C  33.69700 45.13300 32.16900
H  33.90000 52.18100 27.08600
H  34.96800 50.19500 21.18300
H  37.45600 44.67100 23.33800
H  34.44400 48.54000 30.18200
H  35.37100 51.10300 29.43000
H  32.43100 50.93000 28.87500
H  33.31200 52.02100 29.83600
H  32.93900 50.42000 30.49000
H  36.96200 50.18800 30.56800
H  37.33100 48.56200 30.20400
H  37.25700 48.63800 32.49600
H  35.65700 48.05400 32.36000
H  33.44700 54.49300 24.09400
H  34.30500 54.18900 25.50800
H  32.61800 53.54300 25.46100
H  32.23500 53.78100 22.09300
H  33.07900 54.25100 20.51000
H  33.71200 54.66800 22.00300
H  36.11100 48.11600 20.03600
H  36.42900 45.46100 21.02400
H  33.89400 47.38000 19.64200
H  33.68700 47.20000 21.37100
H  34.38500 45.86500 20.49400
H  38.95300 46.10300 21.43700
H  38.59200 47.64800 20.85100
H  38.47300 46.80600 18.57500
H  37.63600 45.37800 19.18000
H  39.37200 45.45400 19.40100
H  37.71600 43.12300 24.50800
H  36.90300 42.19000 25.76000
H  38.47400 42.88700 26.10400
H  36.68100 46.21200 30.15600
H  33.87500 44.95000 33.22900
H  33.10100 44.28600 31.82800
H  33.08300 46.03200 32.13200

