158

Mg 30.39100 58.52100 39.09900
C  27.40700 56.66500 37.77000
C  32.22600 55.81100 37.93500
C  33.09900 60.33800 39.22000
C  28.35500 61.35400 39.23800
N  29.76500 56.36100 38.28300
C  28.59400 55.91000 37.82900
C  28.77300 54.52700 37.19000
C  30.26800 54.19900 37.50300
C  30.82000 55.49100 38.02000
C  30.48100 53.08600 38.52700
C  28.43300 54.50300 35.66800
C  27.62200 53.25000 35.21900
H  26.88300 53.39500 33.91800
N  32.38500 58.05300 38.75500
C  32.92600 56.90100 38.31600
C  34.41100 56.95800 38.25500
C  34.65100 58.37200 38.51800
C  33.35000 58.99700 38.85600
C  35.36600 55.87700 37.91900
C  36.01900 59.02500 38.57300
O  36.95500 58.35900 38.08100
C  36.35600 60.45700 39.02900
N  30.67500 60.50200 39.07100
C  31.87200 61.05000 39.26300
C  31.81000 62.51600 39.75700
C  30.32300 62.82900 39.65000
C  29.72500 61.47700 39.30500
C  32.35500 62.80200 41.16700
C  30.00100 63.98200 38.63700
C  28.89400 64.98100 39.00200
N  28.25500 58.91200 38.79200
C  27.69300 60.12700 38.83400
C  26.29900 59.99600 38.46000
C  26.11300 58.69000 37.93700
C  27.30100 58.00100 38.22100
C  25.37600 61.14800 38.39300
C  25.29300 57.73200 37.28000
O  24.16000 57.95600 36.79000
C  26.08600 56.37800 37.18600
C  25.45100 55.25500 37.99800
O  25.43900 55.07900 39.21200
O  25.03700 54.34100 37.04300
C  24.74600 53.03900 37.67600
H  32.71000 54.84400 37.78100
H  33.96100 60.97100 39.44200
H  27.71900 62.22800 39.39700
H  28.10500 53.82900 37.69500
H  30.83200 53.95200 36.60400
H  30.45300 52.10100 38.06200
H  29.73500 53.17200 39.31700
H  31.52000 53.18600 38.83900
H  29.39900 54.45300 35.16500
H  27.98600 55.45400 35.37900
H  26.78300 53.04100 35.88300
H  28.35800 52.45700 35.08200
H  35.37900 55.66000 36.85100
H  34.90900 54.96800 38.31100
H  36.39500 56.03300 38.24300
H  37.44000 60.56700 39.08100
H  35.90900 60.76100 39.97600
H  36.02800 61.18500 38.28800
H  32.34800 63.18300 39.08300
H  29.89700 63.07000 40.62400
H  32.52700 61.86000 41.68600
H  31.79100 63.57200 41.69300
H  33.32200 63.24800 40.93500
H  29.86800 63.54400 37.64800
H  30.87000 64.63600 38.55700
H  28.37700 64.45900 39.80700
H  28.38900 65.25700 38.07700
H  29.20300 65.96900 39.34300
H  25.28600 61.54000 37.38000
H  25.59200 62.00800 39.02700
H  24.35000 60.81600 38.55100
H  26.12100 56.13900 36.12300
H  24.30600 52.35300 36.95200
H  24.04700 53.10000 38.51000
H  25.61200 52.58100 38.15500
Mg 35.22700 48.61000 24.95500
C  35.52100 47.16500 28.21400
C  33.83800 51.34500 26.51800
C  34.74400 49.87500 22.01800
C  36.21900 45.55500 23.67100
N  34.75400 49.11500 27.11500
C  35.10400 48.50000 28.26400
C  34.79500 49.33100 29.47100
C  34.08700 50.57000 28.88600
C  34.11900 50.30700 27.39600
C  32.61700 50.89200 29.40900
C  36.01100 49.61100 30.41600
C  35.82500 49.20600 31.82200
H  34.58700 49.48400 32.62400
N  34.64700 50.43500 24.39100
C  34.06000 51.43400 25.14500
C  33.71900 52.55900 24.33500
C  33.96800 52.12600 23.00200
C  34.52900 50.78200 23.09300
C  33.49400 53.99800 24.89400
C  33.70200 52.96900 21.75300
O  34.11700 52.64400 20.63500
C  33.16300 54.34300 21.83500
N  35.34000 47.74400 23.02800
C  35.15100 48.53200 21.95300
C  35.92300 47.83600 20.71900
C  36.50500 46.47700 21.30000
C  36.05700 46.61400 22.78400
C  34.93600 47.83500 19.53000
C  38.04700 46.24800 21.14400
C  38.58200 45.94800 19.75300
N  35.60800 46.65400 25.73600
C  36.02000 45.55800 25.09200
C  36.26300 44.42600 25.94200
C  36.04100 45.01300 27.26200
C  35.70800 46.38200 27.04700
C  36.59700 43.07800 25.51400
C  36.01200 44.76800 28.71300
O  36.24500 43.70800 29.29000
C  35.64800 46.19700 29.35500
C  34.36600 45.92800 30.03500
O  33.25100 45.87500 29.51400
O  34.68200 45.61000 31.34600
C  33.56400 45.03900 32.10400
H  33.28900 52.12400 27.05300
H  34.73700 50.36200 21.04100
H  36.63900 44.63500 23.26000
H  34.03000 48.80500 30.04300
H  34.76700 51.41300 29.01000
H  32.12500 50.02000 29.83900
H  32.04400 51.39400 28.62900
H  32.80500 51.61000 30.20800
H  36.33000 50.65300 30.38500
H  36.85700 49.02900 30.05200
H  36.66800 49.40200 32.48400
H  35.89400 48.11800 31.80000
H  34.28500 54.66100 24.54500
H  33.61700 54.11300 25.97100
H  32.55100 54.45500 24.59200
H  33.90200 55.04100 22.23000
H  32.14200 54.42000 22.20900
H  33.13400 54.70600 20.80800
H  36.79100 48.48400 20.59800
H  35.90400 45.63500 20.95700
H  33.89300 47.80300 19.84600
H  35.23300 46.98600 18.91500
H  35.02200 48.73000 18.91300
H  38.24100 45.34500 21.72200
H  38.60500 47.04600 21.63500
H  39.44700 46.61100 19.77800
H  37.89600 46.20600 18.94700
H  39.02000 44.95300 19.67800
H  36.30900 42.85000 24.48800
H  36.14100 42.34800 26.18200
H  37.67900 42.94900 25.54700
H  36.52600 46.36800 29.97800
H  33.52100 45.38100 33.13800
H  33.73200 43.96300 32.09000
H  32.64300 45.30300 31.58400

