158

Mg 42.08800 40.91300 26.78800
C  40.87000 43.15900 29.26300
C  43.17200 38.84700 29.27100
C  43.14000 38.90200 24.42000
C  41.32200 43.38800 24.35900
N  42.05200 41.05200 29.02100
C  41.46100 42.02200 29.80400
C  41.68800 41.83400 31.34200
C  42.51700 40.43600 31.30500
C  42.57600 40.04900 29.80400
C  43.95700 40.52300 31.84900
C  40.26900 41.67500 32.01700
C  40.08500 42.50100 33.24200
H  39.69500 41.72700 34.52600
N  42.94800 39.00100 26.84600
C  43.29000 38.31100 28.01200
C  43.87300 36.97100 27.64000
C  43.81700 37.00100 26.23500
C  43.31500 38.35800 25.78000
C  44.35900 35.94700 28.63600
C  44.17100 35.96500 25.27500
O  44.31700 36.21600 24.10200
C  44.40000 34.55200 25.70400
N  42.25200 41.10900 24.74200
C  42.72100 40.15000 23.93100
C  42.66900 40.50800 22.42100
C  42.03800 41.90000 22.42200
C  41.83800 42.13600 23.91700
C  44.01100 40.30000 21.68000
C  40.64200 41.96800 21.70300
C  40.36700 43.18700 20.83100
N  41.33200 42.84600 26.77100
C  41.05100 43.73800 25.71300
C  40.43100 44.87100 26.24300
C  40.29900 44.67100 27.60800
C  40.90100 43.47800 27.90900
C  39.91500 45.94600 25.34400
C  39.75100 45.30400 28.82800
O  39.08800 46.33300 28.98000
C  40.19100 44.34000 30.01200
C  41.01200 45.22100 30.80800
O  42.19000 45.41200 30.63200
O  40.35500 45.75600 31.88400
C  41.23100 46.45500 32.93600
H  43.32300 38.09300 30.04600
H  43.56400 38.24300 23.65900
H  41.17900 44.11900 23.56000
H  42.32600 42.61000 31.76500
H  41.98500 39.72700 31.93900
H  44.35900 41.44200 32.27600
H  44.68900 40.24700 31.08900
H  43.96600 39.82000 32.68200
H  40.13600 40.60300 32.16200
H  39.47400 41.87300 31.29900
H  39.22200 43.16000 33.14900
H  40.99800 43.05900 33.45000
H  43.96000 34.97200 28.35700
H  44.18700 36.16700 29.69000
H  45.44500 35.95600 28.55100
H  45.36700 34.42300 26.19000
H  44.45700 33.86800 24.85700
H  43.62900 34.13400 26.35200
H  41.95300 39.76100 22.07800
H  42.76500 42.69900 22.27000
H  44.43700 41.23800 21.32400
H  43.60700 39.67400 20.88500
H  44.67200 39.85800 22.42500
H  39.79400 41.71400 22.34000
H  40.70600 41.13700 21.00100
H  41.16700 43.90800 20.99600
H  39.45900 43.64600 21.22200
H  40.27200 42.88600 19.78800
H  39.60200 45.62200 24.35100
H  40.68700 46.70400 25.20500
H  38.99700 46.31400 25.80100
H  39.34700 44.11600 30.66500
H  40.52100 47.18100 33.33300
H  42.08700 47.02800 32.58000
H  41.62800 45.68400 33.59600
Mg 9.00700 48.79600 25.89200
C  6.91400 49.02800 28.64500
C  11.74200 49.79400 27.96600
C  11.15200 48.33000 23.35600
C  6.35100 48.23600 23.84900
N  9.30600 49.40500 28.05400
C  8.31800 49.20800 29.02000
C  8.95400 49.46200 30.44200
C  10.40100 50.06500 30.10500
C  10.51800 49.75900 28.61300
C  10.67000 51.57500 30.49000
C  9.11800 48.24100 31.43400
C  8.80700 48.50500 32.86800
H  8.58500 47.28800 33.66800
N  11.12100 49.02400 25.63400
C  12.02900 49.47200 26.63600
C  13.40100 49.43300 26.06200
C  13.27800 48.95500 24.72600
C  11.81100 48.73500 24.49100
C  14.66900 49.81700 26.80300
C  14.37900 48.72200 23.70000
O  14.10300 48.20600 22.63400
C  15.89100 49.03400 24.00500
N  8.75900 48.63000 23.80800
C  9.73100 48.26000 23.03800
C  9.24300 47.80200 21.62600
C  7.68300 47.84900 21.75900
C  7.59500 48.27900 23.22700
C  9.83000 48.77900 20.46600
C  6.95300 46.50800 21.48000
C  5.64500 46.72800 20.70900
N  7.05800 48.65200 26.08700
C  6.04500 48.44500 25.16900
C  4.75700 48.40900 25.80400
C  5.03400 48.70400 27.23200
C  6.43400 48.77500 27.31500
C  3.52600 48.09000 25.08700
C  4.45900 48.89400 28.54900
O  3.28400 48.78400 28.98000
C  5.68900 49.10900 29.50400
C  5.58600 48.06200 30.52600
O  5.76800 46.88700 30.43800
O  5.23300 48.76600 31.74800
C  4.91400 47.98900 32.94200
H  12.47200 50.12400 28.70800
H  11.87500 48.05200 22.58600
H  5.46700 48.11400 23.21900
H  8.38700 50.19000 31.02300
H  11.25200 49.62200 30.62200
H  11.16100 51.68100 31.45700
H  9.66200 51.94300 30.67900
H  11.09600 52.18600 29.69400
H  10.12600 47.84000 31.54100
H  8.54900 47.39300 31.05200
H  7.89900 49.09900 32.97600
H  9.58700 49.11100 33.33000
H  15.25400 48.91800 26.99400
H  14.45600 50.33300 27.74000
H  15.19400 50.58000 26.22800
H  16.41700 49.02500 23.05100
H  16.30400 48.32300 24.72100
H  15.93700 50.03400 24.43700
H  9.70700 46.81800 21.56700
H  7.12000 48.54500 21.13700
H  9.35400 49.74600 20.62400
H  9.69800 48.33300 19.48000
H  10.90800 48.84800 20.61500
H  6.81300 45.82500 22.31800
H  7.59600 45.83200 20.91600
H  5.77900 46.05900 19.85900
H  5.56600 47.75900 20.36400
H  4.75300 46.47400 21.28200
H  3.21500 48.91000 24.43900
H  2.94400 47.77400 25.95300
H  3.73400 47.26700 24.40300
H  5.49700 50.10000 29.91600
H  5.83700 47.47900 33.21800
H  4.15400 47.25200 32.68200
H  4.52100 48.54600 33.79200

