158

Mg 47.83700 15.99200 27.97100
C  45.54800 16.00800 30.76200
C  49.87800 18.17400 29.93300
C  49.92100 16.34200 25.37700
C  45.43600 14.60400 26.04900
N  47.67000 17.01300 30.12500
C  46.76600 16.65800 31.11900
C  47.19100 17.20500 32.49300
C  48.38900 18.15100 32.05000
C  48.76800 17.69300 30.66100
C  48.06900 19.74500 32.11300
C  47.59000 16.05500 33.35300
C  47.54200 16.53500 34.84300
H  48.85100 16.21600 35.70600
N  49.70800 16.97900 27.69800
C  50.36200 17.81700 28.60300
C  51.56400 18.31900 28.01800
C  51.63700 17.70700 26.72400
C  50.45700 16.92000 26.53500
C  52.47200 19.25600 28.69300
C  52.76100 17.86700 25.70200
O  52.83400 17.28200 24.65900
C  53.83700 18.97900 25.92000
N  47.69100 15.56000 25.99900
C  48.70600 15.75900 25.12400
C  48.36000 15.20400 23.69300
C  46.99200 14.59200 23.97700
C  46.63300 14.91200 25.42500
C  48.34500 16.20100 22.52300
C  46.91300 13.07600 23.70500
C  47.16600 12.65100 22.29000
N  45.89300 15.36200 28.26700
C  45.10100 14.74900 27.38100
C  43.91900 14.40500 28.06800
C  44.01900 14.88600 29.39900
C  45.26000 15.52500 29.41800
C  42.77600 13.60000 27.48300
C  43.32100 14.93500 30.72100
O  42.24600 14.58100 31.14400
C  44.38400 15.63200 31.66400
C  43.63400 16.80600 32.28700
O  43.48800 17.84600 31.76300
O  43.08700 16.44100 33.50400
C  42.08200 17.42700 34.05000
H  50.60700 18.69000 30.56100
H  50.50200 16.34000 24.45200
H  44.72400 14.12600 25.37200
H  46.45900 17.89300 32.91600
H  49.27000 17.94300 32.65700
H  48.78600 20.27800 32.73700
H  47.14400 20.00500 32.62800
H  48.10300 20.28700 31.16800
H  48.61300 15.84200 33.04200
H  46.98300 15.16000 33.21600
H  46.77200 15.95200 35.34900
H  47.19400 17.56500 34.92500
H  52.60900 20.21700 28.19700
H  53.46600 18.80800 28.70900
H  52.37000 19.37200 29.77200
H  54.56700 18.72500 26.68900
H  53.33900 19.87100 26.30200
H  54.25900 19.05000 24.91800
H  49.05100 14.39800 23.44400
H  46.19300 15.06200 23.40400
H  48.30600 17.14200 23.07100
H  47.45000 16.00500 21.93400
H  49.20800 16.07000 21.87000
H  45.89700 12.74800 23.92300
H  47.53000 12.52100 24.41200
H  47.25100 13.52800 21.64900
H  46.40700 12.00400 21.85100
H  48.08000 12.07000 22.16700
H  43.17600 13.01800 26.65300
H  41.98500 14.29800 27.21000
H  42.33300 12.85000 28.13900
H  44.62700 14.89400 32.42800
H  41.51800 17.96900 33.29100
H  42.60400 18.12100 34.70900
H  41.43500 16.80100 34.66400
Mg 16.54600 51.31300 24.72500
C  18.20600 50.30100 27.69500
C  14.06900 52.54100 26.68000
C  14.93400 52.19400 21.81500
C  19.06400 49.98100 23.00400
N  16.17000 51.46200 26.95800
C  17.03400 51.03800 27.97000
C  16.52300 51.43900 29.34900
C  15.06400 51.82900 28.91600
C  15.05600 51.93900 27.43300
C  13.83500 50.92700 29.44300
C  17.33200 52.58500 29.99900
C  17.42400 52.60000 31.55300
H  16.31100 51.84900 32.23300
N  14.79300 52.32000 24.27200
C  13.90100 52.73800 25.21400
C  12.80400 53.32100 24.59400
C  13.03100 53.25600 23.17500
C  14.26200 52.61300 23.00700
C  11.60500 53.92800 25.29400
C  12.26600 53.81700 21.99100
O  12.70100 53.78000 20.90300
C  10.97700 54.47300 22.14700
N  16.87300 51.02200 22.73100
C  16.12300 51.45300 21.71800
C  16.73900 51.07300 20.36300
C  18.17000 50.65700 20.69200
C  18.02100 50.53800 22.23200
C  16.08600 50.04800 19.41000
C  19.29700 51.63100 20.31200
C  20.35500 51.05100 19.31900
N  18.22000 50.22000 25.18200
C  19.21000 49.76500 24.34700
C  20.27700 49.11400 25.02500
C  19.91000 49.34000 26.35500
C  18.66400 49.96600 26.39700
C  21.61100 48.61400 24.57500
C  20.32200 49.16200 27.75600
O  21.33600 48.59100 28.18500
C  19.16100 49.69800 28.67200
C  18.61100 48.56800 29.46600
O  18.15200 47.48200 29.10200
O  18.74300 48.95400 30.77000
C  18.42400 47.91700 31.83900
H  13.29400 52.95600 27.32800
H  14.51100 52.43500 20.83700
H  19.92400 49.59800 22.45000
H  16.54600 50.59600 30.03900
H  14.92300 52.83200 29.32000
H  13.30700 51.56500 30.15200
H  14.26500 50.16400 30.09100
H  13.33200 50.51500 28.56900
H  16.96000 53.57100 29.71900
H  18.36700 52.68100 29.67300
H  17.42700 53.63900 31.88400
H  18.38800 52.22500 31.89700
H  10.76600 53.23500 25.22700
H  11.37600 54.90100 24.86000
H  11.91300 54.16600 26.31200
H  10.36000 53.93800 22.86900
H  10.32500 54.34000 21.28400
H  11.04900 55.54800 22.31000
H  16.71800 51.96700 19.73900
H  18.38900 49.66000 20.31000
H  15.01600 50.04300 19.61900
H  16.44900 49.02900 19.54400
H  16.10000 50.40300 18.37900
H  19.85800 51.83800 21.22300
H  18.95000 52.58200 19.90700
H  21.32700 50.94500 19.80100
H  20.38100 51.67000 18.42200
H  19.95000 50.07500 19.04900
H  22.25100 49.42200 24.22000
H  21.50300 47.96200 23.70900
H  22.02900 47.93500 25.31800
H  19.51800 50.48000 29.34200
H  19.15400 47.10800 31.80700
H  17.40500 47.54900 31.72000
H  18.59800 48.43200 32.78400

