158

Mg 24.50200 -4.99800 46.10700
C  26.41900 -2.74900 44.23600
C  21.96100 -4.37000 43.99200
C  23.05500 -7.75100 47.38600
C  27.48900 -5.74200 47.97000
N  24.27200 -3.79900 44.23800
C  25.12400 -2.85400 43.73100
C  24.59900 -2.11900 42.56200
C  23.04400 -2.41600 42.67800
C  23.02200 -3.57400 43.73700
C  22.09900 -1.24400 43.05400
C  25.34200 -2.59000 41.22000
C  25.98800 -1.50700 40.29600
H  25.81200 -1.56600 38.71400
N  22.68000 -5.93600 45.74900
C  21.74300 -5.40900 44.93000
C  20.51500 -6.13900 45.06200
C  20.83500 -7.24900 45.99200
C  22.28300 -7.01100 46.45400
C  19.25500 -5.81900 44.26500
C  19.93400 -8.38700 46.41500
O  18.86800 -8.48400 45.76500
C  20.24000 -9.50100 47.30900
N  25.17900 -6.58100 47.39100
C  24.37500 -7.52800 47.88100
C  25.04000 -8.25700 49.05800
C  26.34100 -7.53000 49.21800
C  26.37200 -6.57400 48.08300
C  24.28800 -8.57200 50.33400
C  27.59200 -8.43100 49.28100
C  27.50300 -9.64700 50.22200
N  26.49400 -4.43700 46.20000
C  27.56100 -4.71500 46.97700
C  28.72300 -3.86900 46.78800
C  28.27800 -3.09900 45.70400
C  26.94700 -3.47300 45.39600
C  29.98300 -3.82100 47.63600
C  28.67500 -2.00700 44.75900
O  29.73800 -1.46700 44.48500
C  27.56900 -1.77700 43.80100
C  27.07100 -0.36700 44.03100
O  26.24600 -0.03900 44.84000
O  27.50900 0.36200 43.01700
C  26.76200 1.67200 42.81400
H  21.13100 -4.11100 43.33200
H  22.59700 -8.58000 47.93000
H  28.41600 -5.89200 48.52700
H  24.77400 -1.09300 42.88500
H  22.73300 -2.76600 41.69400
H  22.61000 -0.28400 43.13000
H  21.79700 -1.45300 44.08100
H  21.35700 -1.19400 42.25800
H  24.58100 -3.08300 40.61500
H  26.18000 -3.22400 41.50900
H  27.07300 -1.57900 40.37000
H  25.78200 -0.53800 40.75100
H  18.47400 -6.57800 44.30500
H  19.40800 -6.02300 43.20600
H  18.91500 -4.78500 44.32100
H  21.13900 -10.03500 47.00100
H  19.43800 -10.23900 47.30800
H  20.37000 -9.08500 48.30800
H  25.35700 -9.20600 48.62600
H  26.39100 -6.88900 50.09800
H  24.66700 -8.27300 51.31100
H  24.13100 -9.62700 50.55400
H  23.31000 -8.11400 50.18800
H  28.42900 -7.81900 49.61700
H  27.79600 -8.76300 48.26300
H  28.05500 -9.52500 51.15400
H  27.89100 -10.46000 49.60800
H  26.50000 -9.94700 50.52500
H  30.64000 -4.65400 47.38300
H  29.66500 -3.97300 48.66700
H  30.42300 -2.84700 47.42600
H  27.90300 -1.88200 42.76900
H  25.70900 1.48200 43.02000
H  26.92300 1.99200 41.78500
H  26.93500 2.47900 43.52600
Mg 0.64800 42.63400 25.75500
C  1.87500 42.68600 29.03400
C  -2.31300 41.46700 27.01500
C  -0.48100 42.18900 22.64600
C  3.85000 43.40700 24.58400
N  -0.17500 42.35500 27.78700
C  0.53500 42.58800 28.97400
C  -0.38600 42.27200 30.16600
C  -1.77600 41.81500 29.50400
C  -1.42500 41.88900 27.98900
C  -2.33500 40.39400 29.90100
C  -0.54900 43.63500 31.02900
C  -0.97900 43.49000 32.47200
H  -1.41000 42.07100 33.05600
N  -1.21800 42.01500 24.94400
C  -2.28700 41.57600 25.62900
C  -3.37100 41.36600 24.66000
C  -2.84200 41.41100 23.32100
C  -1.42400 41.81200 23.54900
C  -4.67400 40.71800 25.03200
C  -3.43100 41.08900 22.05300
O  -2.92300 41.15700 20.95600
C  -4.79900 40.49300 22.00400
N  1.60000 42.63200 23.91500
C  0.84500 42.61900 22.77900
C  1.64500 43.03000 21.52400
C  3.00300 43.45500 22.19000
C  2.78700 43.23300 23.67300
C  1.72300 41.89900 20.45900
C  3.65500 44.78900 21.73900
C  2.89300 46.14700 21.59000
N  2.52900 42.96600 26.62300
C  3.76300 43.21800 26.02200
C  4.74500 43.15900 27.06700
C  4.09800 43.01600 28.27600
C  2.72000 42.91000 27.94600
C  6.18300 43.40600 26.89100
C  4.25900 42.99800 29.75600
O  5.25300 43.26500 30.35500
C  2.84400 42.59200 30.30000
C  2.91900 41.24100 30.74400
O  3.42600 40.31500 30.10800
O  2.33700 41.10200 31.96200
C  1.98700 39.76600 32.47400
H  -3.23700 41.03400 27.40500
H  -0.83100 42.05800 21.62000
H  4.87600 43.65900 24.30600
H  -0.15500 41.40600 30.78700
H  -2.59600 42.48900 29.75300
H  -1.61600 39.91300 30.56500
H  -2.51300 39.79200 29.01000
H  -3.18700 40.53000 30.56800
H  -1.29400 44.32100 30.62900
H  0.37500 44.21300 31.06200
H  -1.81700 44.10500 32.80000
H  -0.11500 43.72100 33.09500
H  -5.02900 39.94700 24.34900
H  -5.46300 41.47100 25.02700
H  -4.59800 40.09200 25.92100
H  -5.55600 41.08000 22.52400
H  -4.88600 39.44400 22.28800
H  -5.12100 40.48700 20.96300
H  1.15100 43.93000 21.16000
H  3.76500 42.71100 21.95500
H  1.13100 42.25200 19.61400
H  1.28600 41.00100 20.89400
H  2.77000 41.69600 20.23200
H  4.08900 44.49600 20.78300
H  4.47500 44.95100 22.43900
H  2.92600 46.42800 20.53800
H  3.44500 46.95800 22.06600
H  1.86300 46.05000 21.93200
H  6.33900 44.48000 26.98300
H  6.63200 43.11400 25.94200
H  6.65200 42.81400 27.67800
H  2.50700 43.24500 31.10500
H  2.26800 39.57100 33.50900
H  2.47500 38.95900 31.92800
H  0.89900 39.72000 32.45100

