158

Mg 47.19200 24.33300 28.61300
C  48.22400 26.68800 30.99600
C  46.27300 22.22800 31.08300
C  46.87600 21.96700 26.24200
C  48.71100 26.41300 26.06900
N  47.37500 24.40600 30.82400
C  47.64500 25.48600 31.60100
C  47.25200 25.24100 33.06200
C  46.83400 23.72400 33.08600
C  46.77600 23.48700 31.60900
C  47.74800 22.67800 33.91000
C  46.21300 26.26900 33.62600
C  46.47500 26.75300 35.09600
H  45.25300 26.79000 36.04200
N  46.42900 22.41200 28.61300
C  46.19700 21.73300 29.77700
C  45.70800 20.39200 29.39800
C  46.03600 20.23200 28.02600
C  46.47200 21.58100 27.52700
C  45.15400 19.43100 30.44000
C  46.03900 18.99300 27.11700
O  46.34800 18.99300 25.92900
C  45.44600 17.77800 27.66300
N  47.78900 24.20200 26.38200
C  47.37300 23.09900 25.69900
C  47.58000 23.37500 24.22200
C  47.91500 24.91800 24.15900
C  48.15200 25.22200 25.63700
C  48.42400 22.35000 23.47900
C  46.80000 25.73700 23.51600
C  45.51300 25.98700 24.25300
N  48.29000 26.16600 28.46800
C  48.78500 26.88800 27.43900
C  49.42300 28.04200 27.89400
C  49.19200 28.06400 29.29400
C  48.54800 26.83600 29.60300
C  49.89900 29.17900 27.06200
C  49.27300 28.79000 30.55400
O  49.73300 29.92400 30.70800
C  48.62200 27.90700 31.64200
C  49.73400 27.59700 32.62700
O  50.62200 26.77700 32.42300
O  49.59500 28.36400 33.76200
C  50.45400 27.97100 34.88900
H  45.82200 21.61000 31.86200
H  46.71400 21.26500 25.42100
H  48.91900 27.16000 25.30000
H  48.11400 25.41100 33.70700
H  45.85400 23.75900 33.56200
H  47.27400 22.07800 34.68800
H  48.60000 23.15400 34.39500
H  48.25600 22.00300 33.22200
H  45.30900 25.67400 33.75000
H  46.18800 27.19500 33.05100
H  46.89400 27.74800 34.94500
H  47.27100 26.21800 35.61400
H  45.94800 18.81500 30.86400
H  44.32100 18.78100 30.17200
H  44.62100 20.01400 31.19100
H  45.33400 16.96600 26.94400
H  44.44000 17.99800 28.02000
H  46.04100 17.30200 28.44200
H  46.57600 23.17900 23.84400
H  48.83700 25.04100 23.59000
H  47.91900 21.86400 22.64400
H  48.75200 21.50300 24.08200
H  49.37500 22.78600 23.17200
H  46.54400 25.21700 22.59300
H  47.15000 26.75600 23.35200
H  45.63200 26.92600 24.79400
H  45.25600 25.24500 25.00900
H  44.64600 26.14200 23.61100
H  50.35000 28.85900 26.12200
H  50.55800 29.70700 27.75000
H  48.95300 29.67600 26.85100
H  47.81500 28.44600 32.13800
H  50.54400 28.76300 35.63200
H  51.49300 27.71000 34.69200
H  50.07600 27.08300 35.39400
Mg 42.23300 40.79700 26.80900
C  41.30500 43.11400 29.34000
C  42.96500 38.60900 29.38800
C  43.54600 38.80600 24.50900
C  41.69600 43.28600 24.38200
N  42.09000 40.84300 29.17400
C  41.67900 41.89100 29.96000
C  41.77200 41.53900 31.40700
C  42.35200 40.07800 31.42100
C  42.41900 39.81700 29.89400
C  43.63100 39.81300 32.14100
C  40.50600 41.79600 32.34300
C  40.52700 41.05900 33.73400
H  40.46100 41.95200 35.04800
N  43.09900 38.95300 26.93800
C  43.27300 38.14500 28.05900
C  43.70300 36.82500 27.61000
C  43.92200 36.87800 26.22700
C  43.52700 38.23500 25.85200
C  43.88500 35.69800 28.69600
C  44.31300 35.82800 25.23900
O  44.50100 35.94800 24.01100
C  44.32200 34.44200 25.71300
N  42.52700 40.96400 24.76800
C  43.20200 40.07200 24.01400
C  43.22600 40.51300 22.53600
C  42.69100 41.95300 22.57400
C  42.17900 42.06400 23.98400
C  44.66000 40.39400 21.88500
C  41.63900 42.31500 21.55300
C  40.15800 42.00500 21.84800
N  41.52200 42.78000 26.80700
C  41.32200 43.66200 25.72000
C  40.85500 44.93500 26.17400
C  40.82200 44.77100 27.56500
C  41.26200 43.45500 27.92000
C  40.44700 46.07900 25.33900
C  40.41800 45.44500 28.83400
O  39.96200 46.57100 28.99800
C  40.81300 44.41200 30.02700
C  42.07100 44.96300 30.68700
O  43.11000 45.20000 30.12700
O  41.80000 45.39400 31.95600
C  42.80900 46.18800 32.64600
H  43.15300 37.90400 30.20000
H  44.06800 38.18400 23.77800
H  41.42300 44.03400 23.63400
H  42.53500 42.21100 31.79900
H  41.57600 39.38600 31.74900
H  43.74600 40.60300 32.88300
H  44.42600 39.81000 31.39500
H  43.41000 38.86500 32.63000
H  39.61400 41.55900 31.76400
H  40.50300 42.87500 32.50000
H  41.46600 40.51300 33.82400
H  39.72800 40.31700 33.72100
H  43.81400 34.64400 28.43000
H  43.23000 35.77600 29.56400
H  44.89500 35.95300 29.01500
H  45.21400 34.35400 26.33200
H  44.27600 33.67300 24.94100
H  43.37500 34.30500 26.23500
H  42.50500 39.85700 22.04900
H  43.46200 42.72300 22.57000
H  45.36900 39.98000 22.60100
H  45.02000 41.37500 21.57500
H  44.73600 39.66600 21.07800
H  41.95500 41.81200 20.63900
H  41.78800 43.34700 21.23700
H  40.19400 41.50700 22.81700
H  39.74900 41.27200 21.15400
H  39.53100 42.89700 21.87300
H  41.39400 46.54500 25.06600
H  39.83800 46.71200 25.98400
H  39.93900 45.66000 24.47100
H  40.02000 44.34300 30.77100
H  42.56100 46.19600 33.70800
H  42.62500 47.18300 32.24200
H  43.83500 45.84100 32.52300

