158

Mg 53.35600 23.05100 44.61300
C  51.61300 25.97700 43.85400
C  50.87000 21.17700 43.17800
C  55.44000 20.26900 44.60000
C  55.80300 24.93700 46.07500
N  51.49700 23.55600 43.59000
C  51.01500 24.76200 43.33300
C  49.68900 24.61400 42.63700
C  49.20500 23.21900 43.11100
C  50.58900 22.55400 43.31400
C  48.17100 23.15700 44.33400
C  49.86700 24.68200 41.08000
C  51.13300 25.32900 40.44100
H  50.99100 25.91600 39.08700
N  53.13900 20.95500 44.19000
C  52.04600 20.44900 43.51500
C  52.20300 19.07200 43.30000
C  53.58100 18.80700 43.52700
C  54.16300 20.04700 44.05800
C  51.22100 18.10800 42.58100
C  54.30400 17.47500 43.16000
O  53.69000 16.54500 42.65700
C  55.81400 17.31500 43.36500
N  55.35000 22.64700 45.17200
C  55.99200 21.47800 45.13800
C  57.40800 21.52500 45.69900
C  57.41000 22.98900 46.28500
C  56.10800 23.62200 45.83000
C  57.74300 20.49100 46.75000
C  58.58600 23.85800 45.73300
C  58.60200 24.43000 44.27900
N  53.73300 25.03000 44.83900
C  54.74000 25.68200 45.55100
C  54.45500 27.18600 45.60200
C  53.26500 27.31400 44.94500
C  52.83300 25.99400 44.54300
C  55.20900 28.32900 46.29600
C  52.17500 28.23100 44.51600
O  52.07300 29.46000 44.49600
C  51.09100 27.38000 43.91500
C  50.91000 27.91300 42.54100
O  51.79700 28.50100 41.93500
O  49.62600 27.78500 42.24000
C  49.21400 28.60300 41.02100
H  49.96900 20.62300 42.90600
H  56.12900 19.44200 44.78300
H  56.63700 25.55700 46.40800
H  49.03000 25.35800 43.08300
H  48.62100 22.74700 42.32100
H  47.18400 22.83200 44.00800
H  48.13800 24.17700 44.71900
H  48.51300 22.44500 45.08600
H  49.01300 25.14700 40.58700
H  49.86700 23.64700 40.73900
H  52.06100 24.75800 40.44200
H  51.47400 26.17900 41.03300
H  50.27100 18.64200 42.55300
H  51.25200 17.12900 43.05900
H  51.59000 18.02800 41.55900
H  55.91400 17.27500 44.45000
H  56.25600 18.20300 42.91500
H  56.13000 16.38100 42.90000
H  58.11700 21.54100 44.87200
H  57.38300 23.13500 47.36500
H  56.86500 19.92700 47.06600
H  57.96900 21.02800 47.67100
H  58.51800 19.80900 46.39900
H  59.36000 23.09100 45.71100
H  58.92600 24.56800 46.48800
H  59.30700 23.86400 43.67000
H  58.91200 25.47100 44.36700
H  57.68200 24.38900 43.69500
H  56.18000 28.28300 45.80400
H  55.23000 28.15400 47.37200
H  54.72000 29.26600 46.03100
H  50.16300 27.44800 44.48300
H  48.29800 29.16500 41.19900
H  48.98700 27.90600 40.21500
H  49.96400 29.35700 40.78200
Mg 6.57800 54.28300 42.18700
C  6.00300 50.81000 41.58700
C  9.57000 53.86200 40.57500
C  6.52800 57.55300 41.71500
C  3.25200 54.42000 43.24500
N  7.51000 52.54600 41.07300
C  7.18000 51.22200 40.99600
C  8.29100 50.37100 40.45200
C  9.56500 51.32000 40.64800
C  8.85000 52.69800 40.86500
C  10.60400 50.97400 41.62800
C  8.04700 49.86100 39.04700
C  7.30400 50.70900 38.06600
H  6.82200 50.19800 36.79500
N  7.95900 55.58100 41.38600
C  9.17900 55.21300 40.87900
C  9.95500 56.42600 40.76000
C  9.08100 57.52400 40.95100
C  7.74700 56.95100 41.30600
C  11.45600 56.46800 40.57800
C  9.38900 58.96200 40.73500
O  10.54700 59.30400 40.36100
C  8.43700 60.02600 40.81300
N  5.09000 55.73900 42.47500
C  5.30500 57.00500 42.19000
C  4.05900 57.91900 42.55500
C  2.98300 56.91300 42.77700
C  3.79600 55.58100 42.89100
C  4.38500 58.94600 43.69400
C  1.81200 56.76700 41.73800
C  0.49400 57.06000 42.34000
N  5.02600 52.92500 42.52500
C  3.80500 53.11300 43.16400
C  3.17400 51.90100 43.58700
C  3.99500 50.95400 42.87700
C  5.02400 51.61300 42.21400
C  2.02400 51.69000 44.53400
C  4.20500 49.57500 42.70500
O  3.56700 48.65800 43.13500
C  5.47400 49.37800 41.76700
C  5.11500 48.63200 40.48600
O  4.30800 48.99500 39.67700
O  5.79700 47.48800 40.32200
C  5.27300 46.53100 39.35700
H  10.61400 53.69500 40.30300
H  6.46200 58.64300 41.74600
H  2.24600 54.36700 43.66700
H  8.35300 49.51000 41.11700
H  10.06200 51.49700 39.69500
H  10.40400 49.99900 42.07300
H  10.56800 51.73800 42.40500
H  11.60600 50.92600 41.20100
H  7.78500 48.80300 39.07700
H  9.05600 49.77800 38.64300
H  7.95000 51.57800 37.93600
H  6.41200 51.10600 38.55000
H  11.65000 57.05500 39.68100
H  11.95200 55.51600 40.38700
H  11.97100 57.00000 41.37700
H  7.55600 59.83500 40.20200
H  8.87600 60.98200 40.52900
H  8.08800 60.04300 41.84600
H  3.71100 58.53200 41.72400
H  2.63200 57.14600 43.78200
H  5.44100 59.02600 43.95200
H  3.83100 58.59300 44.56400
H  3.99400 59.94200 43.48500
H  1.82100 55.80300 41.22900
H  2.10100 57.48800 40.97200
H  0.27500 56.41600 43.19200
H  -0.22600 56.79000 41.56700
H  0.49300 58.08900 42.70000
H  1.87600 52.53900 45.20100
H  2.17200 50.77100 45.10200
H  1.13300 51.67700 43.90600
H  6.19500 48.78000 42.32500
H  5.76000 45.57200 39.53200
H  5.38900 46.90000 38.33800
H  4.23500 46.31500 39.61000

