158

Mg 7.55700 2.65300 27.40100
C  9.22800 1.16400 30.15800
C  5.89600 4.74100 29.65600
C  6.12200 3.94700 24.78600
C  8.75000 0.01200 25.46400
N  7.42700 2.72200 29.67600
C  8.29800 2.14600 30.54800
C  8.17000 2.74700 31.98200
C  6.93000 3.77300 31.91900
C  6.76700 3.78300 30.29900
C  5.60700 3.30700 32.54200
C  9.45200 3.44600 32.50300
C  9.25000 4.32700 33.79200
H  10.27900 4.16000 34.87400
N  6.11100 4.17000 27.20800
C  5.53000 4.89500 28.22500
C  4.65400 5.91700 27.67400
C  4.79400 5.72100 26.25700
C  5.72100 4.57800 25.98200
C  3.84900 6.83500 28.43000
C  4.04800 6.41100 25.05400
O  4.29200 6.18100 23.85500
C  3.31600 7.55300 25.36500
N  7.33300 1.92600 25.45900
C  6.77700 2.73100 24.55200
C  6.94000 2.29700 23.06700
C  7.75600 1.02200 23.31000
C  8.01600 0.98200 24.80600
C  5.51100 1.92600 22.50400
C  9.15800 0.91900 22.60800
C  9.49600 -0.48000 21.95200
N  8.63600 0.93400 27.67600
C  9.02500 -0.08900 26.85600
C  9.88600 -1.04000 27.40800
C  10.01600 -0.54300 28.73200
C  9.25600 0.64400 28.87600
C  10.45800 -2.19700 26.73600
C  10.66000 -0.81400 29.98200
O  11.52200 -1.63300 30.40600
C  10.26500 0.39100 30.93200
C  9.74300 -0.16900 32.21600
O  8.71700 -0.86900 32.33800
O  10.70700 0.03500 33.22400
C  10.48000 -0.69300 34.46300
H  5.49000 5.58300 30.22100
H  5.67300 4.26800 23.84400
H  9.24000 -0.82500 24.96200
H  8.05700 1.96300 32.73100
H  7.15700 4.80300 32.19500
H  5.57600 2.25500 32.82700
H  4.92200 3.30400 31.69400
H  5.30400 4.04600 33.28400
H  9.85200 4.06800 31.70300
H  10.16400 2.63400 32.65200
H  8.29700 3.96900 34.18300
H  9.20000 5.37900 33.51400
H  3.80600 6.60000 29.49400
H  2.82100 6.66900 28.11100
H  4.30100 7.80100 28.20400
H  3.93500 8.35100 25.77600
H  2.44300 7.27200 25.95400
H  2.90400 8.02500 24.47300
H  7.46600 3.05800 22.49100
H  7.13300 0.17900 23.01200
H  4.76100 2.06200 23.28300
H  5.37400 0.89700 22.17200
H  5.38500 2.63500 21.68600
H  9.95700 1.16700 23.30700
H  9.18000 1.74700 21.90000
H  9.82000 -0.35100 20.91900
H  8.61700 -1.10700 22.10600
H  10.37100 -0.96900 22.38100
H  11.22100 -1.87200 26.02800
H  9.67800 -2.77300 26.23800
H  10.90700 -2.89100 27.44700
H  11.12600 1.03900 31.09800
H  9.88200 -1.59000 34.29600
H  9.87500 -0.13100 35.17400
H  11.47400 -0.76400 34.90400
Mg 24.54800 1.53800 29.14500
C  26.48000 1.27500 32.10200
C  21.78900 1.55200 31.14600
C  22.68500 1.52400 26.34400
C  27.49200 1.12700 27.37500
N  24.22800 1.47000 31.36500
C  25.18100 1.48100 32.39800
C  24.50400 1.56900 33.81500
C  22.99500 1.67700 33.42900
C  22.99600 1.50100 31.85500
C  22.07400 0.51200 34.12300
C  24.93000 2.77800 34.69800
C  24.35500 2.70800 36.18400
H  25.46000 2.73600 37.34900
N  22.50600 1.51600 28.77200
C  21.51600 1.52100 29.71800
C  20.23400 1.58100 29.08300
C  20.49500 1.44300 27.62300
C  21.93800 1.44900 27.48000
C  18.87500 1.76600 29.79900
C  19.52900 1.48600 26.46300
O  19.96200 1.39200 25.33800
C  18.05400 1.65400 26.62700
N  25.00400 1.27300 27.19800
C  24.08900 1.47700 26.20800
C  24.79900 1.57900 24.85900
C  26.26500 1.31700 25.15000
C  26.23900 1.21000 26.61200
C  24.18000 0.85700 23.67100
C  27.20500 2.47100 24.76000
C  26.97100 3.83300 25.45800
N  26.54900 1.19200 29.59500
C  27.65200 0.99300 28.81500
C  28.81600 0.71700 29.53500
C  28.42600 0.86100 30.88000
C  27.04400 1.09900 30.85100
C  30.18500 0.36200 29.00300
C  28.83700 0.89000 32.23200
O  29.95300 0.69500 32.69000
C  27.65700 1.27200 33.11400
C  27.58100 0.19200 34.10800
O  27.03400 -0.87400 33.90500
O  28.39200 0.38600 35.18300
C  28.53200 -0.48800 36.28700
H  20.89900 1.66100 31.77000
H  22.16300 1.49700 25.38500
H  28.30400 1.07200 26.64700
H  24.64000 0.66300 34.40500
H  22.62600 2.65600 33.73600
H  21.17900 0.79300 34.68000
H  22.68700 -0.12600 34.76000
H  21.72100 -0.12700 33.31400
H  24.63900 3.77400 34.36200
H  26.01500 2.77000 34.80600
H  23.83300 1.76900 36.36500
H  23.60400 3.48900 36.29800
H  18.98600 1.33100 30.79200
H  17.99200 1.35800 29.30600
H  18.77200 2.83300 29.99500
H  18.09000 2.67600 27.00400
H  17.43900 0.98600 27.23000
H  17.57900 1.80200 25.65700
H  24.68900 2.64600 24.66100
H  26.54000 0.37700 24.67200
H  24.89900 0.63500 22.88200
H  23.29600 1.37500 23.29900
H  23.79100 -0.06400 24.10400
H  27.10400 2.63200 23.68700
H  28.26500 2.24400 24.87200
H  26.21800 3.73600 26.24000
H  26.58400 4.58700 24.77200
H  27.74400 4.34300 26.03300
H  30.30700 -0.63400 29.42900
H  30.95100 0.97000 29.48500
H  30.31400 0.36700 27.92100
H  27.87700 2.24100 33.56000
H  27.87600 -0.20600 37.11100
H  29.53000 -0.28200 36.67400
H  28.52100 -1.55800 36.08100

