158

Mg 0.35300 7.85300 25.23600
C  1.16700 10.04300 27.87500
C  0.36600 5.12400 27.39300
C  -0.61600 5.95100 22.77100
C  0.60900 10.66400 23.03200
N  0.90200 7.61000 27.29700
C  1.00500 8.68100 28.20200
C  1.13600 8.04600 29.62700
C  0.98200 6.57200 29.46700
C  0.68600 6.42400 27.97700
C  2.20300 5.64300 29.92300
C  0.17600 8.57600 30.69100
C  0.53400 8.68100 32.16800
H  1.74900 7.92600 32.70300
N  -0.00200 5.80700 25.03200
C  0.01700 4.81900 26.02800
C  -0.37100 3.55500 25.51100
C  -0.65000 3.72200 24.11600
C  -0.50900 5.22800 23.91600
C  -0.48300 2.34600 26.40800
C  -0.85000 2.71700 23.09000
O  -0.98800 3.03900 21.93100
C  -0.83600 1.26300 23.35300
N  -0.03400 8.33200 23.24100
C  -0.37600 7.28500 22.48100
C  -0.55500 7.74300 21.01100
C  -0.28200 9.30800 21.10400
C  0.08900 9.44700 22.54700
C  0.21100 7.01400 19.93700
C  -1.45600 10.14500 20.66500
C  -1.17000 11.14100 19.55600
N  0.83100 9.92000 25.33700
C  0.96600 10.93800 24.34200
C  1.30300 12.19200 25.05800
C  1.36000 11.93000 26.44100
C  1.11600 10.47500 26.55800
C  1.43700 13.48100 24.41600
C  1.68400 12.38900 27.74800
O  2.12200 13.55800 28.06100
C  1.46300 11.20400 28.78700
C  2.66700 11.15600 29.65500
O  3.63000 10.45300 29.41100
O  2.46500 11.91000 30.80900
C  3.69300 12.01900 31.71600
H  0.25600 4.33000 28.13500
H  -0.97000 5.37500 21.91400
H  0.60300 11.49000 22.31800
H  2.12600 8.20800 30.05400
H  0.10300 6.28400 30.04500
H  2.89300 6.21600 30.54100
H  2.73900 5.20100 29.08200
H  1.88500 4.85700 30.60800
H  -0.81700 8.15200 30.53900
H  0.00300 9.60600 30.37900
H  -0.34000 8.28800 32.68800
H  0.53900 9.72100 32.49600
H  -1.49400 1.93700 26.40800
H  -0.32500 2.58000 27.46100
H  0.28400 1.58900 26.25100
H  -1.57100 0.99700 24.11200
H  0.09300 0.89900 23.79200
H  -0.96500 0.65600 22.45600
H  -1.62700 7.58600 20.89700
H  0.61600 9.53400 20.52900
H  -0.37200 6.18300 19.53900
H  1.14400 6.61900 20.33900
H  0.38000 7.76500 19.16500
H  -1.76600 10.76600 21.50500
H  -2.28300 9.51900 20.33000
H  -0.54400 10.80000 18.73200
H  -0.57900 11.82400 20.16600
H  -2.02200 11.71900 19.19600
H  0.68200 13.44400 23.63000
H  2.36100 13.47000 23.83800
H  1.40400 14.38500 25.02400
H  0.63000 11.51100 29.42000
H  4.58000 11.82500 31.11300
H  3.69300 11.38000 32.59900
H  3.90400 13.01400 32.10900
Mg 1.16900 41.40000 26.52300
C  3.49200 42.16100 29.08400
C  -1.10400 40.85100 28.98400
C  -0.97900 41.04700 24.07300
C  3.72100 42.32600 24.17700
N  1.13800 41.65700 28.70200
C  2.15900 42.04600 29.51700
C  1.70200 42.19100 30.95900
C  0.37300 41.45400 31.01100
C  0.08800 41.26700 29.45700
C  0.42800 40.19700 31.87900
C  1.55800 43.72200 31.22100
C  1.09600 44.19400 32.66500
H  1.03300 43.11000 33.73800
N  -0.74900 40.86400 26.53500
C  -1.54400 40.64700 27.61500
C  -2.75600 40.10100 27.13300
C  -2.84300 40.24100 25.77400
C  -1.51300 40.76700 25.35900
C  -3.78800 39.68000 28.16800
C  -3.99600 40.03600 24.85400
O  -3.91000 40.20400 23.64100
C  -5.31500 39.64500 25.43300
N  1.40100 41.67800 24.44600
C  0.33000 41.35300 23.62100
C  0.69900 41.55500 22.12900
C  2.17200 42.08200 22.20400
C  2.46800 42.02000 23.68300
C  0.42000 40.17700 21.39000
C  2.55200 43.44800 21.59700
C  1.91900 44.70900 22.11600
N  3.18100 42.03400 26.59600
C  4.08500 42.34200 25.53600
C  5.43700 42.49900 26.16700
C  5.22400 42.49100 27.56400
C  3.89400 42.15100 27.75000
C  6.62200 42.90200 25.32000
C  5.88100 42.52700 28.83600
O  7.07000 42.66100 29.08100
C  4.68100 42.38900 29.90700
C  4.98100 41.36900 30.97800
O  4.88100 40.19200 30.85400
O  5.20100 41.95800 32.22400
C  4.95800 41.19200 33.46200
H  -1.77700 40.67200 29.82500
H  -1.67000 40.82300 23.25800
H  4.55000 42.49200 23.48500
H  2.40500 41.72900 31.65300
H  -0.41500 42.06800 31.44700
H  1.27200 40.21700 32.56800
H  0.53000 39.32400 31.23400
H  -0.43200 40.05300 32.53200
H  0.67900 44.01900 30.64900
H  2.33000 44.37100 30.80800
H  0.18100 44.77900 32.56800
H  1.80100 44.89700 33.10900
H  -4.16000 38.70000 27.87200
H  -4.49500 40.51000 28.16400
H  -3.41100 39.63000 29.18900
H  -5.87400 40.54400 25.69200
H  -5.28100 38.99600 26.30900
H  -5.78900 39.09000 24.62400
H  0.05900 42.37100 21.79100
H  2.72700 41.20900 21.85900
H  -0.43400 40.25100 20.71700
H  0.16600 39.37200 22.08000
H  1.29700 39.94400 20.78600
H  2.18800 43.47000 20.56900
H  3.63500 43.55500 21.54600
H  1.06200 44.50300 22.75700
H  1.78100 45.49400 21.37400
H  2.62400 45.23700 22.75900
H  6.28500 43.80900 24.81800
H  6.86100 42.07000 24.65800
H  7.41600 43.18500 26.01100
H  4.60800 43.34600 30.42300
H  3.90700 40.93500 33.59300
H  5.38500 41.65600 34.35100
H  5.51100 40.25300 33.47800

