158

Mg 47.69700 16.96200 29.17800
C  45.56400 16.52000 31.95600
C  49.65800 18.94700 31.11000
C  49.59000 17.47800 26.50600
C  45.22100 15.54100 27.21900
N  47.61300 17.74700 31.36100
C  46.71600 17.22900 32.34000
C  47.29100 17.52800 33.65000
C  48.32200 18.64100 33.41200
C  48.57700 18.40700 31.86300
C  47.92800 20.13700 33.75700
C  47.81900 16.24100 34.32100
C  47.91800 16.04000 35.94000
H  47.58100 17.19000 36.91900
N  49.51200 17.83500 28.94600
C  50.16000 18.69800 29.84600
C  51.40700 19.12600 29.21000
C  51.38800 18.72600 27.90000
C  50.17900 17.92100 27.73600
C  52.41400 19.92700 30.05900
C  52.39600 18.95500 26.78700
O  52.26200 18.35900 25.74500
C  53.50200 19.88600 26.92700
N  47.37500 16.59200 27.15300
C  48.36500 16.89800 26.24700
C  47.84500 16.69200 24.79700
C  46.56300 15.85500 25.05000
C  46.33600 16.03200 26.56800
C  47.54300 17.98000 23.87900
C  46.65100 14.30500 24.79000
C  46.05800 13.81300 23.42500
N  45.75500 16.22400 29.45100
C  44.91800 15.61900 28.61400
C  43.66900 15.30400 29.30700
C  43.91400 15.56000 30.66400
C  45.20300 16.08200 30.68600
C  42.39400 14.74000 28.71700
C  43.38500 15.44200 32.02100
O  42.36800 14.88000 32.45300
C  44.46800 16.08000 32.92500
C  43.94900 17.13200 33.84300
O  43.70400 18.31900 33.56700
O  43.68500 16.60500 35.07500
C  43.17200 17.57700 36.03300
H  50.30000 19.49500 31.80200
H  50.08300 17.58900 25.53700
H  44.49800 14.96100 26.64100
H  46.55800 17.94100 34.34400
H  49.35200 18.56700 33.76100
H  47.84700 20.63300 32.79000
H  48.72000 20.69000 34.26200
H  46.94200 20.28200 34.20000
H  48.78200 16.00600 33.86800
H  47.25300 15.37900 33.96600
H  48.91200 15.70300 36.23500
H  47.17600 15.28000 36.18500
H  52.03300 20.22400 31.03600
H  52.48200 20.87700 29.52900
H  53.39900 19.47800 30.18900
H  53.06600 20.85700 26.69500
H  54.13800 19.47000 26.14600
H  54.02400 19.76800 27.87700
H  48.54500 16.04900 24.26400
H  45.71500 16.35400 24.58100
H  47.93900 17.76700 22.88600
H  48.22900 18.71600 24.29800
H  46.49400 18.26200 23.96600
H  46.09300 13.84100 25.60400
H  47.62900 13.87100 24.99600
H  46.93800 13.58100 22.82500
H  45.51500 14.64300 22.97200
H  45.39600 12.95400 23.53000
H  42.51300 14.99800 27.66400
H  41.53400 15.29200 29.09600
H  42.21200 13.69300 28.96200
H  44.88100 15.25700 33.50700
H  43.10900 17.08600 37.00400
H  42.14900 17.79400 35.72500
H  43.77700 18.48300 36.06600
Mg -1.37900 34.31800 27.98500
C  -3.02900 32.24300 30.14200
C  -0.09100 36.08500 30.58000
C  0.02600 36.48900 25.73500
C  -3.09300 32.74600 25.30300
N  -1.58900 34.17500 30.06000
C  -2.29300 33.20200 30.84000
C  -2.01900 33.38100 32.35800
C  -1.32600 34.79300 32.42900
C  -0.93400 35.00600 30.94600
C  -2.25200 35.99300 32.84200
C  -1.11500 32.19000 32.98000
C  -1.78100 31.57300 34.15100
H  -0.98300 31.66900 35.43700
N  -0.14100 35.99000 28.12000
C  0.27100 36.57100 29.29200
C  1.29800 37.65400 29.02000
C  1.40900 37.69100 27.61700
C  0.42600 36.67800 27.07200
C  2.02200 38.46400 30.14900
C  2.34100 38.69400 26.83100
O  2.45100 38.58500 25.57700
C  3.19500 39.67000 27.47300
N  -1.67400 34.62900 25.89200
C  -1.06900 35.64800 25.24900
C  -1.49600 35.71600 23.74300
C  -1.88700 34.21100 23.55200
C  -2.23500 33.78900 24.97300
C  -2.71300 36.65800 23.55700
C  -0.67800 33.40800 22.99400
C  -0.96100 31.96700 22.39400
N  -2.78600 32.86000 27.71200
C  -3.36500 32.28600 26.61200
C  -4.05900 31.06400 26.96000
C  -3.95300 30.98300 28.34700
C  -3.22600 32.09400 28.80400
C  -4.84100 30.18600 26.08100
C  -4.29500 30.24500 29.50800
O  -5.08000 29.31300 29.70800
C  -3.56300 30.96100 30.71800
C  -4.72300 31.17000 31.71100
O  -5.54300 32.03600 31.73600
O  -4.60300 30.13700 32.66800
C  -5.77600 30.05200 33.49900
H  0.38700 36.61600 31.40600
H  0.47700 37.18400 25.02400
H  -3.44500 32.20600 24.42200
H  -2.98500 33.41500 32.86100
H  -0.44900 34.78000 33.07500
H  -2.43500 36.71800 32.04900
H  -1.77500 36.40600 33.73100
H  -3.25800 35.69000 33.13300
H  -0.15400 32.61900 33.26600
H  -0.92100 31.44700 32.20600
H  -1.88900 30.53100 33.85300
H  -2.82300 31.84200 34.32500
H  1.53000 38.38900 31.11900
H  1.89600 39.49800 29.83000
H  3.06900 38.16100 30.17000
H  2.63400 40.45500 27.98100
H  3.75300 40.11900 26.65200
H  3.97400 39.32000 28.15100
H  -0.69900 36.08800 23.10000
H  -2.64100 34.02900 22.78600
H  -3.17000 37.00900 24.48200
H  -3.46900 36.21900 22.90600
H  -2.45500 37.56900 23.01500
H  -0.05100 33.20400 23.86100
H  -0.14900 34.05000 22.28900
H  -2.03700 31.84300 22.27300
H  -0.58200 31.29700 23.16400
H  -0.34300 31.84400 21.50400
H  -4.62900 29.19000 26.47000
H  -4.54800 30.23200 25.03300
H  -5.89900 30.35100 26.28800
H  -2.69200 30.43700 31.11200
H  -5.87400 28.97600 33.64500
H  -6.74800 30.28200 33.06100
H  -5.39200 30.58100 34.37100

