158

Mg 8.47700 4.33700 28.12400
C  10.02900 2.72200 30.96200
C  6.82200 6.18300 30.36700
C  6.90800 5.77200 25.53900
C  9.82700 1.85900 26.10800
N  8.49900 4.34100 30.38500
C  9.21500 3.72000 31.35600
C  9.06300 4.28300 32.76200
C  7.82900 5.23200 32.47500
C  7.68500 5.29100 30.94400
C  6.50200 4.85600 33.23600
C  10.38800 4.87400 33.35600
C  10.48800 5.94300 34.42900
H  11.11100 5.46400 35.72500
N  7.04900 5.81600 27.96800
C  6.50000 6.45600 29.04600
C  5.53600 7.43800 28.54500
C  5.57600 7.34700 27.09900
C  6.61600 6.30200 26.84200
C  4.58100 8.28300 29.35900
C  4.74800 8.07300 26.04600
O  5.08200 8.00800 24.93800
C  3.59100 8.97400 26.36100
N  8.41300 3.89100 26.10800
C  7.72900 4.63300 25.17100
C  7.97000 4.10500 23.80100
C  9.05900 2.97400 23.97800
C  9.04400 2.88600 25.48800
C  6.62400 3.68800 23.10100
C  10.43500 3.33500 23.38600
C  11.53300 4.13000 24.14100
N  9.70400 2.64500 28.40600
C  10.16300 1.75000 27.49100
C  10.92400 0.70600 28.12100
C  10.91600 1.12400 29.47000
C  10.16200 2.27500 29.61000
C  11.58400 -0.40500 27.44500
C  11.59900 0.78400 30.71900
O  12.37700 -0.14300 30.91500
C  10.91600 1.79100 31.79000
C  10.05400 0.93300 32.75500
O  9.15500 0.20500 32.42100
O  10.58400 1.03900 33.98200
C  9.84400 0.30200 35.07700
H  6.17600 6.74900 31.04200
H  6.50700 6.33600 24.69400
H  10.23100 1.10500 25.42900
H  8.72400 3.46000 33.39000
H  8.11100 6.19600 32.89700
H  5.70000 4.69000 32.51700
H  6.27400 5.65600 33.94000
H  6.47500 3.89900 33.75600
H  11.04400 5.11200 32.51900
H  10.67400 3.95600 33.86900
H  9.54100 6.35500 34.77800
H  11.05200 6.78900 34.03500
H  4.85500 9.32700 29.20800
H  4.58500 8.01300 30.41500
H  3.52700 8.22800 29.08600
H  3.10600 9.16500 25.40400
H  3.84100 9.79200 27.03600
H  2.82500 8.36400 26.84100
H  8.26500 4.82200 23.03400
H  8.70700 2.01100 23.60800
H  6.40000 4.32800 22.24700
H  5.77600 3.82100 23.77200
H  6.54500 2.64000 22.81300
H  10.14200 4.06000 22.62700
H  11.00500 2.61800 22.79400
H  11.05100 4.38300 25.08500
H  11.79100 5.09700 23.71000
H  12.41700 3.50100 24.24500
H  12.08200 0.05100 26.58900
H  10.94800 -1.24200 27.15800
H  12.38500 -0.68800 28.12800
H  11.64300 2.30800 32.41600
H  8.96900 -0.23600 34.71500
H  9.33600 0.95400 35.78800
H  10.55400 -0.31900 35.62400
Mg 42.55300 41.45000 26.49900
C  41.58000 43.91900 28.91400
C  43.35800 39.36300 29.12400
C  43.84600 39.34900 24.24000
C  42.12100 43.91900 24.02100
N  42.56200 41.68400 28.78900
C  42.02600 42.69400 29.54600
C  41.94700 42.31000 31.07500
C  42.75100 41.02900 31.07400
C  42.89400 40.60000 29.58800
C  44.15100 41.11100 31.79200
C  40.41500 42.21500 31.41200
C  39.96700 43.18500 32.47600
H  39.14200 42.64200 33.63400
N  43.37900 39.56300 26.69200
C  43.70300 38.91300 27.86700
C  44.22000 37.55200 27.51100
C  44.34700 37.52500 26.07300
C  43.83500 38.86500 25.58700
C  44.60500 36.64900 28.60300
C  44.93200 36.43400 25.14500
O  44.93100 36.56500 23.93000
C  45.57500 35.25200 25.75200
N  42.90900 41.63600 24.47700
C  43.40400 40.56600 23.76100
C  43.49700 40.92000 22.26400
C  42.84600 42.36600 22.07400
C  42.62500 42.66200 23.60100
C  44.84400 40.77200 21.62900
C  41.46900 42.43400 21.41900
C  41.28900 43.70000 20.58300
N  42.07200 43.49300 26.46000
C  41.90400 44.38100 25.36700
C  41.32600 45.65500 25.80800
C  41.16400 45.48600 27.18600
C  41.64500 44.19800 27.54800
C  40.93300 46.83100 25.06300
C  40.71300 46.18100 28.35700
O  40.24400 47.34600 28.44300
C  40.92400 45.15300 29.53900
C  41.64600 45.82800 30.68400
O  42.85000 45.98400 30.73400
O  40.72900 46.41000 31.59900
C  41.31900 47.10100 32.80400
H  43.76400 38.70600 29.89600
H  44.28800 38.74300 23.44600
H  41.84300 44.57000 23.18900
H  42.49500 43.12100 31.55500
H  42.30900 40.20600 31.63500
H  43.88800 41.00100 32.84400
H  44.59100 42.07000 31.51800
H  44.87900 40.36400 31.47500
H  40.27800 41.27200 31.94100
H  39.68000 42.41100 30.63200
H  39.32600 43.87800 31.93200
H  40.76200 43.78100 32.92400
H  45.67900 36.50700 28.48200
H  44.06900 35.74000 28.32700
H  44.19800 36.83500 29.59700
H  45.67900 34.41200 25.06500
H  44.97700 34.85700 26.57400
H  46.48700 35.54800 26.27100
H  42.87700 40.20000 21.72900
H  43.49300 43.14500 21.67200
H  44.91800 39.83400 21.07800
H  45.72300 40.91600 22.25600
H  44.83600 41.53600 20.85200
H  40.65100 42.26200 22.11800
H  41.43600 41.60500 20.71200
H  42.18000 43.84200 19.97200
H  41.11400 44.58300 21.19800
H  40.49900 43.62900 19.83500
H  40.28100 46.63500 24.21100
H  41.88600 47.25900 24.75100
H  40.42500 47.49000 25.76700
H  39.92800 44.88500 29.89400
H  40.68600 47.98200 32.90600
H  42.30100 47.54900 32.64800
H  41.32400 46.35100 33.59600

