158

Mg 35.07900 48.29300 25.81500
C  35.10600 46.38800 28.88900
C  33.82400 50.97000 27.67100
C  34.61900 50.02900 22.94900
C  35.54000 45.37200 24.18400
N  34.57800 48.58300 28.01100
C  34.87000 47.79000 29.06500
C  34.82700 48.53900 30.42700
C  33.99400 49.78900 29.96700
C  34.17300 49.85000 28.46700
C  32.50200 49.82200 30.49700
C  36.24000 48.56100 31.18100
C  36.36300 48.09500 32.64500
H  36.34100 49.19400 33.68800
N  34.49400 50.25500 25.37000
C  34.09800 51.18900 26.24300
C  33.81100 52.45400 25.55400
C  34.14000 52.16700 24.20500
C  34.44300 50.71900 24.13500
C  33.34400 53.73700 26.25800
C  34.14900 53.12800 23.00900
O  34.70300 52.84900 21.93500
C  33.63000 54.49400 23.09500
N  35.17800 47.78300 23.80800
C  34.91900 48.67800 22.75900
C  34.89700 47.93300 21.41400
C  35.46700 46.50000 21.85500
C  35.32800 46.52200 23.37300
C  33.57400 47.93200 20.68900
C  36.86600 46.14700 21.40100
C  37.05700 44.89300 20.49900
N  35.25000 46.21800 26.33400
C  35.51400 45.13000 25.55400
C  35.74800 43.91100 26.40600
C  35.61500 44.44400 27.73600
C  35.22800 45.76300 27.63300
C  36.10700 42.53400 25.97800
C  35.66700 44.11200 29.09800
O  36.10100 43.07500 29.57800
C  35.51500 45.38500 29.92100
C  34.45800 45.03200 30.96200
O  33.39400 44.45000 30.72700
O  34.97500 45.22700 32.20500
C  34.18500 44.87400 33.40900
H  33.35600 51.80000 28.20500
H  34.31200 50.52500 22.02500
H  35.72800 44.43200 23.66100
H  34.16600 47.94100 31.05400
H  34.36400 50.73000 30.37400
H  32.45000 50.51900 31.33400
H  32.29100 48.83700 30.91400
H  31.76300 50.05200 29.72900
H  36.51200 49.61600 31.22100
H  36.98400 47.94700 30.67300
H  37.22400 47.42700 32.64000
H  35.52300 47.46400 32.93900
H  34.03000 54.48700 25.86300
H  33.44700 53.85200 27.33700
H  32.31300 53.94500 25.97400
H  32.70400 54.45400 23.66900
H  33.54700 54.73700 22.03500
H  34.47400 54.99700 23.56700
H  35.65800 48.46200 20.84000
H  34.69900 45.77600 21.58600
H  32.80100 48.33400 21.34500
H  33.16900 46.97700 20.35400
H  33.60000 48.52600 19.77600
H  37.47400 45.83500 22.25000
H  37.42800 46.96100 20.94400
H  37.78300 44.20600 20.93500
H  37.41600 45.23400 19.52900
H  36.04400 44.50100 20.41200
H  35.21600 41.91400 26.08400
H  36.94800 42.13200 26.54300
H  36.47100 42.61600 24.95400
H  36.54300 45.50800 30.26300
H  33.20900 45.35000 33.50300
H  34.68200 45.22800 34.31200
H  34.05000 43.79200 33.37400
Mg -10.38600 17.29100 41.17600
C  -6.92800 16.68300 41.10100
C  -9.63400 20.54900 40.69600
C  -13.53300 17.62200 40.08800
C  -10.90600 13.82500 41.22200
N  -8.43400 18.41400 41.05600
C  -7.18700 17.99500 41.00300
C  -6.16400 19.14100 40.67200
C  -7.09800 20.40400 40.96300
C  -8.47900 19.75900 40.88100
C  -7.01400 21.18600 42.29300
C  -5.67800 18.89600 39.18900
C  -4.24800 18.53800 38.87200
H  -3.98700 17.30500 37.98700
N  -11.56700 18.94400 40.76500
C  -11.03900 20.18900 40.50900
C  -12.11400 21.05100 40.20100
C  -13.30900 20.21800 40.04400
C  -12.82400 18.84100 40.25600
C  -11.99300 22.54700 40.04900
C  -14.69500 20.74000 39.75000
O  -14.99100 21.87600 39.47900
C  -15.84500 19.81300 39.79400
N  -11.98900 15.84700 40.73000
C  -13.13600 16.27600 40.30700
C  -14.14600 15.14600 39.95600
C  -13.42500 13.94600 40.64100
C  -12.07400 14.55300 40.95600
C  -15.58400 15.09200 40.52100
C  -13.52700 12.68200 39.77600
C  -14.12500 11.45600 40.51000
N  -9.24400 15.53500 41.26100
C  -9.58200 14.21000 41.40100
C  -8.41300 13.42500 41.38000
C  -7.30500 14.32800 41.27300
C  -7.87300 15.62300 41.25500
C  -8.34300 11.86500 41.44600
C  -5.93500 14.33700 41.16600
O  -5.20000 13.34500 41.08200
C  -5.58800 15.91800 41.17200
C  -4.79000 16.33100 42.31400
O  -3.99700 17.20000 42.29000
O  -5.01700 15.58800 43.48300
C  -4.00900 15.64500 44.59000
H  -9.35200 21.59900 40.59700
H  -14.53300 17.62100 39.65000
H  -11.06200 12.74800 41.31000
H  -5.35500 19.06900 41.40000
H  -6.83600 21.12400 40.18700
H  -7.99200 21.34900 42.74400
H  -6.45900 22.10900 42.12800
H  -6.44300 20.50400 42.92500
H  -5.91500 19.84900 38.71700
H  -6.22000 18.12200 38.64600
H  -3.77600 18.39200 39.84400
H  -3.75700 19.41000 38.44100
H  -12.94400 23.06900 40.16000
H  -11.62800 22.77200 39.04700
H  -11.20600 22.81600 40.75400
H  -15.69300 19.13900 38.95200
H  -16.80800 20.31500 39.70100
H  -15.68800 19.18500 40.67100
H  -14.16500 15.12500 38.86700
H  -13.86500 13.76900 41.62300
H  -15.63400 16.05700 41.02700
H  -15.81700 14.32700 41.26100
H  -16.39100 15.10600 39.78900
H  -12.47100 12.42700 39.69200
H  -13.87600 12.71000 38.74400
H  -14.98800 11.70500 41.12700
H  -13.34600 10.87300 41.00200
H  -14.52900 10.77100 39.76500
H  -7.53700 11.62900 40.75100
H  -9.26000 11.32900 41.20100
H  -8.04800 11.60200 42.46200
H  -5.13300 16.15300 40.20900
H  -4.10700 16.50800 45.24900
H  -2.97900 15.69900 44.23900
H  -4.08500 14.65900 45.04800

