158

Mg 1.52800 -1.71300 42.61700
C  4.80400 -0.87600 42.06500
C  0.55100 1.15100 40.98600
C  -1.75900 -2.78000 42.62600
C  2.50800 -4.93200 43.74000
N  2.62400 -0.15800 41.50300
C  3.92900 0.11700 41.59900
C  4.32000 1.42100 40.95100
C  2.89200 2.18400 40.87900
C  1.95700 0.97600 41.17600
C  2.76200 3.26400 41.98500
C  4.73100 0.98600 39.52400
C  6.11600 1.46400 39.04900
H  6.21300 2.35500 37.85600
N  -0.29600 -0.97900 41.89600
C  -0.50900 0.28700 41.28900
C  -1.89700 0.52100 41.04600
C  -2.57000 -0.69500 41.44000
C  -1.49300 -1.61500 42.02600
C  -2.40600 1.79100 40.38600
C  -4.08600 -0.88000 41.29000
O  -4.76600 0.08500 40.87000
C  -4.77400 -2.12000 41.59000
N  0.53800 -3.54200 43.05600
C  -0.84400 -3.70600 43.07800
C  -1.28700 -5.12500 43.42800
C  0.07300 -5.80500 43.76100
C  1.11400 -4.65000 43.62400
C  -2.40800 -5.36900 44.44500
C  0.39600 -7.02000 42.87000
C  -0.14100 -8.32400 43.42800
N  3.29600 -2.72700 42.91800
C  3.53300 -4.01600 43.37400
C  4.94000 -4.22400 43.42100
C  5.52900 -2.90500 43.03800
C  4.47200 -2.12100 42.64100
C  5.63500 -5.46400 43.90800
C  6.77200 -2.20000 42.77500
O  7.95400 -2.43300 42.95000
C  6.30600 -0.79900 42.20000
C  6.70500 0.37600 43.01500
O  6.05400 0.86500 43.92000
O  7.85900 0.88400 42.55000
C  8.49100 1.89500 43.32200
H  0.37000 2.16600 40.62400
H  -2.82100 -3.02800 42.68000
H  2.76800 -5.91600 44.13500
H  5.12300 1.83200 41.56300
H  2.65400 2.75300 39.98000
H  3.76000 3.55600 42.31100
H  2.35700 2.67600 42.80800
H  2.17200 4.11700 41.65100
H  4.04000 1.53600 38.88600
H  4.69900 -0.08100 39.30400
H  6.62300 0.51100 38.89700
H  6.54700 2.03600 39.87000
H  -2.78600 2.52100 41.10100
H  -3.11800 1.66800 39.57000
H  -1.55100 2.26200 39.90200
H  -5.80200 -1.99900 41.24700
H  -4.82400 -2.13700 42.67900
H  -4.23400 -2.92800 41.09700
H  -1.64400 -5.44800 42.45000
H  0.04500 -6.16700 44.78900
H  -3.34600 -5.61500 43.94700
H  -2.42200 -4.48000 45.07600
H  -2.21300 -6.24900 45.05700
H  1.42600 -7.25000 42.59800
H  -0.11200 -6.93400 41.90900
H  -1.12800 -8.12900 43.84800
H  0.51300 -8.70800 44.21100
H  -0.15400 -9.11400 42.67800
H  5.11500 -6.38700 43.65300
H  5.54200 -5.39300 44.99200
H  6.70900 -5.37600 43.74300
H  6.69800 -0.63600 41.19600
H  9.40000 2.20100 42.80400
H  8.73500 1.52300 44.31600
H  7.99300 2.84200 43.52700
Mg 44.36300 4.20200 47.56000
C  42.16000 6.77400 47.36700
C  41.75800 1.87600 47.29100
C  46.68200 1.65500 47.03400
C  46.99100 6.51500 47.10000
N  42.24800 4.30000 47.27600
C  41.56900 5.50000 47.31300
C  40.04600 5.12500 47.07200
C  40.00500 3.68400 47.69500
C  41.45700 3.27300 47.28100
C  39.54800 3.62900 49.19100
C  39.67100 5.24600 45.53700
C  38.92200 6.41300 44.90100
H  39.59700 7.33500 43.81000
N  44.23000 1.96800 47.36800
C  43.05700 1.25900 47.24000
C  43.44600 -0.16000 47.04400
C  44.89600 -0.24400 47.01400
C  45.30100 1.15000 47.15600
C  42.42500 -1.25400 46.90400
C  45.72100 -1.49400 46.86000
O  45.18700 -2.43000 46.34000
C  47.19100 -1.52900 47.19900
N  46.54500 4.06900 47.09800
C  47.23600 2.92400 47.03000
C  48.76200 3.05800 46.93600
C  48.84200 4.62900 46.84400
C  47.38600 5.12400 47.10800
C  49.47500 2.56800 48.25100
C  49.37600 5.17900 45.50000
C  50.87000 4.74700 45.21900
N  44.59300 6.22400 47.33800
C  45.69000 7.03500 47.15200
C  45.31200 8.41500 46.93500
C  43.95400 8.37200 47.12900
C  43.54500 6.99600 47.30600
C  46.16700 9.68200 46.77200
C  42.77700 9.15200 47.10400
O  42.62800 10.37000 47.02200
C  41.58800 8.13700 47.30400
C  40.88700 8.47000 48.54500
O  40.79700 7.82200 49.62800
O  40.22600 9.63400 48.25100
C  39.35200 10.14600 49.23100
H  40.86500 1.26400 47.14900
H  47.55000 1.04600 46.77400
H  47.76900 7.25000 46.88000
H  39.46700 5.84200 47.65400
H  39.31000 3.07500 47.11700
H  39.53000 4.58400 49.71600
H  40.32300 2.99700 49.62700
H  38.53100 3.24000 49.14600
H  39.16800 4.33700 45.20700
H  40.65600 5.19800 45.07200
H  38.60800 7.10800 45.67900
H  38.06600 6.04100 44.33800
H  42.79300 -2.11100 46.34100
H  41.41500 -0.86100 46.78900
H  42.32000 -1.75700 47.86600
H  47.39500 -2.60000 47.18700
H  47.21300 -1.13300 48.21400
H  47.78600 -0.94800 46.49300
H  49.24100 2.56800 46.08800
H  49.46000 5.08900 47.61500
H  49.83700 1.55800 48.05400
H  48.83400 2.48600 49.12900
H  50.20900 3.34200 48.47400
H  49.31400 6.25400 45.32800
H  48.82100 4.66800 44.71400
H  51.36100 4.21100 46.03100
H  51.44600 5.53000 44.72500
H  50.80500 4.00500 44.42300
H  47.14300 9.40400 47.16900
H  45.75000 10.41800 47.45900
H  46.19100 10.12900 45.77800
H  40.89300 8.24000 46.47000
H  39.98100 10.30800 50.10600
H  38.49500 9.53900 49.52100
H  38.96200 11.08900 48.84800

