158

Mg 26.32600 51.44000 25.42300
C  23.96300 52.59100 27.77000
C  28.41400 50.79200 27.94500
C  28.41800 50.54400 23.16300
C  24.01400 52.71900 22.90600
N  26.20600 51.74100 27.58100
C  25.17800 52.12000 28.29600
C  25.36600 51.88600 29.78300
C  26.87700 51.54300 29.86000
C  27.24700 51.37200 28.34400
C  27.84900 52.67400 30.47000
C  24.41700 50.75200 30.35000
C  23.57400 51.07700 31.59000
H  23.97600 50.47100 32.94400
N  28.20100 50.78800 25.55900
C  28.91200 50.51000 26.68400
C  30.21700 50.04900 26.28700
C  30.27300 50.02300 24.86600
C  28.90400 50.39200 24.46900
C  31.23700 49.83300 27.44300
C  31.44400 49.71500 23.92100
O  31.38300 49.95500 22.69200
C  32.70700 49.22900 24.51900
N  26.25000 51.80700 23.29800
C  27.27100 51.21100 22.63800
C  26.99800 51.24300 21.12300
C  25.45000 51.75000 21.05500
C  25.21800 52.10300 22.52300
C  28.11200 52.06300 20.19600
C  24.34900 50.82900 20.51700
C  23.27700 51.40600 19.56400
N  24.35700 52.46700 25.31600
C  23.56500 52.84400 24.22800
C  22.33400 53.38400 24.65100
C  22.35000 53.31100 26.04000
C  23.65200 52.76600 26.37200
C  21.26100 53.95200 23.74100
C  21.71800 53.49300 27.35000
O  20.62400 53.86200 27.61200
C  22.71700 53.08100 28.53500
C  23.05000 54.09800 29.52000
O  23.90300 54.96300 29.44700
O  22.31300 53.88700 30.66900
C  22.24500 54.89000 31.74200
H  29.04300 50.44800 28.76900
H  28.96500 49.99400 22.39400
H  23.24600 52.84900 22.14200
H  25.29200 52.80200 30.36900
H  26.99100 50.58000 30.35800
H  27.28400 53.57500 30.70900
H  28.58100 53.01400 29.73700
H  28.17600 52.44000 31.48300
H  25.05900 49.87500 30.42000
H  23.76400 50.41200 29.54600
H  22.58700 50.66300 31.38200
H  23.36600 52.14500 31.65100
H  30.79900 49.26600 28.26400
H  31.31600 50.84500 27.84000
H  32.24300 49.45100 27.26700
H  33.01100 50.16100 24.99500
H  33.33700 48.97300 23.66700
H  32.56600 48.31100 25.08900
H  26.97800 50.21800 20.75200
H  25.42100 52.66900 20.47100
H  28.94100 52.21800 20.88500
H  27.74500 53.03700 19.87200
H  28.59100 51.51000 19.38800
H  23.74500 50.38000 21.30600
H  24.77700 49.95800 20.02100
H  23.23500 50.88700 18.60600
H  23.48800 52.46800 19.44400
H  22.30100 51.33800 20.04500
H  20.57600 54.58600 24.30400
H  20.81600 53.18200 23.11000
H  21.75300 54.72800 23.15600
H  22.17900 52.29200 29.06100
H  23.10000 55.56200 31.66000
H  22.23700 54.45100 32.73900
H  21.40500 55.58500 31.70200
Mg 8.67200 48.07000 27.62100
C  7.05800 47.44000 30.77100
C  11.62900 48.28600 29.54800
C  10.31800 48.68200 24.81500
C  5.62400 48.03200 26.05400
N  9.14400 47.93600 29.93000
C  8.40200 47.65100 30.98000
C  9.08000 47.75700 32.40000
C  10.56400 48.17600 31.89500
C  10.45700 48.08400 30.37100
C  11.21300 49.48000 32.42200
C  9.11400 46.64900 33.45000
C  8.84300 47.02000 34.93600
H  9.57900 46.12900 36.00500
N  10.63500 48.37300 27.20300
C  11.72600 48.40500 28.14600
C  12.90600 48.63900 27.48400
C  12.59700 48.83800 26.09800
C  11.13800 48.64600 25.96100
C  14.30400 48.71000 28.06400
C  13.56200 49.12800 24.89600
O  13.14100 49.23500 23.77300
C  15.10500 49.18400 25.09300
N  8.05500 48.22700 25.74900
C  8.87900 48.48900 24.76100
C  8.17600 48.58700 23.33600
C  6.66700 48.49600 23.76300
C  6.74600 48.22900 25.25600
C  8.46300 49.85700 22.58500
C  5.87000 47.42300 23.05300
C  5.86100 47.55800 21.53000
N  6.79600 47.77700 28.17800
C  5.66300 47.82700 27.45000
C  4.53800 47.65000 28.24700
C  5.05100 47.47700 29.54300
C  6.42300 47.57400 29.47000
C  3.09800 47.70700 27.87900
C  4.62300 47.21400 30.86700
O  3.52900 47.08700 31.41200
C  5.98700 47.15500 31.70800
C  6.09300 45.81300 32.22000
O  6.48300 44.87300 31.57300
O  5.82500 45.68200 33.61500
C  5.90900 44.28700 34.05900
H  12.53400 48.51200 30.11700
H  10.72000 49.03000 23.86100
H  4.64900 48.11000 25.56800
H  8.62800 48.67600 32.77100
H  11.23600 47.37700 32.20600
H  10.53100 49.88900 33.16700
H  11.32100 50.18400 31.59700
H  12.19700 49.30600 32.85900
H  10.06600 46.13600 33.31700
H  8.41000 45.88100 33.13100
H  7.77700 46.95200 35.15400
H  9.11800 48.05500 35.13900
H  14.75400 47.80400 27.65700
H  14.36600 48.66900 29.15100
H  14.90600 49.58400 27.81800
H  15.48200 50.02400 25.67600
H  15.54500 49.26800 24.09900
H  15.43600 48.20300 25.43600
H  8.52000 47.78400 22.68400
H  6.12300 49.42300 23.58700
H  8.79900 50.71200 23.17100
H  7.58300 50.16700 22.02200
H  9.28400 49.64900 21.89800
H  4.84200 47.46300 23.41500
H  6.23500 46.42200 23.28600
H  6.80800 47.33500 21.03700
H  5.65800 48.61000 21.32800
H  5.06600 46.93900 21.11500
H  2.86800 46.84400 27.25400
H  2.93700 48.70700 27.47700
H  2.50600 47.75300 28.79400
H  5.99800 48.02000 32.37000
H  6.85500 43.81400 33.79500
H  5.05600 43.71300 33.69700
H  5.77000 44.24900 35.14000

