158

Mg 54.07400 24.40200 44.88200
C  51.33600 26.32000 43.65600
C  52.60900 21.65600 43.33600
C  56.79700 22.83400 45.49100
C  55.54900 27.51100 45.72800
N  52.25000 24.11200 43.49500
C  51.29500 25.02400 43.11100
C  50.24000 24.34400 42.12900
C  50.40900 22.80000 42.50800
C  51.84600 22.81300 43.10300
C  49.35400 22.24800 43.45700
C  50.70600 24.65700 40.61500
C  49.50200 24.68200 39.65500
H  49.67200 25.17100 38.24800
N  54.67700 22.49000 44.46500
C  53.90800 21.50800 43.88400
C  54.64800 20.24400 43.95400
C  55.87800 20.57800 44.62700
C  55.85100 22.04700 44.92000
C  54.07400 18.93300 43.53100
C  57.03200 19.51600 44.93800
O  56.93400 18.30900 44.75700
C  58.27200 19.96200 45.67800
N  55.95800 25.11500 45.29400
C  56.93200 24.19000 45.63500
C  58.11500 24.84500 46.35300
C  57.78800 26.41600 46.15800
C  56.38300 26.35500 45.60800
C  58.19500 24.42200 47.80500
C  58.72500 27.20100 45.18000
C  58.23600 27.51200 43.74900
N  53.48600 26.43300 44.93400
C  54.15300 27.54700 45.39700
C  53.18700 28.58300 45.53100
C  52.08800 28.18500 44.80400
C  52.34700 26.87400 44.46300
C  53.25500 29.79100 46.37600
C  50.76500 28.54600 44.35500
O  50.09300 29.52500 44.61300
C  50.21300 27.34300 43.59400
C  49.96400 27.91400 42.27400
O  50.68900 28.71500 41.69900
O  48.89400 27.30600 41.69500
C  48.34800 27.89100 40.48500
H  52.12600 20.75200 42.95900
H  57.74400 22.43700 45.86300
H  55.97000 28.44300 46.11200
H  49.24000 24.71000 42.36300
H  50.27400 22.14900 41.64500
H  48.55100 22.97600 43.57600
H  49.86000 22.02800 44.39600
H  48.88800 21.31500 43.14100
H  51.30200 23.81600 40.26100
H  51.12000 25.66500 40.64900
H  48.69300 25.24400 40.12300
H  49.10100 23.67500 39.54100
H  52.98500 18.98100 43.53500
H  54.46600 18.19500 44.23100
H  54.49900 18.55800 42.60000
H  57.94100 20.45600 46.59200
H  58.92400 20.47100 44.96800
H  58.93600 19.18200 46.05000
H  59.08800 24.62800 45.91300
H  57.60800 26.92600 47.10400
H  58.64700 23.43000 47.79400
H  57.22200 24.35900 48.29100
H  58.90500 25.02900 48.36700
H  59.67200 26.68300 45.03400
H  58.87100 28.20500 45.57800
H  57.57800 26.76200 43.31100
H  59.15800 27.70600 43.20100
H  57.73500 28.47800 43.69100
H  52.28200 29.90400 46.85500
H  53.50400 30.74000 45.90300
H  54.04500 29.63600 47.11000
H  49.28200 27.07900 44.09500
H  47.97900 28.80200 40.95600
H  47.43100 27.46900 40.07400
H  49.08600 28.22200 39.75500
Mg 35.71500 48.97000 25.43000
C  35.90700 46.89200 28.30600
C  34.38000 51.39400 27.30400
C  34.91400 50.55700 22.59200
C  36.91900 46.11000 23.51900
N  35.33200 49.12500 27.58000
C  35.48800 48.22900 28.50400
C  35.15100 48.79000 29.93800
C  34.45900 50.15700 29.57600
C  34.80600 50.27200 28.07600
C  32.98400 50.21900 29.95900
C  36.52600 48.82300 30.62400
C  36.49300 48.33900 32.08300
H  35.14900 48.29000 32.88900
N  34.89100 50.73200 25.04000
C  34.49300 51.66300 25.95200
C  34.14500 52.95300 25.32700
C  34.25300 52.67200 23.96500
C  34.68000 51.24400 23.82600
C  33.98900 54.24400 26.11400
C  34.06400 53.65300 22.74600
O  34.21900 53.34800 21.58400
C  33.75600 55.07700 23.02100
N  35.87200 48.38500 23.35800
C  35.50700 49.25600 22.38400
C  35.84100 48.71300 20.99100
C  36.66600 47.40800 21.26200
C  36.49400 47.33100 22.84300
C  34.52900 48.45700 20.17200
C  38.16400 47.48300 20.76900
C  39.22800 47.87300 21.83100
N  36.26100 46.91800 25.73300
C  36.67600 45.94900 24.90400
C  36.87800 44.70800 25.66700
C  36.65300 45.06400 27.02700
C  36.27300 46.42500 26.98600
C  37.43300 43.41100 25.22200
C  36.63000 44.55600 28.31500
O  36.96400 43.41100 28.75800
C  36.13500 45.69200 29.25900
C  34.84300 45.27600 29.84000
O  33.73400 45.41000 29.32900
O  35.03500 44.67900 31.09300
C  33.82000 44.22900 31.79600
H  33.86200 52.12200 27.93300
H  34.90100 51.08100 21.63400
H  37.18300 45.13600 23.10200
H  34.51200 48.15000 30.54600
H  34.93400 50.96700 30.12900
H  32.41300 50.42300 29.05300
H  32.79600 50.84300 30.83300
H  32.61100 49.23400 30.24000
H  36.71700 49.88100 30.80700
H  37.37500 48.47300 30.03700
H  37.10100 49.04500 32.64800
H  36.87300 47.31800 32.10400
H  33.70600 54.07400 27.15200
H  33.23700 54.89900 25.67400
H  35.01000 54.62100 26.05100
H  32.87200 55.27600 23.62700
H  33.54000 55.55500 22.06500
H  34.59200 55.60100 23.48400
H  36.55800 49.31700 20.43400
H  36.28600 46.48200 20.83100
H  34.28300 49.40900 19.70200
H  33.69200 48.20200 20.82100
H  34.57900 47.64200 19.44900
H  38.32000 48.16400 19.93300
H  38.37400 46.48700 20.37900
H  39.78000 48.61100 21.24900
H  39.81400 46.96200 21.95000
H  39.08100 48.31900 22.81500
H  38.28900 43.57700 24.56800
H  36.55700 43.01400 24.70900
H  37.70600 42.71700 26.01700
H  36.86600 45.85000 30.05200
H  33.47400 43.42000 31.15300
H  33.05200 44.98900 31.93900
H  34.13000 43.80500 32.75100

