158

Mg -1.88400 17.66600 27.56100
C  -2.70300 15.34100 30.01900
C  -2.54600 20.17700 29.88000
C  -1.78500 19.90400 25.01600
C  -1.61600 15.05000 25.30200
N  -2.38000 17.70500 29.80800
C  -2.78700 16.63700 30.59300
C  -3.04500 17.09900 32.03800
C  -3.13800 18.64300 31.86500
C  -2.55400 18.88600 30.42500
C  -4.54900 19.20200 32.09100
C  -1.86600 16.60300 32.97800
C  -1.50500 17.39100 34.27100
H  -1.15400 16.63600 35.49000
N  -2.13100 19.72500 27.48200
C  -2.47500 20.55800 28.50100
C  -2.51400 21.94400 27.96700
C  -2.21000 21.89000 26.57000
C  -2.02500 20.46800 26.31000
C  -2.81800 23.17500 28.92300
C  -2.01700 22.97900 25.57500
O  -1.82600 22.78300 24.39800
C  -2.17400 24.34800 26.06600
N  -1.69700 17.49100 25.51400
C  -1.73700 18.55600 24.63800
C  -1.60300 18.11700 23.14800
C  -1.30600 16.57400 23.29100
C  -1.60100 16.37500 24.74700
C  -2.87300 18.46100 22.17700
C  0.17100 16.21400 22.91200
C  1.31500 16.94500 23.61400
N  -2.08300 15.58300 27.55200
C  -1.93100 14.61000 26.61000
C  -2.28900 13.26000 27.14800
C  -2.56800 13.59100 28.51100
C  -2.40600 14.97600 28.72200
C  -2.26700 11.97100 26.37200
C  -3.03200 13.04300 29.75300
O  -3.38400 11.91800 30.03500
C  -2.98400 14.07400 30.78800
C  -1.84800 13.56100 31.67500
O  -0.65500 13.85500 31.63200
O  -2.42900 12.68900 32.60300
C  -1.51300 12.35500 33.75400
H  -2.81300 21.02600 30.51200
H  -1.93600 20.52800 24.13300
H  -1.51800 14.31600 24.49900
H  -3.94800 16.66000 32.46100
H  -2.50400 19.15200 32.59000
H  -5.29600 18.43700 32.30500
H  -4.78300 19.69000 31.14500
H  -4.41500 19.92800 32.89300
H  -1.01700 16.44400 32.31400
H  -2.26800 15.69400 33.42600
H  -2.35800 18.05000 34.43500
H  -0.64700 18.01200 34.01500
H  -1.97500 23.86400 28.97600
H  -3.22300 22.96500 29.91300
H  -3.73500 23.53400 28.45600
H  -1.54900 24.60700 26.92000
H  -3.20000 24.65900 26.26200
H  -1.86900 25.00800 25.25300
H  -0.73500 18.64800 22.75900
H  -1.85000 15.92900 22.60200
H  -2.54200 19.06700 21.33200
H  -3.58100 19.07600 22.73200
H  -3.34100 17.52100 21.88600
H  0.31500 16.22900 21.83100
H  0.41100 15.19200 23.20800
H  1.89400 17.51400 22.88700
H  1.97800 16.26000 24.14300
H  1.07700 17.65100 24.41000
H  -1.54600 12.05800 25.55900
H  -3.28300 11.81200 26.01100
H  -1.94300 11.25600 27.12900
H  -3.89300 13.98400 31.38400
H  -1.79500 11.45700 34.30300
H  -1.63000 13.19100 34.44300
H  -0.47800 12.29400 33.42000
Mg 26.01200 0.89000 29.26800
C  27.69300 0.56300 32.19200
C  23.05500 1.42700 30.88600
C  24.57400 0.92000 26.16800
C  29.14900 0.18400 27.61100
N  25.32700 0.66600 31.36100
C  26.28700 0.79700 32.32900
C  25.53700 1.21400 33.69100
C  24.14500 1.37000 33.23700
C  24.13500 1.18900 31.74300
C  23.17100 0.41100 34.01200
C  26.14700 2.46600 34.30600
C  26.85900 2.24900 35.65600
H  26.44200 3.11100 36.89300
N  24.14000 1.09100 28.61300
C  23.03800 1.33400 29.44500
C  21.86100 1.36900 28.59400
C  22.25100 1.23100 27.29000
C  23.69600 1.08100 27.31500
C  20.48400 1.50600 29.24600
C  21.47700 1.45200 25.97300
O  21.91000 1.23000 24.85500
C  20.01200 1.85300 26.09300
N  26.74700 0.67000 27.19000
C  25.96100 0.85400 26.11000
C  26.73900 0.58500 24.81400
C  28.23600 0.59300 25.25100
C  28.08400 0.55200 26.79100
C  26.34000 -0.66300 23.94600
C  29.16200 1.80000 24.83200
C  29.74000 1.64100 23.47500
N  27.99500 0.20800 29.73600
C  29.19000 0.06000 28.95200
C  30.26800 -0.18700 29.83200
C  29.69800 0.04600 31.11300
C  28.33100 0.26600 31.03100
C  31.62700 -0.66100 29.56700
C  30.02500 0.12700 32.56100
O  31.04700 0.06400 33.21800
C  28.73400 0.44000 33.27100
C  28.50100 -0.67300 34.27000
O  27.86800 -1.72300 34.05600
O  28.88300 -0.26000 35.53600
C  28.45100 -1.13900 36.65100
H  22.19200 1.88100 31.37800
H  24.17900 0.91400 25.15000
H  30.10700 0.02600 27.11200
H  25.67700 0.35200 34.34300
H  23.81700 2.37300 33.51200
H  23.66700 -0.49400 34.36200
H  22.35200 0.20900 33.32200
H  22.85400 0.89100 34.93700
H  25.37200 3.18100 34.58300
H  26.93200 2.82800 33.64300
H  27.89200 2.56200 35.50400
H  26.90800 1.18300 35.87800
H  19.79600 0.76900 28.83400
H  20.05700 2.50100 29.11700
H  20.32200 1.18500 30.27500
H  19.41700 1.11700 26.63300
H  19.49000 2.05200 25.15700
H  19.86600 2.76400 26.67400
H  26.61200 1.36300 24.06000
H  28.71000 -0.34700 24.96900
H  25.62000 -1.31000 24.44700
H  27.22700 -1.18600 23.59000
H  25.79900 -0.26600 23.08700
H  30.02800 2.03600 25.45000
H  28.52900 2.68400 24.75600
H  29.55500 0.66600 23.02500
H  30.80700 1.86400 23.49300
H  29.32300 2.35200 22.76200
H  32.24700 0.06400 29.04000
H  31.65800 -1.57100 28.97000
H  32.09000 -0.94800 30.51100
H  28.99300 1.39200 33.73600
H  28.71400 -2.17900 36.45400
H  27.37400 -1.06100 36.79800
H  28.99200 -0.81000 37.53800

