158

Mg 48.22500 15.09500 28.42300
C  45.79100 15.07800 30.97600
C  50.12700 17.21600 30.30500
C  50.21300 15.44400 25.72600
C  45.88200 13.53100 26.29900
N  47.94800 16.13000 30.38600
C  46.99400 15.80800 31.35100
C  47.30500 16.45800 32.72500
C  48.54800 17.38800 32.32100
C  48.94200 16.89200 30.91400
C  48.17100 18.87400 32.44500
C  47.70800 15.26300 33.66000
C  47.19300 15.33300 35.08500
H  47.21300 16.65700 35.84600
N  49.92800 16.11800 28.10700
C  50.63500 16.81100 29.01400
C  51.92300 17.17900 28.40300
C  52.05200 16.58700 27.12200
C  50.69200 16.04100 26.94600
C  52.92600 18.06100 29.17500
C  53.23200 16.47200 26.16600
O  53.21800 15.73200 25.16400
C  54.54800 17.04600 26.55300
N  47.92700 14.86300 26.25100
C  48.97400 14.94800 25.39600
C  48.70600 14.26600 24.04800
C  47.39900 13.61700 24.32200
C  47.05600 14.00600 25.72900
C  48.79100 15.21600 22.82400
C  47.28700 12.12200 23.86400
C  47.78300 11.11800 24.90500
N  46.30500 14.29100 28.59700
C  45.52300 13.67200 27.68600
C  44.29200 13.22500 28.32100
C  44.40300 13.72700 29.66500
C  45.61300 14.39500 29.77300
C  43.37400 12.23300 27.75300
C  43.72700 13.71700 30.94700
O  42.66800 13.16000 31.26800
C  44.59300 14.60800 31.87900
C  43.79800 15.64200 32.48700
O  43.22000 16.60200 31.98100
O  43.63100 15.38000 33.79700
C  42.69000 16.21400 34.60300
H  50.83100 17.79000 30.91000
H  50.70400 15.39100 24.75200
H  45.22500 13.04500 25.57500
H  46.64600 17.19200 33.19000
H  49.38400 17.28700 33.01300
H  48.67100 19.44900 31.66500
H  48.64900 19.20300 33.36800
H  47.11700 19.14300 32.38200
H  48.77400 15.03800 33.64500
H  47.30500 14.37000 33.18200
H  47.92200 14.74100 35.63900
H  46.23900 14.80600 35.06300
H  53.61800 17.35800 29.63800
H  52.37800 18.65800 29.90400
H  53.44100 18.71800 28.47400
H  54.94300 16.74200 27.52200
H  54.43400 18.13000 26.56800
H  55.28700 16.75000 25.80900
H  49.45300 13.52400 23.76700
H  46.68500 14.13900 23.68500
H  49.80700 15.19100 22.43000
H  48.53600 16.26200 22.99700
H  48.19400 14.85300 21.98700
H  47.82100 11.95200 22.92900
H  46.22700 11.93500 23.69100
H  46.85200 10.79200 25.37000
H  48.54400 11.40400 25.63100
H  48.22400 10.32800 24.29800
H  42.42000 12.46400 28.22900
H  43.77500 11.27500 28.08400
H  43.29100 12.35700 26.67400
H  45.05500 13.95700 32.62100
H  43.34300 17.06500 34.79400
H  42.34700 15.84900 35.57200
H  41.80500 16.52900 34.05000
Mg 41.82400 40.89000 26.40900
C  40.76300 43.19700 28.87400
C  42.72200 38.67900 28.92900
C  43.01400 38.78300 23.97200
C  40.98800 43.16000 23.88000
N  41.71800 41.03100 28.63300
C  41.15200 41.99000 29.44000
C  41.28700 41.58700 30.94000
C  41.96500 40.15400 30.86200
C  42.20000 39.95200 29.36000
C  43.24400 40.05600 31.70600
C  39.91600 41.75100 31.71500
C  39.77200 42.83400 32.74100
H  39.06800 42.53700 34.08500
N  42.67700 38.96400 26.45400
C  42.98700 38.24100 27.56600
C  43.43000 36.90100 27.14600
C  43.51100 36.88700 25.70400
C  43.06200 38.24100 25.31100
C  43.77200 35.81500 28.12600
C  43.96900 35.78100 24.64500
O  44.04600 35.88900 23.41600
C  44.23800 34.48500 25.20700
N  42.04000 40.98200 24.24100
C  42.54800 39.96600 23.45900
C  42.48800 40.28000 21.99400
C  41.58100 41.52200 21.95500
C  41.53300 41.91600 23.42900
C  43.84700 40.38400 21.22300
C  40.12000 41.45200 21.33400
C  39.23100 40.25100 21.72900
N  41.08600 42.81900 26.28600
C  40.81300 43.61900 25.18700
C  40.26100 44.89300 25.61700
C  40.31000 44.81600 27.06000
C  40.70400 43.50200 27.41800
C  39.77300 46.01200 24.80800
C  40.06900 45.46700 28.32600
O  39.66100 46.60800 28.57000
C  40.42600 44.57200 29.50700
C  41.47800 45.19300 30.38600
O  42.63400 45.37300 30.13200
O  40.88900 45.48400 31.62000
C  41.72900 46.11600 32.62400
H  42.91100 37.99300 29.75700
H  43.27900 38.06100 23.19700
H  40.83000 43.94700 23.14000
H  42.08300 42.18100 31.38700
H  41.16600 39.46000 31.12300
H  43.37600 39.17700 32.33700
H  43.28900 40.83800 32.46400
H  44.08200 40.33700 31.06900
H  39.76100 40.79100 32.20600
H  39.09400 41.87900 31.01100
H  39.36800 43.75700 32.32600
H  40.73400 43.23100 33.06600
H  43.17500 35.95300 29.02800
H  44.84200 35.77000 28.32500
H  43.48100 34.82800 27.76800
H  43.41900 34.00600 25.74300
H  44.95000 34.74800 25.98900
H  44.72400 33.84100 24.47400
H  41.99100 39.46500 21.46900
H  42.08400 42.40700 21.56500
H  44.56500 39.79600 21.79600
H  43.95700 41.43200 20.94700
H  43.68100 39.75500 20.34800
H  40.22900 41.46700 20.25000
H  39.54400 42.34300 21.58400
H  38.77300 39.67300 20.92600
H  38.41600 40.62100 22.35200
H  39.70500 39.51600 22.37900
H  40.62800 46.68200 24.89600
H  38.83500 46.40000 25.20500
H  39.64500 45.63300 23.79400
H  39.53000 44.61600 30.12700
H  41.44400 45.68200 33.58300
H  41.51500 47.18400 32.57900
H  42.80400 46.01000 32.48300

