158

Mg 35.08400 3.02500 29.64700
C  32.80100 4.02100 32.21500
C  37.52200 3.34200 31.82300
C  37.13300 2.58100 27.02500
C  32.38700 3.58300 27.35000
N  35.13300 3.55900 31.80500
C  34.13400 3.77700 32.65300
C  34.59800 3.82900 34.15200
C  36.19300 3.72600 33.92800
C  36.32600 3.57100 32.44400
C  37.00700 4.95900 34.52700
C  34.01900 2.60000 34.94600
C  33.93000 2.79800 36.51200
H  34.56700 3.98000 37.19500
N  36.98000 2.80400 29.48500
C  37.89600 2.93700 30.52300
C  39.23000 2.58700 30.05000
C  39.10800 2.30500 28.70000
C  37.69700 2.59700 28.32400
C  40.44500 2.30500 31.00800
C  40.15700 1.76500 27.76400
O  39.88700 1.43600 26.61900
C  41.57700 1.68500 28.21700
N  34.76200 3.01000 27.46800
C  35.78600 2.72400 26.64400
C  35.34500 2.62900 25.19900
C  33.86600 3.05600 25.30200
C  33.61600 3.24700 26.79300
C  36.16000 3.41200 24.14500
C  32.83200 2.05500 24.67700
C  32.52300 0.80800 25.56200
N  33.05800 3.63000 29.68300
C  32.14100 3.81000 28.71500
C  30.80900 4.11900 29.28600
C  31.03800 4.15500 30.67800
C  32.41900 3.95200 30.85800
C  29.50600 4.19400 28.53800
C  30.41300 4.45900 31.96900
O  29.29200 4.90100 32.17300
C  31.57100 4.37300 33.00300
C  31.61500 5.59400 33.79000
O  32.26100 6.56500 33.44500
O  31.10500 5.33100 35.06700
C  31.40300 6.44100 36.01300
H  38.32500 3.40300 32.56100
H  37.84200 2.47200 26.20200
H  31.53100 3.77400 26.69900
H  34.20500 4.74300 34.59700
H  36.46800 2.80700 34.44600
H  37.52700 5.52900 33.75700
H  37.70000 4.64300 35.30700
H  36.24200 5.60500 34.95800
H  34.49400 1.63700 34.75600
H  33.01200 2.51900 34.53900
H  34.34300 1.94700 37.05400
H  32.87300 2.84000 36.77600
H  40.46400 1.24200 31.24900
H  40.43800 2.90000 31.92100
H  41.41700 2.59700 30.61000
H  41.72600 0.90300 28.96200
H  41.99200 2.67000 28.42900
H  42.19200 1.43400 27.35300
H  35.49000 1.57200 24.97400
H  33.76400 4.04800 24.86400
H  36.47500 2.70000 23.38200
H  37.04500 3.85300 24.60300
H  35.57100 4.22700 23.72500
H  33.31200 1.78600 23.73600
H  31.94100 2.56700 24.31300
H  32.70800 1.05600 26.60700
H  33.22100 0.01800 25.28600
H  31.46600 0.64000 25.35300
H  28.78600 4.28000 29.35200
H  29.17600 3.35800 27.92000
H  29.40000 5.15300 28.03200
H  31.28200 3.63600 33.75200
H  30.72000 7.28400 35.90600
H  32.46500 6.68300 36.04200
H  31.21200 6.17200 37.05200
Mg 49.41400 35.95600 27.37800
C  46.93500 34.37600 29.61700
C  49.33400 38.54800 29.55700
C  50.97600 37.65700 25.12300
C  48.56200 33.41000 25.05600
N  48.26600 36.34000 29.29800
C  47.60300 35.45500 30.12100
C  47.55400 36.02200 31.54300
C  47.78700 37.54300 31.38800
C  48.51000 37.53200 29.98800
C  46.47700 38.43700 31.54600
C  48.78800 35.42500 32.31900
C  48.72900 35.65400 33.86100
H  47.56000 36.44700 34.59300
N  50.15200 37.78700 27.39400
C  50.03800 38.74100 28.36400
C  50.81400 39.90400 27.98000
C  51.43900 39.60600 26.69100
C  50.86600 38.30300 26.34800
C  50.88500 41.12100 28.90500
C  52.29500 40.44500 25.73600
O  52.59100 40.16900 24.54700
C  52.81300 41.76400 26.23400
N  49.72200 35.58100 25.39200
C  50.50500 36.41800 24.68600
C  51.01400 35.81200 23.38400
C  50.12100 34.46900 23.27100
C  49.40700 34.42600 24.68600
C  51.14600 36.62700 22.10700
C  51.03500 33.14800 23.11700
C  50.40500 32.08400 22.19100
N  48.12400 34.19200 27.28500
C  47.89000 33.24500 26.28800
C  47.00500 32.21100 26.75000
C  46.62900 32.59700 28.06000
C  47.21900 33.85300 28.27000
C  46.50900 31.00600 25.99300
C  45.85800 32.23900 29.19300
O  45.19900 31.20100 29.41000
C  45.90300 33.42300 30.17800
C  46.32100 32.86900 31.51600
O  47.35600 32.37500 31.87400
O  45.27300 33.04500 32.36000
C  45.14100 32.31800 33.63300
H  49.40900 39.32200 30.32500
H  51.64100 38.05600 24.35400
H  48.32800 32.66900 24.28900
H  46.62600 35.83500 32.08200
H  48.55500 37.78400 32.12300
H  46.27100 38.97800 30.62200
H  46.43900 39.05200 32.44500
H  45.56600 37.84100 31.60400
H  49.74500 35.75700 31.91700
H  48.86500 34.34600 32.18800
H  49.62900 36.18200 34.17500
H  48.81600 34.68800 34.35800
H  49.96100 41.28600 29.45900
H  51.07800 41.96300 28.24000
H  51.60700 40.86100 29.68000
H  52.00400 42.47000 26.41900
H  53.56000 42.12800 25.52800
H  53.25800 41.49000 27.19000
H  52.06600 35.69000 23.64200
H  49.27900 34.68400 22.61400
H  50.37900 36.41000 21.36300
H  52.09600 36.47900 21.59300
H  51.06500 37.70800 22.21500
H  51.13200 32.67800 24.09600
H  52.00500 33.40200 22.69100
H  49.89300 32.48900 21.31800
H  49.86300 31.43500 22.87900
H  51.24900 31.47500 21.86900
H  46.10100 31.40900 25.06600
H  45.96000 30.32900 26.64800
H  47.34300 30.36700 25.70300
H  45.00200 34.03500 30.13400
H  46.09900 32.09200 34.10200
H  44.45200 31.47600 33.70200
H  44.61000 32.96100 34.33500

