158

Mg 30.12800 58.02600 40.53600
C  27.11400 56.28500 39.87300
C  31.89300 55.33000 39.43500
C  32.86800 59.99900 40.09100
C  28.17300 60.87600 41.20900
N  29.47600 56.06500 39.65400
C  28.19500 55.49500 39.56700
C  28.32500 54.02800 39.22400
C  29.87400 53.82100 39.07000
C  30.47100 55.15400 39.48900
C  30.41100 52.56300 39.83400
C  27.40400 53.51600 38.06400
C  27.19500 54.33100 36.81500
H  27.97400 54.07500 35.50900
N  32.13700 57.67700 40.15000
C  32.61300 56.48000 39.68500
C  34.06000 56.53000 39.65900
C  34.36800 57.90500 39.80600
C  33.09800 58.61700 39.97200
C  34.95300 55.43800 39.28100
C  35.73700 58.51300 39.56700
O  36.72000 57.83300 39.35000
C  35.92500 60.03100 39.70200
N  30.47500 60.16200 40.59800
C  31.70800 60.72700 40.45800
C  31.66800 62.26900 40.63100
C  30.16500 62.49700 41.04700
C  29.54100 61.11500 40.92200
C  32.73000 62.79100 41.70600
C  29.36400 63.51700 40.15700
C  28.44700 64.50300 40.99900
N  28.04900 58.54700 40.70800
C  27.45000 59.72400 40.99000
C  26.00300 59.53200 40.97000
C  25.81700 58.24800 40.53300
C  27.09300 57.64900 40.33200
C  25.01600 60.62300 41.33800
C  24.81300 57.24400 40.12100
O  23.61300 57.29500 40.20900
C  25.60700 55.93500 39.79100
C  25.30500 54.81500 40.73600
O  25.95100 54.48200 41.66000
O  24.12300 54.22600 40.23300
C  23.70500 52.98800 40.96200
H  32.53800 54.46900 39.24700
H  33.63200 60.77100 40.20000
H  27.47900 61.65400 41.53500
H  28.01200 53.46800 40.10500
H  30.12000 53.63000 38.02500
H  31.39700 52.21900 39.52300
H  29.70900 51.77800 39.55200
H  30.49300 52.72800 40.90800
H  26.39000 53.44600 38.45800
H  27.68200 52.50500 37.76500
H  27.26700 55.38400 37.08900
H  26.19300 54.17200 36.41600
H  35.64600 55.81500 38.52900
H  34.55400 54.58600 38.73100
H  35.55000 55.21100 40.16400
H  35.57600 60.35800 40.68100
H  35.32300 60.34200 38.84900
H  36.97200 60.33200 39.65100
H  31.79400 62.79300 39.68400
H  30.20700 62.79600 42.09400
H  33.18500 61.94800 42.22700
H  32.29300 63.41000 42.49000
H  33.53200 63.31100 41.18300
H  28.80100 63.00400 39.37700
H  30.08800 64.19900 39.71200
H  28.68400 65.56300 41.09800
H  28.46100 64.30700 42.07100
H  27.39800 64.45000 40.71000
H  25.44800 61.51200 41.79600
H  24.43700 60.11400 42.10900
H  24.43500 60.95700 40.47800
H  25.44200 55.69300 38.74100
H  22.70800 52.66600 40.66400
H  23.79200 53.06100 42.04700
H  24.52600 52.28400 40.82800
Mg 26.63700 50.52500 27.07600
C  24.80300 51.90400 29.65800
C  28.98900 49.52900 29.35800
C  28.64100 49.74600 24.55000
C  24.15600 51.59900 24.75000
N  26.92600 50.81100 29.15200
C  25.98400 51.28300 30.04300
C  26.22000 50.87600 31.50300
C  27.66500 50.23900 31.39100
C  27.82800 50.14800 29.91100
C  28.74900 51.24800 31.93900
C  25.15100 49.84800 32.03000
C  24.63900 50.31200 33.41400
H  24.78100 49.17400 34.49400
N  28.56400 49.79700 26.98500
C  29.32300 49.29700 28.04000
C  30.41700 48.63800 27.50100
C  30.48000 48.78300 26.09700
C  29.18900 49.46200 25.84600
C  31.34800 47.97700 28.43200
C  31.52100 48.38400 25.10100
O  31.31900 48.60900 23.88200
C  32.70100 47.53100 25.51700
N  26.41500 50.58300 24.94100
C  27.36800 50.16400 24.11800
C  27.04600 50.34300 22.59700
C  25.54200 50.82800 22.66300
C  25.32700 51.03100 24.20100
C  27.99300 51.32200 21.81000
C  24.37000 49.97600 22.11200
C  23.53600 50.49800 20.92100
N  24.83400 51.49100 27.13100
C  23.95200 51.91000 26.15200
C  22.84900 52.56100 26.72900
C  23.15500 52.60700 28.10100
C  24.36900 51.95700 28.30600
C  21.81000 53.10000 25.99900
C  22.63600 52.99000 29.38700
O  21.56400 53.46800 29.75100
C  23.67000 52.47700 30.47000
C  24.18600 53.56200 31.33500
O  25.28200 54.13500 31.27700
O  23.35300 53.81400 32.34300
C  23.79100 54.81100 33.39400
H  29.76300 49.31500 30.09800
H  29.29200 49.57000 23.69100
H  23.37500 51.79100 24.01100
H  26.18100 51.72200 32.18900
H  27.78000 49.25300 31.84000
H  29.64900 51.22100 31.32600
H  29.06300 50.75500 32.85900
H  28.38500 52.23400 32.22800
H  25.59500 48.85500 32.09800
H  24.29300 49.75700 31.36500
H  23.55400 50.36100 33.32100
H  25.03700 51.21900 33.86900
H  32.29400 48.51700 28.40800
H  31.53400 46.97800 28.03900
H  30.91900 47.79700 29.41800
H  33.26400 47.79900 26.41000
H  33.35800 47.27100 24.68700
H  32.18800 46.60200 25.76400
H  27.29200 49.37500 22.16000
H  25.33800 51.79900 22.21200
H  27.45300 52.19400 21.44100
H  28.42700 50.72700 21.00600
H  28.88900 51.51000 22.40200
H  23.71200 49.54600 22.86600
H  24.86700 49.07300 21.75800
H  23.91900 50.20100 19.94400
H  23.51000 51.58600 20.86300
H  22.56500 50.00300 20.89900
H  21.36100 52.41700 25.27800
H  22.15400 54.05900 25.61200
H  20.99800 53.34900 26.68300
H  23.25300 51.84700 31.25600
H  24.19300 55.72600 32.95900
H  24.68400 54.52200 33.94800
H  23.05800 55.08900 34.15100

