158

Mg 8.77900 3.78100 28.00600
C  10.04200 2.02000 30.80600
C  6.76700 5.55500 30.06500
C  7.25700 5.01600 25.33300
C  10.33200 1.39300 26.02600
N  8.44900 3.76000 30.16100
C  9.23900 3.10300 31.08700
C  8.97000 3.70500 32.51800
C  7.72700 4.65500 32.30500
C  7.65900 4.67700 30.74800
C  6.34900 4.14800 32.83700
C  10.24400 4.45700 33.02600
C  10.81800 4.08800 34.44400
H  10.74000 5.18100 35.54100
N  7.35600 5.22000 27.75000
C  6.65400 5.85400 28.74700
C  5.89000 6.88800 28.15800
C  6.12100 6.86900 26.76600
C  6.91900 5.65200 26.52300
C  5.05700 7.92100 28.99900
C  5.60700 7.87200 25.73400
O  5.74600 7.63200 24.53000
C  4.91300 9.08400 26.05800
N  8.69000 3.18600 25.93000
C  7.99900 3.83700 24.96400
C  8.21400 3.29200 23.54400
C  9.30200 2.19000 23.83900
C  9.47700 2.28900 25.36500
C  6.89600 2.67800 22.84100
C  10.67300 2.46000 23.17200
C  11.25000 1.34000 22.34200
N  9.95400 2.07800 28.24400
C  10.56900 1.25400 27.34800
C  11.49300 0.30700 28.07700
C  11.21100 0.55900 29.42100
C  10.37000 1.64300 29.44400
C  12.46500 -0.56100 27.35800
C  11.66000 0.16700 30.76500
O  12.53200 -0.64800 31.03000
C  10.90000 1.11800 31.75500
C  10.06600 0.33200 32.69400
O  8.93500 -0.04800 32.54000
O  10.72100 0.25700 33.88200
C  10.14500 -0.20800 35.16000
H  6.14100 6.18500 30.70100
H  6.68900 5.43200 24.49800
H  10.84700 0.72800 25.33000
H  8.65400 2.90600 33.19000
H  7.83500 5.66000 32.71300
H  5.69300 4.97300 33.11500
H  6.55200 3.52400 33.70700
H  5.84700 3.46700 32.14900
H  10.07900 5.53000 32.93200
H  11.08700 4.21700 32.37800
H  11.86200 3.78500 34.36700
H  10.37300 3.16000 34.80300
H  4.72700 7.52800 29.96000
H  4.15300 8.25000 28.48700
H  5.60400 8.86300 28.98600
H  5.40100 9.62500 26.86900
H  3.89800 8.90500 26.41300
H  4.82000 9.70500 25.16700
H  8.67000 4.03000 22.88400
H  8.89700 1.22300 23.54200
H  6.02400 2.90800 23.45300
H  6.93000 1.59700 22.69900
H  6.71400 3.22900 21.91900
H  11.46500 2.65300 23.89500
H  10.54700 3.29000 22.47600
H  11.95700 0.79900 22.97100
H  11.82200 1.67400 21.47800
H  10.45100 0.66400 22.03600
H  12.65600 -0.30900 26.31500
H  12.11600 -1.59200 27.30200
H  13.38300 -0.50600 27.94400
H  11.49000 1.74700 32.42200
H  9.26400 -0.80900 34.93300
H  9.91200 0.70600 35.70700
H  10.87400 -0.71900 35.78900
Mg 30.55100 58.69600 41.03200
C  27.78800 56.89700 39.93600
C  32.55600 56.28800 39.65300
C  33.08500 60.99600 41.01800
C  28.31300 61.40500 41.77700
N  30.12000 56.88400 39.81100
C  28.96600 56.23500 39.65300
C  29.11200 54.76500 39.27700
C  30.64600 54.58400 39.34500
C  31.16700 55.98200 39.67400
C  31.17400 53.39700 40.17900
C  28.40300 54.26700 38.03300
C  28.20200 55.22000 36.80900
H  28.36100 54.82800 35.37800
N  32.53300 58.61900 40.55400
C  33.15300 57.56000 39.92700
C  34.57800 57.88400 39.83100
C  34.78100 59.20800 40.15200
C  33.46400 59.66500 40.59600
C  35.64000 56.94800 39.27800
C  36.13000 59.92400 40.08900
O  37.07600 59.38900 39.49600
C  36.40400 61.29700 40.65200
N  30.61000 60.81000 41.59400
C  31.81700 61.49200 41.52800
C  31.71600 62.98000 41.88000
C  30.18500 63.10400 42.21200
C  29.65700 61.74400 41.81500
C  32.65600 63.39900 43.03300
C  29.35700 64.29000 41.68100
C  29.08600 65.49200 42.69300
N  28.43000 59.06500 41.08200
C  27.64800 60.18500 41.37200
C  26.26800 59.91600 41.15100
C  26.32400 58.61300 40.59400
C  27.62300 58.16900 40.48000
C  25.18600 60.90800 41.35800
C  25.43500 57.54900 40.07600
O  24.23200 57.56700 39.92900
C  26.39200 56.36700 39.76300
C  26.10000 55.32100 40.78100
O  26.58800 55.16800 41.87600
O  25.14800 54.43700 40.26300
C  24.70500 53.22900 41.05300
H  33.24600 55.53600 39.26400
H  33.74900 61.85300 40.89000
H  27.59100 62.21400 41.90600
H  28.68100 54.33100 40.17900
H  31.07300 54.44700 38.35200
H  31.92200 53.72900 40.89800
H  31.55000 52.69100 39.43800
H  30.44700 52.89100 40.81400
H  27.43700 53.88700 38.36500
H  29.00700 53.48100 37.58000
H  28.92800 56.02200 36.94200
H  27.18000 55.57900 36.92600
H  35.68000 57.22400 38.22500
H  35.33700 55.90600 39.38800
H  36.57600 57.08800 39.81800
H  35.92900 61.54600 41.60200
H  36.14200 62.01600 39.87500
H  37.47900 61.36700 40.81400
H  31.80000 63.54000 40.94900
H  30.15700 63.07300 43.30200
H  33.16300 62.52200 43.43600
H  32.19000 63.90200 43.88000
H  33.32700 64.17300 42.66200
H  28.47400 63.91300 41.16500
H  29.93000 64.61200 40.81100
H  29.32000 65.24700 43.72900
H  28.00600 65.63800 42.66200
H  29.56600 66.40300 42.33600
H  25.40500 61.47400 42.26300
H  24.30600 60.29300 41.54800
H  25.04600 61.45500 40.42600
H  26.09600 56.08700 38.75100
H  24.26900 53.60500 41.97900
H  25.51900 52.57500 41.36600
H  24.00200 52.68100 40.42600

