158

Mg 40.22800 9.94900 29.39700
C  41.94200 10.76700 32.15300
C  37.45900 9.09800 31.32000
C  38.64300 8.82200 26.55200
C  42.91900 11.00000 27.33000
N  39.78400 9.95400 31.47000
C  40.63000 10.39800 32.40000
C  40.05400 10.20800 33.86100
C  38.55200 9.70400 33.46700
C  38.60100 9.54200 31.97300
C  38.08000 8.34100 34.19800
C  40.00500 11.36800 34.71800
C  40.82500 11.23000 36.07400
H  41.30400 12.41900 36.85400
N  38.24800 9.11900 28.99400
C  37.30700 8.92500 29.92600
C  36.11600 8.32500 29.23700
C  36.53500 8.13400 27.87500
C  37.89100 8.70000 27.77600
C  34.92300 7.86000 30.03800
C  35.70800 7.54700 26.74100
O  36.18500 7.27600 25.68000
C  34.25900 7.13800 27.01200
N  40.81800 9.72800 27.35900
C  39.91700 9.29200 26.38300
C  40.47300 9.42300 24.96500
C  41.79300 10.33200 25.19800
C  41.79600 10.35100 26.76600
C  40.74600 8.12700 24.15100
C  41.79500 11.71100 24.45900
C  41.30800 12.92100 25.22000
N  42.15300 10.67100 29.71700
C  43.12900 11.05200 28.80100
C  44.28400 11.49100 29.59800
C  43.90500 11.30300 30.96700
C  42.60500 10.78300 30.94200
C  45.58600 12.03300 29.03400
C  44.32200 11.59200 32.33500
O  45.37400 12.11700 32.79200
C  43.05500 11.14400 33.16600
C  43.46900 10.23400 34.24400
O  43.72900 9.06700 34.13400
O  43.79700 11.05000 35.35000
C  44.40900 10.30100 36.43400
H  36.63800 8.89300 32.01000
H  38.17900 8.50300 25.61600
H  43.67400 11.33600 26.61700
H  40.56700 9.35300 34.30200
H  37.77500 10.41700 33.74300
H  39.00000 8.02200 34.68900
H  37.73400 7.61100 33.46600
H  37.21400 8.52300 34.83300
H  38.97300 11.67900 34.88000
H  40.48900 12.21000 34.22300
H  41.60100 10.46600 36.03100
H  40.10500 10.82200 36.78400
H  34.98100 8.47800 30.93500
H  35.06800 6.83000 30.36400
H  33.95200 8.00000 29.56300
H  33.70700 8.07000 27.13300
H  34.03900 6.46900 27.84400
H  33.84700 6.62700 26.14200
H  39.80600 10.14700 24.49700
H  42.74500 9.90700 24.88100
H  40.02200 7.99700 23.34600
H  40.72100 7.31200 24.87400
H  41.74300 8.18700 23.71600
H  41.11600 11.61100 23.61300
H  42.80600 11.92100 24.11100
H  40.88900 12.74700 26.21100
H  40.49500 13.56100 24.87600
H  42.15900 13.60000 25.26100
H  45.36300 12.73300 28.22900
H  46.24900 11.23500 28.69800
H  46.16100 12.53300 29.81300
H  42.66500 11.97700 33.75100
H  45.44100 10.04800 36.19000
H  43.87800 9.36700 36.61500
H  44.31500 10.95800 37.29900
Mg -1.79000 33.43000 26.93100
C  -3.58700 31.71200 29.34500
C  -0.55900 35.48700 29.32800
C  -0.54000 35.32000 24.48500
C  -3.45100 31.49600 24.38100
N  -2.10000 33.67300 28.99800
C  -2.82500 32.74800 29.87800
C  -2.59100 33.10700 31.36100
C  -1.70100 34.35600 31.29100
C  -1.46300 34.54600 29.74000
C  -2.28300 35.55400 32.08700
C  -2.04000 31.90300 32.25100
C  -2.94700 31.57400 33.49100
H  -2.16900 31.44800 34.80500
N  -0.56600 35.18700 26.92700
C  -0.10600 35.79400 27.99900
C  0.87000 36.82200 27.49400
C  0.77400 36.87000 26.05000
C  -0.16700 35.80700 25.75600
C  1.73900 37.57200 28.43500
C  1.52400 37.74400 25.10100
O  1.45400 37.66000 23.88000
C  2.29300 38.80700 25.61200
N  -2.01600 33.45800 24.68400
C  -1.33000 34.33600 23.96900
C  -1.54600 34.14800 22.47300
C  -2.39700 32.84700 22.41500
C  -2.60600 32.50600 23.92900
C  -2.02500 35.42600 21.66000
C  -1.78600 31.64000 21.69100
C  -0.85800 30.71800 22.48400
N  -3.17700 31.94800 26.77400
C  -3.80200 31.22400 25.70500
C  -4.77800 30.32400 26.22400
C  -4.73100 30.45500 27.63300
C  -3.73200 31.48000 27.90700
C  -5.54600 29.28400 25.37400
C  -5.26200 29.93900 28.92900
O  -6.01200 28.94200 29.12100
C  -4.53500 30.77500 29.98800
C  -5.44300 31.47900 30.92600
O  -5.83600 32.62900 30.92700
O  -5.86100 30.53200 31.86300
C  -6.68000 31.15300 32.90300
H  -0.03400 36.12600 30.04000
H  0.01900 35.82900 23.69800
H  -4.07700 30.94200 23.67900
H  -3.61700 33.21900 31.71100
H  -0.80400 34.14000 31.87200
H  -2.51700 36.39200 31.43100
H  -1.61900 35.94200 32.86000
H  -3.26600 35.32500 32.50000
H  -1.05700 32.08600 32.68500
H  -1.93100 30.99600 31.65600
H  -3.53300 30.67300 33.30600
H  -3.55900 32.43200 33.76700
H  1.34000 38.58400 28.49700
H  2.78900 37.40900 28.19000
H  1.62300 37.19400 29.45100
H  2.77700 39.37200 24.81500
H  3.09800 38.38000 26.20900
H  1.67900 39.49100 26.19700
H  -0.58200 33.91100 22.02400
H  -3.40000 33.09400 22.06700
H  -2.10000 36.23600 22.38500
H  -2.96400 35.31000 21.11800
H  -1.17900 35.75300 21.05500
H  -1.11600 31.98600 20.90400
H  -2.49500 31.05600 21.10300
H  -0.64400 31.09600 23.48400
H  0.03300 30.60400 21.86500
H  -1.32800 29.74300 22.61200
H  -4.84600 28.98700 24.59300
H  -6.50000 29.62100 24.96800
H  -5.77200 28.35100 25.88900
H  -4.00100 30.04900 30.60100
H  -6.22900 32.04500 33.33700
H  -6.89400 30.42600 33.68700
H  -7.63300 31.40100 32.43500

