158

Mg 25.86700 0.98500 29.15900
C  27.88700 0.84800 32.11700
C  23.11200 1.41400 31.23900
C  24.07400 1.39900 26.40100
C  28.70500 0.17800 27.22200
N  25.54100 0.98100 31.38900
C  26.50000 1.05900 32.41400
C  25.91200 1.34500 33.84300
C  24.38800 1.37200 33.56500
C  24.32900 1.25200 31.94900
C  23.58100 0.25700 34.30900
C  26.42900 2.61400 34.58600
C  27.02000 2.41700 35.95900
H  26.78100 3.50500 37.07700
N  23.86500 1.35700 28.87300
C  22.85400 1.43600 29.80800
C  21.60000 1.65400 29.16500
C  21.82500 1.59300 27.72100
C  23.30300 1.46700 27.63800
C  20.27500 1.83200 29.89300
C  20.89900 1.65800 26.54500
O  21.25400 1.61900 25.39200
C  19.54200 2.08400 26.86900
N  26.31400 0.73900 27.12900
C  25.46800 1.03200 26.15700
C  26.04000 0.85800 24.74100
C  27.54700 0.51300 25.06500
C  27.54500 0.51100 26.53800
C  25.30100 -0.01000 23.84800
C  28.65500 1.41400 24.48300
C  29.76100 0.64400 23.79300
N  27.86900 0.55500 29.53600
C  28.87800 0.36700 28.64500
C  30.08100 0.10000 29.35400
C  29.73800 0.35200 30.71900
C  28.38600 0.66500 30.79400
C  31.38600 -0.24500 28.75900
C  30.28400 0.48100 32.09400
O  31.44700 0.30900 32.45300
C  29.05900 0.63500 33.08900
C  28.88800 -0.57300 33.94800
O  28.89400 -1.73000 33.53800
O  28.80000 -0.23400 35.28700
C  28.79100 -1.43100 36.21700
H  22.25700 1.57400 31.90000
H  23.59700 1.72600 25.47500
H  29.47200 -0.30300 26.61100
H  26.19000 0.46100 34.41800
H  23.87900 2.29600 33.84000
H  22.69800 0.82800 34.59600
H  24.14700 -0.12900 35.15700
H  23.27700 -0.59300 33.69800
H  25.73000 3.45100 34.61700
H  27.21400 3.02300 33.94900
H  28.10100 2.52700 35.87800
H  26.80500 1.40800 36.31200
H  20.44900 1.93700 30.96300
H  19.66700 0.94800 29.69900
H  19.58900 2.59600 29.52700
H  18.92300 1.71600 26.05100
H  19.68000 3.16500 26.91000
H  19.16300 1.72900 27.82800
H  26.13200 1.87100 24.34900
H  27.74700 -0.54500 24.89500
H  24.28300 -0.13200 24.21800
H  25.87700 -0.93400 23.80100
H  25.31600 0.49400 22.88200
H  29.01700 2.04600 25.29300
H  28.31900 2.09900 23.70500
H  30.49000 0.27800 24.51600
H  30.22300 1.27400 23.03300
H  29.40100 -0.23700 23.26100
H  32.18500 -0.30500 29.49800
H  31.59600 0.49500 27.98600
H  31.45100 -1.19000 28.21900
H  29.35800 1.54800 33.60500
H  28.68300 -2.40200 35.73400
H  28.03800 -1.17300 36.96200
H  29.66800 -1.34000 36.85800
Mg 30.13900 57.35600 40.60600
C  27.30700 55.23600 39.48200
C  32.19900 55.00300 39.21400
C  32.53300 59.56200 41.01200
C  27.74600 59.88600 41.34400
N  29.72800 55.39000 39.24900
C  28.54300 54.69300 39.06500
C  28.76900 53.25100 38.47900
C  30.32900 53.11700 38.58600
C  30.82900 54.57100 39.12600
C  30.67200 51.99300 39.46300
C  28.24500 53.11800 37.01100
C  28.95500 54.11300 36.02500
H  28.09200 55.13100 35.32400
N  32.14500 57.27100 40.26400
C  32.77100 56.25100 39.68100
C  34.19200 56.59600 39.75000
C  34.40200 57.89400 40.28000
C  33.01600 58.28400 40.55100
C  35.22800 55.59900 39.30700
C  35.78300 58.56800 40.59500
O  36.74500 58.01000 40.06400
C  35.86500 59.81900 41.57500
N  30.14300 59.45200 41.20600
C  31.30400 60.12500 41.35100
C  31.08700 61.63800 41.69200
C  29.57400 61.64700 41.84100
C  29.11600 60.24800 41.42700
C  31.93100 62.31600 42.88400
C  28.73300 62.90100 41.13600
C  27.65700 63.58400 41.98200
N  27.99900 57.51500 40.47600
C  27.21800 58.60800 40.85500
C  25.83200 58.15400 40.84100
C  25.80600 56.85400 40.35400
C  27.12700 56.50800 40.14800
C  24.63300 58.98500 41.14900
C  24.93600 55.72400 39.99100
O  23.70000 55.62000 40.08900
C  25.92500 54.62100 39.46500
C  25.84100 53.40200 40.28400
O  26.33200 53.29800 41.40700
O  25.05400 52.49500 39.57000
C  24.71200 51.23300 40.27900
H  32.87800 54.22100 38.86500
H  33.37000 60.25700 41.10100
H  27.06800 60.56700 41.86300
H  28.22100 52.53700 39.09300
H  30.73500 52.90600 37.59600
H  30.29300 52.21400 40.46000
H  31.76100 51.94400 39.48200
H  30.22400 51.07400 39.08500
H  27.18900 53.38500 36.97600
H  28.34500 52.07000 36.72800
H  29.41100 53.57600 35.19300
H  29.78700 54.73800 36.35000
H  36.15400 56.00500 38.90000
H  34.81100 55.02800 38.47800
H  35.59100 54.97000 40.12000
H  35.57500 60.72700 41.04700
H  36.89600 59.99700 41.88000
H  35.22700 59.61600 42.43600
H  31.28500 62.21000 40.78600
H  29.28800 61.73900 42.88900
H  32.71100 61.62800 43.21100
H  31.23200 62.57800 43.67800
H  32.32100 63.27600 42.54400
H  28.24400 62.43400 40.28100
H  29.28200 63.81000 40.89200
H  27.91300 64.58400 42.33200
H  27.44400 63.02600 42.89400
H  26.69600 63.55100 41.46800
H  24.74200 59.88900 40.54900
H  24.65700 59.39400 42.15900
H  23.71700 58.40400 41.03800
H  25.53600 54.36800 38.47900
H  25.61500 50.62300 40.27200
H  23.91300 50.74700 39.72000
H  24.20800 51.48300 41.21200

