158

Mg 35.43400 48.59200 26.15800
C  36.17200 46.42700 28.90600
C  34.06400 50.89000 28.28600
C  34.34100 50.34000 23.33200
C  36.16700 45.76000 24.04000
N  35.09900 48.57500 28.31900
C  35.58500 47.67800 29.26400
C  35.43600 48.23000 30.69900
C  34.55200 49.56300 30.45600
C  34.58100 49.71500 28.92300
C  33.12200 49.63300 31.05800
C  36.82300 48.55400 31.17800
C  37.22800 48.14200 32.56500
H  37.16900 49.18500 33.66300
N  34.49900 50.35800 25.86300
C  34.02300 51.19900 26.88300
C  33.47400 52.40500 26.35400
C  33.73200 52.36300 24.90100
C  34.26600 50.93200 24.64400
C  32.75700 53.43900 27.22700
C  33.63800 53.46900 23.87600
O  33.90100 53.39100 22.69300
C  33.17700 54.83200 24.30700
N  35.10100 48.03400 23.97200
C  34.80000 49.04000 23.10000
C  34.82300 48.44700 21.72800
C  35.74000 47.18000 21.87200
C  35.70600 46.93900 23.35200
C  33.46100 48.22600 21.10900
C  37.25600 47.22800 21.45700
C  37.57300 46.06000 20.56100
N  36.02100 46.50500 26.38600
C  36.34000 45.53800 25.42000
C  36.82500 44.33700 26.09700
C  36.77500 44.67800 27.43600
C  36.26600 45.95200 27.60700
C  37.25500 42.97400 25.47400
C  37.04700 44.12500 28.77800
O  37.44300 43.08800 29.20200
C  36.72500 45.26800 29.74000
C  35.86500 44.75200 30.81000
O  34.72100 44.38600 30.64000
O  36.54100 44.70300 32.00800
C  35.82800 44.23200 33.17900
H  33.71100 51.68200 28.95000
H  34.07800 50.91000 22.43800
H  36.58600 44.96500 23.42000
H  34.92100 47.53100 31.35800
H  35.12200 50.37600 30.90400
H  33.02300 48.78300 31.73300
H  32.37800 49.47100 30.27800
H  32.86000 50.60400 31.47900
H  36.99000 49.62800 31.26400
H  37.58100 48.11200 30.53100
H  38.22900 47.70900 32.57600
H  36.47300 47.41000 32.85100
H  32.07100 53.07500 27.99100
H  32.20200 54.01200 26.48400
H  33.48700 54.15200 27.61000
H  33.57900 55.20200 25.25000
H  32.09200 54.79400 24.40400
H  33.28500 55.63400 23.57600
H  35.35700 49.19600 21.14400
H  35.20000 46.32700 21.46200
H  33.16700 47.18000 21.01800
H  33.46900 48.58900 20.08100
H  32.66100 48.73900 21.64300
H  37.96800 47.20300 22.28200
H  37.50500 48.12500 20.89100
H  37.25000 46.36400 19.56500
H  37.00500 45.15700 20.78300
H  38.60700 45.72200 20.63700
H  37.53200 43.10700 24.42900
H  36.54900 42.16500 25.66000
H  38.17000 42.60800 25.94000
H  37.63700 45.61200 30.22900
H  36.01200 44.91800 34.00500
H  36.25200 43.29700 33.54700
H  34.77000 44.07000 32.97600
Mg 27.18500 50.28500 25.67000
C  25.49000 51.79400 28.27700
C  29.50500 49.29500 27.87000
C  28.78800 48.86700 23.10900
C  24.82000 51.78000 23.41600
N  27.49500 50.61700 27.81900
C  26.63400 51.09500 28.68200
C  26.97800 50.77000 30.18000
C  28.49000 50.37900 30.01900
C  28.49500 50.05500 28.47000
C  29.44100 51.54000 30.41700
C  26.14900 49.64300 30.79700
C  25.50200 50.04800 32.08400
H  26.44000 50.49400 33.22000
N  28.88600 49.23700 25.54900
C  29.73100 48.91000 26.58200
C  30.86500 48.06700 26.09300
C  30.53600 47.84700 24.68600
C  29.37900 48.67900 24.37500
C  32.01800 47.55400 26.84100
C  31.22900 46.98500 23.66600
O  30.89200 46.79200 22.52200
C  32.32100 46.08400 24.11800
N  26.91600 50.46200 23.61300
C  27.71100 49.73200 22.73800
C  27.24200 49.80600 21.31500
C  25.82800 50.49500 21.43500
C  25.86000 50.99900 22.91200
C  28.21900 50.55300 20.40900
C  24.63000 49.61100 21.09800
C  23.68800 50.15900 20.08600
N  25.55400 51.56600 25.75600
C  24.67600 52.06600 24.80100
C  23.68200 52.83600 25.42800
C  23.86900 52.63000 26.77700
C  25.06800 51.97500 26.95100
C  22.60800 53.48800 24.73200
C  23.28200 52.92400 28.04700
O  22.27000 53.51300 28.34300
C  24.29500 52.42000 29.12300
C  24.72900 53.56200 30.01700
O  25.47200 54.47200 29.79500
O  24.14500 53.37600 31.28100
C  24.55200 54.26700 32.32400
H  30.27300 48.93400 28.55800
H  29.14300 48.40300 22.18600
H  24.00900 52.28000 22.88100
H  26.78100 51.73600 30.64300
H  28.84000 49.45200 30.47400
H  28.89400 52.40600 30.79000
H  29.98900 51.84400 29.52500
H  30.23300 51.19700 31.08200
H  26.83100 48.80300 30.93500
H  25.44600 49.27600 30.05000
H  24.78300 49.28000 32.37100
H  24.87300 50.90300 31.83600
H  32.04400 48.10200 27.78300
H  32.94500 47.82600 26.33600
H  31.79500 46.49400 26.96500
H  32.64200 45.44100 23.29900
H  31.75600 45.44100 24.79300
H  33.22300 46.46600 24.59800
H  27.01700 48.87700 20.79100
H  25.78200 51.38800 20.81100
H  27.72800 50.98700 19.53800
H  28.88200 49.77100 20.04000
H  28.88300 51.22300 20.95500
H  24.07100 49.39500 22.00800
H  24.96700 48.62300 20.78200
H  24.06600 49.82800 19.11900
H  23.66400 51.24800 20.09500
H  22.70500 49.77700 20.36200
H  21.65200 53.00900 24.94200
H  22.80300 53.76300 23.69600
H  22.40800 54.46600 25.17000
H  23.72500 51.67100 29.67200
H  23.80700 54.48900 33.08800
H  24.83300 55.25300 31.95400
H  25.38900 53.87500 32.90200

