158

Mg 43.35200 4.80700 47.10600
C  41.50900 7.87700 46.90300
C  40.27400 3.17900 46.51100
C  45.00100 2.12200 46.30800
C  46.27000 6.67600 46.86200
N  41.11000 5.48600 46.59300
C  40.65700 6.76000 46.74100
C  39.16400 6.77900 46.73100
C  38.76200 5.30000 46.84700
C  40.08400 4.52200 46.64000
C  38.08200 4.95500 48.13700
C  38.36600 7.52300 45.55700
C  39.14400 8.02000 44.37800
H  38.82700 7.39100 43.02000
N  42.76700 2.92300 46.56300
C  41.49900 2.39600 46.34400
C  41.53900 0.95400 46.25500
C  42.90300 0.62600 45.97700
C  43.62300 1.92800 46.26100
C  40.32400 0.12300 46.28800
C  43.51900 -0.67100 45.52500
O  42.75400 -1.61400 45.45600
C  44.95300 -0.92100 45.25400
N  45.45600 4.43100 46.69600
C  45.86600 3.24500 46.49300
C  47.38700 3.17200 46.12400
C  47.77800 4.64100 46.21300
C  46.42100 5.33000 46.57900
C  48.23500 2.31300 47.17000
C  48.38300 5.15600 44.86100
C  49.76600 5.76200 44.99700
N  43.85800 6.86300 47.03800
C  45.07100 7.46300 47.03300
C  44.90500 8.93800 47.17500
C  43.45700 9.06800 47.16200
C  42.87000 7.78700 47.06900
C  45.84400 10.03200 46.91000
C  42.42400 10.11200 47.11200
O  42.52700 11.33200 47.07300
C  41.06200 9.32900 47.08500
C  40.19100 9.62900 48.23900
O  40.15500 8.92200 49.21000
O  39.31800 10.66600 47.90700
C  38.35000 11.07600 48.93100
H  39.34100 2.61100 46.51000
H  45.72600 1.32400 46.13400
H  47.19200 7.25700 46.93300
H  38.84700 7.33000 47.61700
H  38.21500 5.12900 45.92100
H  38.70100 4.49600 48.90800
H  37.23400 4.31000 47.90800
H  37.73600 5.82700 48.69200
H  37.96300 8.43300 46.00400
H  37.44400 6.98400 45.34000
H  40.20300 7.80400 44.51200
H  39.08800 9.10600 44.29600
H  39.76600 0.24000 45.35900
H  39.67400 0.49400 47.08100
H  40.51100 -0.93600 46.46900
H  45.44400 -0.76700 46.21500
H  45.38500 -0.27100 44.49300
H  45.05100 -1.94200 44.88700
H  47.45400 2.82000 45.09400
H  48.40700 4.82900 47.08300
H  48.31900 1.27900 46.83500
H  47.68900 2.44000 48.10500
H  49.23300 2.75100 47.15700
H  47.78100 5.83800 44.26100
H  48.54900 4.38200 44.11200
H  49.86500 6.17800 45.99900
H  50.00000 6.54100 44.27200
H  50.40800 4.90100 44.80900
H  45.59400 10.68000 46.06900
H  46.79000 9.64000 46.53700
H  46.10900 10.68700 47.74000
H  40.61700 9.62600 46.13500
H  38.58700 12.00900 49.44100
H  38.19200 10.29500 49.67500
H  37.44300 11.30400 48.37200
Mg 40.46100 9.89600 30.25800
C  42.12000 11.15700 33.00400
C  37.97900 8.85200 32.37200
C  39.01400 8.36200 27.63900
C  43.07300 10.85600 28.16400
N  40.16900 9.98200 32.56100
C  40.87400 10.67200 33.41200
C  40.26900 10.79000 34.79400
C  38.97600 9.89100 34.60400
C  38.97900 9.57600 33.07300
C  38.98800 8.58900 35.43100
C  39.97300 12.25400 35.25200
C  40.85600 12.78100 36.49400
H  40.12700 13.47100 37.66000
N  38.65000 8.89000 30.00100
C  37.76000 8.56900 30.99900
C  36.53100 7.97300 30.40400
C  36.85400 7.85000 28.99400
C  38.27600 8.27700 28.80100
C  35.38300 7.45700 31.26900
C  36.01800 7.31800 27.89000
O  36.39100 7.16100 26.72800
C  34.55000 7.00000 28.17000
N  40.90400 9.74400 28.11800
C  40.18300 8.98200 27.30800
C  40.68100 9.15100 25.80800
C  42.12700 9.80600 25.99100
C  42.06300 10.18000 27.51000
C  40.61800 7.89800 24.94000
C  42.36200 10.96700 25.08400
C  41.61600 12.31200 25.48000
N  42.22600 10.84400 30.46600
C  43.23100 11.14000 29.52700
C  44.23900 11.84400 30.25200
C  43.89000 11.84900 31.57000
C  42.65600 11.18900 31.66500
C  45.46000 12.49500 29.58600
C  44.28100 12.33200 32.94000
O  45.22900 13.05700 33.23200
C  43.15200 11.81300 33.87700
C  43.69700 10.82600 34.89800
O  43.73400 9.58900 34.79900
O  44.19500 11.58900 35.95600
C  44.94700 10.96200 36.99300
H  37.22400 8.54600 33.09900
H  38.53400 7.93000 26.75800
H  43.89600 11.13500 27.50300
H  40.96700 10.33000 35.49300
H  38.06000 10.42400 34.85700
H  39.67500 8.70200 36.27000
H  39.32100 7.68300 34.92500
H  37.97300 8.47400 35.81200
H  38.90400 12.37600 35.42800
H  40.23800 12.82900 34.36500
H  41.51700 13.55200 36.09700
H  41.36600 11.87400 36.81900
H  35.46200 7.54500 32.35300
H  35.31900 6.39400 31.03700
H  34.44900 7.93300 30.97100
H  34.00700 6.69800 27.27400
H  34.12900 7.94800 28.50200
H  34.54900 6.17700 28.88600
H  39.94400 9.87100 25.45300
H  42.97200 9.11700 25.97900
H  40.57400 7.04000 25.61100
H  41.47000 7.78100 24.27100
H  39.70900 7.82700 24.34200
H  42.10900 10.94800 24.02400
H  43.43400 11.16200 25.07400
H  41.44200 13.08000 24.72700
H  42.22200 12.75800 26.26900
H  40.72400 12.07900 26.06100
H  46.32100 11.82800 29.62400
H  45.42000 13.46300 30.08600
H  45.33100 12.63400 28.51300
H  42.74200 12.71600 34.33000
H  44.28000 10.18400 37.36500
H  45.18900 11.58900 37.85100
H  45.87000 10.50600 36.63700

