158

Mg 48.10600 17.13800 29.45300
C  45.80700 17.06100 32.01800
C  50.21700 19.11300 31.23900
C  50.04800 17.46900 26.72900
C  45.42900 15.84800 27.32000
N  48.10800 17.76200 31.48000
C  47.03500 17.69100 32.33600
C  47.49100 18.16500 33.79400
C  48.92600 18.80200 33.50700
C  49.16700 18.55800 31.96200
C  49.12700 20.22700 33.96200
C  47.43200 16.94500 34.80100
C  47.36300 17.21800 36.34200
H  47.44100 18.61600 37.02100
N  49.90800 18.21100 29.02100
C  50.58900 18.93100 29.93600
C  51.87700 19.30500 29.35700
C  51.87700 18.84000 28.01500
C  50.58900 18.13600 27.82500
C  52.91700 20.07500 30.03000
C  52.85600 19.06000 26.91900
O  52.74400 18.74500 25.73700
C  54.20100 19.64100 27.31300
N  47.77900 16.65200 27.38600
C  48.80800 16.89800 26.46000
C  48.41000 16.39700 25.07500
C  47.02100 15.66300 25.27700
C  46.71900 16.02700 26.74000
C  48.23300 17.44500 23.92800
C  47.16400 14.17300 25.06000
C  45.86000 13.38500 25.06400
N  46.08300 16.40200 29.61900
C  45.12000 16.07400 28.68600
C  43.86900 15.74800 29.28500
C  44.08100 16.17800 30.63000
C  45.46900 16.60500 30.76900
C  42.60300 15.29700 28.67400
C  43.46700 16.40900 31.82000
O  42.32300 16.13600 32.15000
C  44.50900 16.80800 32.82200
C  43.91500 17.92200 33.65200
O  43.89800 19.12000 33.38400
O  43.51000 17.36600 34.82800
C  42.86100 18.24200 35.77000
H  50.86100 19.71100 31.88700
H  50.67500 17.61000 25.84600
H  44.65100 15.32100 26.76300
H  46.91400 18.99100 34.21100
H  49.76700 18.34700 34.03100
H  49.20900 20.84800 33.07000
H  49.99200 20.41000 34.59800
H  48.25300 20.55700 34.52400
H  48.29600 16.31000 34.60100
H  46.66700 16.22400 34.51300
H  48.12700 16.55000 36.73800
H  46.41800 16.80000 36.68900
H  53.29600 20.99500 29.58500
H  53.72900 19.41100 30.32600
H  52.60700 20.40700 31.02000
H  54.33500 20.63500 27.74000
H  54.76500 19.63900 26.38000
H  54.76900 18.98500 27.97200
H  49.14700 15.72300 24.63900
H  46.24800 16.04600 24.61100
H  49.16100 17.40100 23.35800
H  48.19500 18.45000 24.34800
H  47.38900 17.28200 23.25800
H  47.66800 13.77300 25.94000
H  47.69200 13.90600 24.14400
H  44.95200 13.96500 24.90000
H  45.75500 12.92600 26.04700
H  45.91600 12.63900 24.27100
H  42.90000 14.50500 27.98700
H  42.15900 16.15400 28.16800
H  41.83200 14.81200 29.27200
H  44.71400 16.02300 33.55100
H  41.79500 18.22200 35.54200
H  43.07700 19.31000 35.79300
H  42.93700 17.87500 36.79400
Mg 5.66300 53.71600 42.62400
C  5.09400 50.36200 41.85900
C  8.47000 53.66900 40.94200
C  5.74700 56.99000 42.94200
C  2.32500 53.72500 43.83300
N  6.54900 52.17500 41.37000
C  6.24500 50.84800 41.20100
C  7.29100 50.05200 40.37800
C  8.43600 51.13900 40.42500
C  7.78300 52.44800 40.97900
C  9.61900 50.74000 41.41700
C  6.74100 49.75700 39.00400
C  7.11700 48.48800 38.41600
H  6.46200 48.05200 37.08600
N  6.97100 55.19500 42.08600
C  8.13400 54.93900 41.46000
C  8.99000 56.16300 41.45700
C  8.19600 57.20700 42.08900
C  6.87200 56.49000 42.41500
C  10.28100 56.24400 40.72300
C  8.57500 58.63100 42.34300
O  9.71900 58.99800 41.99300
C  7.76600 59.59700 43.16300
N  4.13100 55.24000 43.12100
C  4.49600 56.53100 43.22800
C  3.36800 57.38400 43.81500
C  2.23600 56.27800 44.05400
C  2.93200 55.00200 43.63800
C  3.77900 58.34900 45.00700
C  0.87000 56.43700 43.24600
C  -0.36500 56.63100 44.26200
N  4.09900 52.37200 42.96400
C  2.87700 52.52700 43.48500
C  2.22600 51.25800 43.62700
C  3.09600 50.33600 43.00800
C  4.22100 51.06800 42.57600
C  0.91600 51.01400 44.26500
C  3.33200 48.97200 42.66600
O  2.62000 47.93300 42.82100
C  4.71300 48.87300 41.98600
C  4.61800 48.02000 40.77000
O  4.11900 48.35600 39.70400
O  5.06000 46.75700 41.03600
C  4.67700 45.75100 40.12600
H  9.41500 53.71500 40.39900
H  5.79400 58.07400 43.06300
H  1.36000 53.73300 44.34300
H  7.68100 49.17000 40.88500
H  8.89200 51.31300 39.45000
H  9.55600 51.37600 42.30000
H  10.60800 50.99600 41.03500
H  9.67400 49.66800 41.60800
H  7.24900 50.44400 38.32700
H  5.69300 50.03200 38.88300
H  6.92500 47.73600 39.18200
H  8.19900 48.61600 38.40000
H  10.58300 55.32500 40.22300
H  11.07300 56.71900 41.30200
H  10.10100 57.03500 39.99500
H  8.26700 60.55900 43.26800
H  7.66100 59.18900 44.16900
H  6.80500 59.76600 42.67700
H  3.06400 57.92200 42.91800
H  2.07900 56.25300 45.13300
H  4.86200 58.38500 45.12400
H  3.26200 57.94000 45.87500
H  3.40100 59.33900 44.75500
H  0.68600 55.50000 42.72000
H  0.80200 57.34700 42.65100
H  0.00900 56.50200 45.27800
H  -1.16600 55.97700 43.91600
H  -0.68300 57.67300 44.23700
H  1.00200 50.59500 45.26800
H  0.29700 50.29100 43.73400
H  0.33900 51.93400 44.35900
H  5.41600 48.36300 42.64600
H  3.59500 45.72400 40.25800
H  5.23800 44.86600 40.42400
H  5.01200 45.94100 39.10700

