158

Mg -1.93400 17.11600 26.80400
C  -2.38200 14.95500 29.57900
C  -2.17300 19.73100 28.96400
C  -1.90900 19.23500 24.13600
C  -2.01300 14.35500 24.63300
N  -2.11200 17.34200 29.03400
C  -2.26200 16.29200 29.93200
C  -2.42800 16.85600 31.28700
C  -2.65900 18.37800 31.07100
C  -2.32100 18.52900 29.59800
C  -3.96500 19.12500 31.58500
C  -1.18200 16.60000 32.22800
C  -1.49800 16.37700 33.72200
H  -0.42900 16.54600 34.76200
N  -1.84700 19.17900 26.60600
C  -1.92500 20.06700 27.66300
C  -1.90100 21.40300 27.10400
C  -1.83200 21.31100 25.65400
C  -1.88900 19.81800 25.40100
C  -1.74200 22.67600 27.91700
C  -1.66800 22.42000 24.58100
O  -1.51100 22.10800 23.37800
C  -1.59100 23.85300 25.08400
N  -2.08800 16.77700 24.65300
C  -1.91100 17.84700 23.77900
C  -1.77600 17.23800 22.35300
C  -1.48000 15.74700 22.55100
C  -1.88400 15.60400 24.02400
C  -2.92500 17.62300 21.39300
C  0.00600 15.34100 22.29000
C  1.03800 15.82000 23.35000
N  -2.23600 15.05200 26.97900
C  -2.17300 14.06000 26.02700
C  -2.29700 12.80500 26.71700
C  -2.35700 13.09600 28.07900
C  -2.32400 14.49200 28.21300
C  -2.30000 11.39400 26.12600
C  -2.52800 12.52100 29.35700
O  -2.60500 11.29000 29.67300
C  -2.40300 13.64700 30.42600
C  -1.19100 13.35900 31.19400
O  -0.03400 13.64500 30.93900
O  -1.57100 12.72500 32.35400
C  -0.54500 12.58000 33.43000
H  -2.28500 20.60000 29.61600
H  -1.97900 19.84100 23.23000
H  -1.82800 13.51700 23.95700
H  -3.26600 16.34800 31.76500
H  -1.97900 18.93800 31.71300
H  -4.24800 19.86500 30.83600
H  -3.72800 19.76500 32.43400
H  -4.73600 18.38400 31.80000
H  -0.49000 17.42500 32.05600
H  -0.60800 15.77700 31.80100
H  -1.81900 15.33700 33.78000
H  -2.31900 17.07000 33.90600
H  -1.78700 22.42100 28.97600
H  -2.52400 23.32700 27.52700
H  -0.74800 23.08700 27.74300
H  -1.46500 24.50800 24.22200
H  -0.65800 23.81600 25.64700
H  -2.50300 24.10300 25.62400
H  -0.86800 17.72100 21.99300
H  -2.19800 15.11900 22.02400
H  -3.82400 17.81800 21.97700
H  -3.13400 16.71700 20.82300
H  -2.66700 18.50400 20.80400
H  0.30500 15.81500 21.35500
H  -0.02200 14.25600 22.19600
H  0.60900 16.40500 24.16300
H  1.73500 16.45400 22.80200
H  1.59400 14.96500 23.73600
H  -1.98700 11.47600 25.08500
H  -3.27900 10.91400 26.13100
H  -1.63000 10.72600 26.66600
H  -3.30900 13.77900 31.01800
H  0.43300 12.99100 33.17900
H  -0.34400 11.54600 33.71100
H  -0.94500 13.03800 34.33500
Mg -11.76400 16.91300 40.81700
C  -8.59000 15.54900 40.13800
C  -10.68400 19.90100 39.89900
C  -15.00200 17.86900 40.87600
C  -13.00300 13.50100 40.90000
N  -9.83900 17.57700 39.85600
C  -8.63400 16.92500 39.88900
C  -7.43300 17.89100 39.64000
C  -8.18800 19.29200 39.97000
C  -9.67300 18.96300 39.82200
C  -7.89400 19.84600 41.43100
C  -6.88400 17.76400 38.27400
C  -5.43100 18.14100 38.11000
H  -4.49500 17.07700 37.40600
N  -12.75500 18.70300 40.41900
C  -12.12000 19.80500 40.00100
C  -13.14100 20.88800 39.80600
C  -14.39900 20.25500 40.13200
C  -14.11600 18.89500 40.52000
C  -12.75600 22.24100 39.20000
C  -15.76400 20.98400 40.03200
O  -15.80300 22.12600 39.64200
C  -17.04800 20.34200 40.35400
N  -13.68500 15.83200 40.81300
C  -14.83400 16.49400 41.04600
C  -16.04100 15.53200 41.38900
C  -15.42900 14.14700 41.06500
C  -13.90800 14.45900 40.92900
C  -16.55400 15.65000 42.81300
C  -15.99100 13.33100 39.85900
C  -16.80900 12.06000 40.08700
N  -11.06500 14.88100 40.68300
C  -11.62300 13.65300 40.86600
C  -10.52600 12.67200 40.88400
C  -9.31900 13.36100 40.69800
C  -9.71200 14.70100 40.42600
C  -10.65300 11.25900 41.14800
C  -7.83100 13.26100 40.59300
O  -7.24300 12.17600 40.72900
C  -7.26200 14.63500 40.28600
C  -6.31800 14.97900 41.41600
O  -6.53200 15.00500 42.64200
O  -5.05900 15.20200 40.84300
C  -4.01900 15.85800 41.70000
H  -10.30400 20.92300 39.83800
H  -16.04100 18.18700 40.99000
H  -13.49000 12.52400 40.92100
H  -6.62500 17.81800 40.36800
H  -7.79500 20.00200 39.24300
H  -7.46000 20.84200 41.52200
H  -7.29700 19.10300 41.96000
H  -8.81300 19.85800 42.01700
H  -7.59200 18.33000 37.66900
H  -6.96700 16.72500 37.95300
H  -5.12700 18.45200 39.10900
H  -5.37800 19.09000 37.57600
H  -12.83600 22.20100 38.11400
H  -11.74900 22.51700 39.51100
H  -13.45700 23.03200 39.46700
H  -17.22000 19.55700 39.61800
H  -17.90400 21.01300 40.27500
H  -17.04000 20.01800 41.39400
H  -16.84300 15.67500 40.66500
H  -15.62900 13.44900 41.87800
H  -15.97700 16.49700 43.18300
H  -16.22900 14.83300 43.45600
H  -17.63000 15.77100 42.93900
H  -15.14900 13.06100 39.22200
H  -16.70300 13.96900 39.33600
H  -17.18800 11.91100 41.09800
H  -16.38300 11.07000 39.92500
H  -17.70100 11.97500 39.46500
H  -11.47000 10.87200 40.54000
H  -10.92100 11.10900 42.19400
H  -9.73000 10.70800 40.96400
H  -6.67000 14.43700 39.39200
H  -4.18300 16.91900 41.51600
H  -2.98400 15.54900 41.55100
H  -4.15500 15.67800 42.76600

