158

Mg 1.58100 -1.47400 45.78200
C  4.93400 -0.97500 45.17100
C  0.71300 0.94200 43.49300
C  -1.81400 -2.42700 45.71900
C  2.40200 -4.39200 47.48500
N  2.62900 -0.17800 44.60900
C  4.04700 -0.10900 44.48700
C  4.46500 1.06900 43.58000
C  3.05900 1.79800 43.30600
C  2.06300 0.77100 43.84700
C  2.87700 3.23300 43.86600
C  5.20800 0.62300 42.27100
C  6.44000 1.44600 42.04100
H  6.54800 2.08200 40.63700
N  -0.33300 -0.82000 44.69700
C  -0.37600 0.17700 43.83400
C  -1.74600 0.37800 43.36500
C  -2.50800 -0.56500 44.07700
C  -1.60000 -1.32100 44.90100
C  -2.14000 1.28000 42.36300
C  -4.06200 -0.76200 44.00500
O  -4.69200 -0.10600 43.16400
C  -4.88500 -1.74800 44.87200
N  0.44900 -3.16900 46.44300
C  -0.88600 -3.26300 46.44300
C  -1.38800 -4.48300 47.13000
C  -0.04400 -5.11900 47.63300
C  1.05800 -4.20600 47.15800
C  -2.58900 -4.35800 48.19000
C  0.18100 -6.65800 47.28500
C  -0.10400 -7.65100 48.39800
N  3.26700 -2.41100 46.40300
C  3.43300 -3.55400 47.09400
C  4.85800 -3.86800 47.22900
C  5.46300 -2.89100 46.46600
C  4.45300 -1.98400 46.04800
C  5.55400 -4.96300 48.10000
C  6.71800 -2.36000 45.91600
O  7.83900 -2.77500 46.14700
C  6.44700 -1.05900 45.19500
C  7.09100 0.11600 45.90500
O  7.40300 0.13000 47.06900
O  7.43100 1.07100 45.05600
C  8.18700 2.23700 45.53400
H  0.56100 1.75100 42.77500
H  -2.84400 -2.73500 45.91300
H  2.77000 -5.20800 48.11000
H  5.07500 1.77200 44.14700
H  2.91900 1.89300 42.22900
H  3.82000 3.61800 44.25500
H  2.23500 3.28100 44.74600
H  2.50300 3.90100 43.09000
H  4.70100 0.61500 41.30700
H  5.52800 -0.41400 42.37600
H  7.24700 0.71800 42.13000
H  6.61200 2.22900 42.77900
H  -2.46100 2.16500 42.91200
H  -2.92600 0.77800 41.79900
H  -1.27900 1.57200 41.76100
H  -4.86600 -1.54900 45.94400
H  -4.51500 -2.77200 44.82300
H  -5.89000 -1.61700 44.47100
H  -1.71900 -5.16000 46.34200
H  -0.04300 -4.99800 48.71600
H  -2.26200 -4.73000 49.16100
H  -3.42500 -4.92200 47.77600
H  -2.89100 -3.31600 48.29800
H  1.21100 -6.76500 46.94200
H  -0.57000 -6.96400 46.55700
H  -1.14600 -7.95200 48.29300
H  0.14300 -7.13900 49.32700
H  0.53500 -8.53000 48.30900
H  5.62100 -4.50900 49.08800
H  6.55100 -5.13500 47.69300
H  5.00800 -5.89700 48.23100
H  6.82600 -1.08900 44.17300
H  8.74300 2.65000 44.69300
H  8.83900 2.06900 46.39100
H  7.50300 3.00800 45.88800
Mg 49.38600 35.61300 28.22600
C  46.81900 33.86500 29.86700
C  49.36500 37.95100 30.76800
C  51.17600 37.49600 26.18200
C  48.76200 33.36600 25.47100
N  48.34600 35.75600 30.05300
C  47.39600 34.93500 30.63500
C  47.20100 35.19200 32.16800
C  47.70800 36.68800 32.25500
C  48.55000 36.79100 30.94700
C  46.52300 37.63200 32.24200
C  48.13800 34.23200 32.99800
C  47.92200 34.27900 34.51000
H  46.93000 35.31000 35.14900
N  50.22000 37.47200 28.41900
C  50.08100 38.30100 29.55600
C  50.75600 39.57100 29.27800
C  51.19200 39.51700 27.85700
C  50.87700 38.10800 27.41800
C  50.82800 40.73900 30.26500
C  51.78800 40.59700 26.98500
O  51.92800 40.45100 25.81300
C  52.05900 41.96100 27.55200
N  49.93900 35.36900 26.14200
C  50.81400 36.26900 25.58500
C  51.33300 35.82800 24.24100
C  50.48300 34.48400 24.00100
C  49.66100 34.35900 25.24200
C  51.07100 36.85100 23.09800
C  51.39800 33.18800 23.75800
C  50.82200 32.18200 22.74200
N  48.18100 33.86800 27.77500
C  48.04700 33.06000 26.65800
C  46.90500 32.09200 26.86400
C  46.38400 32.38300 28.07100
C  47.25400 33.35900 28.58500
C  46.44200 31.06200 25.82400
C  45.38000 31.95800 28.99800
O  44.59400 30.99400 28.99000
C  45.56700 32.98400 30.19100
C  45.61600 32.27400 31.43300
O  46.59100 31.61200 31.84200
O  44.43900 32.41500 32.07700
C  44.32700 31.79600 33.40300
H  49.47100 38.69300 31.56200
H  51.70400 38.11900 25.45800
H  48.58000 32.70500 24.62100
H  46.16800 34.97000 32.43800
H  48.25700 36.77800 33.19200
H  45.56500 37.18400 31.97800
H  46.71300 38.43000 31.52400
H  46.36200 38.06100 33.23100
H  49.16800 34.58500 32.94000
H  48.17400 33.19700 32.65800
H  48.90900 34.61700 34.82900
H  47.63700 33.24800 34.72000
H  50.33200 41.61400 29.84400
H  51.83500 41.09600 30.47800
H  50.24200 40.47100 31.14400
H  51.12800 42.51600 27.66500
H  52.64500 42.57600 26.86900
H  52.46000 41.80600 28.55400
H  52.40200 35.61900 24.25200
H  49.79400 34.60900 23.16600
H  50.42700 36.57200 22.26400
H  52.02100 37.17300 22.67300
H  50.50500 37.68000 23.52300
H  51.51500 32.55800 24.64000
H  52.35300 33.51400 23.34700
H  50.94300 31.23300 23.26300
H  51.23500 32.12000 21.73500
H  49.75400 32.39800 22.72700
H  46.70300 30.11300 26.29100
H  46.93600 31.10600 24.85300
H  45.37000 30.96500 25.65200
H  44.72000 33.66400 30.27900
H  43.33100 31.45400 33.68300
H  44.67100 32.50300 34.15800
H  44.96900 30.92800 33.55600

