158

Mg 36.26600 48.87400 25.31700
C  36.84100 46.75300 28.23800
C  34.98100 51.25500 27.33500
C  35.84800 50.56900 22.66000
C  37.57500 46.12100 23.49200
N  35.88500 48.95300 27.51600
C  36.23300 48.09300 28.49800
C  35.92600 48.67300 29.87500
C  35.08300 49.95700 29.44800
C  35.32800 50.09100 28.01400
C  33.62900 49.93400 29.93100
C  37.13800 48.94700 30.84000
C  37.10100 48.42300 32.25300
H  35.88400 48.84800 33.05000
N  35.50600 50.74500 25.04200
C  35.17200 51.66400 26.00400
C  34.78600 52.88800 25.26300
C  35.14600 52.71600 23.88000
C  35.52100 51.32600 23.77700
C  34.09200 54.01200 25.90600
C  35.25500 53.72300 22.74100
O  35.76000 53.38000 21.68100
C  34.92300 55.05500 22.83100
N  36.37400 48.31900 23.32100
C  36.14100 49.27500 22.36200
C  36.59000 48.79800 20.95100
C  37.28200 47.44400 21.27900
C  37.08000 47.25300 22.76700
C  35.42100 48.61800 19.97000
C  38.74000 47.40700 20.81300
C  39.73800 48.25500 21.58500
N  36.94900 46.81700 25.66700
C  37.46100 45.90200 24.85800
C  37.83700 44.73000 25.56300
C  37.61300 45.00200 26.87900
C  37.07400 46.26900 26.91900
C  38.41400 43.47200 24.94400
C  37.70900 44.50600 28.22900
O  38.20000 43.42500 28.68900
C  37.15000 45.66500 29.18000
C  36.00800 45.14200 30.01400
O  34.88500 44.92600 29.62700
O  36.35100 44.87700 31.34700
C  35.24600 44.58800 32.24200
H  34.43700 52.01500 27.90000
H  35.79500 51.22500 21.78800
H  38.20000 45.48100 22.86600
H  35.29200 47.96700 30.41300
H  35.47500 50.83500 29.96100
H  33.37500 48.96400 30.35800
H  32.82000 50.07800 29.21600
H  33.48500 50.54800 30.82100
H  37.30500 50.01400 30.98800
H  38.05300 48.52100 30.42900
H  37.98100 48.77300 32.79400
H  37.16500 47.33500 32.23900
H  33.02800 53.81900 26.04600
H  34.23000 54.97900 25.42300
H  34.47100 54.08500 26.92600
H  33.86800 55.10600 23.10000
H  35.05200 55.61000 21.90200
H  35.48300 55.56700 23.61300
H  37.33200 49.51400 20.59900
H  36.70600 46.61500 20.86800
H  35.10300 49.61700 19.67300
H  34.63300 48.06000 20.47600
H  35.74600 48.10500 19.06600
H  38.73800 47.69500 19.76100
H  39.05900 46.36500 20.81400
H  40.70500 47.75200 21.59300
H  39.44800 48.51300 22.60400
H  39.89300 49.16700 21.00800
H  37.69000 42.82000 24.45300
H  39.03300 42.94700 25.67100
H  39.15800 43.78300 24.21000
H  37.83500 46.10900 29.90200
H  34.85200 43.57500 32.32100
H  34.34400 45.17500 32.06900
H  35.63900 44.84000 33.22700
Mg -13.25300 16.79200 42.23800
C  -10.45600 14.41700 41.71000
C  -11.32300 19.05900 40.43700
C  -16.02800 18.51200 41.96200
C  -15.01600 13.97200 43.55000
N  -11.24400 16.66600 41.11400
C  -10.24500 15.67600 41.11400
C  -8.96700 16.12800 40.50400
C  -9.23900 17.62700 40.09200
C  -10.66200 17.82400 40.68900
C  -8.17700 18.72600 40.58400
C  -8.46500 15.11900 39.37200
C  -6.98500 14.56900 39.59800
H  -5.85700 15.11300 38.60500
N  -13.62900 18.68500 41.43500
C  -12.66000 19.45700 40.74400
C  -13.34000 20.71300 40.43800
C  -14.72500 20.63500 40.94700
C  -14.90400 19.21000 41.41400
C  -12.72000 21.79500 39.77300
C  -15.74300 21.74600 40.98500
O  -15.40200 22.81600 40.56800
C  -17.10100 21.61100 41.70900
N  -15.36100 16.19000 42.37800
C  -16.25500 17.19700 42.42200
C  -17.53100 16.74700 42.96900
C  -17.13400 15.35500 43.68100
C  -15.79300 15.08400 43.16300
C  -18.30300 17.78200 43.86300
C  -18.11100 14.17500 43.63000
C  -18.52800 13.57500 45.01600
N  -12.87100 14.63600 42.74000
C  -13.69000 13.74000 43.24100
C  -12.92100 12.54200 43.55300
C  -11.63000 12.75900 43.00700
C  -11.65600 14.07800 42.42800
C  -13.45600 11.25300 44.13600
C  -10.29000 12.22600 42.87600
O  -9.79300 11.13200 43.17500
C  -9.49300 13.25700 41.95100
C  -8.18900 13.46300 42.55900
O  -7.95600 14.33500 43.37200
O  -7.31800 12.48800 42.10000
C  -6.04900 12.50800 42.83100
H  -10.65500 19.74700 39.91500
H  -16.87800 19.07700 41.57300
H  -15.45800 13.16700 44.14000
H  -8.37100 16.06900 41.41500
H  -9.27000 17.72200 39.00600
H  -8.58700 19.35400 41.37500
H  -7.99000 19.33200 39.69700
H  -7.19800 18.36200 40.89400
H  -8.53700 15.59800 38.39600
H  -9.06300 14.20900 39.33800
H  -6.94900 13.48200 39.51600
H  -6.62500 14.81900 40.59600
H  -13.28400 21.91600 38.84800
H  -11.65800 21.69600 39.55000
H  -12.90800 22.72100 40.31700
H  -17.52600 22.61100 41.79100
H  -16.91900 21.18600 42.69600
H  -17.60700 20.91100 41.04500
H  -18.20100 16.57800 42.12500
H  -16.82600 15.58600 44.70100
H  -18.82200 17.41000 44.74700
H  -19.16000 18.25900 43.38700
H  -17.62200 18.58200 44.15200
H  -17.80100 13.41900 42.90800
H  -19.06200 14.43100 43.16400
H  -19.44300 14.03100 45.39500
H  -17.78200 13.88500 45.74700
H  -18.64300 12.49100 45.01700
H  -14.26600 10.98600 43.45800
H  -13.93300 11.31500 45.11300
H  -12.72500 10.44400 44.14400
H  -9.32000 12.59800 41.10000
H  -5.35200 13.23400 42.41000
H  -5.65800 11.54900 42.49000
H  -6.12700 12.61500 43.91300

