158

Mg 0.52400 7.50400 26.93800
C  1.52000 9.40700 29.60900
C  0.62100 4.70300 28.77400
C  0.32400 5.87800 24.07600
C  0.74000 10.59300 24.94800
N  1.01700 7.19100 28.94400
C  1.15900 8.11200 29.93400
C  0.90500 7.45400 31.31000
C  0.87000 5.93700 31.03500
C  0.84200 5.95200 29.47600
C  2.10900 5.04900 31.51800
C  -0.31800 8.09800 32.08200
C  -0.09100 8.32800 33.64200
H  0.93400 7.52300 34.34000
N  0.47300 5.45000 26.45300
C  0.44000 4.44700 27.42600
C  0.14600 3.26400 26.66500
C  0.01000 3.59200 25.27700
C  0.21200 5.06100 25.23900
C  -0.11700 1.94900 27.35000
C  -0.27100 2.72200 24.07900
O  -0.48800 3.13400 22.92500
C  -0.34200 1.30900 24.36500
N  0.55300 8.19500 24.76300
C  0.54200 7.26200 23.79200
C  0.68700 7.90300 22.43900
C  0.34400 9.39900 22.72400
C  0.60100 9.44300 24.24800
C  2.00000 7.59700 21.58200
C  -1.15400 9.81700 22.35100
C  -1.39500 10.41300 20.96500
N  0.90700 9.57000 27.11000
C  0.99200 10.72000 26.26900
C  1.51600 11.85100 26.97800
C  1.68300 11.45400 28.28800
C  1.40500 9.98400 28.28800
C  1.76100 13.21100 26.35300
C  2.08600 11.82400 29.59900
O  2.44900 12.87900 30.01400
C  1.65000 10.60600 30.50500
C  2.74000 10.53100 31.53500
O  3.81000 9.94100 31.41200
O  2.32400 11.15300 32.64200
C  3.34000 11.02800 33.73000
H  0.62900 3.80000 29.38800
H  0.37900 5.29500 23.15400
H  0.78300 11.49700 24.33700
H  1.83500 7.58800 31.86200
H  -0.07000 5.47900 31.34400
H  2.71900 5.35000 32.37000
H  2.77200 4.98800 30.65400
H  1.61100 4.15900 31.90200
H  -1.24000 7.55500 31.87300
H  -0.38300 9.10200 31.66300
H  -1.07900 8.43100 34.09000
H  0.29500 9.34400 33.73100
H  -0.17300 2.00100 28.43700
H  0.73400 1.29500 27.16500
H  -1.05400 1.51900 26.99500
H  -1.32100 1.11800 24.80500
H  0.56900 1.08000 24.91700
H  -0.17800 0.81500 23.40800
H  -0.17300 7.52000 21.89000
H  1.11000 10.03500 22.28000
H  2.88600 7.42900 22.19400
H  2.32700 8.47200 21.02100
H  1.86900 6.73300 20.93000
H  -1.66300 10.41600 23.10700
H  -1.69900 8.87900 22.44800
H  -0.58900 10.23800 20.25200
H  -1.57200 11.47300 21.14700
H  -2.30200 10.03400 20.49300
H  2.54000 13.72700 26.91400
H  0.80500 13.73200 26.39000
H  2.03500 13.05000 25.31000
H  0.71100 10.84000 31.00700
H  4.30700 11.49400 33.53700
H  3.44300 9.96800 33.96000
H  2.99800 11.58800 34.60100
Mg 0.66200 42.34200 25.46400
C  1.57600 42.44100 28.91800
C  -2.28200 40.92600 26.45700
C  -0.03300 41.67500 22.27200
C  3.93300 43.19200 24.70200
N  -0.13800 41.70500 27.50400
C  0.30700 41.99300 28.73200
C  -0.82800 41.70000 29.80600
C  -1.88100 40.91500 29.03200
C  -1.41200 41.12700 27.60800
C  -1.89300 39.43700 29.44300
C  -1.37900 42.97400 30.51000
C  -1.16400 43.04800 32.06800
H  -1.65700 41.97700 32.99500
N  -1.04800 41.64600 24.47900
C  -2.16900 41.03100 25.06600
C  -3.10600 40.78800 24.00500
C  -2.42000 40.99000 22.73900
C  -1.10400 41.47900 23.10000
C  -4.45600 40.41900 24.32000
C  -2.98600 40.86400 21.31500
O  -2.32100 41.22000 20.37300
C  -4.20400 39.93900 21.05700
N  1.82300 42.38200 23.83400
C  1.28300 42.02900 22.61500
C  2.33000 42.27900 21.46500
C  3.45000 43.08000 22.20000
C  3.05500 42.92700 23.63500
C  2.59900 40.95300 20.66100
C  3.51400 44.62200 21.75600
C  4.66600 44.95700 20.79700
N  2.39800 42.78400 26.56800
C  3.68600 43.14700 26.09300
C  4.53200 43.48000 27.22300
C  3.77600 43.21900 28.33500
C  2.47300 42.76900 27.87300
C  5.98500 43.92600 27.29500
C  3.73100 43.16200 29.79500
O  4.60200 43.42800 30.59100
C  2.29900 42.72800 30.21200
C  2.42500 41.48900 31.08400
O  3.02000 40.40800 30.85100
O  1.84500 41.73800 32.30100
C  2.19100 40.80700 33.28900
H  -3.21200 40.38700 26.65000
H  -0.18700 41.44200 21.21600
H  4.94600 43.42600 24.36900
H  -0.30900 41.11500 30.56500
H  -2.88500 41.33300 29.10200
H  -2.93400 39.11700 29.48800
H  -1.40900 39.24300 30.40000
H  -1.52600 38.79500 28.64300
H  -2.44700 43.04200 30.30700
H  -0.98100 43.87100 30.03600
H  -1.65900 43.97100 32.36900
H  -0.15400 43.28900 32.39900
H  -4.83800 41.18200 24.99900
H  -4.56800 39.46600 24.83500
H  -5.19500 40.44800 23.51900
H  -4.29200 39.10400 21.75200
H  -4.02500 39.48200 20.08400
H  -5.20800 40.35000 20.95500
H  1.89400 42.93500 20.71200
H  4.46100 42.69800 22.05800
H  1.99400 40.90100 19.75700
H  2.42500 40.03500 21.22200
H  3.66900 40.96000 20.45000
H  3.43500 45.25200 22.64200
H  2.55800 44.80600 21.26600
H  5.13400 44.08200 20.34600
H  5.43100 45.58900 21.24900
H  4.42600 45.65100 19.99100
H  6.54900 43.05000 27.61600
H  6.27000 44.72700 27.97700
H  6.45200 44.15700 26.33800
H  1.84300 43.64500 30.58800
H  1.56800 41.02700 34.15500
H  3.24500 40.95800 33.52000
H  1.92700 39.77600 33.05100

