158

Mg 35.87000 49.10500 25.85000
C  36.45600 47.06600 28.58900
C  34.67600 51.57400 27.90600
C  35.07000 50.63600 23.15800
C  36.66600 46.26100 23.75800
N  35.65300 49.30700 28.00300
C  35.94300 48.32700 28.97400
C  35.76200 48.94100 30.36200
C  34.88700 50.25000 30.15200
C  35.06200 50.44400 28.60100
C  33.34900 50.15200 30.53800
C  37.12700 49.20000 31.13900
C  37.00700 49.08100 32.69600
H  36.72600 50.29600 33.53100
N  35.13400 50.89200 25.54400
C  34.76300 51.75700 26.53600
C  34.40200 53.00300 25.87200
C  34.44200 52.78900 24.45400
C  34.91100 51.38100 24.34800
C  34.05400 54.30500 26.72500
C  34.00200 53.67100 23.42400
O  34.05800 53.29000 22.26900
C  33.56100 55.05000 23.75800
N  36.11600 48.57400 23.68500
C  35.71900 49.43200 22.82700
C  35.83400 48.95200 21.37200
C  36.63100 47.57000 21.63500
C  36.39400 47.44300 23.10600
C  34.44600 48.65200 20.68900
C  38.21700 47.76900 21.35500
C  38.87500 46.84500 20.32200
N  36.42700 47.03600 26.09700
C  36.61200 45.97100 25.14800
C  37.02400 44.75700 25.88900
C  36.98000 45.13400 27.21600
C  36.58700 46.52000 27.29700
C  37.58900 43.40500 25.34200
C  37.26600 44.69600 28.57600
O  37.62600 43.64600 28.96800
C  36.84200 45.87800 29.50300
C  35.66700 45.29900 30.30300
O  34.62300 44.93200 29.83700
O  35.90800 45.35500 31.66900
C  34.77500 45.14800 32.60900
H  34.18600 52.21000 28.64500
H  34.86900 51.16700 22.22500
H  36.88500 45.37000 23.16600
H  35.23100 48.16300 30.91000
H  35.31500 51.12100 30.64800
H  32.71900 50.50200 29.72100
H  33.07500 50.77900 31.38700
H  33.11000 49.11600 30.78100
H  37.63700 50.14200 30.93800
H  37.86400 48.51000 30.72900
H  38.02900 48.76600 32.90800
H  36.19500 48.39500 32.93400
H  32.98100 54.43700 26.59000
H  34.74700 55.02100 26.28400
H  34.36600 54.16300 27.76000
H  33.77300 55.55500 22.81600
H  34.31300 55.48600 24.41600
H  32.59100 55.29100 24.19200
H  36.42800 49.67400 20.81200
H  36.28300 46.71100 21.06200
H  34.47600 47.71200 20.13900
H  34.25200 49.52400 20.06400
H  33.60100 48.60500 21.37600
H  38.75400 47.81500 22.30300
H  38.41600 48.76900 20.96900
H  38.26500 46.06800 19.86100
H  39.69200 46.40200 20.89100
H  39.29100 47.49100 19.54900
H  38.18000 43.56900 24.44100
H  36.77100 42.69300 25.23200
H  38.23500 42.95800 26.09700
H  37.71000 45.90800 30.16100
H  33.80200 45.10900 32.12000
H  34.70000 45.96500 33.32600
H  34.87500 44.18100 33.10300
Mg 10.64500 47.41200 25.50000
C  8.93400 47.73000 28.45600
C  13.40900 48.59000 27.06800
C  12.18800 47.19800 22.62700
C  7.61600 46.98000 23.85000
N  11.16500 47.87800 27.67000
C  10.30000 48.00300 28.69000
C  11.00500 48.53900 29.97400
C  12.30800 49.17500 29.37000
C  12.31600 48.49200 27.92600
C  12.12600 50.77100 29.26200
C  11.29300 47.55100 31.12200
C  11.14100 47.94500 32.61100
H  10.58700 46.82900 33.57500
N  12.64100 47.67900 24.95800
C  13.60800 48.11900 25.76100
C  14.89500 48.26900 25.04500
C  14.60200 47.84000 23.73600
C  13.09000 47.54700 23.69500
C  16.19600 48.67900 25.68100
C  15.49200 47.74000 22.40200
O  15.02600 47.39600 21.33700
C  16.98800 47.91600 22.48100
N  9.97300 47.45500 23.44700
C  10.79700 47.12800 22.45900
C  10.11200 46.74400 21.06100
C  8.70300 46.49400 21.62600
C  8.72300 47.02400 23.03800
C  10.09000 47.87700 20.00600
C  8.28900 44.98200 21.74000
C  9.30800 44.04600 22.48900
N  8.61600 47.31100 26.00000
C  7.47500 47.11100 25.23300
C  6.34100 46.96300 26.09300
C  6.82500 47.25800 27.37100
C  8.27300 47.44300 27.24600
C  4.95900 46.70100 25.57200
C  6.45900 47.46900 28.76500
O  5.38100 47.59500 29.36500
C  7.84400 47.67400 29.53700
C  7.89100 46.59700 30.58400
O  8.56800 45.57000 30.57500
O  6.90800 46.98300 31.44200
C  6.44000 45.93500 32.38100
H  14.26900 49.10900 27.49600
H  12.67900 46.91500 21.69300
H  6.61700 46.87600 23.41900
H  10.28200 49.28800 30.29600
H  13.14900 48.98000 30.03500
H  11.14200 51.14700 29.54200
H  12.30800 51.13100 28.24900
H  12.84700 51.23900 29.93300
H  12.31000 47.17600 31.00200
H  10.72900 46.62900 30.98000
H  10.53400 48.85000 32.60900
H  12.13800 48.22800 32.94800
H  16.56400 47.81200 26.22900
H  16.03100 49.45200 26.43100
H  16.92900 49.01600 24.94800
H  17.50900 47.51200 21.61300
H  17.38900 47.36300 23.33100
H  17.33400 48.91300 22.75200
H  10.40000 45.78000 20.64100
H  7.88300 46.95600 21.07600
H  11.10000 48.05400 19.63500
H  9.76500 48.72600 20.60700
H  9.38500 47.48900 19.27100
H  8.17600 44.64500 20.70900
H  7.33100 44.88800 22.25100
H  10.20300 44.62300 22.72000
H  9.55800 43.23000 21.81000
H  8.83500 43.65500 23.39000
H  4.96700 47.05200 24.54100
H  4.10400 47.05700 26.14700
H  4.74200 45.63500 25.63400
H  7.84100 48.66000 30.00100
H  5.51800 46.29600 32.83800
H  7.07400 45.76900 33.25200
H  6.23000 45.09400 31.72000

