158

Mg 0.47400 42.39300 26.09000
C  3.01100 42.47800 28.58500
C  -1.76000 41.45300 28.51500
C  -1.82600 42.05900 23.73400
C  2.89200 42.75300 23.62300
N  0.58600 42.16700 28.31700
C  1.72000 42.35200 29.12100
C  1.32900 42.00100 30.57500
C  -0.09700 41.33200 30.46400
C  -0.51200 41.72900 28.99500
C  -0.05200 39.80500 30.75700
C  1.50100 43.27100 31.52900
C  2.11400 42.99100 32.98600
H  1.63100 41.68700 33.63800
N  -1.57600 41.94400 26.10200
C  -2.31600 41.52700 27.24100
C  -3.59700 41.14600 26.83800
C  -3.69000 41.51700 25.42100
C  -2.33700 41.93100 25.03300
C  -4.68200 40.64400 27.82000
C  -4.91200 41.62300 24.50100
O  -4.84600 42.09100 23.44300
C  -6.23400 41.24100 25.03800
N  0.54000 42.41700 24.02900
C  -0.59200 42.26200 23.22900
C  -0.28400 42.46900 21.71200
C  1.20500 42.96700 21.80300
C  1.57000 42.68800 23.24100
C  -0.58400 41.11400 20.91200
C  1.49400 44.33700 21.22900
C  1.68400 45.51100 22.23300
N  2.49800 42.59400 26.08100
C  3.39900 42.57500 24.98700
C  4.75200 42.62100 25.41200
C  4.64400 42.51100 26.82100
C  3.29000 42.48100 27.16800
C  5.90800 42.69000 24.52700
C  5.42500 42.42400 28.05100
O  6.66300 42.32600 28.19300
C  4.36900 42.47100 29.20800
C  4.69300 41.41500 30.19900
O  4.65900 40.22700 29.93300
O  5.07300 41.94300 31.39800
C  5.32600 40.96400 32.49000
H  -2.33700 41.16600 29.39700
H  -2.53000 42.08600 22.90000
H  3.69100 43.06800 22.94700
H  2.01400 41.32700 31.08900
H  -0.75600 41.87400 31.14200
H  -0.82300 39.56700 31.48900
H  0.85500 39.61500 31.33000
H  -0.23300 39.22000 29.85500
H  0.44600 43.54300 31.55300
H  1.94200 44.13200 31.02700
H  1.83800 43.81800 33.64100
H  3.19000 42.83000 32.92800
H  -5.09500 39.75600 27.34000
H  -5.42200 41.41900 28.01700
H  -4.15900 40.35100 28.73000
H  -6.19300 40.16400 25.20100
H  -7.05300 41.59200 24.41000
H  -6.34200 41.62500 26.05300
H  -0.89500 43.25600 21.27100
H  1.82300 42.26100 21.24900
H  0.29300 40.46900 20.86600
H  -0.81500 41.48800 19.91400
H  -1.40900 40.57700 21.38100
H  0.67300 44.70700 20.61600
H  2.42400 44.27300 20.66300
H  1.17600 46.42800 21.93600
H  2.74400 45.65200 22.44700
H  1.16200 45.16400 23.12400
H  5.77900 43.59000 23.92700
H  5.95100 41.83100 23.85800
H  6.87900 42.69700 25.02300
H  4.52300 43.44600 29.67200
H  4.97600 41.33900 33.45200
H  6.40500 40.85800 32.59800
H  4.86000 39.99500 32.31200
Mg -9.85900 17.66900 42.80000
C  -6.32600 17.54500 43.03900
C  -9.63100 21.15500 42.31400
C  -13.07300 17.77200 41.85100
C  -9.99800 14.21400 43.04500
N  -8.11200 19.16900 42.59000
C  -6.77000 18.84200 42.80700
C  -5.98500 20.19400 42.75700
C  -7.08100 21.28200 42.69900
C  -8.39200 20.53400 42.52900
C  -7.15600 22.29600 43.84300
C  -4.87100 20.30400 41.51600
C  -4.92700 19.29200 40.40900
H  -5.09300 19.84400 39.01300
N  -11.13800 19.25700 42.25400
C  -10.88800 20.62700 42.25200
C  -12.03100 21.36500 41.83000
C  -13.06900 20.42900 41.59500
C  -12.45400 19.06000 41.85900
C  -12.00900 22.82400 41.57000
C  -14.43300 20.78000 41.02300
O  -14.69500 21.91700 40.71100
C  -15.46700 19.72400 40.77100
N  -11.32000 16.21700 42.51000
C  -12.60400 16.50300 42.25100
C  -13.49900 15.27700 42.31500
C  -12.52100 14.12100 42.64200
C  -11.11600 14.89700 42.63200
C  -14.78200 15.33200 43.19900
C  -12.46600 12.98700 41.61500
C  -13.68900 12.15700 41.28800
N  -8.46200 16.15300 42.91200
C  -8.68500 14.83100 43.14500
C  -7.45700 14.15600 43.43700
C  -6.46100 15.15700 43.30900
C  -7.12700 16.34900 43.04900
C  -7.09700 12.72600 43.62700
C  -5.04800 15.44400 43.39800
O  -4.08500 14.77900 43.59400
C  -4.98300 16.99800 43.40000
C  -4.46200 17.50300 44.68000
O  -3.50200 18.23100 44.71700
O  -5.20300 17.09200 45.81000
C  -4.71000 17.41900 47.14400
H  -9.66000 22.24500 42.25500
H  -14.15000 17.67400 41.69800
H  -10.07100 13.12600 43.10200
H  -5.41900 20.33700 43.67700
H  -7.06600 21.90300 41.80300
H  -6.19300 22.46600 44.32400
H  -7.86400 21.90800 44.57700
H  -7.52600 23.26000 43.49500
H  -3.84500 20.33600 41.88200
H  -5.10700 21.26400 41.05700
H  -5.60700 18.44300 40.47700
H  -3.96500 18.78000 40.40400
H  -12.38400 23.06600 40.57500
H  -11.04000 23.32200 41.53800
H  -12.68800 23.39600 42.20200
H  -15.62400 19.22400 41.72700
H  -15.19100 19.02200 39.98400
H  -16.39300 20.16600 40.40200
H  -13.90000 15.07200 41.32200
H  -12.66300 13.57300 43.57400
H  -15.63600 15.37500 42.52200
H  -14.70500 16.23500 43.80400
H  -14.85900 14.44900 43.83300
H  -11.67200 12.28400 41.86700
H  -12.31600 13.54600 40.69100
H  -14.19900 12.07100 42.24700
H  -13.39900 11.18200 40.89500
H  -14.31100 12.66800 40.55400
H  -7.07700 12.47800 44.68800
H  -6.14900 12.43100 43.17800
H  -7.80800 12.10200 43.08400
H  -4.20800 17.31200 42.70100
H  -3.68900 17.78200 47.26300
H  -4.95900 16.68800 47.91400
H  -5.26300 18.27500 47.53000

