158

Mg 2.25700 -1.34000 44.67100
C  5.39600 0.04200 44.00600
C  0.80100 1.48500 43.28200
C  -0.67200 -2.86200 44.63900
C  3.86100 -4.34400 45.44700
N  3.05700 0.57700 43.72900
C  4.36000 0.89200 43.57600
C  4.46700 2.29300 42.78000
C  3.06800 2.88400 43.06200
C  2.19600 1.61800 43.39400
C  2.84900 3.98200 44.16900
C  4.93100 2.22700 41.28700
C  6.41100 2.64400 41.09000
H  7.15400 1.74200 40.05900
N  0.32300 -0.79100 44.08400
C  -0.11100 0.42800 43.56100
C  -1.55400 0.46500 43.38800
C  -1.99000 -0.80000 43.84800
C  -0.79900 -1.57000 44.23900
C  -2.36100 1.60000 42.78500
C  -3.41000 -1.24700 43.94600
O  -4.25700 -0.31800 43.85400
C  -3.91800 -2.68500 44.37700
N  1.76400 -3.42600 44.81200
C  0.41600 -3.77500 44.82700
C  0.18300 -5.13900 45.59100
C  1.66100 -5.69500 45.67600
C  2.46500 -4.46600 45.31100
C  -0.61300 -5.03200 46.94800
C  1.99800 -6.84700 44.75000
C  2.54000 -8.09900 45.49300
N  4.23900 -2.06000 44.71900
C  4.72600 -3.29400 45.05700
C  6.15200 -3.17000 45.15000
C  6.49200 -1.90000 44.71000
C  5.27800 -1.27500 44.46200
C  7.12800 -4.21700 45.58400
C  7.56700 -0.99800 44.47300
O  8.75600 -1.09600 44.67400
C  6.86500 0.30100 43.98000
C  7.27900 1.28600 44.98300
O  7.18200 1.21900 46.21400
O  7.70300 2.38900 44.33100
C  8.33200 3.47000 45.16000
H  0.37800 2.41300 42.89100
H  -1.61300 -3.39200 44.79600
H  4.38000 -5.23000 45.81900
H  5.13200 2.95700 43.33300
H  2.71100 3.36000 42.14800
H  3.74400 4.05000 44.78700
H  1.98700 3.80400 44.81200
H  2.79900 4.93600 43.64400
H  4.37200 2.94400 40.68500
H  4.80300 1.19000 40.97700
H  6.98000 2.58800 42.01800
H  6.39400 3.67800 40.74400
H  -2.74700 1.38800 41.78800
H  -1.84700 2.54600 42.61500
H  -3.17900 1.83600 43.46500
H  -3.47600 -3.42800 43.71400
H  -4.98400 -2.67400 44.15000
H  -3.80600 -2.82100 45.45300
H  -0.38100 -5.66200 44.81900
H  1.94000 -5.97100 46.69300
H  -1.22800 -4.13200 46.98500
H  0.16200 -5.09800 47.71100
H  -1.24400 -5.90900 47.09200
H  2.72300 -6.54800 43.99300
H  1.05300 -7.15100 44.29800
H  1.82300 -8.91700 45.41700
H  2.64300 -7.73000 46.51300
H  3.47900 -8.46300 45.07700
H  6.70200 -5.21400 45.47400
H  7.52400 -3.94600 46.56200
H  7.87600 -4.07200 44.80400
H  7.34500 0.44900 43.01200
H  9.24400 3.56800 44.57000
H  8.56600 3.19100 46.18700
H  7.76800 4.40200 45.12900
Mg 46.93700 25.80400 28.76800
C  47.95200 27.80600 31.61200
C  46.01500 23.41900 31.08700
C  46.39500 23.68600 26.27500
C  48.32000 28.17700 26.77100
N  46.82600 25.71400 31.15900
C  47.24800 26.66900 32.00900
C  46.76200 26.32200 33.46100
C  46.30400 24.82500 33.27000
C  46.39200 24.59500 31.75400
C  47.18700 23.77500 34.09500
C  45.63500 27.28800 34.02500
C  45.85200 27.99900 35.36300
H  44.95600 27.67000 36.47800
N  46.29900 23.86400 28.70200
C  45.95200 23.03100 29.77600
C  45.45500 21.78900 29.27500
C  45.61400 21.80000 27.82900
C  46.19700 23.12400 27.52000
C  44.86600 20.74800 30.20400
C  45.27500 20.72100 26.86700
O  45.39200 20.77700 25.62200
C  44.64200 19.49100 27.31900
N  47.30000 25.87800 26.86600
C  46.96800 24.92200 25.91900
C  47.33000 25.36200 24.50900
C  47.72900 26.88500 24.77600
C  47.72200 27.02500 26.25400
C  48.50500 24.57100 23.86900
C  46.68800 27.89300 24.17100
C  47.29600 29.22600 23.64700
N  47.89900 27.70300 29.07100
C  48.38800 28.54500 28.11400
C  48.99800 29.71400 28.72700
C  48.79800 29.45800 30.15000
C  48.20600 28.21300 30.29400
C  49.72800 30.82400 28.03600
C  49.00200 30.02100 31.48300
O  49.59600 31.02800 31.92100
C  48.29300 28.93700 32.53700
C  49.20700 28.80400 33.66800
O  50.33900 28.44600 33.58700
O  48.58700 29.09200 34.84300
C  49.37700 28.78400 36.04100
H  45.51500 22.74300 31.78500
H  45.98300 23.06500 25.47600
H  48.75300 28.72000 25.92900
H  47.66500 26.51400 34.04100
H  45.25400 24.68800 33.52900
H  47.73900 24.12500 34.96700
H  47.78100 23.35700 33.28200
H  46.54600 22.99300 34.50300
H  44.76300 26.64600 34.14600
H  45.39000 28.03400 33.26900
H  45.75000 29.05500 35.11400
H  46.86200 27.87200 35.75400
H  45.10900 19.74300 29.85800
H  43.78700 20.90100 30.19600
H  45.24400 20.80100 31.22600
H  45.23900 18.89300 28.00900
H  44.22000 18.93500 26.48200
H  43.77300 19.84100 27.87600
H  46.43200 25.41700 23.89300
H  48.71200 27.15200 24.38900
H  49.26600 25.04200 23.24900
H  47.93700 23.92800 23.19600
H  48.95200 24.04100 24.71100
H  45.88700 28.13400 24.87100
H  46.13200 27.32800 23.42200
H  47.23900 29.38100 22.57000
H  48.35500 29.30300 23.89000
H  46.77100 29.99900 24.20900
H  49.89300 31.63000 28.75100
H  49.32700 31.21700 27.10200
H  50.67700 30.34700 27.79000
H  47.36300 29.41400 32.84600
H  49.84800 27.80100 36.02500
H  48.86600 28.86400 37.00000
H  50.13500 29.56300 36.11900

