158

Mg 16.97200 -1.74600 28.26800
C  15.66400 0.24800 30.63900
C  18.87400 -3.37300 30.60400
C  18.07600 -3.51300 25.72400
C  15.06900 0.21000 25.80100
N  17.29900 -1.53700 30.37200
C  16.55000 -0.67900 31.14800
C  16.96700 -0.75600 32.57200
C  18.16200 -1.80100 32.54400
C  18.10100 -2.34100 31.14900
C  19.54900 -1.23500 32.91200
C  15.81700 -1.13100 33.49300
C  15.92800 -0.58100 34.91900
H  17.32200 0.08900 35.34000
N  18.33100 -3.26000 28.20400
C  19.02800 -3.81500 29.28300
C  19.93800 -4.82500 28.75700
C  19.62200 -4.93100 27.32300
C  18.65300 -3.89600 26.99000
C  20.95200 -5.61600 29.65400
C  20.18700 -5.97100 26.41400
O  19.93400 -5.94800 25.21900
C  21.06900 -7.06300 26.85300
N  16.63200 -1.63800 26.05400
C  17.28800 -2.48600 25.23900
C  16.91000 -2.26400 23.76100
C  15.87200 -1.06200 23.85900
C  15.77700 -0.88000 25.38200
C  18.11800 -2.03600 22.81100
C  14.51000 -1.21800 23.09900
C  14.16900 -0.13000 22.06500
N  15.66200 -0.10200 28.22300
C  14.99700 0.62500 27.17800
C  14.35500 1.78600 27.76400
C  14.70100 1.72000 29.13700
C  15.32600 0.46800 29.32000
C  13.48000 2.85800 27.01900
C  14.47800 2.34500 30.39600
O  13.86300 3.41400 30.60500
C  15.08100 1.50400 31.42400
C  15.97500 2.45500 32.14900
O  17.14500 2.69000 31.84100
O  15.37400 2.94800 33.27400
C  16.16000 3.93800 34.00300
H  19.49900 -3.86200 31.35400
H  18.34000 -4.18400 24.90400
H  14.60500 0.88300 25.07800
H  17.35900 0.21000 32.89300
H  18.01800 -2.72700 33.10100
H  19.64100 -0.16200 32.74500
H  20.35400 -1.66500 32.31500
H  19.83100 -1.53500 33.92100
H  15.82100 -2.22100 33.50500
H  14.86100 -0.82400 33.06900
H  15.66100 -1.27700 35.71500
H  15.19600 0.22700 34.89100
H  21.20200 -4.88800 30.42600
H  21.72200 -5.92400 28.94800
H  20.42600 -6.47400 30.07200
H  21.10600 -7.88200 26.13400
H  20.48000 -7.48400 27.66800
H  22.07500 -6.70300 27.06800
H  16.34900 -3.16300 23.50400
H  16.34200 -0.14600 23.50100
H  18.90200 -2.66600 23.23200
H  18.44500 -0.99600 22.81400
H  17.81300 -2.20200 21.77800
H  13.65000 -1.28200 23.76500
H  14.49100 -2.14400 22.52300
H  13.83400 -0.66700 21.17800
H  15.12200 0.34100 21.82400
H  13.44200 0.61200 22.39400
H  13.81800 2.89100 25.98300
H  13.74800 3.86000 27.35600
H  12.40600 2.67900 26.97300
H  14.20700 1.23600 32.01800
H  16.62000 4.72700 33.40800
H  16.98700 3.51600 34.57500
H  15.40000 4.29200 34.69900
Mg -5.83100 25.29400 26.14600
C  -4.36400 26.65100 28.99000
C  -7.53900 23.14500 28.20200
C  -6.92800 23.82300 23.41900
C  -3.56500 27.24000 24.22300
N  -5.89800 24.94900 28.33100
C  -5.30900 25.67400 29.31700
C  -5.68400 25.19200 30.69800
C  -6.43900 23.83700 30.42400
C  -6.65600 23.95800 28.87100
C  -5.58000 22.55200 30.79700
C  -6.45200 26.31300 31.43700
C  -6.17000 26.67400 32.91100
H  -5.35500 25.57000 33.81600
N  -7.19500 23.80200 25.81200
C  -7.83300 23.08100 26.76100
C  -8.80600 22.19000 26.14800
C  -8.55700 22.33000 24.76400
C  -7.52000 23.35500 24.60400
C  -9.90400 21.45600 27.02800
C  -9.18600 21.49000 23.64800
O  -8.96500 21.73900 22.45000
C  -9.99100 20.27400 23.99500
N  -5.29300 25.51400 24.06100
C  -5.91900 24.75600 23.13500
C  -5.29500 24.97800 21.70700
C  -4.26000 26.11800 21.97600
C  -4.36600 26.32400 23.51000
C  -4.76000 23.71800 20.89800
C  -4.45600 27.39100 21.20400
C  -3.32900 27.76600 20.16700
N  -4.19000 26.47800 26.46800
C  -3.42000 27.26600 25.58500
C  -2.60000 28.17800 26.33800
C  -2.91900 27.96700 27.70400
C  -3.87700 26.88700 27.69200
C  -1.62700 29.08800 25.83400
C  -2.65200 28.43000 29.04000
O  -1.87100 29.30400 29.46500
C  -3.53000 27.52200 29.96000
C  -2.60900 26.58500 30.67100
O  -2.24400 25.52500 30.27400
O  -2.48800 27.01200 31.96900
C  -1.53000 26.10000 32.69800
H  -8.04700 22.42600 28.84800
H  -7.25900 23.38800 22.47300
H  -2.90800 27.94800 23.71200
H  -4.79700 24.93800 31.27800
H  -7.41800 23.73000 30.89200
H  -6.22700 22.09500 31.54600
H  -4.56700 22.79200 31.11900
H  -5.58300 21.94900 29.88900
H  -7.52900 26.15600 31.38000
H  -6.30500 27.19300 30.81200
H  -7.13500 26.77100 33.41000
H  -5.69800 27.64600 33.05200
H  -9.67700 20.39300 27.10900
H  -10.89700 21.54800 26.58700
H  -10.04500 21.78500 28.05800
H  -9.59100 19.70000 24.83100
H  -10.03600 19.64300 23.10800
H  -11.03800 20.54400 24.13900
H  -6.04700 25.49000 21.10600
H  -3.32400 25.57200 21.85700
H  -5.41600 23.60100 20.03600
H  -4.84000 22.79200 21.46700
H  -3.77100 23.67700 20.44100
H  -4.42500 28.22400 21.90600
H  -5.37100 27.32600 20.61600
H  -2.54500 27.00800 20.17400
H  -2.91400 28.71300 20.51100
H  -3.67200 28.02600 19.16500
H  -1.53800 29.84900 26.60900
H  -1.95500 29.44400 24.85700
H  -0.75200 28.47700 25.60900
H  -4.33500 28.01700 30.50400
H  -0.68100 25.99600 32.02200
H  -1.89500 25.07900 32.79900
H  -1.22400 26.54800 33.64300

