158

Mg -0.26300 7.68300 26.00700
C  0.64100 9.43800 28.92800
C  -0.56500 4.72400 27.70900
C  -0.48200 6.07900 23.06600
C  0.47100 10.73500 24.14000
N  0.11700 7.15900 28.00400
C  0.30300 8.07300 29.03700
C  0.05800 7.40800 30.42600
C  -0.16500 5.87500 30.06400
C  -0.29500 5.89400 28.49200
C  0.85600 4.83100 30.65700
C  -1.07300 8.16400 31.29300
C  -0.74600 8.42300 32.76000
H  0.40700 7.69800 33.53400
N  -0.56500 5.69500 25.47200
C  -0.65400 4.61700 26.30500
C  -0.97000 3.42800 25.59700
C  -0.96100 3.81500 24.23900
C  -0.62800 5.25700 24.19300
C  -1.20900 2.07200 26.28200
C  -1.24900 2.93200 23.01500
O  -1.29800 3.33800 21.82600
C  -1.61100 1.43600 23.10100
N  0.01000 8.33400 23.91100
C  -0.25000 7.45400 22.90900
C  -0.12400 8.14900 21.53300
C  0.10600 9.63800 21.93000
C  0.17400 9.58500 23.46300
C  0.97000 7.48700 20.64500
C  -1.00600 10.62600 21.33900
C  -2.17500 10.98900 22.24000
N  0.24200 9.68500 26.41800
C  0.56000 10.79300 25.54200
C  0.77800 11.93500 26.36500
C  0.78200 11.52400 27.78500
C  0.56700 10.09000 27.73400
C  1.00200 13.35300 25.89800
C  1.04500 11.92200 29.12300
O  1.25700 13.02300 29.59200
C  0.95000 10.58600 29.93800
C  2.22500 10.36000 30.52400
O  3.16000 9.84100 29.93900
O  2.23200 10.87600 31.80700
C  3.52500 10.84300 32.51300
H  -0.87000 3.86600 28.31100
H  -0.63100 5.52000 22.14000
H  0.70200 11.62300 23.54900
H  1.00500 7.54200 30.95000
H  -1.16300 5.66000 30.44500
H  1.28400 4.21500 29.86500
H  0.38600 4.14300 31.36000
H  1.60000 5.28400 31.31200
H  -1.93500 7.49900 31.23000
H  -1.52300 9.04500 30.83500
H  -1.62400 8.15700 33.35000
H  -0.49100 9.47500 32.89000
H  -1.86500 2.07300 27.15200
H  -0.28700 1.58100 26.59500
H  -1.70200 1.35900 25.62200
H  -2.47100 1.22600 23.73800
H  -0.69000 0.98400 23.46900
H  -1.72200 0.99900 22.10900
H  -1.03600 8.04300 20.94500
H  1.08100 10.03200 21.64400
H  1.80400 8.18300 20.55500
H  0.55600 7.58500 19.64100
H  1.24300 6.47200 20.93500
H  -1.24900 10.21300 20.36000
H  -0.45600 11.52700 21.06400
H  -3.10500 10.93200 21.67400
H  -2.13400 12.03700 22.53700
H  -2.31400 10.36100 23.11900
H  0.08100 13.93300 25.83200
H  1.29400 13.43800 24.85100
H  1.65200 13.81100 26.64300
H  0.16200 10.72800 30.67800
H  3.70400 11.82700 32.94700
H  4.32800 10.51800 31.85200
H  3.39900 10.08900 33.29000
Mg 17.17200 51.28900 25.77600
C  18.83600 50.27300 28.58900
C  14.46500 52.08100 27.69700
C  15.59000 52.47600 22.99800
C  19.77400 50.04300 23.80900
N  16.69100 51.13600 27.91200
C  17.52700 50.74900 28.87100
C  16.91200 51.04800 30.27100
C  15.44800 51.40600 30.02600
C  15.54700 51.60700 28.47700
C  14.41700 50.27000 30.39700
C  17.70800 52.16400 31.09500
C  17.99800 51.84900 32.52500
H  17.13400 52.51600 33.59500
N  15.28700 52.25000 25.41100
C  14.33100 52.45200 26.33700
C  13.16200 53.06600 25.73400
C  13.48500 53.28100 24.35800
C  14.86100 52.66800 24.21500
C  11.87500 53.40600 26.52700
C  12.59300 53.93800 23.26900
O  12.94600 53.98800 22.06000
C  11.33000 54.54900 23.59200
N  17.68700 51.36000 23.76800
C  16.84300 51.89300 22.79200
C  17.39200 51.63300 21.36800
C  18.84900 51.21500 21.71100
C  18.82000 50.82300 23.16800
C  16.59200 50.66400 20.52100
C  19.94700 52.21400 21.32000
C  21.02100 51.57600 20.45500
N  18.93700 50.34600 26.07900
C  19.88200 49.80200 25.16900
C  21.05400 49.27800 25.90000
C  20.70800 49.47400 27.21300
C  19.40400 50.06700 27.29600
C  22.31400 48.67400 25.24900
C  21.16900 49.31500 28.56100
O  22.23200 48.86400 29.03900
C  19.96300 49.87000 29.52600
C  19.63100 48.79400 30.51400
O  19.09600 47.69900 30.22900
O  20.09100 49.16100 31.74500
C  19.95300 48.25300 32.89100
H  13.55900 52.15700 28.30100
H  14.93700 52.66900 22.14500
H  20.58500 49.73900 23.14400
H  17.06000 50.19200 30.92800
H  15.25900 52.38800 30.45800
H  13.38400 50.61500 30.34700
H  14.56300 49.88900 31.40700
H  14.57000 49.48400 29.65700
H  16.99100 52.98300 31.15500
H  18.67600 52.37300 30.64000
H  19.04800 52.12300 32.63100
H  18.03900 50.77400 32.70000
H  11.86400 54.49400 26.45800
H  11.87500 53.12700 27.58100
H  11.03600 52.98000 25.97700
H  10.87500 55.08300 22.75700
H  11.70100 55.39900 24.16400
H  10.58500 53.96000 24.12800
H  17.31200 52.53100 20.75600
H  19.03900 50.25000 21.24000
H  16.52200 51.10300 19.52600
H  15.56700 50.65400 20.89200
H  17.05300 49.67700 20.48500
H  20.44600 52.65400 22.18400
H  19.58600 52.96500 20.61800
H  20.65300 51.53000 19.43000
H  21.29400 50.62800 20.91700
H  21.96500 52.10800 20.33800
H  22.00900 48.08700 24.38300
H  22.90200 48.04700 25.92000
H  22.96600 49.51800 25.02900
H  20.39000 50.63500 30.17500
H  19.19400 47.48600 32.73900
H  19.79700 48.91100 33.74600
H  20.96500 47.84900 32.93000

