158

Mg 43.43400 3.70900 47.11000
C  41.03400 6.19200 46.78300
C  40.91900 1.40100 47.11500
C  45.76000 1.22800 46.93900
C  45.82400 6.04600 46.42900
N  41.18200 3.79500 46.66500
C  40.42700 4.93300 46.76400
C  38.98400 4.59100 46.88800
C  39.05600 3.07300 47.42200
C  40.44100 2.69500 46.97300
C  38.84500 2.93500 48.90500
C  38.22800 4.75000 45.52900
C  37.24900 5.95100 45.43700
H  36.60000 6.14900 44.07700
N  43.40700 1.53800 47.01400
C  42.22600 0.83900 47.20200
C  42.53500 -0.54300 47.39300
C  43.96000 -0.62800 47.32600
C  44.45600 0.72000 47.07500
C  41.57000 -1.67100 47.41800
C  44.81400 -1.89300 47.43500
O  44.25700 -2.98000 47.74600
C  46.28600 -1.93900 47.16300
N  45.49300 3.75800 46.72700
C  46.22800 2.55100 46.78500
C  47.76200 2.83800 46.66600
C  47.69100 4.40900 46.36000
C  46.23300 4.73500 46.48300
C  48.53800 2.48000 48.01000
C  48.38200 4.75400 44.95900
C  47.69700 4.00400 43.76700
N  43.47800 5.69900 46.72900
C  44.50400 6.49600 46.47800
C  44.08700 7.88100 46.54800
C  42.68200 7.84000 46.71300
C  42.42400 6.48400 46.71500
C  45.00100 9.08800 46.56300
C  41.41600 8.55800 46.84600
O  41.20300 9.79300 47.01000
C  40.38800 7.50000 46.88900
C  39.51400 7.59400 48.14600
O  39.84200 7.38100 49.28200
O  38.27900 8.05400 47.75500
C  37.41600 8.32700 48.84600
H  40.17300 0.66100 47.41400
H  46.63200 0.58800 47.08400
H  46.64000 6.76900 46.37100
H  38.54800 5.32500 47.56500
H  38.29100 2.54500 46.85300
H  38.35500 3.82100 49.30700
H  39.81100 2.78000 49.38400
H  38.07800 2.18300 49.09300
H  37.68300 3.83300 45.30700
H  39.00000 4.94200 44.78400
H  37.73800 6.90100 45.65000
H  36.50000 5.85600 46.22300
H  41.68300 -2.26300 46.51000
H  40.52800 -1.36200 47.32800
H  41.69800 -2.39500 48.22300
H  46.93900 -1.42900 47.87200
H  46.42600 -1.41500 46.21800
H  46.65700 -2.96400 47.16000
H  48.08300 2.24000 45.81300
H  48.27900 4.97700 47.08100
H  47.73500 2.10200 48.64300
H  49.13400 3.30000 48.41100
H  49.25300 1.72500 47.68300
H  49.44800 4.53200 45.00200
H  48.27600 5.82400 44.78100
H  47.13900 4.74900 43.19900
H  47.04000 3.25400 44.20800
H  48.41800 3.53400 43.09800
H  45.96800 8.85600 47.01000
H  44.45300 9.80300 47.17600
H  45.16900 9.38700 45.52900
H  39.77600 7.76300 46.02700
H  36.61100 8.86200 48.34100
H  37.87100 9.01900 49.55400
H  37.07100 7.35700 49.20400
Mg 46.89400 35.15700 28.82500
C  45.67400 33.21400 31.34200
C  47.33300 37.76700 31.01800
C  47.40700 37.40500 26.24100
C  45.89600 32.78500 26.47200
N  46.38600 35.45900 30.84700
C  46.05800 34.49200 31.78400
C  46.24500 35.00300 33.21900
C  46.37100 36.52300 33.08300
C  46.63900 36.61500 31.52900
C  45.12000 37.33400 33.56000
C  47.50900 34.31900 33.84000
C  47.46300 34.08500 35.39100
H  46.98800 35.20900 36.29400
N  47.47300 37.25100 28.63800
C  47.72500 38.04300 29.69400
C  48.31200 39.30600 29.19600
C  48.31000 39.25200 27.77800
C  47.69900 37.93300 27.47200
C  48.91900 40.36400 30.10200
C  48.78400 40.29500 26.77100
O  48.79000 40.08600 25.59400
C  49.18700 41.70200 27.23400
N  46.57800 35.17900 26.68500
C  46.95400 36.13500 25.84500
C  47.01800 35.69700 24.39600
C  46.40900 34.19700 24.45200
C  46.34000 33.97700 25.92900
C  46.39400 36.62000 23.37000
C  47.19800 33.21100 23.53900
C  46.30800 32.17600 22.82800
N  46.03200 33.33400 28.88100
C  45.65400 32.49600 27.83900
C  45.23900 31.22500 28.41000
C  45.18600 31.50200 29.74800
C  45.62800 32.78900 29.99900
C  44.90500 30.03500 27.48500
C  44.89700 30.90000 31.03600
O  44.53400 29.81400 31.32100
C  45.01000 32.03400 32.07000
C  45.71700 31.34500 33.14700
O  46.93600 31.21100 33.27600
O  44.82800 30.94700 34.08000
C  45.29600 30.15400 35.19300
H  47.63000 38.51500 31.75600
H  47.72700 38.13300 25.49300
H  45.64600 31.99400 25.76200
H  45.35200 34.73000 33.78000
H  47.26100 36.87200 33.60700
H  44.83800 37.97800 32.72600
H  45.39000 38.02200 34.36100
H  44.25400 36.69500 33.73400
H  48.33800 35.02300 33.77600
H  47.67900 33.36400 33.34400
H  48.27500 33.49500 35.81700
H  46.60200 33.41700 35.39200
H  48.92200 40.09900 31.16000
H  48.51400 41.36900 29.98800
H  49.92800 40.61300 29.77300
H  50.12100 41.67000 27.79500
H  48.38500 41.97800 27.91700
H  49.25600 42.35400 26.36300
H  48.10200 35.67400 24.28700
H  45.39400 34.25500 24.05800
H  47.01700 37.45100 23.03900
H  45.50900 37.02100 23.86500
H  46.10800 36.02800 22.50100
H  47.90600 32.63100 24.13200
H  47.81900 33.76400 22.83400
H  45.68200 32.44300 21.97600
H  45.61100 31.99700 23.64700
H  46.70900 31.18900 22.59900
H  44.30600 30.34300 26.62800
H  44.52100 29.19200 28.05900
H  45.88800 29.98400 27.01600
H  43.99800 32.23300 32.42400
H  45.01800 30.60500 36.14600
H  46.36600 29.95200 35.23000
H  44.76800 29.20200 35.14900

