158

Mg 25.47700 51.29600 26.38800
C  23.20300 51.99600 29.10000
C  27.65300 50.19500 28.88000
C  27.82200 51.13100 24.07100
C  23.17400 52.44900 24.11300
N  25.44200 51.21700 28.79500
C  24.40700 51.51400 29.65900
C  24.77500 51.25400 31.15400
C  26.24100 50.68600 31.02200
C  26.44000 50.66000 29.47700
C  27.22500 51.58200 31.60900
C  23.78300 50.31400 31.82200
C  23.44600 50.55700 33.34100
H  24.45800 51.29900 34.24500
N  27.43900 50.68800 26.45600
C  28.14900 50.24500 27.53300
C  29.50000 49.75400 27.03800
C  29.55000 50.13500 25.71000
C  28.23400 50.64000 25.34900
C  30.59000 49.21200 27.96700
C  30.76300 49.99400 24.77400
O  30.73600 50.32900 23.59700
C  32.12800 49.60100 25.27200
N  25.55200 51.72700 24.39700
C  26.62700 51.65400 23.62600
C  26.27100 51.76300 22.05300
C  24.74300 52.18800 22.08300
C  24.43700 52.12500 23.64500
C  27.22100 52.77000 21.33500
C  23.89300 51.28400 21.15800
C  23.51300 49.86300 21.51400
N  23.65800 52.07200 26.55000
C  22.78600 52.42700 25.50800
C  21.55700 52.77900 26.07200
C  21.70000 52.65000 27.42400
C  22.95500 52.18400 27.72600
C  20.35400 53.23700 25.40900
C  20.98500 52.84700 28.69000
O  19.84600 53.23800 28.90000
C  21.91500 52.40100 29.84000
C  22.08300 53.66600 30.62100
O  22.56200 54.69800 30.24000
O  21.58100 53.47600 31.94800
C  21.93100 54.50400 32.95100
H  28.35800 49.92500 29.67000
H  28.52400 50.78300 23.31100
H  22.41300 52.71600 23.37700
H  24.62100 52.20200 31.67000
H  26.43800 49.66600 31.35400
H  26.86500 52.11200 32.49100
H  27.41000 52.48500 31.02900
H  28.19200 51.16200 31.88700
H  24.27300 49.34100 31.84900
H  22.88600 50.30900 31.20400
H  23.22900 49.58800 33.79000
H  22.61600 51.26300 33.33100
H  30.21100 49.15300 28.98700
H  31.42600 49.91100 27.93300
H  30.89300 48.19800 27.70400
H  32.25900 48.74700 25.93700
H  32.54000 50.41800 25.86500
H  32.81800 49.33100 24.47200
H  26.44500 50.79700 21.58100
H  24.53500 53.14300 21.60300
H  28.19000 52.93300 21.80600
H  26.77600 53.75200 21.49600
H  27.27900 52.57100 20.26500
H  24.43000 51.26800 20.20900
H  22.97000 51.77900 20.85800
H  23.87000 49.20400 20.72200
H  22.43300 49.74900 21.42100
H  23.67100 49.55000 22.54600
H  20.25400 54.32200 25.37300
H  19.51200 52.81600 25.95900
H  20.23000 52.88600 24.38500
H  21.29800 51.78600 30.49500
H  21.70100 54.19500 33.97000
H  21.34900 55.38400 32.67700
H  22.95300 54.85800 32.81400
Mg -1.82900 33.89300 26.32400
C  -3.00400 32.13400 29.24900
C  0.13600 35.78200 28.41800
C  -1.00400 35.65500 23.64400
C  -3.78300 31.74300 24.39100
N  -1.49900 34.02600 28.60200
C  -2.00700 33.12400 29.52300
C  -1.45600 33.41700 30.92700
C  -0.58500 34.71600 30.68300
C  -0.62600 34.82000 29.19700
C  -1.06800 36.02300 31.36800
C  -0.76000 32.17500 31.56800
C  -1.30500 31.66300 32.93400
H  -0.26400 31.53500 34.07800
N  -0.58500 35.53300 26.03900
C  0.11500 36.21000 27.04500
C  0.90700 37.24700 26.42600
C  0.60300 37.22000 25.00600
C  -0.39000 36.14400 24.84200
C  1.93000 38.17000 27.18300
C  1.24700 37.95000 23.86400
O  0.90200 37.96200 22.71800
C  2.36900 38.98400 24.24700
N  -2.51900 33.92700 24.37400
C  -1.92300 34.66900 23.40400
C  -2.41300 34.26300 21.97100
C  -2.84400 32.77900 22.23800
C  -3.11500 32.78900 23.73600
C  -3.52800 35.18600 21.38200
C  -1.85200 31.62900 21.80300
C  -0.53200 31.62700 22.49800
N  -3.16900 32.35400 26.72400
C  -3.86200 31.58200 25.83600
C  -4.68200 30.61400 26.59100
C  -4.34600 30.85400 27.95600
C  -3.44100 31.86700 27.96900
C  -5.72500 29.65100 26.00400
C  -4.70300 30.40300 29.30500
O  -5.49700 29.52700 29.71700
C  -3.73500 31.19500 30.17700
C  -4.46900 31.75000 31.35700
O  -4.82900 32.93000 31.48200
O  -4.68200 30.79800 32.29100
C  -5.23400 31.34600 33.58000
H  0.96900 36.23200 28.96200
H  -0.68300 36.19400 22.75000
H  -4.14300 30.94500 23.73800
H  -2.27900 33.68500 31.59000
H  0.41700 34.43600 31.01000
H  -2.15400 35.95600 31.43600
H  -0.71000 36.87000 30.78100
H  -0.67400 36.03700 32.38400
H  0.31400 32.35700 31.58500
H  -0.87900 31.33900 30.88000
H  -1.52400 30.60200 32.81600
H  -2.23500 32.08900 33.30900
H  2.90400 37.68900 27.26500
H  1.50700 38.30800 28.17800
H  1.98300 39.19800 26.82600
H  3.07800 39.36000 23.51000
H  3.02600 38.55200 25.00200
H  1.83800 39.85600 24.63000
H  -1.60300 34.27300 21.24200
H  -3.85200 32.53900 21.89800
H  -4.44500 34.60300 21.46700
H  -3.13200 35.47200 20.40800
H  -3.79600 36.03500 22.01100
H  -1.57200 31.81500 20.76600
H  -2.23800 30.61000 21.79000
H  -0.82900 31.98500 23.48400
H  0.08600 32.19800 21.80500
H  -0.14700 30.61000 22.57700
H  -5.87900 30.02300 24.99100
H  -6.63700 29.77100 26.58900
H  -5.41100 28.61100 26.10000
H  -2.98800 30.43200 30.39300
H  -4.49600 31.96400 34.09300
H  -5.45000 30.45000 34.16200
H  -6.13100 31.95600 33.47000

