158

Mg 36.46200 48.73100 24.90000
C  36.19300 46.84000 27.72200
C  34.81200 51.43100 26.65000
C  35.83900 50.24200 21.92000
C  37.53900 45.89900 23.16400
N  35.61400 49.10700 26.96700
C  35.73100 48.19000 27.98500
C  35.39400 48.82200 29.38100
C  34.80700 50.17800 28.95800
C  35.06800 50.26900 27.41900
C  33.37500 50.46300 29.44200
C  36.47600 48.96800 30.47100
C  36.22600 48.99600 31.95400
H  34.80400 48.93700 32.46200
N  35.60900 50.62300 24.35900
C  35.07600 51.57700 25.24900
C  34.71400 52.79000 24.47300
C  34.95100 52.51500 23.09600
C  35.41700 51.04400 23.02500
C  34.11900 54.05500 25.03900
C  34.76300 53.40700 21.83800
O  35.13700 53.06400 20.69700
C  34.10600 54.75300 21.96700
N  36.60700 48.13300 22.83200
C  36.42800 48.98500 21.79000
C  36.75600 48.31300 20.44400
C  37.65400 47.15600 20.98700
C  37.17700 47.04200 22.39400
C  35.51800 47.88900 19.69700
C  39.21400 47.32900 20.73900
C  39.88200 48.72200 20.64100
N  36.74900 46.75100 25.26100
C  37.24600 45.68600 24.49400
C  37.36700 44.44300 25.25200
C  36.91400 44.86700 26.53300
C  36.57800 46.25800 26.46300
C  37.87600 43.02800 24.85500
C  36.64400 44.44500 27.87700
O  36.80200 43.29600 28.39200
C  36.20400 45.74000 28.69300
C  34.96300 45.45500 29.42600
O  33.80600 45.59200 29.02300
O  35.30800 44.99600 30.67500
C  34.29800 44.76300 31.69500
H  34.47500 52.29100 27.23200
H  35.62400 50.81600 21.01600
H  37.95500 45.05000 22.61800
H  34.57500 48.20000 29.74100
H  35.39400 51.00300 29.36100
H  32.65800 50.65700 28.64400
H  33.48900 51.27900 30.15500
H  32.89200 49.66500 30.00700
H  37.07200 49.86100 30.28400
H  37.33400 48.31300 30.31900
H  36.57900 49.96100 32.31800
H  36.87600 48.32600 32.51800
H  34.61900 54.91500 24.59200
H  34.44400 54.17900 26.07200
H  33.04800 54.02100 24.83800
H  33.16400 54.68700 22.51000
H  33.63500 55.05800 21.03300
H  34.83800 55.42600 22.41500
H  37.28700 48.98200 19.76700
H  37.33600 46.20000 20.57100
H  35.80800 47.05100 19.06300
H  35.09100 48.73300 19.15500
H  34.90400 47.50800 20.51300
H  39.44100 46.94700 19.74400
H  39.75000 46.65800 21.41000
H  40.52300 48.79800 19.76200
H  40.50400 48.83000 21.52900
H  39.17700 49.54300 20.77100
H  38.79500 42.67800 25.32500
H  37.96700 43.00300 23.76900
H  37.14700 42.26200 25.11900
H  36.99300 45.87200 29.43300
H  34.21900 43.68800 31.85500
H  33.30400 45.14900 31.46800
H  34.58400 45.09700 32.69200
Mg 16.89800 52.97800 26.85200
C  18.72000 51.21800 29.32700
C  14.65500 53.70400 29.26400
C  14.92700 54.20700 24.50500
C  18.99400 51.51000 24.35100
N  16.80400 52.66300 28.99900
C  17.67100 51.95500 29.81600
C  17.25500 51.92800 31.28100
C  15.75800 52.28600 31.09300
C  15.77700 52.98000 29.72300
C  14.95600 50.97700 31.30000
C  18.08900 53.01700 31.98800
C  18.47600 52.81400 33.43700
H  17.40700 52.08900 34.26700
N  15.08900 53.97700 26.87300
C  14.36200 54.25200 27.99200
C  13.22700 55.01800 27.63100
C  13.16900 54.99100 26.22900
C  14.45300 54.40100 25.77700
C  12.28700 55.55700 28.68500
C  11.98900 55.45700 25.28200
O  12.22500 55.53800 24.08900
C  10.60200 55.92200 25.81700
N  17.09700 53.02900 24.73400
C  16.05700 53.60800 24.01000
C  16.26100 53.34700 22.49600
C  17.62100 52.57500 22.49800
C  17.93700 52.44400 23.97000
C  15.11400 52.58500 21.90900
C  18.69700 53.14800 21.54800
C  19.71300 54.19700 22.04300
N  18.53300 51.59200 26.77500
C  19.30100 51.16000 25.73900
C  20.41700 50.43800 26.30800
C  20.26900 50.43900 27.69500
C  19.05500 51.05600 27.92400
C  21.56400 49.90900 25.49000
C  20.83700 50.13200 28.97000
O  21.95000 49.74100 29.26900
C  19.84500 50.61700 30.04700
C  19.46400 49.44900 30.95400
O  18.83400 48.49400 30.51400
O  19.78500 49.63200 32.29600
C  19.24200 48.68500 33.27700
H  13.97900 53.94600 30.08700
H  14.48200 54.75300 23.67100
H  19.50200 50.93500 23.57400
H  17.60900 51.06100 31.83900
H  15.38200 52.90800 31.90600
H  15.09700 50.27000 30.48200
H  13.87600 51.02700 31.43400
H  15.36600 50.50900 32.19500
H  17.55200 53.96500 32.00900
H  19.01800 53.19100 31.44600
H  18.71800 53.79300 33.85100
H  19.41300 52.25900 33.40000
H  11.96400 56.56000 28.40700
H  12.72600 55.48000 29.68000
H  11.35200 54.99800 28.70900
H  10.00100 55.16000 26.31300
H  9.92800 56.34200 25.07100
H  10.82200 56.80500 26.41700
H  16.37500 54.30000 21.98100
H  17.42800 51.55400 22.17000
H  14.57700 53.17400 21.16500
H  14.49500 52.11600 22.67400
H  15.57700 51.73400 21.41100
H  18.21100 53.88100 20.90300
H  19.17800 52.35800 20.97200
H  19.41500 54.50900 23.04400
H  19.67200 55.09000 21.42000
H  20.73300 53.81800 22.10000
H  21.97500 50.62900 24.78200
H  21.08400 49.17400 24.84200
H  22.36700 49.37700 25.99900
H  20.35200 51.28700 30.74200
H  19.61500 47.69100 33.03000
H  18.15800 48.58500 33.20900
H  19.63100 49.07400 34.21800

