158

Mg 47.76000 25.28800 28.42000
C  48.58300 27.43100 31.09700
C  47.42700 22.75700 30.82200
C  46.95600 23.27800 25.87000
C  48.81900 27.85000 26.21900
N  47.84900 25.15400 30.74800
C  48.13000 26.21300 31.61700
C  47.98300 25.75600 33.04000
C  47.83000 24.22100 32.96100
C  47.69400 24.00000 31.45000
C  48.92100 23.33000 33.59900
C  46.84100 26.58900 33.82700
C  47.25400 27.59800 34.85100
H  46.41500 27.86200 36.09100
N  47.38800 23.24200 28.32700
C  47.18600 22.38000 29.39700
C  46.71700 21.10600 28.87600
C  46.58600 21.22700 27.49800
C  46.95500 22.64400 27.15400
C  46.54200 19.95900 29.83900
C  46.16400 20.20000 26.43500
O  46.01300 20.42100 25.25800
C  45.89200 18.82600 27.00200
N  47.89700 25.51400 26.34500
C  47.44500 24.52800 25.47900
C  47.86400 24.94400 24.04200
C  48.17600 26.46800 24.15600
C  48.28500 26.65400 25.62500
C  49.03200 24.08200 23.52900
C  47.09000 27.42100 23.56500
C  46.84400 27.39000 22.06900
N  48.57700 27.22600 28.57200
C  48.98000 28.06100 27.57600
C  49.36300 29.27900 28.18000
C  49.27700 29.10500 29.60500
C  48.72300 27.82800 29.76700
C  49.76300 30.49700 27.40800
C  49.47300 29.65200 30.84400
O  49.95400 30.75900 31.12500
C  49.03700 28.60300 31.91900
C  50.22900 28.25200 32.80900
O  51.08500 27.40000 32.57600
O  50.18800 29.10300 33.85600
C  51.21600 29.08700 34.96300
H  47.28100 22.01900 31.61300
H  46.67300 22.68100 25.00000
H  49.09700 28.67400 25.55900
H  49.01200 25.93600 33.35100
H  46.91400 24.06300 33.52900
H  49.80700 23.88900 33.90000
H  49.26400 22.52600 32.94800
H  48.50700 22.78900 34.45000
H  46.38100 25.74300 34.33700
H  46.11500 26.96400 33.10600
H  47.38600 28.58900 34.41700
H  48.15900 27.22100 35.32800
H  47.03900 20.04600 30.80500
H  46.91400 19.04200 29.38300
H  45.51400 19.69000 30.08100
H  45.38900 18.24100 26.23200
H  45.21200 18.86300 27.85300
H  46.88200 18.37900 27.09300
H  46.96000 24.77500 23.45700
H  49.13700 26.73500 23.71800
H  48.84800 23.55400 22.59400
H  49.35200 23.35100 24.27100
H  49.94100 24.62500 23.27300
H  47.36700 28.46100 23.73800
H  46.10100 27.22300 23.97900
H  47.44400 26.61800 21.58700
H  47.18300 28.32300 21.61900
H  45.79100 27.27000 21.81500
H  50.81400 30.68300 27.63000
H  49.17200 31.31000 27.82800
H  49.47000 30.51900 26.35900
H  48.15800 28.97000 32.44900
H  51.61800 30.07500 35.18800
H  52.12700 28.52100 34.76600
H  50.74600 28.71900 35.87500
Mg 30.10000 57.19100 41.39900
C  27.34300 55.35500 40.36400
C  32.08700 54.69500 40.37700
C  32.50700 59.43200 41.56500
C  27.88000 59.72700 42.66500
N  29.70300 55.39700 40.39000
C  28.51200 54.78200 40.04100
C  28.74800 53.44700 39.28700
C  30.14700 53.02000 39.82500
C  30.74100 54.46200 40.27300
C  30.14600 51.95300 40.91700
C  28.62300 53.52400 37.67000
C  27.63500 52.55400 36.94400
H  26.59700 53.12600 35.98100
N  32.02700 57.11100 40.95300
C  32.68100 55.92500 40.65400
C  34.11300 56.21000 40.63300
C  34.24400 57.59600 40.94600
C  32.92000 58.13800 41.18600
C  35.16800 55.18500 40.38100
C  35.55300 58.29400 41.00700
O  36.54700 57.68000 40.67600
C  35.69600 59.70700 41.39000
N  30.11700 59.40000 41.90600
C  31.24600 60.01200 41.84200
C  31.14400 61.54500 42.13200
C  29.73600 61.56600 42.87400
C  29.17800 60.12500 42.42600
C  32.33400 62.44000 42.68500
C  28.73300 62.72500 42.53700
C  28.10300 62.80900 41.05100
N  27.99700 57.44800 41.53000
C  27.26900 58.48100 42.17300
C  25.86500 58.03700 42.24700
C  25.82700 56.81000 41.44300
C  27.15900 56.51900 41.10600
C  24.63500 58.64000 42.87000
C  24.98300 55.75100 41.03100
O  23.79800 55.54600 41.14000
C  25.96000 54.76100 40.26600
C  25.87100 53.39300 40.90600
O  26.23700 53.10700 42.06200
O  25.27600 52.56100 39.98800
C  25.34800 51.14900 40.33400
H  32.77800 53.86300 40.22800
H  33.33600 60.14000 41.50200
H  27.17400 60.35800 43.20800
H  28.05600 52.73300 39.73400
H  30.70400 52.49200 39.05100
H  30.70700 52.40100 41.73700
H  30.59600 51.05200 40.50000
H  29.13000 51.73500 41.24600
H  29.62200 53.40100 37.25100
H  28.26900 54.47800 37.28000
H  27.07000 51.89900 37.60700
H  28.28300 51.96300 36.29700
H  35.89000 55.68000 39.73100
H  34.70800 54.39200 39.79100
H  35.68300 54.93500 41.30800
H  35.13000 59.98700 42.27900
H  35.23500 60.32900 40.62300
H  36.75600 59.88600 41.57200
H  30.95100 62.13000 41.23300
H  29.89500 61.51500 43.95100
H  32.74300 61.78300 43.45300
H  31.84700 63.27400 43.19000
H  32.93800 62.81800 41.86100
H  29.12100 63.68500 42.88000
H  27.87400 62.51500 43.17500
H  27.17400 62.24500 40.97500
H  28.81600 62.32700 40.38300
H  28.00200 63.84100 40.71400
H  24.08100 59.32200 42.22500
H  25.14200 59.29100 43.58200
H  23.99700 57.83300 43.22900
H  25.61900 54.78900 39.23100
H  26.37700 50.81700 40.20200
H  24.79500 50.62900 39.55200
H  24.84000 50.97600 41.28400

