158

Mg -1.40500 17.97700 27.87500
C  -2.26500 15.79600 30.49200
C  -1.99700 20.62900 29.90600
C  -1.39200 19.91800 25.13200
C  -1.51400 15.18800 25.68100
N  -2.22500 18.17900 29.95900
C  -2.23200 17.20500 30.87100
C  -2.44400 17.77200 32.30200
C  -2.52700 19.29500 31.99500
C  -2.30400 19.44100 30.49900
C  -3.95400 19.93400 32.24400
C  -1.34000 17.33900 33.28900
C  -1.80300 16.67200 34.59000
H  -1.14000 17.08600 35.90300
N  -1.39300 20.03100 27.61600
C  -1.63200 20.94800 28.56500
C  -1.42200 22.20300 28.00700
C  -1.10000 22.00200 26.64200
C  -1.28900 20.58800 26.39200
C  -1.57300 23.51100 28.77100
C  -0.72000 23.00900 25.62400
O  -0.48600 22.67300 24.48100
C  -0.65700 24.44800 25.82800
N  -1.45800 17.58900 25.78700
C  -1.51600 18.53600 24.83400
C  -1.52800 17.99800 23.41700
C  -1.10600 16.55300 23.64900
C  -1.34500 16.45500 25.15300
C  -2.82000 18.23700 22.67500
C  0.34000 16.21600 23.13800
C  1.53300 16.57000 24.07200
N  -1.73800 15.91400 28.02500
C  -1.66400 14.93800 27.06700
C  -1.82700 13.69600 27.69500
C  -2.06800 13.94800 29.04800
C  -1.92300 15.28800 29.25200
C  -2.15300 12.36100 26.98000
C  -2.46200 13.30000 30.28300
O  -2.70500 12.13300 30.62700
C  -2.51000 14.52000 31.27300
C  -1.43200 14.15900 32.17900
O  -0.30400 14.39800 32.02600
O  -1.98900 13.43100 33.14800
C  -1.11700 12.58200 33.95000
H  -2.09200 21.47800 30.58600
H  -1.37200 20.49600 24.20600
H  -1.60100 14.38100 24.95000
H  -3.39600 17.28600 32.51600
H  -1.75200 19.86000 32.51200
H  -4.63600 19.12300 32.49600
H  -4.27800 20.49800 31.36900
H  -3.73600 20.59900 33.08000
H  -0.75100 18.24300 33.43900
H  -0.60800 16.68400 32.81600
H  -1.63700 15.59500 34.55300
H  -2.88500 16.78500 34.65500
H  -2.43500 23.99500 28.31200
H  -0.68400 24.13000 28.64900
H  -1.69700 23.46800 29.85300
H  -0.07900 25.07700 25.15200
H  -0.09500 24.52100 26.75900
H  -1.66800 24.80000 26.03600
H  -0.65100 18.52800 23.04600
H  -1.71600 15.82900 23.10900
H  -3.62000 18.32700 23.41000
H  -3.12600 17.44500 21.99200
H  -2.65900 19.18700 22.16400
H  0.39900 16.66100 22.14500
H  0.28900 15.15100 22.91200
H  1.29500 16.50400 25.13400
H  1.93000 17.54300 23.78500
H  2.28500 15.78600 23.97400
H  -2.76500 12.46700 26.08400
H  -2.63800 11.67300 27.67300
H  -1.19600 11.86900 26.80600
H  -3.47200 14.60900 31.77700
H  -0.68300 11.82000 33.30200
H  -1.70700 12.09300 34.72500
H  -0.33600 13.12400 34.48300
Mg 5.88500 54.52500 40.99100
C  5.54000 50.98100 40.95300
C  9.12500 53.97200 39.75200
C  6.32800 57.80100 40.44700
C  2.63000 54.85000 41.68000
N  7.06700 52.73300 40.14300
C  6.71800 51.38600 40.31600
C  7.91400 50.44600 39.95000
C  9.10300 51.50500 40.05800
C  8.39700 52.82100 39.96200
C  10.18100 51.22200 41.19100
C  7.68700 49.80100 38.53600
C  8.18000 50.62200 37.29200
H  7.44100 50.33400 35.97100
N  7.40800 55.69900 40.03500
C  8.69800 55.26500 39.66900
C  9.48900 56.38300 39.20700
C  8.69300 57.50800 39.49400
C  7.36400 57.03000 39.98900
C  10.97900 56.39900 38.79400
C  9.11900 59.02000 39.39400
O  10.23200 59.31500 38.94700
C  8.12500 60.19500 39.65900
N  4.63300 56.12500 40.94100
C  5.05800 57.35800 40.95000
C  4.10500 58.28400 41.79900
C  2.86500 57.39000 41.96500
C  3.37300 56.05800 41.48600
C  4.74600 58.73600 43.16000
C  1.61100 57.99400 41.29900
C  0.26300 57.49300 41.79600
N  4.32000 53.19700 41.22300
C  3.05400 53.52500 41.61500
C  2.39000 52.24800 42.00100
C  3.38900 51.21000 41.84200
C  4.47900 51.89500 41.33500
C  0.96100 52.18400 42.40500
C  3.63700 49.81100 41.94500
O  2.93700 48.89200 42.33300
C  5.07000 49.55600 41.29000
C  4.86300 48.70000 40.10800
O  4.25000 48.95900 39.06800
O  5.45200 47.47100 40.37300
C  5.38900 46.51500 39.27900
H  10.16300 53.77200 39.47700
H  6.36400 58.86500 40.69300
H  1.61300 55.09700 41.99200
H  7.98000 49.68500 40.72700
H  9.75500 51.51900 39.18400
H  11.14900 51.00700 40.73900
H  9.81900 50.40100 41.80900
H  10.47700 52.04600 41.84000
H  6.60600 49.88000 38.42100
H  7.93000 48.74200 38.61700
H  9.25500 50.51600 37.14400
H  7.97200 51.67300 37.49500
H  11.38100 55.42700 38.50700
H  11.47300 56.71100 39.71400
H  10.96500 56.99900 37.88300
H  8.62500 61.09900 39.31200
H  7.93300 60.35100 40.72100
H  7.20100 59.96500 39.12900
H  3.93700 59.21200 41.25200
H  2.60000 57.24600 43.01200
H  5.66700 58.22700 43.44300
H  3.95800 58.61300 43.90300
H  5.00300 59.79500 43.12400
H  1.73100 57.94800 40.21700
H  1.63700 59.03200 41.63100
H  -0.40100 58.28400 42.14500
H  0.37000 56.77300 42.60800
H  -0.27100 56.99300 40.98800
H  0.98100 52.37000 43.47900
H  0.61200 51.17300 42.19300
H  0.29500 52.87600 41.89100
H  5.82800 49.17600 41.97500
H  5.60200 45.57700 39.79300
H  6.05100 46.74900 38.44600
H  4.33900 46.43900 38.99900

