158

Mg 47.73700 15.09000 27.23900
C  45.79900 15.23500 30.01500
C  49.94800 17.29000 28.62200
C  49.25300 15.33100 24.23600
C  45.09700 13.33300 25.60100
N  47.87800 16.21500 29.12400
C  47.05000 15.90100 30.12600
C  47.50100 16.55500 31.43300
C  48.83100 17.33600 31.00200
C  48.86700 17.06200 29.51500
C  48.94500 18.79800 31.45300
C  47.77600 15.44100 32.53100
C  47.24900 15.82300 33.93700
H  46.95600 17.26500 34.37000
N  49.38800 16.05200 26.63300
C  50.19000 16.90600 27.34400
C  51.37000 17.33900 26.57500
C  51.17600 16.61300 25.30200
C  49.88200 15.95200 25.31000
C  52.48800 18.22200 27.08900
C  52.03700 16.64600 24.11600
O  51.81700 16.13700 23.02900
C  53.30000 17.42800 24.16800
N  47.31700 14.29900 25.29700
C  48.08000 14.57100 24.21400
C  47.53200 13.88700 22.95200
C  46.25300 13.13700 23.36100
C  46.22500 13.54100 24.86200
C  47.23500 14.85900 21.76600
C  46.21900 11.65000 22.99100
C  46.69200 10.64600 24.16700
N  45.78800 14.41700 27.68100
C  44.87100 13.63900 26.95400
C  43.67700 13.47600 27.76200
C  44.03000 14.01400 29.01100
C  45.30000 14.58400 28.89700
C  42.32100 12.93300 27.37500
C  43.57800 14.21100 30.41700
O  42.51900 14.04600 30.92100
C  44.74400 14.94000 31.14200
C  44.16500 16.13500 31.79800
O  44.33800 17.29000 31.43400
O  43.48400 15.79900 32.96200
C  42.68900 16.82400 33.62200
H  50.67300 17.88900 29.17600
H  49.66400 15.38300 23.22500
H  44.28000 12.80900 25.10000
H  46.80600 17.33500 31.74400
H  49.67900 16.80000 31.42700
H  48.82800 19.35700 30.52500
H  49.98400 18.92600 31.75700
H  48.17200 19.20200 32.10700
H  48.84900 15.29000 32.65000
H  47.33000 14.51200 32.17700
H  47.89100 15.49400 34.75500
H  46.31700 15.30200 34.15400
H  52.21600 18.65300 28.05200
H  52.79500 19.04400 26.44200
H  53.30400 17.55200 27.35900
H  53.89000 17.38000 25.08300
H  53.08900 18.41200 23.75000
H  53.94900 17.00400 23.40100
H  48.30500 13.14500 22.75600
H  45.43800 13.66700 22.86700
H  46.19500 14.90600 21.44400
H  47.90800 14.50200 20.98700
H  47.55000 15.87500 22.00600
H  46.69600 11.32900 22.06500
H  45.14800 11.45700 22.91900
H  47.24700 9.81700 23.72600
H  45.84400 10.22300 24.70500
H  47.35600 11.05300 24.92900
H  42.21400 12.92800 26.29100
H  41.60200 13.65800 27.75700
H  42.18300 11.88800 27.65300
H  45.19100 14.27800 31.88300
H  43.00000 17.86600 33.54700
H  42.54400 16.53900 34.66400
H  41.71800 16.79600 33.12800
Mg 47.42700 24.91600 28.50200
C  48.37600 27.11800 31.04300
C  46.42200 22.64000 31.00300
C  47.19600 22.59400 26.10700
C  49.17200 26.96500 26.20400
N  47.41700 24.97500 30.75500
C  47.72100 25.98400 31.53500
C  47.42600 25.66400 32.95400
C  47.00900 24.18400 32.96100
C  46.86700 23.87500 31.46500
C  47.90900 23.22200 33.72500
C  46.30200 26.64800 33.58100
C  46.64600 27.27400 34.97200
H  45.55200 27.17100 36.02100
N  46.66700 22.97200 28.53200
C  46.31900 22.21700 29.65400
C  45.84500 20.89400 29.15400
C  45.99800 20.96400 27.73300
C  46.66900 22.17900 27.42200
C  45.34700 19.80200 30.02800
C  45.62000 19.87700 26.69700
O  45.53200 19.98000 25.48500
C  45.24600 18.52200 27.22600
N  48.24200 24.72100 26.47000
C  47.96800 23.64500 25.69600
C  48.27200 23.83900 24.22800
C  48.86400 25.35700 24.23700
C  48.75200 25.73500 25.72000
C  49.25800 22.78200 23.70300
C  48.17300 26.31400 23.25100
C  46.81400 26.91900 23.66100
N  48.56400 26.71100 28.54100
C  49.15600 27.41500 27.52600
C  49.51300 28.72300 27.97800
C  49.39200 28.62600 29.39200
C  48.80500 27.33600 29.67100
C  49.85500 29.92000 27.14700
C  49.48200 29.35800 30.61700
O  49.88400 30.47000 30.80600
C  48.79800 28.39800 31.78200
C  49.85400 28.17500 32.74000
O  50.71900 27.28800 32.70600
O  49.63800 28.99200 33.82800
C  50.64900 28.80500 34.91300
H  46.13500 21.94500 31.79600
H  46.96200 21.92600 25.27500
H  49.73800 27.64500 25.56400
H  48.37400 25.83600 33.46300
H  46.00600 24.10200 33.37900
H  48.75600 23.72000 34.19700
H  48.33500 22.42300 33.11900
H  47.24000 22.76100 34.45200
H  45.39500 26.08200 33.79300
H  46.06900 27.53400 32.99100
H  46.75400 28.35100 34.84600
H  47.62400 26.94400 35.32200
H  45.86400 18.85800 29.85100
H  44.31800 19.70300 29.68300
H  45.33200 20.11500 31.07200
H  44.86000 17.84400 26.46500
H  44.37500 18.54500 27.88000
H  46.15600 18.07500 27.62800
H  47.34400 23.74500 23.66400
H  49.90600 25.30300 23.92200
H  48.86100 22.41600 22.75600
H  49.61800 21.93600 24.28800
H  50.20400 23.28800 23.50500
H  47.98800 25.74400 22.34100
H  48.90600 27.08000 22.99900
H  46.03000 26.66100 22.95000
H  46.88200 28.00600 23.71500
H  46.47700 26.56000 24.63300
H  49.82900 30.83000 27.74600
H  49.08400 29.91900 26.37700
H  50.86600 29.73800 26.78200
H  47.96100 28.92200 32.24400
H  50.46600 27.77400 35.21700
H  50.57600 29.52400 35.72900
H  51.67800 28.83500 34.55500

