158

Mg 1.47700 -1.89400 42.58600
C  5.02000 -1.75000 42.10100
C  1.30500 1.20700 40.93800
C  -1.71400 -2.57600 41.91200
C  1.89100 -5.17200 43.83400
N  2.99000 -0.45900 41.60600
C  4.37800 -0.64300 41.61200
C  5.07900 0.58100 40.83500
C  3.85700 1.59600 40.60400
C  2.65100 0.78500 41.10200
C  4.09000 2.90800 41.42400
C  5.78300 0.16500 39.45200
C  6.55800 1.31300 38.78200
H  6.25500 1.65600 37.29800
N  -0.01500 -0.82300 41.71200
C  0.11100 0.44200 41.11700
C  -1.23600 0.90600 40.80000
C  -2.07900 -0.24100 40.95900
C  -1.28200 -1.30600 41.50800
C  -1.59900 2.27100 40.30200
C  -3.59400 -0.29900 40.62700
O  -4.08200 0.76200 40.30300
C  -4.53500 -1.49800 40.74100
N  0.32300 -3.66600 42.75800
C  -0.98800 -3.63800 42.49300
C  -1.59900 -5.01300 42.84700
C  -0.51200 -5.86400 43.57400
C  0.67400 -4.86200 43.33700
C  -2.94000 -5.07200 43.62000
C  -0.39400 -7.35000 43.05800
C  -0.91800 -8.50700 43.94700
N  3.13700 -3.09000 43.14400
C  3.12400 -4.42200 43.56100
C  4.50900 -4.82300 43.68000
C  5.26000 -3.72800 43.22600
C  4.38400 -2.80200 42.80100
C  4.99300 -6.17700 44.14200
C  6.65700 -3.27800 42.98400
O  7.73600 -3.76700 43.27000
C  6.52300 -2.03700 42.13400
C  7.30900 -0.93100 42.61000
O  8.05300 -0.31800 41.85200
O  7.06000 -0.57100 43.89600
C  7.67000 0.67700 44.35500
H  1.22200 2.20600 40.50600
H  -2.76000 -2.84000 41.74100
H  1.97900 -6.14500 44.32300
H  5.81900 1.03900 41.49200
H  3.78600 1.67500 39.51900
H  3.14200 3.42500 41.57600
H  4.66900 3.66200 40.89200
H  4.59200 2.58600 42.33600
H  5.05200 -0.25500 38.76100
H  6.45300 -0.65200 39.71600
H  7.63700 1.21700 38.90400
H  6.23500 2.15400 39.39600
H  -1.00900 3.05000 40.78500
H  -2.60500 2.65800 40.46000
H  -1.47000 2.27300 39.22000
H  -5.50600 -1.19500 40.35000
H  -4.67700 -1.87200 41.75400
H  -4.20300 -2.27000 40.04600
H  -1.89600 -5.55800 41.95100
H  -0.79700 -5.79200 44.62400
H  -3.32500 -4.07400 43.83400
H  -2.85400 -5.68800 44.51600
H  -3.59600 -5.63300 42.95600
H  0.65500 -7.45600 42.78400
H  -0.99000 -7.47000 42.15400
H  -1.51300 -8.01400 44.71500
H  -0.04900 -8.96700 44.41800
H  -1.44800 -9.22600 43.32200
H  5.26100 -6.77000 43.26800
H  4.12000 -6.64000 44.60300
H  5.80000 -6.01300 44.85500
H  7.04700 -2.28400 41.21100
H  7.22200 1.58000 43.93700
H  8.74600 0.65400 44.18500
H  7.52100 0.70700 45.43400
Mg -10.43100 16.52400 41.22800
C  -6.89100 16.21900 41.77700
C  -9.88300 19.83100 40.65800
C  -13.62700 16.77600 40.31500
C  -10.59400 13.07300 41.14900
N  -8.58100 17.78800 41.12100
C  -7.27500 17.49300 41.47600
C  -6.39800 18.74800 41.35100
C  -7.45700 19.84000 41.59900
C  -8.71900 19.16400 41.02100
C  -7.60800 20.50600 43.06500
C  -5.79100 18.78300 39.96100
C  -4.33500 18.37900 39.77000
H  -3.97200 17.16300 38.86500
N  -11.67300 18.18600 40.67400
C  -11.24700 19.46500 40.51100
C  -12.38600 20.23200 40.02800
C  -13.50400 19.32900 39.89200
C  -12.98300 18.06000 40.24600
C  -12.39200 21.72700 39.88200
C  -14.96500 19.72100 39.29600
O  -15.14700 20.84800 38.88000
C  -15.99700 18.71900 38.88900
N  -11.92500 15.19300 40.71300
C  -13.19000 15.50700 40.56600
C  -14.08300 14.25800 40.46300
C  -13.12000 13.10900 40.80200
C  -11.78500 13.82900 40.85900
C  -15.33400 14.30200 41.39300
C  -13.28100 11.83000 39.86500
C  -13.70200 10.45600 40.40800
N  -9.05400 14.89100 41.50100
C  -9.24300 13.55200 41.41500
C  -7.99800 12.82700 41.67000
C  -7.08400 13.90100 41.93400
C  -7.76900 15.10200 41.70800
C  -7.84900 11.30600 41.80600
C  -5.68200 14.18400 42.23500
O  -4.77800 13.39000 42.52400
C  -5.50300 15.72600 42.25900
C  -5.04100 16.12800 43.56200
O  -3.90200 16.43300 43.77100
O  -6.01100 16.01800 44.46800
C  -5.74900 16.53900 45.83400
H  -9.69400 20.90000 40.53900
H  -14.68600 16.87100 40.06400
H  -10.79500 12.01600 41.33600
H  -5.55100 18.85000 42.03000
H  -7.13500 20.67400 40.97500
H  -8.37800 19.96600 43.61700
H  -7.79200 21.57600 42.96700
H  -6.76900 20.35300 43.74300
H  -5.82100 19.81500 39.61300
H  -6.32600 18.06600 39.33800
H  -4.00800 18.20700 40.79600
H  -3.86400 19.28600 39.38900
H  -13.26200 22.12500 40.40500
H  -12.54000 21.87500 38.81200
H  -11.45600 22.24200 40.09500
H  -15.60500 17.78700 38.48300
H  -16.74100 19.26900 38.31300
H  -16.42900 18.50500 39.86700
H  -14.39400 14.11300 39.42900
H  -13.22900 12.78000 41.83500
H  -15.20600 15.14200 42.07600
H  -15.57900 13.35900 41.88100
H  -16.20000 14.46500 40.75200
H  -12.31700 11.68700 39.37700
H  -14.10900 11.96200 39.16900
H  -14.70100 10.13400 40.11200
H  -13.77100 10.52400 41.49300
H  -13.01300 9.69500 40.04000
H  -6.90000 11.01500 42.25600
H  -7.82300 10.90200 40.79400
H  -8.69500 10.84900 42.32100
H  -4.64800 15.91300 41.60900
H  -4.71100 16.73900 46.10000
H  -6.23900 15.76700 46.42700
H  -6.26800 17.48200 46.00700

