158

Mg 24.98600 -5.14700 46.33700
C  27.26700 -2.83200 44.69100
C  22.75200 -4.49200 43.95300
C  23.40500 -7.86500 47.32200
C  27.83900 -6.04100 48.25800
N  25.06100 -3.82500 44.55300
C  25.98900 -2.88800 44.18700
C  25.44100 -2.03600 42.97600
C  23.93800 -2.41900 43.02800
C  23.89800 -3.65800 43.87300
C  22.92000 -1.36000 43.55500
C  26.07500 -2.43000 41.63900
C  26.34600 -1.31500 40.51800
H  25.79400 -1.57200 39.08600
N  23.18900 -5.95300 45.90200
C  22.42400 -5.50900 44.84800
C  21.23400 -6.27700 44.84900
C  21.32500 -7.22900 45.94400
C  22.67200 -7.10500 46.44500
C  20.00800 -6.00100 43.94800
C  20.31100 -8.21500 46.50500
O  19.24900 -8.43700 45.88500
C  20.57500 -9.15500 47.70900
N  25.56200 -6.75400 47.53600
C  24.73000 -7.76400 47.85200
C  25.35700 -8.92100 48.58000
C  26.81200 -8.24300 48.85600
C  26.76200 -6.94500 48.17300
C  24.49800 -9.42800 49.74600
C  28.01900 -9.08100 48.46200
C  28.18000 -10.46800 49.20200
N  27.06900 -4.48900 46.63000
C  27.99600 -4.84700 47.53800
C  29.21200 -4.06200 47.42500
C  28.94700 -3.27500 46.31900
C  27.64600 -3.59600 45.83000
C  30.56400 -4.25200 48.11700
C  29.55200 -2.32200 45.40800
O  30.69400 -1.87600 45.39900
C  28.48900 -2.03000 44.30800
C  28.11400 -0.63700 44.40800
O  27.83200 0.07000 45.35600
O  28.23500 -0.08400 43.04900
C  28.09800 1.42400 42.87500
H  22.05200 -4.25000 43.15000
H  23.00200 -8.83400 47.62300
H  28.74400 -6.37200 48.77000
H  25.63100 -0.98000 43.17000
H  23.66300 -2.77000 42.03300
H  23.39500 -0.38200 43.63400
H  22.57800 -1.59400 44.56400
H  22.04200 -1.32200 42.91000
H  25.53000 -3.25300 41.17600
H  27.03700 -2.90400 41.83300
H  27.39900 -1.07200 40.37100
H  25.89300 -0.42500 40.95400
H  19.39100 -5.22900 44.40800
H  19.44600 -6.92800 43.83500
H  20.42800 -5.73000 42.98000
H  20.89700 -8.58100 48.57800
H  21.25500 -9.91700 47.32900
H  19.60800 -9.61600 47.91100
H  25.59100 -9.73300 47.89100
H  26.80000 -8.18900 49.94500
H  23.41600 -9.29600 49.72900
H  24.94600 -9.17800 50.70800
H  24.47000 -10.51800 49.74700
H  28.92800 -8.58700 48.80600
H  28.13700 -9.46000 47.44700
H  28.03700 -11.27100 48.47900
H  27.48700 -10.48100 50.04400
H  29.21400 -10.52000 49.54200
H  30.93300 -5.21200 47.75500
H  30.40500 -4.30400 49.19400
H  31.22300 -3.41300 47.89100
H  28.81300 -2.40600 43.33700
H  28.62600 1.97900 43.65100
H  27.02900 1.63400 42.84500
H  28.55700 1.68500 41.92200
Mg -2.36900 34.76400 26.99200
C  -4.26600 32.67400 29.16700
C  -1.72500 36.83900 29.53700
C  -0.83000 36.60100 24.72200
C  -3.77600 32.78800 24.32000
N  -3.03700 34.81700 29.12700
C  -3.55400 33.74600 29.82600
C  -3.49200 34.02600 31.38600
C  -2.76900 35.43900 31.38700
C  -2.55600 35.82300 29.89600
C  -3.54100 36.58600 32.14200
C  -2.60900 32.90500 32.11100
C  -3.28900 32.08300 33.20200
H  -2.56600 32.05800 34.52600
N  -1.40800 36.48500 27.10500
C  -1.24100 37.22600 28.25200
C  -0.47300 38.40200 27.93900
C  -0.18700 38.34900 26.53100
C  -0.75200 37.09000 26.02400
C  0.11800 39.39800 28.87200
C  0.66400 39.24200 25.64500
O  0.83700 39.14200 24.45600
C  1.22400 40.62200 26.14900
N  -2.41500 34.73300 24.84300
C  -1.61400 35.58800 24.14400
C  -1.71100 35.41900 22.61500
C  -2.84200 34.28300 22.52000
C  -3.01200 33.90400 23.97500
C  -2.11200 36.72500 21.72300
C  -2.50000 33.11300 21.56600
C  -1.84800 31.83500 22.08500
N  -3.65200 32.98900 26.78100
C  -4.16400 32.43100 25.62000
C  -5.15200 31.41300 25.98200
C  -5.16000 31.46300 27.41100
C  -4.24700 32.42000 27.77800
C  -6.11800 30.65600 24.98400
C  -5.76200 30.79600 28.51500
O  -6.61300 29.96200 28.55500
C  -5.14000 31.62300 29.80800
C  -6.23600 32.29200 30.55000
O  -6.96600 33.14200 30.10200
O  -6.29900 31.79900 31.85100
C  -7.52900 32.19100 32.53200
H  -1.29400 37.36600 30.39000
H  -0.39700 37.19400 23.91300
H  -4.41200 32.33500 23.55700
H  -4.49200 34.16000 31.79800
H  -1.79400 35.30900 31.85600
H  -3.15900 36.58000 33.16300
H  -4.61700 36.42800 32.07000
H  -3.35600 37.52400 31.61800
H  -1.78200 33.35400 32.66000
H  -2.11600 32.21700 31.42500
H  -3.46900 31.09400 32.78200
H  -4.24000 32.51600 33.51400
H  -0.34400 40.35400 28.62500
H  1.19200 39.57000 28.80200
H  -0.19900 39.19100 29.89400
H  0.36300 41.22600 26.43500
H  1.76600 41.02900 25.29600
H  1.82700 40.36100 27.01900
H  -0.86100 34.85200 22.23400
H  -3.77200 34.76200 22.21300
H  -2.57100 37.45900 22.38600
H  -2.90900 36.45100 21.03200
H  -1.29800 37.20800 21.18100
H  -1.92300 33.48400 20.71900
H  -3.40000 32.86000 21.00700
H  -2.51300 30.97600 22.17300
H  -1.33900 32.14400 22.99800
H  -1.01200 31.52800 21.45700
H  -6.63800 31.28300 24.26000
H  -6.83100 29.97600 25.45000
H  -5.44300 30.10800 24.32800
H  -4.65600 30.96100 30.52600
H  -7.76200 31.37100 33.21100
H  -8.41700 32.22400 31.89900
H  -7.37500 33.13500 33.05500

