158

Mg 42.89600 41.99800 27.43100
C  41.86300 44.37200 29.87500
C  44.05600 40.10000 30.01700
C  43.97500 39.80500 25.10500
C  42.00500 44.29800 25.01900
N  42.90500 42.22300 29.66400
C  42.41000 43.22200 30.39200
C  42.47300 42.91900 31.89400
C  43.39100 41.64600 31.98800
C  43.47800 41.28000 30.47500
C  44.80200 41.76000 32.52700
C  41.08500 42.61100 32.56000
C  40.72400 43.41300 33.73500
H  40.25000 42.64500 35.01100
N  43.84800 40.07900 27.52200
C  44.20600 39.52100 28.68900
C  44.81100 38.21600 28.32600
C  44.68400 38.12100 26.94900
C  44.12100 39.35500 26.46800
C  45.16500 37.19100 29.37700
C  45.04100 36.96200 26.02400
O  44.66300 36.93800 24.85300
C  45.74800 35.81000 26.53300
N  43.20600 42.07700 25.38200
C  43.52800 41.02800 24.57200
C  43.31900 41.31800 23.06100
C  42.51000 42.63900 23.09200
C  42.63900 43.09400 24.63400
C  44.58700 41.47800 22.26500
C  41.12500 42.41400 22.52000
C  40.18900 41.32500 23.21600
N  42.24300 44.02800 27.36300
C  41.83000 44.80100 26.34500
C  41.25400 46.04400 26.79100
C  41.21000 45.90700 28.21000
C  41.82300 44.64300 28.49200
C  40.79700 47.16600 25.95100
C  40.79200 46.47600 29.42900
O  40.26700 47.57100 29.57100
C  41.15000 45.56000 30.48800
C  42.10800 46.35500 31.33400
O  43.33500 46.36200 31.19900
O  41.34300 47.04500 32.26300
C  41.98700 48.09500 33.03700
H  44.43400 39.34500 30.71000
H  44.02300 39.14200 24.23800
H  41.55000 44.92000 24.24500
H  42.88700 43.74300 32.47400
H  42.99800 40.82800 32.59200
H  44.77900 42.82200 32.76900
H  45.57700 41.51600 31.80000
H  44.80700 41.23400 33.48100
H  41.11300 41.56700 32.87500
H  40.22500 42.62200 31.89000
H  39.94300 44.12500 33.46900
H  41.47500 44.14900 34.02300
H  44.38000 37.30100 30.12600
H  46.12300 37.60700 29.68900
H  45.09300 36.14700 29.07300
H  45.99900 35.26600 25.62200
H  45.27700 35.01400 27.11100
H  46.64900 36.15400 27.04000
H  42.78700 40.43200 22.71300
H  43.01100 43.45400 22.56900
H  44.73700 40.70100 21.51500
H  45.41700 41.41100 22.96700
H  44.64000 42.41900 21.71600
H  41.37600 42.12100 21.50100
H  40.65000 43.39400 22.56700
H  39.91900 40.65600 22.39900
H  39.25700 41.63600 23.68900
H  40.80000 40.81100 23.95700
H  40.53300 46.67600 25.01400
H  41.41300 48.02600 25.68800
H  39.84300 47.48200 26.37300
H  40.26600 45.11800 30.94600
H  42.80300 48.49600 32.43500
H  42.47600 47.50900 33.81400
H  41.39900 48.83000 33.58700
Mg 0.77400 42.44400 25.60500
C  2.73200 42.65000 28.43000
C  -2.00600 41.58600 27.44200
C  -1.02500 42.14600 22.66700
C  3.65500 42.99000 23.67100
N  0.45800 42.23600 27.62800
C  1.37500 42.37600 28.67400
C  0.70700 42.11000 30.04700
C  -0.77300 41.69700 29.67900
C  -0.76800 41.87100 28.13600
C  -1.16900 40.30300 30.10300
C  0.79700 43.43200 30.91000
C  1.46800 43.23200 32.28500
H  0.67500 43.38400 33.58600
N  -1.28900 41.93900 25.11700
C  -2.27300 41.75200 26.05100
C  -3.53800 41.57600 25.35300
C  -3.25400 41.81300 23.94100
C  -1.79300 41.92000 23.85600
C  -4.76400 41.14600 26.07200
C  -4.22500 41.85400 22.83400
O  -3.97500 42.21100 21.64700
C  -5.71500 41.62100 23.16700
N  1.24700 42.64400 23.52400
C  0.37700 42.25000 22.57500
C  1.02000 42.20800 21.18300
C  2.53700 42.43200 21.50400
C  2.49400 42.79500 22.98200
C  0.74200 40.94800 20.36500
C  3.31300 43.43600 20.64100
C  2.70700 44.82900 20.23600
N  2.86600 42.98600 25.96900
C  3.86500 43.06800 25.07400
C  5.13400 43.29600 25.79900
C  4.69800 43.20100 27.12200
C  3.32300 42.96700 27.16400
C  6.51300 43.46500 25.19600
C  5.12700 43.02800 28.53200
O  6.23700 43.05500 29.05500
C  3.83100 42.83400 29.39200
C  4.02900 41.64700 30.26400
O  3.97000 40.50200 29.91200
O  4.21500 42.10000 31.54600
C  4.27400 41.05400 32.56200
H  -2.68000 41.17600 28.19700
H  -1.64500 42.02100 21.77700
H  4.56700 43.17800 23.10100
H  1.16900 41.24700 30.52500
H  -1.48100 42.37200 30.15900
H  -0.89400 39.52800 29.38700
H  -2.24400 40.30300 30.28400
H  -0.75300 40.18800 31.10300
H  -0.22600 43.69500 31.18100
H  1.26600 44.19200 30.28500
H  2.31200 43.91300 32.39000
H  1.80100 42.19500 32.32900
H  -5.57200 41.87800 26.08900
H  -4.55600 41.01200 27.13300
H  -4.99200 40.14100 25.71500
H  -5.84500 40.59100 23.49900
H  -6.32700 41.80900 22.28400
H  -6.06400 42.21800 24.01000
H  0.70100 43.03300 20.54600
H  3.05600 41.47400 21.49000
H  1.67600 40.68600 19.86800
H  0.14600 41.12500 19.47000
H  0.46600 39.98000 20.78200
H  3.40800 42.84500 19.73000
H  4.33500 43.62400 20.97100
H  1.73300 44.88900 20.72100
H  2.60700 44.79200 19.15100
H  3.26800 45.63900 20.70200
H  6.95100 42.47500 25.06700
H  7.04500 44.09100 25.91300
H  6.45900 43.98700 24.24000
H  3.62500 43.74400 29.95500
H  3.29800 40.57900 32.66200
H  4.47100 41.52100 33.52700
H  5.02800 40.28700 32.38900

