158

Mg 27.36600 49.96600 26.54800
C  25.57600 51.31600 29.18800
C  29.91900 49.14700 28.80200
C  29.16000 48.88000 23.96300
C  25.10300 51.32100 24.37100
N  27.61700 50.19000 28.81300
C  26.68100 50.66800 29.70200
C  27.16100 50.46500 31.15500
C  28.61700 49.84800 30.92700
C  28.71400 49.68400 29.41600
C  29.64200 50.89400 31.41800
C  26.26100 49.54700 32.06000
C  25.90400 50.28900 33.39700
H  26.89400 50.05900 34.60100
N  29.28700 49.00900 26.39200
C  30.14400 48.77700 27.36800
C  31.25300 48.09400 26.77900
C  30.98800 47.83000 25.43400
C  29.76700 48.58300 25.17000
C  32.31800 47.60100 27.74700
C  31.76000 46.98100 24.48200
O  31.44400 46.88100 23.31400
C  32.89900 46.03900 25.00400
N  27.27800 50.26400 24.46900
C  28.07300 49.61800 23.63300
C  27.58300 49.79700 22.16200
C  26.20300 50.40300 22.32100
C  26.17900 50.70000 23.79600
C  28.49900 50.52300 21.17400
C  24.98600 49.63000 21.77000
C  24.82700 48.14100 22.29900
N  25.62900 51.03800 26.70500
C  24.79500 51.50200 25.69100
C  23.63100 52.11700 26.31100
C  23.91100 52.06600 27.71600
C  25.14100 51.46800 27.87300
C  22.42200 52.67100 25.67400
C  23.37200 52.42500 29.01500
O  22.25100 52.92800 29.29100
C  24.36000 51.85100 30.06500
C  24.66100 52.97100 30.94600
O  25.66400 53.72500 30.88100
O  23.77000 53.02800 32.01000
C  24.05800 53.99600 33.06700
H  30.67300 48.85000 29.53400
H  29.68100 48.45200 23.10400
H  24.33400 51.71000 23.69900
H  27.22100 51.47400 31.56200
H  28.76700 48.86800 31.38000
H  29.25200 51.38500 32.31000
H  29.82400 51.62300 30.62800
H  30.50300 50.28400 31.68900
H  26.85000 48.72500 32.46800
H  25.32100 49.24900 31.59400
H  24.90300 49.96500 33.68400
H  25.91000 51.35100 33.15500
H  32.07700 46.56800 27.99700
H  32.24800 48.13700 28.69300
H  33.35800 47.68400 27.43000
H  33.86200 46.52600 25.16200
H  32.97400 45.29900 24.20800
H  32.59600 45.47300 25.88500
H  27.34800 48.75500 21.94400
H  26.23300 51.36000 21.80000
H  28.11200 51.46500 20.78700
H  28.85900 49.82900 20.41300
H  29.38000 50.93200 21.66900
H  24.98900 49.53800 20.68400
H  24.08100 50.15900 22.06800
H  23.78100 48.04000 22.58700
H  25.42600 48.02900 23.20300
H  24.98300 47.29700 21.62800
H  21.95000 52.02500 24.93500
H  22.68000 53.56700 25.10800
H  21.66400 52.94800 26.40700
H  23.91400 51.18300 30.80100
H  24.94900 53.70800 33.62600
H  23.25500 54.04200 33.80300
H  24.28000 55.01000 32.73500
Mg -5.41500 25.45000 25.52800
C  -4.09900 26.81200 28.42700
C  -7.36100 23.42100 27.25200
C  -6.29800 24.10200 22.54500
C  -3.00300 27.43100 23.76900
N  -5.48200 24.94300 27.66800
C  -5.01400 25.78700 28.68100
C  -5.60000 25.39800 30.00600
C  -6.62800 24.24100 29.60600
C  -6.47800 24.14700 28.07000
C  -6.48900 22.93000 30.42400
C  -6.35700 26.52400 30.79900
C  -6.09700 26.55900 32.33400
H  -5.65900 25.29200 32.99800
N  -6.62300 23.90900 24.99600
C  -7.41500 23.21300 25.86600
C  -8.34400 22.29500 25.17900
C  -8.06500 22.54600 23.72900
C  -6.93200 23.55600 23.70500
C  -9.24400 21.39300 25.93800
C  -8.66800 21.81100 22.52300
O  -8.31500 22.09700 21.34500
C  -9.80900 20.87900 22.73100
N  -4.71700 25.69800 23.44200
C  -5.33700 25.07000 22.46400
C  -4.66100 25.33700 21.11000
C  -3.98200 26.65700 21.48800
C  -3.85000 26.59200 22.99800
C  -3.59900 24.26400 20.73800
C  -4.77400 27.84300 20.88400
C  -3.96900 28.82400 19.91400
N  -3.91300 26.95400 25.98200
C  -3.02400 27.63500 25.17000
C  -2.17300 28.49800 25.94100
C  -2.56400 28.19500 27.28300
C  -3.57900 27.23700 27.24100
C  -1.05300 29.41700 25.50000
C  -2.28400 28.49900 28.57200
O  -1.51600 29.28700 29.01500
C  -3.36900 27.69500 29.44900
C  -2.67500 26.99600 30.56900
O  -1.90800 26.08600 30.39400
O  -2.74800 27.64000 31.78700
C  -2.06700 27.01000 32.93400
H  -8.23500 23.05600 27.79600
H  -6.58600 23.72200 21.56200
H  -2.24700 27.84600 23.09900
H  -4.75900 24.99700 30.57100
H  -7.66600 24.53200 29.77200
H  -5.99400 22.25200 29.72800
H  -7.50700 22.65100 30.69600
H  -5.89900 23.06700 31.33000
H  -7.42500 26.49200 30.58500
H  -6.00800 27.46200 30.36700
H  -6.93100 26.95000 32.91600
H  -5.28400 27.23800 32.59000
H  -8.89300 21.23200 26.95700
H  -9.35000 20.40200 25.49500
H  -10.19800 21.90700 26.05600
H  -10.62400 21.44800 23.17700
H  -9.42800 20.09500 23.38600
H  -10.23300 20.41300 21.84200
H  -5.44900 25.43900 20.36300
H  -2.97000 26.66700 21.08200
H  -3.43700 23.98000 19.69800
H  -3.83300 23.32100 21.23300
H  -2.61400 24.57400 21.08600
H  -5.15000 28.27600 21.81000
H  -5.60700 27.55800 20.24100
H  -3.09500 28.26400 19.58300
H  -3.44700 29.55700 20.52900
H  -4.63200 29.18900 19.12900
H  -1.48600 29.92700 24.64000
H  -0.14500 28.82300 25.39400
H  -0.87900 30.10200 26.33000
H  -3.97400 28.45500 29.94400
H  -1.04300 26.70000 32.72200
H  -2.58100 26.25000 33.52200
H  -1.94900 27.86000 33.60500

