158

Mg 23.34600 -6.39200 46.89800
C  25.73000 -3.95900 45.86100
C  21.07000 -4.84100 44.80200
C  21.51800 -9.20700 47.11800
C  25.94200 -7.97400 48.60700
N  23.45500 -4.55200 45.50400
C  24.49100 -3.67500 45.35000
C  24.07400 -2.60000 44.41500
C  22.48800 -2.73500 44.45600
C  22.32800 -4.14900 44.94100
C  21.72900 -1.73000 45.42200
C  24.69700 -2.73300 43.05900
C  25.01400 -1.45900 42.31400
H  24.23400 -1.28300 40.99700
N  21.48700 -6.88800 46.08300
C  20.68900 -6.11100 45.28100
C  19.48300 -6.86400 45.02800
C  19.53600 -8.09700 45.69300
C  20.91900 -8.09800 46.34900
C  18.35100 -6.30400 44.11300
C  18.47300 -9.13400 45.80900
O  17.43000 -8.91900 45.23700
C  18.66400 -10.38800 46.44200
N  23.72300 -8.25200 47.73800
C  22.73700 -9.28500 47.76400
C  23.15600 -10.50300 48.65000
C  24.57400 -10.07000 49.07900
C  24.81100 -8.67100 48.43300
C  22.21600 -10.64000 49.85700
C  25.60700 -11.19200 48.75200
C  26.14900 -11.25100 47.22900
N  25.44200 -5.97200 47.26200
C  26.29100 -6.73400 47.95600
C  27.56700 -6.02600 48.05600
C  27.40300 -4.89500 47.21300
C  26.09000 -5.01100 46.69500
C  28.77200 -6.55900 48.72000
C  28.07400 -3.74300 46.65900
O  29.19100 -3.29200 46.84400
C  26.96500 -3.09400 45.71500
C  26.66200 -1.66700 46.07700
O  26.43800 -1.20900 47.20700
O  26.71500 -0.86300 44.95100
C  26.44500 0.51600 45.26600
H  20.19500 -4.30000 44.43700
H  21.03300 -10.18300 47.05300
H  26.73500 -8.46100 49.17800
H  24.30700 -1.67000 44.93400
H  22.02800 -2.68700 43.46900
H  22.45200 -1.13400 45.97800
H  21.16700 -2.28700 46.17100
H  20.94200 -1.24000 44.84800
H  24.05000 -3.31800 42.40500
H  25.67600 -3.16900 43.25600
H  26.06600 -1.30000 42.07800
H  24.76400 -0.67500 43.02900
H  17.88700 -7.15400 43.61300
H  18.70700 -5.59700 43.36500
H  17.58700 -5.84300 44.73900
H  19.38000 -11.00100 45.89400
H  17.66600 -10.82700 46.45600
H  18.92300 -10.09500 47.45900
H  23.12600 -11.44600 48.10400
H  24.66100 -9.97600 50.16100
H  21.94100 -11.69200 49.93900
H  21.29100 -10.07900 49.72300
H  22.54900 -10.32100 50.84400
H  25.24300 -12.21300 48.86900
H  26.47800 -11.05400 49.39400
H  27.20900 -11.49600 47.16800
H  26.05500 -10.27800 46.74600
H  25.57900 -11.99100 46.66800
H  28.78100 -6.82700 49.77600
H  29.38800 -5.67400 48.55700
H  29.21400 -7.38300 48.16000
H  27.48400 -3.25000 44.76900
H  25.35900 0.60100 45.21200
H  26.97200 1.15200 44.55600
H  26.77000 1.07500 46.14300
Mg -6.26500 25.03800 26.34800
C  -4.48100 26.68400 28.89200
C  -7.43500 22.86800 28.71400
C  -7.61000 23.38400 23.91000
C  -4.59000 27.12100 24.12300
N  -6.06100 24.83600 28.58600
C  -5.31700 25.69900 29.41000
C  -5.48700 25.31800 30.88300
C  -6.25200 23.94900 30.75700
C  -6.64500 23.84900 29.28300
C  -5.50800 22.67700 31.38900
C  -6.12300 26.49400 31.72300
C  -7.17600 26.23900 32.73400
H  -6.71400 25.38600 33.88600
N  -7.36700 23.32000 26.39300
C  -7.87600 22.58600 27.41800
C  -8.71400 21.54400 26.86600
C  -8.70900 21.61600 25.43800
C  -7.85800 22.78400 25.18500
C  -9.44600 20.58000 27.81000
C  -9.49300 20.75600 24.42200
O  -9.48000 21.03800 23.17700
C  -10.39700 19.61100 24.82200
N  -6.21100 25.30300 24.30500
C  -6.87200 24.52900 23.48000
C  -6.57200 24.85300 22.05700
C  -5.76400 26.17000 22.05200
C  -5.51700 26.23400 23.56400
C  -5.86100 23.69900 21.27700
C  -6.51800 27.36600 21.38500
C  -6.04600 27.69700 19.93100
N  -4.88300 26.64500 26.42300
C  -4.19400 27.30700 25.46900
C  -3.37300 28.30800 26.01000
C  -3.39400 28.08600 27.41600
C  -4.33500 27.05200 27.58300
C  -2.63600 29.33800 25.19600
C  -2.86900 28.45100 28.66400
O  -1.95900 29.21700 28.93100
C  -3.61500 27.63000 29.69400
C  -2.69700 27.02600 30.71300
O  -2.11300 25.98800 30.58000
O  -2.72400 27.69300 31.91800
C  -2.22400 27.06200 33.12300
H  -7.77600 22.14100 29.45300
H  -8.16700 22.84900 23.13900
H  -4.12400 27.71400 23.33300
H  -4.46600 25.12600 31.21300
H  -7.22900 23.96800 31.24000
H  -4.43500 22.77000 31.22000
H  -5.85700 21.74800 30.93700
H  -5.74600 22.68900 32.45200
H  -6.44300 27.38000 31.17400
H  -5.21600 26.71000 32.28700
H  -8.10700 25.85300 32.32000
H  -7.36300 27.21000 33.19300
H  -10.50900 20.50300 27.58400
H  -9.34500 20.82500 28.86700
H  -9.15900 19.55200 27.58900
H  -10.35600 18.90700 23.99000
H  -11.41000 19.95000 25.03800
H  -10.00700 19.05000 25.67100
H  -7.48000 25.14800 21.53000
H  -4.82200 26.11800 21.50500
H  -4.80800 23.89300 21.07600
H  -6.44900 23.50300 20.38000
H  -5.66000 22.81700 21.88500
H  -6.26700 28.22000 22.01500
H  -7.59900 27.24600 21.31800
H  -6.99800 27.74400 19.40100
H  -5.34600 26.98000 19.50100
H  -5.53700 28.65300 19.81400
H  -1.94900 28.74600 24.59200
H  -2.08600 29.96300 25.90000
H  -3.20900 29.92500 24.47900
H  -4.28800 28.31300 30.21200
H  -1.26500 26.54500 33.08500
H  -2.97500 26.33200 33.42700
H  -2.11400 27.77000 33.94500

