158

Mg 1.61400 -1.12500 44.45300
C  4.96300 0.04600 44.02700
C  0.57300 1.76300 42.78300
C  -1.35000 -2.51700 44.31100
C  3.02200 -4.01100 45.97200
N  2.64900 0.69400 43.56000
C  3.99500 0.85200 43.44000
C  4.21000 2.16500 42.73100
C  2.89600 2.90500 42.73900
C  1.99500 1.65900 42.95900
C  2.78900 3.99900 43.88100
C  4.89000 1.86900 41.27100
C  6.29600 2.54000 41.02700
H  7.38300 1.68100 40.33300
N  -0.14700 -0.51100 43.67900
C  -0.38900 0.76600 43.11200
C  -1.75900 0.78200 42.63900
C  -2.39900 -0.42300 43.10300
C  -1.33700 -1.20500 43.76500
C  -2.37000 1.97700 41.94000
C  -3.84300 -0.74100 42.93500
O  -4.61100 0.12100 42.42400
C  -4.37900 -2.12600 43.19800
N  1.00100 -3.07900 44.87900
C  -0.33600 -3.34300 44.89500
C  -0.74000 -4.68400 45.51800
C  0.71000 -5.21900 46.00900
C  1.68300 -4.05400 45.68100
C  -1.82300 -4.59000 46.61400
C  1.12500 -6.57100 45.32800
C  1.75400 -7.62000 46.27800
N  3.56100 -1.88800 44.81900
C  3.94600 -3.00600 45.48300
C  5.37300 -3.08100 45.62300
C  5.83100 -1.83600 45.09500
C  4.68600 -1.17900 44.58200
C  6.14800 -4.22000 46.13600
C  7.01100 -0.97900 44.84500
O  8.18700 -1.15000 45.12500
C  6.46800 0.27000 44.01600
C  6.85900 1.42200 44.96000
O  6.10500 1.92000 45.78800
O  8.08200 1.91000 44.59900
C  8.52900 3.03100 45.44600
H  0.29200 2.63900 42.19500
H  -2.34900 -2.89300 44.54400
H  3.41800 -4.92500 46.42000
H  4.93700 2.79900 43.23800
H  2.69500 3.32100 41.75200
H  3.70300 4.30100 44.39300
H  2.20300 3.69000 44.74600
H  2.39200 4.90000 43.41400
H  4.24100 2.36300 40.54800
H  4.70200 0.84900 40.93400
H  6.75400 2.81900 41.97600
H  6.22700 3.48100 40.48200
H  -2.98400 2.55800 42.62700
H  -2.91000 1.60000 41.07100
H  -1.62800 2.62700 41.47800
H  -3.94800 -2.86300 42.52100
H  -5.45200 -2.16600 43.01000
H  -4.23600 -2.42200 44.23700
H  -1.07000 -5.23300 44.63600
H  0.64000 -5.35400 47.08800
H  -1.55500 -4.84100 47.64000
H  -2.70800 -5.13400 46.28200
H  -2.16700 -3.56300 46.73100
H  1.87900 -6.33900 44.57500
H  0.23000 -6.91900 44.81300
H  2.77900 -7.76600 45.93600
H  1.30600 -8.61100 46.34800
H  1.86400 -7.24100 47.29400
H  7.01200 -3.75100 46.60600
H  6.40900 -4.88700 45.31400
H  5.57100 -4.69900 46.92700
H  6.84400 0.47400 43.01300
H  8.30400 4.05700 45.15300
H  9.61400 2.96700 45.51800
H  8.16700 3.00900 46.47400
Mg 35.54500 48.47500 25.31300
C  36.02300 46.48700 28.20100
C  34.43800 50.95100 27.28600
C  34.62000 49.94700 22.52100
C  36.90900 45.78100 23.35000
N  35.27100 48.68100 27.52600
C  35.57200 47.80000 28.51200
C  35.23900 48.39900 29.94700
C  34.77100 49.80200 29.57500
C  34.80600 49.81100 27.99300
C  33.41800 50.20400 30.20500
C  36.50500 48.48000 30.90700
C  36.26000 48.37200 32.41600
H  34.85300 48.64800 32.87500
N  34.80700 50.29600 24.91600
C  34.34400 51.17800 25.86600
C  33.85000 52.37400 25.15200
C  33.90600 52.11800 23.74700
C  34.43900 50.74200 23.65300
C  33.62500 53.66700 25.84800
C  33.70600 52.97200 22.51400
O  33.95900 52.63700 21.34000
C  33.21700 54.42800 22.61400
N  35.76100 47.95000 23.19600
C  35.22400 48.76200 22.24100
C  35.61700 48.18100 20.82700
C  36.62100 46.98300 21.11000
C  36.45500 46.86700 22.65500
C  34.34400 47.95000 19.99200
C  38.10800 47.13700 20.66900
C  38.93300 48.23800 21.35700
N  36.30900 46.53400 25.64500
C  36.75300 45.51000 24.77500
C  36.93000 44.29700 25.47000
C  36.61800 44.62200 26.83600
C  36.32300 46.02200 26.86400
C  37.34900 43.01500 24.79900
C  36.52600 44.00900 28.18700
O  36.57000 42.87700 28.57400
C  36.21300 45.28200 29.14700
C  35.07200 44.83000 29.95700
O  33.93200 44.82100 29.55900
O  35.36600 44.53300 31.20600
C  34.33300 44.42500 32.18500
H  34.21600 51.76700 27.97700
H  34.29600 50.29200 21.53600
H  37.42500 45.05300 22.72200
H  34.37700 47.89100 30.38000
H  35.50700 50.49900 29.97900
H  33.47000 51.18000 30.69000
H  33.01300 49.41700 30.84100
H  32.67300 50.32500 29.41900
H  37.08300 49.34300 30.57600
H  37.09000 47.58100 30.71300
H  36.97100 49.09600 32.81200
H  36.65900 47.40200 32.71400
H  34.16800 54.46700 25.34500
H  34.22100 53.52100 26.74900
H  32.58300 53.94700 25.99800
H  34.11300 55.04800 22.62000
H  32.56100 54.55300 23.47600
H  32.48400 54.57500 21.82100
H  36.05100 49.04200 20.31800
H  36.17400 46.09100 20.67100
H  33.85200 48.90400 19.80300
H  33.70400 47.25400 20.53400
H  34.79100 47.62100 19.05400
H  37.91100 47.51600 19.66600
H  38.65300 46.20400 20.53000
H  39.92200 47.88600 21.65300
H  38.43600 48.54000 22.27900
H  39.17000 49.08100 20.70900
H  36.60300 42.57600 24.13600
H  37.61300 42.45300 25.69500
H  38.30500 43.16400 24.29800
H  37.07800 45.50700 29.77100
H  33.45700 43.90300 31.80100
H  34.06000 45.43400 32.49500
H  34.74100 43.84800 33.01500

