158

Mg 48.63800 16.50300 28.24400
C  46.61400 15.97900 31.03900
C  50.96700 17.98400 30.15200
C  50.13800 17.48600 25.33500
C  45.82000 15.29400 26.25600
N  48.67200 17.13500 30.35700
C  47.81600 16.70500 31.31400
C  48.34400 17.05600 32.64800
C  49.75400 17.72900 32.38000
C  49.81500 17.65500 30.83800
C  49.89800 19.16500 33.01300
C  48.56500 15.85100 33.64600
C  47.76200 15.87300 34.96700
H  47.39300 17.16800 35.62100
N  50.30300 17.60100 27.81000
C  51.22900 17.96900 28.74300
C  52.33700 18.50100 28.03500
C  52.11200 18.32100 26.65500
C  50.77700 17.78300 26.54200
C  53.51400 19.08600 28.77000
C  53.04000 18.69800 25.46100
O  52.74500 18.48800 24.29500
C  54.36800 19.25200 25.76800
N  48.01800 16.29800 26.06800
C  48.84800 16.85100 25.12300
C  48.19100 16.65200 23.69300
C  46.95600 15.75000 24.00600
C  46.89100 15.83300 25.53600
C  47.77700 18.01600 23.01600
C  47.00900 14.29200 23.45600
C  46.01500 13.85900 22.39900
N  46.72800 15.56700 28.55400
C  45.74500 15.14200 27.65500
C  44.61800 14.61200 28.39600
C  44.95700 14.87300 29.74700
C  46.19700 15.53500 29.76500
C  43.31600 14.08700 27.91800
C  44.46000 14.74100 31.11300
O  43.45600 14.27200 31.62100
C  45.53500 15.46500 32.02700
C  44.77000 16.53900 32.80400
O  44.62400 17.70800 32.45000
O  44.20500 15.99200 33.95900
C  43.25400 16.88100 34.74400
H  51.68300 18.43800 30.84000
H  50.59500 17.69000 24.36500
H  45.02700 14.94600 25.59100
H  47.66900 17.70600 33.20600
H  50.59100 17.10700 32.69800
H  48.96300 19.71000 32.88300
H  50.71300 19.72100 32.54700
H  50.19300 19.06900 34.05800
H  49.59000 15.66400 33.96700
H  48.33700 14.86300 33.24600
H  48.29900 15.31400 35.73300
H  46.81200 15.35100 34.85600
H  54.35900 18.40000 28.70900
H  53.29600 19.33600 29.80800
H  53.80400 20.01600 28.28000
H  54.26400 20.30800 26.01700
H  55.04800 19.03800 24.94300
H  54.74500 18.59600 26.55300
H  48.86200 16.12700 23.01200
H  46.12800 16.27400 23.52800
H  48.37500 18.81500 23.45400
H  46.71700 18.21700 23.16900
H  47.89000 18.02600 21.93200
H  46.99500 13.56800 24.27100
H  47.97500 14.10700 22.98400
H  46.50300 13.79300 21.42700
H  45.36000 14.72700 22.33200
H  45.55800 12.87900 22.54100
H  43.33300 13.01500 27.72000
H  42.93900 14.65700 27.06800
H  42.59200 14.39100 28.67400
H  45.96400 14.69000 32.66200
H  42.32100 17.11800 34.23300
H  43.63400 17.79500 35.20000
H  42.88300 16.25800 35.55700
Mg 36.26600 48.87400 25.31700
C  36.84100 46.75300 28.23800
C  34.98100 51.25500 27.33500
C  35.84800 50.56900 22.66000
C  37.57500 46.12100 23.49200
N  35.88500 48.95300 27.51600
C  36.23300 48.09300 28.49800
C  35.92600 48.67300 29.87500
C  35.08300 49.95700 29.44800
C  35.32800 50.09100 28.01400
C  33.62900 49.93400 29.93100
C  37.13800 48.94700 30.84000
C  37.10100 48.42300 32.25300
H  35.88400 48.84800 33.05000
N  35.50600 50.74500 25.04200
C  35.17200 51.66400 26.00400
C  34.78600 52.88800 25.26300
C  35.14600 52.71600 23.88000
C  35.52100 51.32600 23.77700
C  34.09200 54.01200 25.90600
C  35.25500 53.72300 22.74100
O  35.76000 53.38000 21.68100
C  34.92300 55.05500 22.83100
N  36.37400 48.31900 23.32100
C  36.14100 49.27500 22.36200
C  36.59000 48.79800 20.95100
C  37.28200 47.44400 21.27900
C  37.08000 47.25300 22.76700
C  35.42100 48.61800 19.97000
C  38.74000 47.40700 20.81300
C  39.73800 48.25500 21.58500
N  36.94900 46.81700 25.66700
C  37.46100 45.90200 24.85800
C  37.83700 44.73000 25.56300
C  37.61300 45.00200 26.87900
C  37.07400 46.26900 26.91900
C  38.41400 43.47200 24.94400
C  37.70900 44.50600 28.22900
O  38.20000 43.42500 28.68900
C  37.15000 45.66500 29.18000
C  36.00800 45.14200 30.01400
O  34.88500 44.92600 29.62700
O  36.35100 44.87700 31.34700
C  35.24600 44.58800 32.24200
H  34.43700 52.01500 27.90000
H  35.79500 51.22500 21.78800
H  38.20000 45.48100 22.86600
H  35.29200 47.96700 30.41300
H  35.47500 50.83500 29.96100
H  33.37500 48.96400 30.35800
H  32.82000 50.07800 29.21600
H  33.48500 50.54800 30.82100
H  37.30500 50.01400 30.98800
H  38.05300 48.52100 30.42900
H  37.98100 48.77300 32.79400
H  37.16500 47.33500 32.23900
H  33.02800 53.81900 26.04600
H  34.23000 54.97900 25.42300
H  34.47100 54.08500 26.92600
H  33.86800 55.10600 23.10000
H  35.05200 55.61000 21.90200
H  35.48300 55.56700 23.61300
H  37.33200 49.51400 20.59900
H  36.70600 46.61500 20.86800
H  35.10300 49.61700 19.67300
H  34.63300 48.06000 20.47600
H  35.74600 48.10500 19.06600
H  38.73800 47.69500 19.76100
H  39.05900 46.36500 20.81400
H  40.70500 47.75200 21.59300
H  39.44800 48.51300 22.60400
H  39.89300 49.16700 21.00800
H  37.69000 42.82000 24.45300
H  39.03300 42.94700 25.67100
H  39.15800 43.78300 24.21000
H  37.83500 46.10900 29.90200
H  34.85200 43.57500 32.32100
H  34.34400 45.17500 32.06900
H  35.63900 44.84000 33.22700

