158

Mg 24.24900 -5.98700 45.06200
C  26.58700 -3.74200 43.82700
C  21.73500 -4.61400 43.24200
C  22.40100 -8.84000 45.56000
C  27.05100 -7.75600 46.62300
N  24.20600 -4.36400 43.69600
C  25.24500 -3.53600 43.37100
C  24.77500 -2.43500 42.42800
C  23.22600 -2.58700 42.51700
C  22.99800 -3.99900 43.09800
C  22.42500 -1.48600 43.23400
C  25.42300 -2.60000 40.96300
C  25.72400 -1.28200 40.30100
H  25.05000 -1.10000 38.91900
N  22.26500 -6.51500 44.67400
C  21.38200 -5.80000 43.89000
C  20.13700 -6.51800 43.81700
C  20.27000 -7.72900 44.53800
C  21.66500 -7.73900 44.94700
C  19.03900 -6.09200 42.91200
C  19.17000 -8.75000 44.62500
O  17.98800 -8.48300 44.35600
C  19.37700 -10.20900 45.16000
N  24.70000 -7.98800 45.88200
C  23.69300 -8.91200 45.95700
C  24.19300 -10.23200 46.52500
C  25.57400 -9.83500 47.12800
C  25.80300 -8.43400 46.58900
C  23.28500 -10.95600 47.61000
C  26.77800 -10.77200 46.77800
C  27.70100 -11.14500 48.01900
N  26.34300 -5.87700 45.23800
C  27.33400 -6.56400 45.97900
C  28.62200 -5.86000 45.91100
C  28.35100 -4.75000 45.06700
C  26.95400 -4.82300 44.69000
C  29.87500 -6.38100 46.58300
C  28.99700 -3.63400 44.41900
O  30.13200 -3.17000 44.42400
C  27.86800 -2.87900 43.65000
C  27.79500 -1.50000 44.08400
O  27.61100 -1.09300 45.23900
O  27.97500 -0.61100 43.00200
C  27.92300 0.79700 43.35300
H  20.91500 -4.25100 42.61800
H  21.79300 -9.73500 45.70900
H  27.94100 -8.25700 47.01100
H  24.99900 -1.45800 42.85600
H  22.73300 -2.40500 41.56300
H  21.56300 -1.12400 42.67400
H  23.02300 -0.58200 43.35300
H  22.17000 -1.77200 44.25500
H  24.63900 -3.13000 40.42300
H  26.34100 -3.17800 41.06400
H  26.78000 -1.19200 40.04900
H  25.38800 -0.45200 40.92300
H  18.62100 -6.92300 42.34300
H  19.27300 -5.21900 42.30400
H  18.27200 -5.70700 43.58500
H  18.35200 -10.57800 45.16300
H  19.83100 -10.02800 46.13400
H  20.09200 -10.70400 44.50300
H  24.25100 -10.90500 45.66900
H  25.50100 -9.74200 48.21100
H  24.04000 -11.40300 48.25700
H  22.68200 -11.73300 47.14000
H  22.59400 -10.22700 48.03400
H  27.30700 -10.30300 45.94800
H  26.38400 -11.66900 46.29900
H  27.78700 -12.22600 47.90600
H  27.20400 -10.88900 48.95500
H  28.63800 -10.58900 48.00300
H  30.02000 -7.45300 46.45200
H  29.81200 -6.24900 47.66300
H  30.70800 -5.79300 46.19800
H  28.22800 -2.84400 42.62200
H  28.73300 1.05000 44.03700
H  26.92900 1.06200 43.71500
H  28.10400 1.46500 42.51000
Mg 48.46500 46.29400 43.52900
C  45.33900 46.69300 42.37800
C  48.48600 43.20600 42.14900
C  51.82300 46.24300 44.22100
C  48.54700 49.62800 44.68700
N  47.09100 45.28200 42.23000
C  45.81400 45.49700 41.89000
C  45.14600 44.45500 40.97600
C  46.09900 43.28500 41.20600
C  47.30300 43.94200 41.96800
C  45.43600 42.04400 41.94000
C  44.99100 44.77200 39.41500
C  43.62200 44.47900 38.85200
H  43.65100 43.40700 37.82800
N  49.94600 44.89700 43.24900
C  49.76800 43.69600 42.63400
C  51.06900 43.03200 42.55000
C  52.03800 43.83100 43.18900
C  51.34600 45.03100 43.54500
C  51.22800 41.72200 41.81600
C  53.52700 43.46100 43.36300
O  54.08500 42.53400 42.83800
C  54.29400 44.23800 44.29500
N  49.97900 47.77300 44.39400
C  51.22100 47.42600 44.64300
C  52.07500 48.49400 45.24600
C  51.06600 49.72300 45.25300
C  49.79400 49.07400 44.73200
C  52.69800 48.14800 46.58300
C  51.43500 51.00300 44.35800
C  51.10500 52.35100 45.06900
N  47.26700 47.83600 43.65300
C  47.37400 49.04700 44.18100
C  46.08100 49.74700 44.15300
C  45.27000 48.86200 43.45200
C  46.00300 47.71800 43.20300
C  45.80600 51.14700 44.72100
C  43.91800 48.66100 43.00100
O  42.93400 49.39300 43.03000
C  43.95200 47.29500 42.26700
C  42.88700 46.43700 42.79900
O  42.89200 45.69600 43.79600
O  41.84300 46.52100 41.91700
C  40.81900 45.50600 42.27300
H  48.47100 42.17700 41.78500
H  52.87100 46.31600 44.51900
H  48.49200 50.66900 45.01200
H  44.18800 44.27900 41.46600
H  46.37100 42.82700 40.25500
H  44.43700 41.85500 41.54800
H  45.44600 42.15600 43.02400
H  46.05200 41.15100 41.82600
H  45.67600 44.22200 38.76900
H  45.16300 45.83900 39.27400
H  43.06000 45.31600 38.43700
H  43.03000 44.11500 39.69200
H  52.16800 41.78000 41.26700
H  50.45300 41.45000 41.10000
H  51.17600 40.89500 42.52500
H  53.60500 44.53300 45.08600
H  54.68100 45.06800 43.70500
H  55.11400 43.62900 44.67600
H  52.81800 48.60300 44.45600
H  50.79800 49.95500 46.28400
H  53.66700 47.66600 46.45100
H  52.03800 47.45800 47.10900
H  53.01700 49.05400 47.09700
H  50.96900 50.79700 43.39400
H  52.51600 50.93300 44.23600
H  50.74600 52.99300 44.26500
H  52.07600 52.68000 45.44100
H  50.30800 52.28400 45.81000
H  46.30400 51.19900 45.68900
H  44.73600 51.33700 44.80500
H  46.21200 51.95500 44.11200
H  43.71400 47.43100 41.21200
H  40.16900 45.82500 43.08800
H  41.24200 44.52400 42.48400
H  40.23600 45.52200 41.35200

