158

Mg 50.12000 46.35700 42.83000
C  46.84100 46.91200 41.65800
C  49.85000 43.24300 41.29800
C  53.38400 45.97200 43.38300
C  50.25500 49.75600 43.63100
N  48.41100 45.19700 41.69000
C  47.23900 45.65900 41.34900
C  46.55200 44.68800 40.38700
C  47.45200 43.37300 40.47500
C  48.65600 43.98100 41.19400
C  46.79700 42.19000 41.26500
C  46.42200 45.20500 38.89900
C  45.01100 45.00700 38.27100
H  45.04800 43.76600 37.35100
N  51.46200 44.79100 42.48400
C  51.13200 43.58300 41.90600
C  52.32200 42.90600 41.66900
C  53.38100 43.62700 42.22900
C  52.76700 44.86200 42.74200
C  52.33400 41.63600 40.94100
C  54.90500 43.12600 42.23200
O  55.29300 42.07300 41.79400
C  55.89700 43.89900 42.97500
N  51.54000 47.62400 43.53500
C  52.80300 47.28300 43.60700
C  53.68100 48.50600 44.00200
C  52.63200 49.62800 44.14400
C  51.40100 48.98700 43.68200
C  54.56800 48.29400 45.30100
C  53.08100 50.95800 43.36500
C  53.04500 52.27100 44.09500
N  48.75600 47.99700 42.96200
C  48.98400 49.32100 43.18000
C  47.72300 50.06100 43.00600
C  46.83300 49.20600 42.45600
C  47.54700 47.93800 42.39100
C  47.58700 51.51100 43.26200
C  45.55500 49.07900 41.89100
O  44.66200 49.96300 41.79900
C  45.45000 47.55800 41.36800
C  44.27100 46.97900 42.06200
O  44.36900 46.52700 43.19500
O  43.29500 46.84900 41.18300
C  42.18900 46.05600 41.64600
H  49.67600 42.24300 40.89600
H  54.45400 45.95700 43.60100
H  50.28300 50.84700 43.68700
H  45.56200 44.44800 40.77500
H  47.76700 42.88300 39.55400
H  45.74500 42.09800 40.99300
H  46.77300 42.34500 42.34300
H  47.28400 41.23900 41.05000
H  47.17100 44.72000 38.27400
H  46.67200 46.26600 38.87000
H  44.86600 45.89800 37.66000
H  44.11900 44.85200 38.87900
H  51.87800 40.83500 41.52400
H  53.34100 41.22400 40.88500
H  51.76300 41.70400 40.01500
H  56.72200 43.18700 42.99700
H  55.54400 44.00700 44.00000
H  56.30600 44.74700 42.42500
H  54.25400 48.54900 43.07600
H  52.47700 49.79700 45.21000
H  54.28000 48.58800 46.31100
H  55.38700 48.95500 45.01800
H  54.89300 47.25400 45.30100
H  52.42000 51.04800 42.50300
H  54.09600 50.77600 43.01200
H  52.68100 52.13800 45.11300
H  52.62300 53.11000 43.54300
H  54.10300 52.51900 44.18700
H  48.07900 51.70400 44.21600
H  46.53600 51.79000 43.34100
H  48.06500 52.17400 42.54200
H  45.18700 47.55900 40.31000
H  41.28100 46.58700 41.93100
H  42.47200 45.41200 42.47900
H  41.91600 45.34900 40.86300
Mg -5.52800 25.14500 26.30900
C  -3.88500 26.72800 29.14500
C  -7.35500 23.32800 28.49400
C  -6.96700 23.73100 23.73700
C  -3.54300 27.24400 24.28300
N  -5.62600 25.12000 28.59400
C  -4.96900 25.88900 29.51300
C  -5.50000 25.46100 30.85800
C  -6.27800 24.12800 30.63900
C  -6.42100 24.18000 29.18600
C  -5.50900 22.88100 31.15700
C  -6.34000 26.53500 31.52000
C  -6.22100 26.58500 33.05000
H  -5.71500 25.36300 33.84600
N  -6.96700 23.79400 26.13500
C  -7.67800 23.22300 27.13900
C  -8.69700 22.33700 26.65700
C  -8.51900 22.35000 25.25900
C  -7.42800 23.27900 24.98500
C  -9.80500 21.75600 27.51800
C  -9.26800 21.66600 24.15900
O  -9.03900 21.96200 23.00100
C  -10.37200 20.60800 24.50100
N  -5.32300 25.53700 24.31300
C  -6.00400 24.76300 23.38600
C  -5.50600 25.02400 21.92700
C  -4.66500 26.29600 22.17300
C  -4.52200 26.43400 23.70100
C  -4.57300 23.90400 21.40600
C  -5.24600 27.58500 21.54800
C  -4.54900 28.01200 20.18500
N  -3.86900 26.40800 26.59500
C  -3.19000 27.20800 25.67100
C  -2.27200 28.08200 26.34900
C  -2.48200 27.83800 27.66500
C  -3.51800 26.88200 27.78800
C  -1.19000 28.97900 25.74100
C  -2.06400 28.31200 28.98600
O  -1.18400 29.04600 29.35000
C  -2.99000 27.59300 29.98500
C  -2.15400 26.75500 30.93200
O  -1.44500 25.77500 30.63000
O  -2.29400 27.34400 32.19300
C  -1.41600 26.64700 33.15400
H  -7.79000 22.62000 29.20300
H  -7.36500 23.29800 22.81700
H  -2.85500 27.81800 23.65800
H  -4.67000 25.29600 31.54500
H  -7.26200 24.10200 31.10500
H  -5.23200 22.11100 30.43800
H  -6.16600 22.39600 31.88000
H  -4.54700 23.04100 31.64300
H  -7.37800 26.48600 31.19200
H  -6.09000 27.55500 31.23000
H  -7.24200 26.75000 33.39400
H  -5.57400 27.42500 33.30600
H  -10.75100 22.27500 27.36500
H  -9.58500 21.87200 28.57900
H  -9.94400 20.70400 27.26600
H  -10.63100 20.16500 23.53900
H  -11.24000 21.06700 24.97500
H  -10.03800 19.74600 25.07800
H  -6.34000 25.17800 21.24200
H  -3.61000 26.28200 21.90000
H  -4.61400 23.95900 20.31800
H  -4.79100 22.91000 21.79700
H  -3.55900 23.97600 21.80000
H  -5.24500 28.45300 22.20700
H  -6.29300 27.46200 21.27100
H  -3.91700 27.17600 19.88300
H  -3.91200 28.89600 20.16000
H  -5.20200 28.07700 19.31500
H  -1.72700 29.66900 25.09000
H  -0.58100 28.38900 25.05600
H  -0.57900 29.50400 26.47600
H  -3.56100 28.26400 30.62600
H  -0.39400 27.01500 33.06300
H  -1.47800 25.57700 32.95400
H  -1.88100 26.83000 34.12300

