158

Mg 30.18900 57.23800 40.50300
C  27.36500 55.30500 39.50300
C  32.15000 54.45700 39.85800
C  32.91300 59.27200 40.46400
C  28.03800 60.07700 40.40300
N  29.78600 55.14800 39.70500
C  28.57000 54.55300 39.41100
C  28.79600 53.20500 38.70600
C  30.12800 52.82700 39.41100
C  30.77200 54.22700 39.62900
C  30.10100 52.08300 40.82800
C  28.88500 53.35800 37.12100
C  27.91500 52.41700 36.31500
H  27.14300 52.89300 35.07600
N  32.28100 56.93200 40.25900
C  32.82800 55.69400 40.00000
C  34.30100 56.00800 40.02500
C  34.58100 57.38600 40.22400
C  33.24700 57.94600 40.32800
C  35.24100 54.93800 39.53700
C  36.00800 58.03100 40.29200
O  37.01400 57.37100 40.09300
C  36.29400 59.45200 40.79400
N  30.42600 59.30600 40.46400
C  31.64100 59.92200 40.54300
C  31.55300 61.43800 40.67900
C  29.97800 61.64800 40.74900
C  29.43800 60.24300 40.54800
C  32.22900 62.20000 41.90400
C  29.42700 62.62200 39.74400
C  28.22800 63.41900 40.26900
N  28.09800 57.64700 40.25600
C  27.37700 58.82200 40.25500
C  25.92200 58.52800 40.01100
C  25.87100 57.19800 39.75300
C  27.20000 56.70300 39.84600
C  24.76100 59.58300 39.93200
C  25.06100 56.03900 39.30000
O  23.91300 55.97700 39.09200
C  25.94600 54.77600 39.17700
C  25.55000 53.76400 40.15700
O  26.25700 53.44100 41.07900
O  24.36500 53.16400 39.77800
C  24.02800 51.81200 40.14000
H  32.81000 53.59700 39.72100
H  33.70100 60.02500 40.40700
H  27.31100 60.88600 40.49500
H  28.03700 52.49000 39.02400
H  30.80700 52.30700 38.73600
H  29.09700 51.66000 40.83800
H  30.17900 52.80900 41.63700
H  30.78400 51.24000 40.93800
H  29.93800 53.25300 36.86400
H  28.51600 54.34000 36.82300
H  27.32300 51.83700 37.02300
H  28.49000 51.58900 35.90100
H  34.80800 54.31700 38.75300
H  35.61700 54.22500 40.27000
H  36.07500 55.49500 39.10800
H  36.28700 60.23200 40.03300
H  37.22000 59.40300 41.36700
H  35.57800 59.68000 41.58400
H  31.95100 61.91300 39.78300
H  29.68800 62.02900 41.72900
H  33.00600 62.88800 41.56800
H  32.77600 61.47600 42.50800
H  31.50700 62.78200 42.47700
H  29.14900 62.23400 38.76400
H  30.09800 63.45400 39.53200
H  28.45200 64.48100 40.37400
H  27.83000 63.16100 41.25000
H  27.50400 63.25200 39.47200
H  24.96000 60.24000 39.08600
H  24.70800 60.14500 40.86500
H  23.88700 59.00000 39.64300
H  25.72100 54.28200 38.23200
H  23.09600 51.72400 40.69900
H  24.83300 51.31600 40.68200
H  23.86200 51.31600 39.18400
Mg -11.72600 15.98000 41.64900
C  -8.56900 14.88600 40.89200
C  -11.15700 18.99900 40.15500
C  -15.01700 16.65200 41.83600
C  -12.41200 12.63600 42.67100
N  -10.04100 16.68300 40.37100
C  -8.79100 16.19300 40.50400
C  -7.78100 17.21800 39.94200
C  -8.62500 18.48900 39.68100
C  -10.07300 18.08400 40.25700
C  -8.05800 19.80200 40.38200
C  -7.01100 16.70500 38.68000
C  -5.62000 17.23500 38.69200
H  -5.34000 18.33600 37.70700
N  -12.91100 17.64700 41.00700
C  -12.48600 18.81500 40.57200
C  -13.59600 19.66300 40.31200
C  -14.77800 19.00000 40.76900
C  -14.24600 17.71300 41.27800
C  -13.44600 20.99600 39.57700
C  -16.24600 19.53800 40.57800
O  -16.43000 20.68500 40.15800
C  -17.44000 18.66800 40.88900
N  -13.44200 14.74400 42.24600
C  -14.69600 15.37900 42.26600
C  -15.78200 14.34400 42.62100
C  -14.98000 13.00400 42.70500
C  -13.50400 13.47700 42.64100
C  -16.50800 14.71400 43.93800
C  -15.17200 11.98400 41.45400
C  -15.45600 10.55000 41.95500
N  -10.73600 14.14300 41.82600
C  -11.05500 12.90800 42.26400
C  -9.93700 11.99900 42.23900
C  -8.80400 12.75500 41.79900
C  -9.43000 14.01200 41.45100
C  -9.90900 10.55200 42.57400
C  -7.44600 12.79500 41.63400
O  -6.53300 11.97900 41.92100
C  -7.17100 14.11700 40.88500
C  -6.16000 14.85100 41.70100
O  -6.22400 15.22600 42.84400
O  -4.98600 14.93200 40.90200
C  -3.79500 15.17900 41.77800
H  -10.92700 19.97500 39.72400
H  -16.10500 16.73500 41.86600
H  -12.67400 11.64200 43.04200
H  -7.14300 17.37000 40.81300
H  -8.66600 18.73100 38.61900
H  -8.10800 20.64700 39.69500
H  -7.07800 19.67200 40.84300
H  -8.83600 20.07400 41.09500
H  -7.48600 17.04400 37.75900
H  -7.10300 15.62000 38.64000
H  -5.05200 16.32700 38.48800
H  -5.37200 17.55900 39.70300
H  -12.57000 21.04900 38.93100
H  -13.24100 21.73800 40.34900
H  -14.34400 21.28500 39.03000
H  -18.30100 19.15800 40.43300
H  -17.46800 18.46600 41.96000
H  -17.33100 17.68300 40.43600
H  -16.48900 14.33300 41.79200
H  -15.37400 12.59300 43.63500
H  -16.90500 15.72700 43.87300
H  -15.91200 14.59800 44.84400
H  -17.24600 13.91600 44.00600
H  -14.25500 11.96000 40.86500
H  -15.94200 12.45700 40.84500
H  -16.28000 10.24300 41.31200
H  -15.56600 10.49800 43.03900
H  -14.52800 10.05300 41.67300
H  -10.71000 10.34900 43.28500
H  -8.94800 10.38500 43.06000
H  -10.13500 9.98000 41.67400
H  -6.84100 14.07900 39.84600
H  -2.90500 15.31000 41.16200
H  -3.63200 14.42400 42.54600
H  -3.98900 16.06300 42.38600

