158

Mg 52.47600 23.66700 44.56300
C  49.51400 25.46400 44.01700
C  50.73800 20.71000 43.68300
C  55.45500 22.14100 44.19200
C  54.05400 26.60700 45.42600
N  50.32300 23.16300 43.88100
C  49.31200 24.06500 43.75200
C  48.02200 23.27500 43.49600
C  48.35300 21.76000 43.47600
C  49.91000 21.87500 43.74900
C  47.54000 20.94500 44.44100
C  47.06300 23.79400 42.34600
C  47.67500 23.93300 40.93200
H  47.55800 22.71800 39.93900
N  53.03300 21.69000 44.12700
C  52.14400 20.65100 43.78600
C  52.98900 19.42100 43.63700
C  54.33000 19.81200 43.69500
C  54.36000 21.26300 44.00500
C  52.35700 18.05800 43.32600
C  55.46600 18.91800 43.23000
O  55.27900 17.72700 43.04100
C  56.75800 19.48700 42.93700
N  54.45900 24.34100 44.59500
C  55.46700 23.45000 44.42400
C  56.75900 24.22500 44.83500
C  56.44100 25.75100 44.83100
C  54.88500 25.60100 45.03200
C  57.47300 23.65200 46.05100
C  56.77200 26.59600 43.55800
C  58.14100 27.28100 43.47200
N  51.88900 25.66200 44.74500
C  52.60500 26.69000 45.27000
C  51.75200 27.83000 45.51400
C  50.52900 27.44800 44.91900
C  50.66900 26.10500 44.46500
C  52.09100 29.20900 45.99900
C  49.14400 27.82000 44.61800
O  48.52800 28.86600 44.92400
C  48.55000 26.65400 43.88000
C  48.39100 27.09300 42.51300
O  49.19200 26.91900 41.60100
O  47.18100 27.72200 42.32700
C  46.72300 27.79300 40.92100
H  50.18800 19.78700 43.49000
H  56.48900 21.79600 44.11600
H  54.53400 27.47700 45.88100
H  47.50100 23.60700 44.39400
H  48.22900 21.42500 42.44600
H  47.30100 19.97500 44.00500
H  46.66700 21.55300 44.68000
H  48.16300 20.74100 45.31100
H  46.73100 24.78900 42.64000
H  46.12900 23.23300 42.36400
H  48.72000 24.18400 41.10900
H  47.14400 24.79700 40.53300
H  52.63900 17.22700 43.97300
H  52.53000 17.77700 42.28700
H  51.27300 17.96500 43.40200
H  57.38100 18.78700 42.37900
H  57.33400 19.52900 43.86100
H  56.69100 20.39900 42.34400
H  57.37000 24.11700 43.93800
H  56.85800 26.18700 45.73900
H  58.37400 23.11500 45.75400
H  56.83700 22.88800 46.49600
H  57.68500 24.42300 46.79200
H  56.02500 27.37400 43.40100
H  56.79400 25.97900 42.66000
H  58.60600 26.82500 42.59800
H  58.77400 27.08300 44.33800
H  58.10000 28.36900 43.42600
H  53.06600 29.56900 45.67300
H  52.02500 29.34600 47.07900
H  51.33100 29.85800 45.56500
H  47.56500 26.41900 44.28300
H  45.91000 27.06700 40.87700
H  47.49600 27.73000 40.15500
H  46.22600 28.76100 40.85800
Mg -10.76800 39.74000 42.76500
C  -9.00800 36.92000 41.63400
C  -8.55600 41.59000 40.95300
C  -12.90100 42.35700 43.16200
C  -13.37600 37.60800 43.91000
N  -9.01000 39.19900 41.29000
C  -8.40800 38.01900 41.08500
C  -7.08100 38.08600 40.18900
C  -6.83400 39.67200 40.28500
C  -8.19800 40.22400 40.83400
C  -5.63000 40.07800 41.12900
C  -7.32200 37.55200 38.74400
C  -6.54200 36.33800 38.23800
H  -5.94400 36.52100 36.90000
N  -10.73300 41.70400 42.19000
C  -9.79500 42.23600 41.40700
C  -10.05100 43.70600 41.23900
C  -11.15100 43.98500 42.05900
C  -11.66400 42.65400 42.52400
C  -9.26900 44.57500 40.39600
C  -11.60900 45.40100 42.32300
O  -11.06300 46.38900 41.86600
C  -12.91000 45.68500 43.11500
N  -12.83200 39.93500 43.56100
C  -13.51000 41.15200 43.60900
C  -14.90700 40.95100 44.20400
C  -15.07600 39.40100 44.29000
C  -13.66200 38.95200 43.86200
C  -15.10300 41.77700 45.50800
C  -16.26000 38.83800 43.37300
C  -17.05100 37.62900 43.92700
N  -11.05100 37.71400 42.93600
C  -12.15200 36.98700 43.46400
C  -11.83800 35.55900 43.42000
C  -10.59500 35.49600 42.65700
C  -10.11800 36.82700 42.43300
C  -12.72200 34.42100 43.91500
C  -9.63500 34.63300 42.12300
O  -9.60800 33.38400 42.10600
C  -8.58000 35.53600 41.44400
C  -7.24100 35.21900 41.87200
O  -6.88900 35.29300 43.04500
O  -6.66700 34.51000 40.86900
C  -5.37300 33.85800 41.08000
H  -7.79000 42.27600 40.58600
H  -13.51500 43.26000 43.15700
H  -14.19900 36.91100 44.08000
H  -6.29000 37.47800 40.62800
H  -6.65800 40.12400 39.30900
H  -4.88500 40.59500 40.52500
H  -5.14000 39.29300 41.70500
H  -5.95900 40.92000 41.73800
H  -7.42400 38.39200 38.05700
H  -8.34600 37.18300 38.69600
H  -7.21300 35.49500 38.07400
H  -5.68000 36.23600 38.89700
H  -8.74200 43.90600 39.71600
H  -8.54800 45.02500 41.07800
H  -9.89100 45.32800 39.91000
H  -12.87400 45.19400 44.08700
H  -13.78500 45.38500 42.53800
H  -13.06000 46.75100 43.28600
H  -15.70000 41.46300 43.66000
H  -15.27100 39.06400 45.30900
H  -14.13300 42.10700 45.87700
H  -15.63500 41.14000 46.21600
H  -15.68100 42.65500 45.22100
H  -15.82200 38.57300 42.41000
H  -16.87100 39.65700 42.99200
H  -18.01300 37.86400 44.38300
H  -16.44500 36.99900 44.57800
H  -17.17700 37.01700 43.03400
H  -12.23300 33.44900 43.86300
H  -13.65100 34.39200 43.34500
H  -13.06100 34.49900 44.94900
H  -8.67500 35.27600 40.39000
H  -4.67300 34.41000 41.70500
H  -4.87800 33.86100 40.10900
H  -5.55200 32.93700 41.63500

