158

Mg 47.79400 14.61800 28.85400
C  45.67200 14.63400 31.59200
C  49.93300 16.80600 30.68000
C  49.34800 15.63000 26.02800
C  45.32200 12.93400 27.00300
N  47.77000 15.64700 30.91500
C  46.86700 15.38900 31.89300
C  47.32700 15.98400 33.18300
C  48.50100 16.91300 32.78500
C  48.71600 16.52000 31.34100
C  48.25600 18.49700 32.98100
C  47.66500 14.98100 34.36000
C  46.96200 15.25300 35.70700
H  47.46700 16.46700 36.51600
N  49.49600 15.94700 28.36300
C  50.24700 16.60000 29.33400
C  51.38100 17.19100 28.62800
C  51.24000 16.97900 27.19800
C  50.01600 16.14200 27.08700
C  52.51600 17.95500 29.39700
C  52.10700 17.46800 26.06700
O  51.90500 17.26700 24.89100
C  53.38800 18.26800 26.29200
N  47.42700 14.34600 26.84500
C  48.19900 14.89800 25.89200
C  47.81000 14.30100 24.51700
C  46.70400 13.25400 24.92700
C  46.44000 13.47300 26.35400
C  47.42200 15.46000 23.46100
C  47.12800 11.74000 24.68800
C  47.89300 11.10300 25.85200
N  45.85700 13.95800 29.13700
C  44.94300 13.25400 28.29200
C  43.76600 12.85700 29.09700
C  44.00700 13.36400 30.39500
C  45.28700 14.02500 30.38100
C  42.65200 12.04100 28.69500
C  43.39400 13.60600 31.67800
O  42.35900 13.27800 32.22000
C  44.56200 14.28800 32.54100
C  44.00800 15.40200 33.25300
O  43.98700 16.58500 32.85000
O  43.48400 15.01800 34.42200
C  42.44100 16.02000 34.97400
H  50.67200 17.37300 31.24900
H  49.78400 15.97700 25.08900
H  44.59000 12.29400 26.50700
H  46.46600 16.53900 33.55600
H  49.43600 16.71500 33.30900
H  48.95100 18.95500 33.68500
H  47.26100 18.59100 33.41600
H  48.33800 19.04800 32.04500
H  48.74300 14.96600 34.52500
H  47.42800 13.93400 34.17100
H  47.24900 14.39000 36.30700
H  45.88600 15.39100 35.59500
H  52.58400 18.91000 28.87800
H  53.43600 17.37900 29.29200
H  52.35300 18.25200 30.43300
H  53.25500 19.32000 26.54100
H  54.03800 18.19700 25.42000
H  53.80900 17.68800 27.11300
H  48.63500 13.68500 24.16100
H  45.75300 13.49900 24.45500
H  46.34500 15.38800 23.30800
H  47.90800 15.26300 22.50500
H  47.80900 16.43400 23.76000
H  47.61700 11.63400 23.72000
H  46.20200 11.18500 24.53200
H  48.50900 11.89300 26.28300
H  48.68700 10.49800 25.41600
H  47.23800 10.78600 26.66400
H  42.62200 11.85200 27.62200
H  41.80200 12.58200 29.11000
H  42.64300 11.10300 29.25000
H  44.88900 13.55100 33.27400
H  42.52500 17.01400 34.53400
H  42.56200 16.06900 36.05600
H  41.41800 15.70500 34.76600
Mg 26.62600 50.25000 25.88600
C  24.30600 51.67300 28.20500
C  28.52100 49.42400 28.52900
C  28.84200 49.29900 23.57800
C  24.52400 51.49200 23.27900
N  26.40100 50.41200 28.04500
C  25.39300 51.01400 28.75700
C  25.59100 51.01500 30.18900
C  27.07200 50.63600 30.38400
C  27.42700 50.13500 28.97400
C  27.97100 51.85800 30.84100
C  24.49100 50.17300 30.93300
C  23.82300 50.80900 32.16700
H  23.70300 49.98200 33.40800
N  28.50600 49.46800 26.05400
C  29.09700 49.12900 27.25500
C  30.42300 48.63300 26.92900
C  30.51900 48.57800 25.46600
C  29.26900 49.13200 24.95600
C  31.32300 48.22800 27.98000
C  31.59400 48.04300 24.61000
O  31.57800 47.94400 23.40900
C  32.76400 47.46300 25.35500
N  26.65900 50.30200 23.72700
C  27.71000 49.88700 23.04500
C  27.48300 50.03900 21.52700
C  26.10000 50.65300 21.41300
C  25.76700 50.86800 22.90700
C  28.58200 50.98800 20.90200
C  24.91800 49.90800 20.69400
C  24.15000 50.59200 19.59000
N  24.81400 51.39700 25.72800
C  24.10500 51.75400 24.60200
C  22.89500 52.44300 25.07700
C  22.92200 52.42200 26.45300
C  24.11000 51.75500 26.76000
C  21.78800 52.96300 24.21900
C  22.19300 52.78400 27.69000
O  21.16200 53.43100 27.80500
C  23.06700 52.36800 28.85500
C  23.34700 53.60500 29.61500
O  23.99700 54.58400 29.21300
O  22.79800 53.46800 30.88300
C  23.31000 54.37000 31.87700
H  29.09000 49.01200 29.36500
H  29.50400 48.89200 22.81100
H  23.90900 51.92800 22.48900
H  25.59900 52.02600 30.59700
H  27.11100 49.87200 31.16000
H  28.89800 51.74300 30.27900
H  28.10400 51.96000 31.91800
H  27.53300 52.80400 30.52200
H  24.83600 49.16000 31.14000
H  23.73900 50.02700 30.15800
H  22.79700 51.07200 31.90700
H  24.38900 51.70500 32.42400
H  31.56300 47.16500 27.98500
H  30.95000 48.28100 29.00300
H  32.22100 48.79000 27.72300
H  32.42100 46.66000 26.00800
H  33.31300 48.21500 25.92200
H  33.33200 46.94600 24.58200
H  27.48300 49.09600 20.98100
H  26.12900 51.65500 20.98700
H  29.40300 51.06400 21.61500
H  28.32200 52.02500 20.68900
H  28.93600 50.55700 19.96600
H  24.16600 49.62300 21.43000
H  25.46700 49.03200 20.34800
H  24.34100 49.90200 18.76800
H  24.56900 51.56300 19.32600
H  23.09400 50.77000 19.79700
H  22.08300 53.62300 23.40300
H  21.20600 53.60000 24.88500
H  21.15300 52.12700 23.92600
H  22.38900 51.72300 29.41400
H  23.63700 53.74500 32.70900
H  22.42600 54.92800 32.18700
H  24.09000 55.08900 31.62600

