158

Mg 47.52100 24.72500 29.29600
C  48.15100 27.24700 31.77700
C  46.86000 22.46900 31.74000
C  47.13600 22.34300 26.92900
C  49.27600 26.68500 27.03900
N  47.54000 24.86000 31.49000
C  47.54400 25.99900 32.28000
C  47.04100 25.69000 33.68100
C  47.00500 24.09300 33.74700
C  47.24100 23.77400 32.25200
C  48.04300 23.38100 34.68200
C  45.73600 26.46000 34.09400
C  45.56800 27.11900 35.44600
H  46.18700 26.63400 36.75700
N  46.84600 22.86100 29.31600
C  46.64600 22.07700 30.44500
C  46.10600 20.70800 30.04800
C  46.12300 20.72100 28.61100
C  46.65100 22.04200 28.22800
C  45.63400 19.69000 31.12600
C  45.61700 19.71700 27.61200
O  45.48400 19.94100 26.40100
C  45.05700 18.42900 28.12700
N  48.16300 24.54400 27.21500
C  47.85300 23.44000 26.44500
C  48.47100 23.55300 25.11300
C  49.03700 24.96500 25.09800
C  48.87300 25.46800 26.54900
C  49.47400 22.40100 24.82000
C  48.34400 25.98300 24.09100
C  46.89900 26.23900 24.10200
N  48.50300 26.53600 29.32900
C  49.11800 27.21500 28.28500
C  49.57200 28.54300 28.77700
C  49.22000 28.57900 30.10100
C  48.61100 27.34200 30.39000
C  50.28800 29.54600 27.96000
C  49.10900 29.41200 31.33700
O  49.32900 30.60000 31.48600
C  48.47600 28.55200 32.41700
C  49.54100 28.37500 33.48900
O  50.67200 27.96600 33.47700
O  48.94000 28.75100 34.68300
C  49.91200 28.71200 35.84300
H  46.46800 21.79900 32.50800
H  47.22300 21.47700 26.27000
H  49.76400 27.29800 26.27900
H  47.81900 26.04400 34.35700
H  46.00800 23.87500 34.13000
H  47.59900 22.98600 35.59500
H  48.81800 24.06100 35.03500
H  48.51100 22.53700 34.17500
H  44.95400 25.70100 34.06700
H  45.62000 27.13900 33.24900
H  44.48700 26.97600 35.45900
H  45.80600 28.18300 35.45600
H  44.86500 20.14400 31.75100
H  46.49500 19.54300 31.77800
H  45.33100 18.75700 30.65100
H  45.84300 18.01200 28.75700
H  44.78900 17.71300 27.35000
H  44.20200 18.62400 28.77400
H  47.74900 23.41300 24.30800
H  50.09700 24.99700 24.84700
H  50.12500 22.33600 25.69200
H  50.06200 22.60100 23.92400
H  49.02900 21.42100 24.64700
H  48.47000 25.45700 23.14500
H  48.90600 26.91600 24.04600
H  46.48100 25.76100 24.98700
H  46.37600 25.83200 23.23700
H  46.69100 27.30500 24.01100
H  50.77300 30.22600 28.66100
H  49.56700 30.04800 27.31500
H  50.92500 28.92000 27.33500
H  47.51800 28.94000 32.76100
H  49.27000 28.66900 36.72300
H  50.44700 29.65900 35.91400
H  50.61000 27.88400 35.97000
Mg 9.61400 47.65400 26.20800
C  7.58200 47.66800 29.12700
C  12.18800 48.44200 28.18600
C  11.24300 48.27100 23.47100
C  6.53600 47.51700 24.32500
N  9.80300 47.83800 28.42800
C  8.89900 47.81300 29.44700
C  9.52300 48.20200 30.85300
C  10.93000 48.71700 30.40300
C  10.99200 48.31900 28.93100
C  11.24900 50.22300 30.66200
C  9.70100 47.00600 31.85300
C  9.52600 47.29100 33.37400
H  9.71500 46.15700 34.33800
N  11.48700 47.88700 25.86800
C  12.40800 48.28200 26.82500
C  13.68800 48.39700 26.22500
C  13.49000 48.18300 24.83000
C  12.03600 48.16700 24.63200
C  14.99000 48.60500 26.93500
C  14.46200 48.07300 23.71200
O  14.22300 47.90800 22.56200
C  15.93900 48.10800 24.13000
N  8.97400 47.91100 24.18000
C  9.85800 48.11200 23.19000
C  9.22800 48.09400 21.75100
C  7.73700 47.72800 22.02800
C  7.71600 47.69700 23.59500
C  9.47600 49.41900 21.04200
C  7.42800 46.32700 21.34300
C  6.04600 46.24000 20.65700
N  7.44900 47.63300 26.59200
C  6.39100 47.53300 25.75100
C  5.14700 47.36100 26.49000
C  5.59900 47.37000 27.79100
C  6.98800 47.60300 27.82300
C  3.76600 47.46900 25.97300
C  5.05100 47.34000 29.11300
O  3.93000 47.15400 29.52800
C  6.36000 47.66800 30.04600
C  6.42300 46.81900 31.25800
O  6.67600 45.62800 31.30400
O  6.06600 47.59000 32.33300
C  5.89500 46.79500 33.59700
H  12.99600 48.91900 28.74500
H  11.75700 48.29400 22.50700
H  5.64800 47.31200 23.72300
H  8.89500 49.01600 31.21400
H  11.76200 48.19000 30.86900
H  10.44500 50.75900 31.16700
H  11.36500 50.75200 29.71600
H  12.15900 50.25400 31.26100
H  10.75200 46.71800 31.87900
H  9.20100 46.08900 31.54200
H  8.55600 47.78700 33.42000
H  10.27200 48.03200 33.66000
H  15.54900 47.67000 26.88900
H  14.93200 48.78900 28.00700
H  15.54700 49.38100 26.41000
H  16.19500 47.41700 24.93300
H  16.09000 49.11800 24.51300
H  16.52200 48.04300 23.21100
H  9.71500 47.28600 21.20500
H  6.98600 48.45200 21.71300
H  10.12400 49.35700 20.16800
H  9.89400 50.19600 21.68200
H  8.48700 49.73900 20.71200
H  7.44700 45.55200 22.10900
H  8.18800 45.96300 20.65200
H  5.35700 45.88000 21.42100
H  6.12600 45.60100 19.77700
H  5.79000 47.28100 20.46300
H  3.78600 47.67100 24.90200
H  3.28700 48.32900 26.44100
H  3.25000 46.60000 26.38000
H  6.33100 48.70700 30.37600
H  6.84500 46.27800 33.73300
H  5.24600 45.97700 33.28600
H  5.49800 47.48100 34.34500

