158

Mg 46.63800 4.22700 46.94300
C  44.55700 6.79600 46.69200
C  43.84400 2.11700 46.49400
C  48.84200 1.69500 46.55500
C  49.29800 6.50200 46.85700
N  44.47400 4.45500 46.59500
C  43.83900 5.65400 46.51600
C  42.44100 5.46500 45.97300
C  42.03400 4.01600 46.55500
C  43.52300 3.44900 46.58900
C  41.31700 3.95700 47.89000
C  42.30200 5.80100 44.52900
C  41.48600 7.06800 44.16500
H  42.00200 8.13000 43.11400
N  46.40600 2.23600 46.49100
C  45.11700 1.54200 46.38600
C  45.47900 0.14900 46.21500
C  46.91000 0.02000 46.19500
C  47.41800 1.37800 46.39200
C  44.41300 -0.91700 46.01800
C  47.68500 -1.28900 45.75500
O  47.09500 -2.33700 45.54900
C  49.21100 -1.36800 45.56900
N  48.77400 4.13700 46.67600
C  49.44400 2.95700 46.71900
C  50.94300 3.16000 46.63300
C  51.16300 4.70500 46.68100
C  49.63100 5.15000 46.71400
C  51.62000 2.40700 47.85100
C  52.03200 5.29100 45.52600
C  53.50500 5.03000 45.44400
N  46.93500 6.29800 46.94200
C  48.01400 7.12800 46.95000
C  47.67200 8.55600 46.96800
C  46.22300 8.45300 46.89800
C  45.89900 7.05100 46.84500
C  48.51800 9.74000 47.21000
C  45.08100 9.22100 46.95300
O  44.88800 10.40800 47.17400
C  43.87100 8.13500 46.68800
C  42.80800 8.24700 47.66700
O  42.74900 7.55700 48.69000
O  41.85100 9.17100 47.27500
C  40.73000 9.22200 48.14400
H  42.90600 1.55800 46.48700
H  49.60200 0.91800 46.45200
H  50.10300 7.22100 47.02500
H  41.81700 6.17100 46.52100
H  41.52700 3.45900 45.76800
H  40.31000 3.65800 47.59800
H  41.14200 4.88700 48.43000
H  41.69700 3.18400 48.55800
H  41.85300 4.88600 44.14200
H  43.30300 5.89500 44.10800
H  41.48200 7.59300 45.12000
H  40.45000 6.77400 43.99900
H  44.71000 -1.65400 45.27300
H  43.46000 -0.54400 45.64200
H  44.13300 -1.41300 46.94800
H  49.73700 -1.18800 46.50600
H  49.50000 -0.58400 44.86900
H  49.63400 -2.34400 45.33000
H  51.26300 2.78700 45.66000
H  51.63300 5.16700 47.55000
H  50.99500 1.81700 48.52200
H  52.15200 3.09000 48.51300
H  52.37200 1.72400 47.45600
H  51.75900 6.34600 45.55400
H  51.61800 4.91600 44.59100
H  53.70900 4.74600 44.41100
H  53.76600 4.25000 46.15900
H  54.12500 5.90400 45.63900
H  48.29200 10.05300 48.22900
H  48.19500 10.55700 46.56500
H  49.58400 9.56900 47.36400
H  43.57000 8.24200 45.64600
H  40.29100 8.22500 48.14000
H  40.02900 9.90600 47.66600
H  41.01600 9.46900 49.16700
Mg 55.33800 24.24500 44.98700
C  52.62100 26.11000 44.05100
C  53.84900 21.44500 43.59800
C  58.19100 22.56300 45.55000
C  56.81400 27.23900 46.27300
N  53.51500 23.83300 43.95700
C  52.58900 24.79100 43.60600
C  51.50900 24.11300 42.73000
C  51.57300 22.62800 43.28300
C  53.07300 22.62000 43.58100
C  50.66800 22.38200 44.48800
C  51.83300 24.18600 41.26300
C  50.68200 24.45000 40.21400
H  50.54600 23.46700 39.05000
N  55.87200 22.26700 44.63700
C  55.15400 21.26200 44.13000
C  55.85700 19.99400 44.20900
C  57.12400 20.30100 44.71300
C  57.10500 21.76000 45.03500
C  55.23800 18.65800 43.80400
C  58.20200 19.18300 44.94800
O  57.87500 17.99300 44.87900
C  59.71000 19.46900 45.38400
N  57.26800 24.87400 45.71100
C  58.29400 23.98900 45.77500
C  59.51100 24.73800 46.23500
C  59.15800 26.25900 46.49300
C  57.69500 26.19600 46.03200
C  60.31500 24.06700 47.37100
C  59.99500 27.33200 45.68400
C  60.40500 28.63000 46.49500
N  54.78400 26.23300 45.35200
C  55.48800 27.32500 45.88800
C  54.57500 28.45000 46.00100
C  53.43400 28.09100 45.24300
C  53.59300 26.71300 44.87600
C  54.87000 29.68300 46.74700
C  52.16400 28.49100 44.65500
O  51.64300 29.59100 44.71600
C  51.59300 27.22600 43.86800
C  51.48900 27.69500 42.45200
O  52.26200 28.44600 41.87900
O  50.25600 27.31900 41.96700
C  49.65200 27.92800 40.80100
H  53.30600 20.53700 43.33000
H  59.08900 21.95600 45.68200
H  57.11300 28.13700 46.81600
H  50.57500 24.57700 43.04600
H  51.26100 21.97700 42.46700
H  50.00100 23.19500 44.77300
H  51.24200 22.14100 45.38300
H  50.10000 21.47400 44.28700
H  52.36400 23.26400 41.02700
H  52.57000 24.98900 41.23000
H  51.06300 25.40200 39.84400
H  49.75500 24.62200 40.76000
H  55.76300 18.20300 42.96400
H  54.16900 18.56200 43.61300
H  55.43200 17.96700 44.62400
H  60.27800 20.18500 44.78900
H  60.22000 18.50900 45.46800
H  59.71700 19.85900 46.40100
H  60.14600 24.75400 45.35000
H  59.26700 26.36700 47.57300
H  59.70900 23.20800 47.66000
H  60.37700 24.77000 48.20100
H  61.27500 23.81800 46.91900
H  59.28400 27.62500 44.91200
H  60.82200 26.81800 45.19500
H  61.30700 29.13700 46.15500
H  60.42100 28.40700 47.56200
H  59.66900 29.43300 46.47200
H  54.11000 30.42100 46.49100
H  55.88400 29.94700 46.44800
H  54.94900 29.38100 47.79100
H  50.66100 26.91600 44.34000
H  50.43000 28.12200 40.06200
H  49.17900 28.87100 41.07600
H  48.89100 27.24400 40.42600

