158

Mg 9.86900 49.22000 26.67300
C  8.25800 49.00200 29.58100
C  12.77500 50.00200 28.22200
C  11.45100 48.95300 23.73100
C  6.94000 48.50700 24.85500
N  10.46300 49.63100 28.66900
C  9.57000 49.36400 29.70900
C  10.32000 49.56000 31.06100
C  11.77100 49.99500 30.61500
C  11.72200 49.86000 29.09400
C  12.10700 51.48400 30.98400
C  10.42700 48.37800 32.01800
C  9.81300 48.50400 33.48400
H  10.76300 48.87300 34.57400
N  11.79200 49.65700 25.94000
C  12.86800 49.87300 26.80400
C  14.08900 49.81300 26.01700
C  13.76600 49.50600 24.64900
C  12.28100 49.32100 24.72600
C  15.44300 50.03200 26.64400
C  14.71400 49.24700 23.40600
O  14.28300 49.03900 22.28700
C  16.17900 49.32500 23.61600
N  9.18600 49.13600 24.43100
C  10.10700 48.86400 23.53200
C  9.56300 48.38300 22.23200
C  8.10200 48.09800 22.61800
C  8.03400 48.68700 24.00100
C  9.67600 49.34500 21.06400
C  7.76500 46.66900 22.70200
C  8.49300 45.79800 23.66500
N  8.00500 48.80300 27.14000
C  6.86000 48.57700 26.32100
C  5.69600 48.35000 27.17700
C  6.20100 48.57800 28.44300
C  7.62200 48.64700 28.37600
C  4.33000 48.04900 26.82700
C  5.80200 48.73800 29.83100
O  4.76500 48.70300 30.42000
C  7.16100 48.85500 30.66500
C  7.32300 47.76400 31.59500
O  7.81800 46.70100 31.29600
O  6.67200 48.11600 32.71500
C  6.44100 47.04600 33.70800
H  13.63400 50.20900 28.86400
H  12.06300 48.56600 22.91400
H  5.99800 48.18000 24.41000
H  9.81300 50.36300 31.59600
H  12.51300 49.31900 31.03900
H  11.28600 52.19100 31.10000
H  12.67200 51.91700 30.15900
H  12.69800 51.56700 31.89500
H  11.48600 48.24700 32.23800
H  10.13900 47.45200 31.52000
H  9.31000 47.56600 33.72100
H  9.03300 49.22400 33.23700
H  15.45700 49.91300 27.72800
H  15.89700 51.02000 26.56500
H  16.09300 49.23500 26.28400
H  16.68500 49.38800 22.65300
H  16.50100 48.42400 24.13900
H  16.37900 50.23400 24.18300
H  10.06100 47.50500 21.82100
H  7.39100 48.70000 22.05100
H  10.56500 49.97600 21.06300
H  8.96900 50.17400 21.10000
H  9.65500 48.78700 20.12800
H  7.92800 46.20100 21.73100
H  6.72700 46.59200 23.02400
H  8.99600 46.37100 24.44400
H  9.26500 45.25400 23.12000
H  7.79000 45.10700 24.13100
H  3.56300 48.59700 27.37500
H  4.24400 46.98000 27.02100
H  4.18000 48.23500 25.76400
H  7.08500 49.71800 31.32600
H  5.35700 46.96000 33.78700
H  6.83500 47.28400 34.69500
H  6.70700 46.03600 33.39400
Mg -3.74100 26.18800 25.69600
C  -2.37300 27.40900 28.60200
C  -5.86300 24.19400 27.41200
C  -4.26600 24.48800 22.81500
C  -1.28200 28.04700 23.85400
N  -4.07300 25.81800 27.76700
C  -3.44400 26.54100 28.81600
C  -3.97500 26.05800 30.20100
C  -5.04000 24.87600 29.72500
C  -4.96600 24.99600 28.18900
C  -4.71700 23.41600 30.25000
C  -4.63300 27.26000 31.00900
C  -5.68500 26.91200 32.13700
H  -5.33200 25.74500 33.06000
N  -5.00200 24.59200 25.21300
C  -5.86500 23.94400 26.01100
C  -6.76300 23.07200 25.22900
C  -6.17000 23.08200 23.88900
C  -5.15600 24.13100 23.94800
C  -7.82400 22.31500 25.87300
C  -6.43400 22.20400 22.70100
O  -5.78300 22.21600 21.63600
C  -7.58000 21.22500 22.70600
N  -2.85800 26.25200 23.59900
C  -3.20600 25.39300 22.66500
C  -2.49300 25.53000 21.26000
C  -1.57000 26.68600 21.65700
C  -1.96400 27.12400 23.08900
C  -1.84700 24.19000 20.73900
C  -1.51200 27.86100 20.62700
C  -0.13700 28.47200 20.58300
N  -2.33100 27.63600 26.05400
C  -1.41600 28.33400 25.24400
C  -0.71300 29.32000 26.08600
C  -0.96600 28.84000 27.38200
C  -1.95700 27.89200 27.30100
C  0.21800 30.25700 25.61700
C  -0.56600 29.01900 28.77100
O  0.32100 29.72300 29.22400
C  -1.46200 28.12400 29.64100
C  -0.62400 27.33300 30.55000
O  0.17900 26.46700 30.27200
O  -0.83700 27.73200 31.79400
C  -0.27400 26.89800 32.79800
H  -6.52200 23.55300 28.00100
H  -4.52600 24.00000 21.87200
H  -0.52100 28.47300 23.19700
H  -3.20300 25.57100 30.79700
H  -6.07400 25.08700 29.99500
H  -3.65900 23.29700 30.48200
H  -4.91800 22.70500 29.44900
H  -5.27800 23.06800 31.11700
H  -4.81400 28.01300 30.24300
H  -3.78600 27.57700 31.61800
H  -6.61700 26.69500 31.61500
H  -5.91200 27.76900 32.77200
H  -8.62100 22.15000 25.14800
H  -8.20000 22.78000 26.78400
H  -7.41500 21.33300 26.11200
H  -7.46500 20.76700 23.68800
H  -7.47200 20.45600 21.94200
H  -8.58500 21.59100 22.49400
H  -3.28900 25.78200 20.55900
H  -0.57200 26.26600 21.78800
H  -2.48500 23.67500 20.02200
H  -1.47000 23.62000 21.58800
H  -0.96500 24.57100 20.22300
H  -2.13400 28.69400 20.95700
H  -1.80000 27.70000 19.58800
H  -0.09100 28.85800 19.56400
H  0.58600 27.68000 20.77900
H  -0.10000 29.32300 21.26300
H  -0.15600 30.62400 24.66100
H  1.28100 30.02100 25.66300
H  0.20500 31.15900 26.22900
H  -2.13800 28.71500 30.25900
H  0.73100 27.29600 32.94000
H  -0.29400 25.83100 32.57700
H  -0.91300 27.08900 33.66000

