158

Mg 9.51500 4.57700 28.17300
C  10.85800 3.20200 31.07800
C  7.54600 6.64400 30.08500
C  8.25800 5.81600 25.40100
C  11.22200 2.05000 26.38600
N  9.25200 4.85400 30.34200
C  9.96100 4.25700 31.33500
C  9.61200 4.85300 32.69000
C  8.44300 5.92300 32.37400
C  8.39500 5.85500 30.85100
C  7.07400 5.58100 33.00400
C  10.91400 5.43500 33.38400
C  11.52700 4.70900 34.60300
H  11.86200 5.59700 35.80900
N  8.03900 6.07100 27.76900
C  7.48200 6.82800 28.68900
C  6.81100 7.97500 27.99900
C  6.94900 7.73400 26.58900
C  7.80100 6.49800 26.53300
C  5.89600 8.96800 28.68200
C  6.35200 8.35300 25.38800
O  6.48100 7.88400 24.25500
C  5.62100 9.63400 25.50100
N  9.72500 4.00300 26.19100
C  9.06000 4.71600 25.24400
C  9.47100 4.21500 23.81800
C  10.27100 2.87700 24.10300
C  10.44100 2.99500 25.63400
C  8.38000 3.97900 22.77600
C  11.58700 2.75400 23.29000
C  11.69100 1.68300 22.24300
N  10.66900 2.92300 28.60300
C  11.29400 1.98100 27.79800
C  12.09100 1.08800 28.61000
C  11.95100 1.51400 29.94000
C  11.07300 2.62300 29.81500
C  12.88300 -0.02700 28.07300
C  12.29500 1.30800 31.25400
O  12.98800 0.40300 31.68900
C  11.52700 2.30700 32.09300
C  10.55800 1.59600 32.98500
O  9.36500 1.38200 32.75500
O  11.18400 1.20000 34.16400
C  10.36900 0.47600 35.12200
H  6.90700 7.25900 30.72100
H  8.06200 6.36100 24.47500
H  11.72000 1.29300 25.77600
H  9.34900 3.99900 33.31300
H  8.80000 6.84900 32.82400
H  6.83800 6.37200 33.71600
H  7.13200 4.64800 33.56400
H  6.34600 5.51200 32.19500
H  10.54700 6.34900 33.85200
H  11.67300 5.69000 32.64400
H  12.42500 4.17200 34.29900
H  10.86400 3.91100 34.93700
H  6.27600 9.98400 28.58200
H  5.83600 8.66400 29.72700
H  4.90700 8.98000 28.22400
H  4.70000 9.33400 26.00200
H  5.46400 10.07300 24.51600
H  6.32900 10.21100 26.09500
H  10.13300 4.96100 23.37900
H  9.60800 2.01500 24.02700
H  7.47500 4.42200 23.19000
H  8.29600 2.91600 22.55100
H  8.64600 4.51000 21.86200
H  12.48200 2.65400 23.90400
H  11.81000 3.71600 22.82800
H  10.67700 1.42100 21.94300
H  12.18900 0.84700 22.73300
H  12.24000 2.16600 21.43500
H  13.39100 0.48300 27.25500
H  12.21100 -0.85300 27.84200
H  13.57100 -0.33800 28.85800
H  12.20900 2.80800 32.78000
H  10.36500 1.03300 36.05900
H  10.81200 -0.43500 35.52600
H  9.36500 0.17600 34.82200
Mg 48.96800 44.80100 43.01200
C  45.75700 45.69000 41.96300
C  48.58900 41.82700 41.53700
C  52.33900 44.55600 43.19800
C  49.39600 48.19700 44.02700
N  47.31100 43.91500 41.98200
C  46.12800 44.38500 41.59500
C  45.24300 43.35500 40.80000
C  46.12500 42.09400 40.93500
C  47.41000 42.60900 41.55800
C  45.42500 40.91900 41.66500
C  44.91300 43.75200 39.34700
C  43.51900 43.33800 38.81700
H  43.43100 42.09500 37.88900
N  50.23700 43.30500 42.65900
C  49.87300 42.07300 42.06200
C  51.04900 41.30000 41.81800
C  52.18100 42.13600 42.13600
C  51.61900 43.36900 42.76800
C  50.97200 39.84600 41.28400
C  53.63400 41.79500 41.77200
O  54.00400 40.68700 41.35700
C  54.73300 42.83400 42.03000
N  50.71700 46.30700 43.46800
C  51.99800 45.86600 43.51900
C  52.90500 46.91600 44.03600
C  51.91400 48.05700 44.39600
C  50.58000 47.51200 43.96900
C  54.01000 46.54200 45.11000
C  52.21400 49.49700 43.99300
C  52.78000 50.44200 45.08300
N  47.78100 46.60100 43.21100
C  48.06600 47.80000 43.72000
C  46.85100 48.58000 43.79200
C  45.89800 47.77900 43.11500
C  46.58200 46.58400 42.75000
C  46.78600 50.00200 44.14600
C  44.49400 47.74700 42.55800
O  43.55300 48.54400 42.59500
C  44.53100 46.45300 41.65900
C  43.29500 45.65300 41.93100
O  42.48200 45.28300 41.13500
O  43.14000 45.46300 43.26500
C  41.85500 44.89000 43.76900
H  48.36900 40.81700 41.18300
H  53.41800 44.42700 43.30200
H  49.48700 49.19200 44.46700
H  44.31500 43.12500 41.32400
H  46.38700 41.68300 39.96000
H  44.37900 40.96400 41.96800
H  45.90000 40.74200 42.63000
H  45.59100 40.03300 41.05200
H  45.59300 43.25800 38.65300
H  44.96000 44.83900 39.28000
H  42.97800 44.10500 38.26400
H  42.93600 43.03800 39.68800
H  51.12000 39.78300 40.20600
H  50.02800 39.34700 41.50500
H  51.64200 39.12400 41.74900
H  54.47400 43.78100 41.55500
H  55.60800 42.48400 41.48200
H  54.82400 42.82600 43.11600
H  53.49400 47.16800 43.15400
H  51.84200 48.06400 45.48400
H  53.81200 45.56300 45.54500
H  53.92100 47.10400 46.04000
H  55.06000 46.50300 44.82100
H  51.33900 49.95400 43.52900
H  52.86400 49.39200 43.12400
H  52.10300 51.28400 45.23200
H  53.75900 50.75200 44.71700
H  53.02100 50.03300 46.06400
H  45.73300 50.28300 44.13700
H  47.15200 50.61300 43.32100
H  47.25500 50.20100 45.11000
H  44.42000 46.79000 40.62800
H  41.74600 45.24100 44.79500
H  41.76200 43.81400 43.62700
H  41.05100 45.30900 43.16300

