158

Mg 47.68100 16.70100 29.02900
C  45.25600 16.39000 31.74300
C  49.59500 18.69100 31.01500
C  49.54000 17.31000 26.40600
C  45.10100 15.31700 26.97500
N  47.39300 17.35400 31.13500
C  46.42900 17.07800 32.11000
C  46.86900 17.55800 33.50200
C  48.12000 18.39600 33.15200
C  48.43400 18.15600 31.61600
C  47.93800 19.90500 33.45600
C  47.00700 16.36200 34.55300
C  46.19300 16.48300 35.86800
H  46.08200 17.82400 36.56000
N  49.41000 17.75100 28.79100
C  50.04400 18.50300 29.69500
C  51.22300 19.07900 29.08100
C  51.30300 18.58600 27.79700
C  50.06000 17.78900 27.61000
C  52.16900 19.94700 29.78300
C  52.33600 18.94300 26.65000
O  52.17200 18.46000 25.57500
C  53.50400 19.89800 26.90300
N  47.36700 16.13300 27.06200
C  48.28300 16.58500 26.19000
C  47.77600 16.45000 24.76200
C  46.48200 15.62600 24.88000
C  46.27200 15.68000 26.36400
C  47.57900 17.81700 23.92700
C  46.60000 14.15900 24.36200
C  45.94200 13.88000 23.02600
N  45.68400 15.86700 29.26000
C  44.80200 15.37300 28.31300
C  43.53100 15.04300 28.90600
C  43.74000 15.31700 30.23800
C  45.02500 15.88100 30.41800
C  42.50500 14.22200 28.20800
C  43.10600 15.28300 31.51700
O  41.98200 14.89300 31.82500
C  44.11200 15.89700 32.60400
C  43.44500 17.04300 33.21400
O  43.48400 18.14800 32.78700
O  42.77800 16.68700 34.34900
C  42.07400 17.78100 34.98600
H  50.12900 19.31400 31.73500
H  50.19600 17.27400 25.53300
H  44.23500 15.20300 26.32000
H  46.02000 18.17000 33.80700
H  48.94500 18.08900 33.79400
H  47.06100 20.12700 34.06400
H  47.79500 20.45600 32.52600
H  48.77900 20.35800 33.98000
H  48.05600 16.30100 34.84000
H  46.61700 15.46400 34.07300
H  46.83100 15.89500 36.52700
H  45.20100 16.03300 35.89200
H  53.17100 19.52200 29.72000
H  51.96300 20.11100 30.84100
H  52.13400 20.95300 29.36400
H  54.10100 20.02800 26.00100
H  54.23500 19.45000 27.57600
H  53.25200 20.88100 27.30300
H  48.57400 15.83700 24.34300
H  45.59200 16.05800 24.42200
H  46.53700 17.79700 23.60800
H  48.35500 17.83900 23.16200
H  47.85500 18.75900 24.40100
H  46.10700 13.49400 25.07100
H  47.63400 13.81600 24.37700
H  45.04300 13.28100 23.17100
H  46.57400 13.22000 22.43100
H  45.87700 14.78800 22.42700
H  42.79800 13.19400 27.99600
H  42.11200 14.59400 27.26200
H  41.67200 14.10800 28.90200
H  44.34400 15.19600 33.40500
H  41.43200 18.18800 34.20400
H  42.74600 18.46400 35.50500
H  41.50300 17.33500 35.80100
Mg 43.37300 41.30800 26.27800
C  42.59500 43.84200 28.60500
C  44.31200 39.36600 28.95300
C  44.19100 39.08000 23.97700
C  42.80100 43.60900 23.69200
N  43.45200 41.64000 28.58400
C  43.10700 42.68900 29.26300
C  43.24400 42.50500 30.77500
C  44.03400 41.12700 30.83400
C  43.88300 40.65800 29.35900
C  45.47000 41.14500 31.34100
C  41.82400 42.33300 31.45100
C  41.69300 41.99800 32.94200
H  41.29000 43.10500 33.89500
N  44.10300 39.49800 26.46300
C  44.35900 38.81700 27.66200
C  44.66000 37.45500 27.35100
C  44.72500 37.31600 25.91100
C  44.39100 38.68700 25.34900
C  45.03200 36.36200 28.43000
C  45.01900 36.00700 25.01200
O  44.94200 36.09000 23.79100
C  45.23500 34.79800 25.72900
N  43.54700 41.42100 24.16100
C  43.87100 40.28200 23.45400
C  43.80000 40.48400 21.84300
C  42.96200 41.79000 21.88300
C  43.08700 42.33600 23.32200
C  45.16600 40.67200 21.27700
C  41.65000 41.55700 21.20100
C  41.37100 42.27900 19.88400
N  42.81800 43.34000 26.11800
C  42.70600 44.16900 25.01400
C  42.12400 45.43900 25.43100
C  42.11400 45.35700 26.81000
C  42.57600 44.04800 27.18400
C  41.90900 46.60500 24.52800
C  41.74700 46.05400 28.04700
O  41.30800 47.24900 28.17300
C  42.03400 45.09200 29.27000
C  43.08400 45.74800 30.07300
O  44.27400 45.82700 29.80800
O  42.44800 46.36400 31.18800
C  43.36300 47.09200 32.03800
H  44.62000 38.66700 29.73300
H  44.38100 38.25200 23.29100
H  42.40000 44.32500 22.97100
H  43.82300 43.27200 31.28800
H  43.49700 40.36000 31.39100
H  46.14700 40.83700 30.54400
H  45.64200 40.55800 32.24300
H  45.62400 42.20400 31.54800
H  41.24100 41.60800 30.88300
H  41.37800 43.30200 31.23000
H  42.69400 41.90300 33.36400
H  41.03900 41.12800 33.00600
H  44.87200 36.65600 29.46700
H  46.08700 36.12200 28.30000
H  44.39300 35.48500 28.33200
H  44.36100 34.56800 26.33800
H  46.16200 35.00700 26.26100
H  45.42400 33.98900 25.02200
H  43.28800 39.64500 21.37200
H  43.53600 42.45500 21.23900
H  45.33400 41.66200 20.85400
H  45.31400 39.94600 20.47700
H  45.82600 40.53900 22.13400
H  40.88300 41.87000 21.91000
H  41.32400 40.54900 20.94400
H  40.69500 41.78200 19.18900
H  42.26700 42.28700 19.26200
H  40.90600 43.23200 20.13700
H  42.77300 46.91500 23.94000
H  41.50300 47.43300 25.10800
H  41.10300 46.26600 23.87700
H  41.16600 45.07600 29.92900
H  43.10800 48.13400 31.85000
H  44.44600 47.11100 31.91700
H  43.27400 46.88300 33.10400

