158

Mg 16.53600 -2.69000 28.20200
C  15.47300 -0.45500 30.77700
C  18.18000 -4.56900 30.46200
C  18.21300 -4.25400 25.62200
C  15.02700 -0.50500 25.87300
N  16.79100 -2.41400 30.34400
C  16.17600 -1.56800 31.24400
C  16.41000 -1.99900 32.68700
C  17.39100 -3.19200 32.52500
C  17.45700 -3.47300 30.98700
C  18.80000 -3.07100 33.09700
C  15.12900 -2.26900 33.51000
C  14.97800 -1.89300 34.98600
H  16.19600 -1.30700 35.63300
N  17.97700 -4.24400 28.06100
C  18.47900 -4.92800 29.11300
C  19.25300 -6.08000 28.60700
C  19.42300 -5.91100 27.17400
C  18.54000 -4.75500 26.91400
C  19.83400 -7.09900 29.50500
C  20.06500 -6.83800 26.14500
O  19.88900 -6.81100 24.91700
C  21.05500 -7.83100 26.60200
N  16.70400 -2.35000 26.07800
C  17.34300 -3.24100 25.23900
C  17.14500 -2.83100 23.77200
C  16.11400 -1.65900 23.88300
C  15.86500 -1.56400 25.39300
C  18.51000 -2.60500 23.06200
C  14.80000 -1.88200 23.11400
C  14.62200 -1.08400 21.86900
N  15.50400 -0.90600 28.26500
C  14.91200 -0.19100 27.20500
C  14.40400 1.06800 27.73500
C  14.51800 0.99500 29.14300
C  15.20700 -0.25800 29.40900
C  13.75100 2.12700 26.91200
C  14.23100 1.62200 30.37400
O  13.48700 2.59700 30.63100
C  14.91500 0.75200 31.47600
C  15.95800 1.57700 32.16000
O  16.98400 1.93300 31.58700
O  15.59500 1.94500 33.40300
C  16.53300 2.91600 34.07100
H  18.68000 -5.14900 31.24100
H  18.75400 -4.70300 24.78700
H  14.43000 0.14900 25.23400
H  16.92500 -1.15800 33.15200
H  16.99100 -4.10400 32.96800
H  18.77300 -2.31100 33.87700
H  19.59100 -2.94800 32.35600
H  19.06400 -3.99500 33.61300
H  14.93200 -3.32900 33.35200
H  14.38400 -1.67800 32.97800
H  14.72800 -2.84000 35.46500
H  14.09800 -1.26300 35.11900
H  19.52200 -8.03800 29.04900
H  19.58400 -6.93400 30.55300
H  20.92200 -7.02500 29.50700
H  21.45800 -7.47700 27.55100
H  21.79300 -8.09000 25.84300
H  20.45500 -8.70200 26.86900
H  16.65100 -3.67100 23.28400
H  16.58900 -0.75100 23.51200
H  19.21100 -2.60800 23.89700
H  18.46800 -1.66300 22.51500
H  18.66600 -3.46200 22.40700
H  13.94900 -1.59500 23.73200
H  14.62700 -2.91400 22.80600
H  13.92400 -0.24700 21.85000
H  14.35600 -1.79100 21.08300
H  15.52400 -0.51800 21.63600
H  12.78400 1.81600 26.51600
H  14.27900 2.30600 25.97500
H  13.68700 3.02900 27.52100
H  14.03400 0.50600 32.06900
H  16.08600 3.41500 34.93100
H  16.77100 3.73200 33.38900
H  17.42200 2.41000 34.44900
Mg 47.95900 34.91300 27.41200
C  46.51900 33.23500 30.19100
C  48.39600 37.60100 29.30900
C  49.00900 36.51800 24.71700
C  47.21400 32.07000 25.51700
N  47.35600 35.41200 29.49100
C  47.01200 34.51200 30.47500
C  47.21400 35.19500 31.84100
C  47.40700 36.71100 31.44400
C  47.76300 36.58100 29.96400
C  46.14300 37.55000 31.75800
C  48.49500 34.54300 32.44300
C  48.52300 34.47100 33.91500
H  47.66000 35.34100 34.90400
N  48.66900 36.80100 27.05400
C  48.76900 37.76800 27.99400
C  49.30100 38.93000 27.44800
C  49.59000 38.68400 26.08400
C  49.08300 37.28700 25.91800
C  49.49000 40.16200 28.22000
C  50.20000 39.53500 25.00600
O  50.32400 39.20600 23.78500
C  50.65900 40.90700 25.36700
N  48.05700 34.35200 25.34400
C  48.56100 35.22000 24.46100
C  48.65400 34.55000 23.07000
C  48.05500 33.17600 23.34100
C  47.82800 33.11900 24.85600
C  48.10300 35.28400 21.86100
C  48.86600 31.96700 22.76800
C  48.21600 30.89900 21.91100
N  47.04300 33.14700 27.70200
C  46.74800 32.08800 26.83000
C  46.14300 30.95800 27.50400
C  46.00600 31.45500 28.81200
C  46.57000 32.71100 28.86600
C  45.73600 29.61700 27.00600
C  45.41600 31.04100 30.11100
O  44.88700 30.03500 30.44800
C  45.80800 32.21400 31.08800
C  46.53400 31.65100 32.24100
O  47.69900 31.34800 32.24300
O  45.67800 31.50700 33.31100
C  46.11800 31.02200 34.59500
H  48.57000 38.49100 29.91600
H  49.57400 37.02900 23.93400
H  47.10700 31.18000 24.89400
H  46.35200 34.99900 32.47800
H  48.26300 37.16600 31.94300
H  46.36100 38.22400 32.58700
H  45.21000 37.04300 32.00600
H  45.97000 38.17600 30.88300
H  49.39400 35.09600 32.16900
H  48.75100 33.53900 32.10600
H  49.54900 34.69700 34.20400
H  48.37200 33.41500 34.13900
H  50.23600 39.93900 28.98400
H  48.54300 40.45000 28.67600
H  49.83500 41.05300 27.69600
H  51.41200 40.97300 26.15300
H  49.73400 41.40800 25.65400
H  51.14500 41.33200 24.48900
H  49.68800 34.35900 22.78300
H  47.05800 33.05300 22.92000
H  48.87600 35.44500 21.11000
H  47.59300 36.19800 22.16400
H  47.42500 34.59600 21.35700
H  49.10600 31.56000 23.75100
H  49.74400 32.36000 22.25400
H  48.01300 29.96400 22.43300
H  48.78700 30.77600 20.99100
H  47.21100 31.22000 21.63600
H  46.10100 29.44500 25.99400
H  44.67000 29.48900 27.19500
H  46.11500 28.82300 27.65000
H  44.90700 32.65500 31.51400
H  45.41700 30.27100 34.96000
H  46.18500 31.77200 35.38200
H  47.12400 30.61300 34.50300

