158

Mg -2.41700 17.03200 25.43900
C  -2.65100 14.67900 28.15400
C  -3.06400 19.53600 27.67400
C  -2.47400 19.15200 22.85300
C  -2.17000 14.30300 23.24000
N  -2.76300 17.03100 27.71300
C  -2.72400 16.00900 28.58100
C  -3.08100 16.50500 29.99400
C  -3.21600 18.08400 29.79200
C  -2.94700 18.25600 28.28800
C  -4.64500 18.68400 30.23500
C  -2.00900 16.08300 31.02400
C  -1.98200 16.78500 32.38700
H  -1.36200 16.10700 33.61400
N  -2.54200 19.10700 25.31300
C  -2.73800 19.95500 26.36300
C  -2.70800 21.27900 25.81200
C  -2.42900 21.19600 24.47400
C  -2.41600 19.82100 24.14000
C  -3.07700 22.41700 26.71900
C  -2.29200 22.37300 23.57400
O  -2.38500 22.24700 22.37600
C  -1.94100 23.79700 24.16800
N  -2.68600 16.79200 23.37800
C  -2.58600 17.83700 22.49500
C  -2.53300 17.35500 21.03600
C  -2.09600 15.84400 21.18600
C  -2.34000 15.60800 22.70700
C  -3.75000 17.66200 20.20100
C  -0.63900 15.46700 20.75900
C  0.44300 15.66000 21.89100
N  -2.39500 14.92100 25.55200
C  -2.27000 13.91600 24.56700
C  -2.37400 12.62400 25.11100
C  -2.48800 12.86200 26.54100
C  -2.49700 14.28700 26.72700
C  -2.37800 11.30200 24.44000
C  -2.56000 12.26600 27.86000
O  -2.50300 11.08100 28.10500
C  -2.63900 13.36000 28.93900
C  -1.40400 13.21700 29.79500
O  -0.27900 13.64500 29.62000
O  -1.81100 12.61400 30.97000
C  -0.80300 12.53600 32.03900
H  -3.35600 20.37800 28.30500
H  -2.47400 19.80300 21.97700
H  -2.15700 13.46000 22.54600
H  -4.03800 16.04700 30.24700
H  -2.40700 18.59100 30.31700
H  -5.29200 19.01100 29.42000
H  -4.30400 19.58600 30.74300
H  -5.19500 18.05300 30.93300
H  -1.00500 16.17400 30.60900
H  -2.31000 15.05700 31.23400
H  -3.02400 17.06900 32.53300
H  -1.33500 17.65200 32.25000
H  -2.17900 22.82300 27.18600
H  -3.79400 22.06000 27.45900
H  -3.57200 23.23200 26.19200
H  -1.45800 24.34400 23.35800
H  -1.20200 23.61600 24.94800
H  -2.77300 24.30100 24.66100
H  -1.74400 17.91800 20.53700
H  -2.73100 15.19700 20.58000
H  -4.48900 18.18500 20.80800
H  -4.22200 16.79400 19.74000
H  -3.44800 18.31900 19.38600
H  -0.37300 16.20500 20.00300
H  -0.55100 14.42300 20.45800
H  -0.03500 16.29300 22.63900
H  1.31700 16.18300 21.50400
H  0.78700 14.70500 22.29000
H  -2.10200 11.45800 23.39700
H  -3.40900 10.95400 24.49200
H  -1.72900 10.57700 24.93100
H  -3.61700 13.27600 29.41400
H  0.01100 13.24200 31.87300
H  -0.42400 11.51500 32.00700
H  -1.25000 12.77300 33.00400
Mg 30.08700 58.90000 38.33700
C  27.44900 56.79600 37.35700
C  32.32900 56.40900 37.79300
C  32.55100 61.18300 38.35300
C  27.70600 61.56100 38.38300
N  29.85900 56.84800 37.57200
C  28.74700 56.17200 37.16900
C  29.04700 54.71600 36.96300
C  30.50400 54.57500 37.59900
C  30.94400 56.02500 37.65600
C  30.70900 53.72100 38.90000
C  28.95000 54.41300 35.42400
C  27.67200 53.65700 34.97400
H  26.78400 54.31100 33.91100
N  32.08600 58.80100 38.11200
C  32.89700 57.67800 37.93100
C  34.34100 58.05200 37.88900
C  34.40500 59.43100 38.12600
C  32.98900 59.87300 38.19900
C  35.41500 57.01800 37.64400
C  35.64400 60.28400 38.25900
O  36.76600 59.77200 38.09100
C  35.64400 61.76100 38.67300
N  30.10100 61.15500 38.17300
C  31.29100 61.81500 38.39500
C  30.98700 63.37700 38.37200
C  29.47300 63.49000 38.46400
C  29.05700 61.97200 38.33400
C  31.89600 64.14600 39.35500
C  28.87800 64.44500 37.42900
C  27.83200 65.45900 37.96400
N  28.03400 59.20200 37.98100
C  27.24300 60.29300 38.12200
C  25.80800 59.93500 38.06200
C  25.84100 58.56300 37.70300
C  27.19600 58.18700 37.67900
C  24.63300 60.80000 38.40100
C  25.03800 57.34400 37.51700
O  23.85500 57.08800 37.54100
C  26.04500 56.22600 37.10200
C  25.72700 54.92300 37.74800
O  26.04100 54.57800 38.89300
O  24.80500 54.34800 36.99800
C  23.97800 53.23900 37.67200
H  33.10600 55.64500 37.86100
H  33.21000 62.04400 38.48900
H  26.98200 62.37200 38.48100
H  28.33400 54.08900 37.49900
H  31.19800 54.15900 36.86900
H  29.76700 53.20000 39.07200
H  30.99800 54.15000 39.85900
H  31.44300 52.97200 38.60400
H  29.79100 53.77600 35.15200
H  29.06600 55.34500 34.87200
H  26.99100 53.29500 35.74400
H  28.04800 52.77300 34.45900
H  35.53700 56.89500 36.56700
H  35.12400 56.14900 38.23400
H  36.31900 57.35700 38.14900
H  36.67700 62.09700 38.76500
H  35.14700 61.75400 39.64400
H  35.08300 62.34900 37.94800
H  31.33800 63.65800 37.37900
H  29.30400 63.87100 39.47200
H  31.32200 64.77700 40.03300
H  32.53400 64.81500 38.77800
H  32.52600 63.50100 39.96700
H  28.32600 63.83200 36.71600
H  29.63500 64.90000 36.79100
H  26.82900 65.07300 37.78100
H  28.09400 66.45600 37.60900
H  28.00900 65.46100 39.04000
H  23.95800 60.33300 39.11700
H  24.20500 60.77200 37.39900
H  24.89000 61.81800 38.69400
H  25.80900 56.03300 36.05500
H  23.00700 53.07700 37.20500
H  23.87600 53.30200 38.75600
H  24.52500 52.30100 37.56900

