158

Mg 25.45200 -6.79000 48.28600
C  26.65200 -3.97300 46.56700
C  22.64700 -6.64500 46.38500
C  24.53600 -9.72900 49.72100
C  28.51800 -6.94100 50.00400
N  24.90600 -5.59100 46.51900
C  25.46400 -4.49200 46.01500
C  24.72700 -3.89500 44.88000
C  23.35900 -4.65300 44.92500
C  23.62500 -5.64100 46.03800
C  22.08000 -3.79100 45.11600
C  25.48600 -4.04000 43.50800
C  25.78200 -2.73600 42.75500
H  24.91500 -2.43100 41.50800
N  23.68400 -8.00300 48.17000
C  22.61800 -7.71300 47.34800
C  21.69200 -8.77400 47.56700
C  22.27700 -9.73700 48.44400
C  23.57200 -9.22200 48.78800
C  20.34200 -8.94300 46.90200
C  21.58100 -10.98000 48.90500
O  20.43700 -11.29200 48.49600
C  22.29300 -11.91700 49.85300
N  26.53800 -8.33900 49.39800
C  25.88500 -9.32200 50.03100
C  26.77600 -10.04300 51.01100
C  28.03800 -9.13600 51.11800
C  27.69600 -8.08500 50.09300
C  26.08400 -10.50200 52.32800
C  29.51000 -9.69900 50.83800
C  30.47500 -9.87800 51.94500
N  27.28700 -5.75100 48.29200
C  28.43300 -5.85200 49.06900
C  29.34600 -4.77700 48.77500
C  28.70800 -4.01000 47.77800
C  27.46300 -4.63100 47.58600
C  30.62600 -4.54300 49.43400
C  28.74100 -2.79100 47.08300
O  29.58300 -1.95200 47.09500
C  27.44900 -2.76800 46.14000
C  26.83000 -1.37600 46.33000
O  27.23800 -0.35200 45.80500
O  25.72700 -1.46200 47.12000
C  24.94400 -0.26400 47.41400
H  21.72900 -6.64900 45.79300
H  24.20300 -10.58300 50.31500
H  29.35600 -6.89800 50.70300
H  24.51800 -2.87700 45.21000
H  23.22900 -5.22000 44.00300
H  21.54500 -3.69500 44.17100
H  22.32700 -2.73800 45.25100
H  21.43200 -4.14000 45.92000
H  25.08900 -4.65400 42.70000
H  26.45800 -4.49500 43.69900
H  26.83100 -2.71500 42.45800
H  25.62000 -1.93500 43.47700
H  20.36900 -8.29900 46.02300
H  19.44800 -8.70100 47.47800
H  20.31500 -9.92700 46.43400
H  23.20800 -12.35900 49.46000
H  21.55100 -12.66700 50.12800
H  22.44500 -11.36800 50.78200
H  26.98700 -10.84600 50.30500
H  28.09500 -8.71900 52.12400
H  25.16900 -9.92100 52.44200
H  26.70500 -10.43400 53.22100
H  25.86000 -11.56800 52.27300
H  30.09400 -9.21200 50.05600
H  29.31700 -10.74000 50.57900
H  31.37500 -9.29700 51.74500
H  30.77600 -10.87700 52.25900
H  30.04800 -9.36100 52.80400
H  30.69600 -4.89700 50.46200
H  30.48500 -3.47900 49.62200
H  31.53100 -4.84900 48.91000
H  27.79700 -2.82600 45.10900
H  25.49900 0.64500 47.17900
H  24.58900 -0.28700 48.44400
H  24.05200 -0.16800 46.79500
Mg 8.63300 47.59200 27.52100
C  7.06900 47.44900 30.60300
C  11.62000 48.12100 29.01500
C  10.08700 48.37000 24.44900
C  5.56200 47.83200 26.05600
N  9.21700 47.97400 29.61600
C  8.46900 47.67200 30.70700
C  9.30900 47.64900 32.02300
C  10.66600 48.10500 31.41200
C  10.54300 48.02600 29.90300
C  11.08700 49.52400 31.85300
C  9.43200 46.19700 32.70200
C  8.99500 45.96000 34.13100
H  10.01900 45.31500 35.07100
N  10.56900 48.01100 26.80800
C  11.68400 48.16800 27.61100
C  12.88900 48.42600 26.75700
C  12.45300 48.53200 25.45900
C  11.00200 48.25500 25.48800
C  14.24200 48.69400 27.35200
C  13.25000 48.96900 24.16500
O  12.76500 48.78900 23.04100
C  14.67000 49.45500 24.29000
N  7.94400 47.94600 25.50300
C  8.69300 48.26100 24.40600
C  7.85800 48.65600 23.15700
C  6.47600 48.29800 23.74900
C  6.63400 47.85100 25.17300
C  7.88100 50.18100 22.72000
C  5.82900 47.12500 22.90300
C  5.65000 47.45500 21.44300
N  6.64500 47.39400 28.10400
C  5.49000 47.56200 27.44000
C  4.25100 47.47000 28.24300
C  4.85500 47.41400 29.55700
C  6.27500 47.36500 29.42100
C  2.83700 47.45400 27.88800
C  4.59600 47.29200 30.98400
O  3.53900 47.18900 31.60600
C  6.02900 47.30100 31.77200
C  6.09700 46.06300 32.45900
O  6.40000 45.00900 31.95700
O  5.56700 46.09600 33.73400
C  5.15900 44.82000 34.31500
H  12.59500 48.10700 29.50700
H  10.48200 48.73500 23.49900
H  4.57100 47.95700 25.61500
H  8.89800 48.38900 32.71000
H  11.56900 47.57300 31.71200
H  10.79000 50.25300 31.09900
H  12.15600 49.60100 32.05100
H  10.59500 49.63100 32.82000
H  10.47300 45.88200 32.63600
H  8.90300 45.47200 32.08300
H  8.16500 45.25400 34.15600
H  8.77200 46.87700 34.67600
H  14.96400 47.97000 26.97600
H  14.37100 48.51000 28.41900
H  14.58600 49.70100 27.11600
H  14.61200 50.47600 24.66700
H  15.06200 49.54400 23.27700
H  15.35000 48.91000 24.94400
H  8.26400 47.96500 22.41800
H  5.83500 49.16600 23.59300
H  7.77300 50.41700 21.66100
H  8.88100 50.44500 23.06600
H  7.16600 50.83500 23.21700
H  4.85500 46.96100 23.36300
H  6.43000 46.22000 22.99500
H  5.94600 46.62200 20.80600
H  6.14700 48.39900 21.21700
H  4.58400 47.64500 21.32300
H  2.24400 47.27800 28.78600
H  2.60600 46.84500 27.01400
H  2.51700 48.48500 27.73900
H  6.09700 48.11900 32.49000
H  6.01400 44.15200 34.20600
H  4.32000 44.39100 33.76700
H  5.04000 44.95200 35.39000

