158

Mg 25.76200 0.04500 28.99100
C  27.65600 -0.51200 32.00600
C  23.15800 0.89500 31.03200
C  23.92400 0.24300 26.33700
C  28.53800 -0.90000 27.15400
N  25.43600 0.05000 31.31400
C  26.37600 -0.09800 32.23300
C  25.83800 0.20800 33.58100
C  24.30700 0.41600 33.32400
C  24.27600 0.49200 31.80000
C  23.30900 -0.70200 33.89000
C  26.53900 1.49200 34.28700
C  27.01500 1.26700 35.71400
H  26.70100 2.39600 36.70100
N  23.78400 0.51800 28.76700
C  22.85600 0.83000 29.68300
C  21.55000 1.04600 29.04200
C  21.78100 0.78400 27.65900
C  23.26800 0.54100 27.53100
C  20.30600 1.35600 29.86300
C  20.75400 0.89300 26.49600
O  21.06900 0.78900 25.28000
C  19.30500 0.97300 26.90100
N  26.17400 -0.45300 27.03400
C  25.26600 -0.10600 26.07200
C  25.82400 -0.25100 24.63100
C  27.32200 -0.50800 24.86200
C  27.34600 -0.66100 26.44300
C  25.09000 -1.32300 23.81100
C  28.34200 0.48900 24.31300
C  28.64400 1.66700 25.25200
N  27.69300 -0.56700 29.41500
C  28.70900 -0.97500 28.55800
C  29.89400 -1.26100 29.34700
C  29.48000 -1.11200 30.67300
C  28.15100 -0.68700 30.71900
C  31.21600 -1.67400 28.83300
C  30.01400 -1.19500 32.03300
O  31.11000 -1.57300 32.47200
C  28.83700 -0.67600 32.95000
C  28.58900 -1.80400 33.84300
O  28.01400 -2.82900 33.62500
O  29.20600 -1.47100 35.04300
C  28.98700 -2.44400 36.19100
H  22.36700 1.40200 31.58700
H  23.38500 0.49200 25.42000
H  29.48500 -1.09000 26.64400
H  25.99000 -0.57900 34.31900
H  23.92500 1.33600 33.76600
H  22.77300 -1.16400 33.06100
H  22.65200 -0.18300 34.58800
H  23.82600 -1.46100 34.47700
H  25.84100 2.32600 34.21400
H  27.38500 1.70800 33.63400
H  28.09700 1.13600 35.71800
H  26.61900 0.28700 35.97800
H  19.63100 0.50600 29.76100
H  19.75300 2.22200 29.49800
H  20.43000 1.57700 30.92300
H  18.96900 1.91100 27.34300
H  19.16000 0.10700 27.54800
H  18.69700 0.70000 26.03900
H  25.88500 0.68100 24.06800
H  27.64600 -1.42200 24.36500
H  25.81700 -1.96500 23.31300
H  24.52600 -0.82500 23.02200
H  24.44600 -1.89400 24.48000
H  27.91600 0.81300 23.36400
H  29.24000 -0.02400 23.96800
H  27.96100 1.65900 26.10100
H  28.46900 2.60800 24.73100
H  29.66800 1.63700 25.62500
H  31.55200 -0.87800 28.17000
H  31.09100 -2.55400 28.20300
H  31.91800 -1.91500 29.63200
H  29.10400 0.23600 33.48500
H  28.18200 -2.19700 36.88300
H  29.90800 -2.30800 36.75800
H  28.82500 -3.46400 35.84200
Mg 41.32700 7.93200 29.51300
C  43.11400 9.73500 32.05900
C  39.07800 6.99200 31.89800
C  39.76200 6.42900 27.15900
C  44.10000 8.58500 27.42100
N  41.16300 8.30800 31.77000
C  41.91200 9.16200 32.50200
C  41.35200 9.20900 33.94300
C  40.18900 8.12100 33.95600
C  40.14600 7.71500 32.51100
C  40.33400 6.87200 34.92500
C  40.88800 10.70000 34.37100
C  40.15100 10.80700 35.79500
H  40.50000 11.88800 36.82200
N  39.60000 6.88200 29.51100
C  38.84900 6.57500 30.58600
C  37.77800 5.74000 30.17800
C  37.81800 5.78200 28.76100
C  39.07700 6.41200 28.35900
C  36.77200 5.22800 31.18400
C  36.85100 5.11000 27.75900
O  37.01500 5.27400 26.53800
C  35.64200 4.28000 28.32300
N  41.91000 7.54400 27.58000
C  41.02800 6.82300 26.81500
C  41.65800 6.47600 25.38700
C  42.94900 7.37900 25.44000
C  42.99600 7.89400 26.87400
C  41.89400 4.92100 25.19400
C  42.94700 8.58600 24.44500
C  41.83900 9.56000 24.62200
N  43.27500 8.83200 29.67600
C  44.26000 9.05600 28.73700
C  45.42100 9.82400 29.37400
C  44.90400 10.19400 30.53700
C  43.65700 9.53500 30.74300
C  46.63800 10.38500 28.74200
C  45.25300 10.99900 31.65900
O  46.15700 11.75900 31.92500
C  44.09400 10.77100 32.68700
C  44.67500 10.27600 33.98900
O  45.16100 9.23400 34.11100
O  44.56500 11.22500 34.95000
C  45.25100 11.02700 36.23100
H  38.33300 6.87500 32.68800
H  39.24800 5.89100 26.35900
H  44.87800 8.91500 26.72900
H  42.22900 8.87100 34.49300
H  39.23400 8.62100 34.11300
H  41.37300 6.75800 35.23100
H  40.17200 5.97100 34.33300
H  39.58700 6.88600 35.71900
H  40.24000 11.04400 33.56500
H  41.74700 11.37100 34.40600
H  40.40000 9.87100 36.29500
H  39.07000 10.85000 35.66300
H  36.57100 4.17800 30.96900
H  35.89500 5.87200 31.12700
H  37.11200 5.26300 32.22000
H  35.05700 4.93600 28.96900
H  36.02500 3.46400 28.93400
H  34.97300 3.97500 27.51700
H  40.89100 6.77000 24.67100
H  43.90000 6.85000 25.38900
H  41.32700 4.39900 25.96500
H  42.91000 4.64900 25.48300
H  41.68500 4.45100 24.23300
H  42.94500 8.03200 23.50600
H  43.86800 9.16900 24.40900
H  41.16500 9.40200 25.46400
H  41.33500 9.55000 23.65600
H  42.20500 10.57500 24.77800
H  46.45500 11.30600 28.18800
H  46.95500 9.58600 28.07200
H  47.34800 10.56600 29.54900
H  43.62500 11.69700 33.02200
H  44.52400 10.66100 36.95500
H  45.77800 11.93500 36.52400
H  46.09300 10.33400 36.20700

