158

Mg 26.36600 1.00100 29.09900
C  28.17800 0.44000 32.02700
C  23.39700 0.89300 30.92100
C  24.53400 1.36000 26.25200
C  29.17700 0.53700 27.22900
N  25.92700 0.59300 31.20500
C  26.78500 0.59700 32.22300
C  26.05700 0.73200 33.57500
C  24.55000 0.52400 33.21100
C  24.63800 0.78100 31.66100
C  24.02400 -0.90800 33.44500
C  26.39500 2.03600 34.29200
C  26.77800 1.98700 35.79000
H  26.17300 3.02600 36.77900
N  24.15600 1.04300 28.64700
C  23.18300 0.99100 29.54900
C  21.95300 0.98600 28.83800
C  22.20600 1.29000 27.47700
C  23.70900 1.29100 27.40500
C  20.70000 0.63800 29.58600
C  21.20700 1.62600 26.35400
O  21.58800 1.85300 25.19700
C  19.67900 1.63100 26.53300
N  26.80600 1.04200 27.05800
C  25.88800 1.28900 26.05900
C  26.57300 1.19600 24.65800
C  28.05400 1.11000 25.00600
C  28.04900 0.89400 26.54300
C  25.94000 -0.00600 23.90300
C  29.01500 2.37200 24.69700
C  30.47000 2.04900 24.29600
N  28.38800 0.63700 29.48300
C  29.44400 0.41500 28.59200
C  30.64100 0.01600 29.45500
C  30.15600 0.13500 30.80800
C  28.78300 0.38400 30.74300
C  32.04800 -0.36800 29.04700
C  30.57800 0.11100 32.17900
O  31.70800 -0.08500 32.58300
C  29.23700 0.29300 33.09200
C  29.09700 -0.99500 33.84300
O  28.84100 -2.07900 33.43200
O  29.26200 -0.75000 35.21200
C  29.13300 -1.88300 36.17000
H  22.47300 0.83700 31.49900
H  24.04900 1.54000 25.29000
H  30.05700 0.35700 26.60800
H  26.41000 -0.08300 34.20700
H  23.93500 1.15600 33.85200
H  23.80900 -1.09700 34.49700
H  24.88400 -1.56800 33.33500
H  23.32300 -1.22800 32.67400
H  25.57500 2.75400 34.32500
H  27.16900 2.60800 33.78000
H  27.84200 2.17700 35.65200
H  26.69300 0.97300 36.18300
H  20.67800 1.33500 30.42400
H  20.54900 -0.38800 29.92000
H  19.82000 0.91200 29.00300
H  19.37500 0.62400 26.81900
H  19.13300 2.05900 25.69200
H  19.38700 2.34100 27.30700
H  26.26100 2.11500 24.16200
H  28.45100 0.16300 24.63800
H  26.62100 -0.77400 23.53800
H  25.46600 0.31900 22.97700
H  25.12200 -0.48500 24.44000
H  28.94600 3.07400 25.52800
H  28.67800 2.86600 23.78600
H  30.61300 2.31500 23.24800
H  30.55700 0.96300 24.33900
H  31.16000 2.56700 24.96200
H  32.68900 0.21500 29.70800
H  32.25200 -0.16900 27.99500
H  32.30600 -1.41600 29.20500
H  29.24100 1.15500 33.75800
H  29.95000 -1.93000 36.89000
H  29.07000 -2.84000 35.65100
H  28.26600 -1.72100 36.81000
Mg -10.07700 40.00000 39.48800
C  -8.83100 36.92000 38.38400
C  -7.09500 41.39400 38.82400
C  -11.63800 42.91700 39.52700
C  -13.26800 38.29700 40.02900
N  -8.15000 39.24000 38.67900
C  -7.92600 37.99900 38.22500
C  -6.52200 38.02700 37.62800
C  -5.78500 39.23100 38.34700
C  -7.07800 40.00700 38.67300
C  -4.94500 38.94000 39.56600
C  -6.59800 38.11700 36.07900
C  -5.97900 36.97600 35.22300
H  -6.93200 36.33000 34.21700
N  -9.39700 41.96600 39.27500
C  -8.15600 42.30800 38.99100
C  -8.09400 43.78200 38.88900
C  -9.40400 44.27700 39.15500
C  -10.22600 43.04200 39.39700
C  -6.75800 44.54400 38.84700
C  -9.75400 45.72800 39.28000
O  -8.95500 46.60100 39.03500
C  -11.12400 46.18000 39.67300
N  -12.16900 40.54100 39.93500
C  -12.46200 41.84800 39.75400
C  -13.99600 41.97700 39.80200
C  -14.52400 40.56700 40.19400
C  -13.26900 39.74100 40.07700
C  -14.44100 43.15200 40.65300
C  -15.66700 40.07100 39.26900
C  -17.03100 40.74500 39.34400
N  -10.89800 37.93500 39.43100
C  -12.15800 37.41100 39.64700
C  -12.12000 36.04600 39.45700
C  -10.81200 35.73200 38.98700
C  -10.12700 36.95300 39.02400
C  -13.31300 35.09900 39.69300
C  -9.92900 34.73800 38.39600
O  -10.05200 33.53000 38.13100
C  -8.60800 35.48000 37.97700
C  -7.47100 34.88700 38.60900
O  -7.29900 34.76400 39.83300
O  -6.55100 34.47300 37.66700
C  -5.41700 33.75400 38.25000
H  -6.12700 41.87700 38.67600
H  -12.22400 43.83800 39.50500
H  -14.22400 37.82400 40.26200
H  -6.06500 37.07100 37.88400
H  -5.09400 39.70400 37.64900
H  -4.94000 37.85300 39.63900
H  -5.31600 39.43800 40.46200
H  -3.91300 39.26800 39.44500
H  -6.15900 39.04400 35.71100
H  -7.65200 38.05300 35.81000
H  -5.51400 36.24400 35.88200
H  -5.09900 37.28800 34.66000
H  -6.81500 45.20400 37.98100
H  -5.95800 43.82700 38.66300
H  -6.56800 45.14800 39.73400
H  -11.15700 47.21700 40.00600
H  -11.40700 45.56900 40.53000
H  -11.77000 45.90900 38.83800
H  -14.31800 42.23600 38.79400
H  -14.88300 40.60700 41.22200
H  -15.12100 42.80700 41.43200
H  -14.94500 43.82600 39.96100
H  -13.67600 43.72800 41.17500
H  -15.83100 39.01100 39.46000
H  -15.30800 40.27400 38.26000
H  -17.15300 41.47600 38.54500
H  -17.04900 41.31400 40.27300
H  -17.80000 39.99000 39.17600
H  -14.19400 35.59700 39.28900
H  -13.40100 35.01700 40.77600
H  -13.20100 34.13600 39.19300
H  -8.42300 35.42500 36.90500
H  -4.76700 34.46800 38.75600
H  -4.87100 33.20400 37.48300
H  -5.63800 33.11700 39.10700

