158

Mg 1.36600 8.47500 26.90400
C  2.01000 10.20400 29.98700
C  1.37400 5.49400 28.72600
C  1.16600 6.88600 24.00300
C  2.07300 11.47600 25.27300
N  1.75800 7.94600 29.11500
C  1.74300 8.82000 30.18200
C  1.35700 8.20400 31.48900
C  1.35500 6.64400 31.10600
C  1.48600 6.66500 29.57700
C  2.41100 5.84400 31.92400
C  -0.06700 8.73000 31.96900
C  -0.38800 8.52100 33.45100
H  0.77000 8.02700 34.28900
N  1.37600 6.47600 26.42200
C  1.36600 5.37300 27.29500
C  1.20500 4.22200 26.61400
C  0.90600 4.56600 25.27900
C  1.13400 6.02900 25.16300
C  1.16100 2.90100 27.27000
C  0.48000 3.65600 24.09400
O  0.16600 4.09200 22.97000
C  0.51800 2.16400 24.24300
N  1.82300 9.04300 24.96300
C  1.55000 8.22800 23.92600
C  1.50900 8.99000 22.59600
C  1.70200 10.45600 23.03100
C  1.83600 10.32900 24.53600
C  2.63100 8.52200 21.58800
C  0.48100 11.37300 22.63000
C  -0.89200 10.95900 23.17100
N  1.85500 10.47300 27.48400
C  2.06200 11.60400 26.71200
C  2.32900 12.80300 27.56200
C  2.29300 12.31600 28.86700
C  2.01900 10.88100 28.73100
C  2.44300 14.24000 27.17200
C  2.33800 12.62600 30.26700
O  2.71300 13.68300 30.79300
C  2.16500 11.31400 31.02400
C  3.31100 11.12200 32.01400
O  4.45800 10.99200 31.71300
O  2.83100 11.39600 33.27900
C  3.87900 11.31300 34.31900
H  1.29200 4.59700 29.34200
H  0.89600 6.31500 23.11200
H  2.34500 12.42800 24.81100
H  2.15400 8.33900 32.22000
H  0.38600 6.25700 31.42200
H  3.27600 6.48500 32.09600
H  2.77600 4.98200 31.36600
H  1.89600 5.49200 32.81800
H  -0.80400 8.03400 31.56600
H  -0.27300 9.78700 31.80300
H  -1.24400 7.85600 33.57200
H  -0.71300 9.42500 33.96700
H  0.24300 2.33200 27.12600
H  1.43500 2.79700 28.32000
H  1.80300 2.28100 26.64500
H  1.49800 1.87300 24.62200
H  0.33300 1.63300 23.31000
H  -0.26500 1.88600 24.94900
H  0.53100 8.78700 22.16100
H  2.56200 10.93200 22.56200
H  3.19900 9.31400 21.09900
H  2.29100 7.94500 20.72800
H  3.25100 7.78700 22.10100
H  0.39900 11.37200 21.54400
H  0.59200 12.41500 22.93000
H  -0.62600 10.35300 24.03800
H  -1.39100 10.41800 22.36700
H  -1.48100 11.76700 23.60400
H  1.73100 14.89500 27.67600
H  2.34400 14.28900 26.08800
H  3.43900 14.61700 27.40200
H  1.30600 11.31200 31.69500
H  4.20700 12.31800 34.58400
H  4.72100 10.70000 33.99600
H  3.46200 10.84800 35.21200
Mg 40.96200 8.98600 30.05500
C  42.65200 10.33300 32.66100
C  38.63600 7.62900 32.28400
C  39.42900 7.34700 27.47600
C  43.67000 9.60100 27.92100
N  40.74800 8.98600 32.22300
C  41.48400 9.73700 33.10000
C  41.00600 9.61700 34.53400
C  39.68800 8.78100 34.40300
C  39.67000 8.38500 32.87500
C  39.55600 7.54600 35.31100
C  40.80500 10.97700 35.14600
C  40.32800 10.98400 36.62200
H  40.98000 11.89800 37.57700
N  39.17800 7.75100 29.91200
C  38.38000 7.34200 30.96400
C  37.19700 6.67100 30.35400
C  37.36600 6.67700 28.97900
C  38.72000 7.29000 28.70300
C  35.95600 6.31300 31.14800
C  36.38400 6.31300 27.84300
O  36.62300 6.49300 26.63300
C  35.01000 5.82100 28.19400
N  41.41000 8.53500 27.98000
C  40.63400 7.86600 27.13700
C  41.17700 7.77800 25.74800
C  42.42000 8.75000 25.83700
C  42.50800 8.99800 27.37800
C  41.55300 6.25600 25.43800
C  42.22900 10.08800 25.09000
C  43.33200 10.73900 24.25900
N  42.79000 9.85900 30.17300
C  43.79400 10.06800 29.24400
C  44.95200 10.73500 29.87200
C  44.53300 10.86500 31.24400
C  43.20200 10.26600 31.37000
C  46.16600 11.32200 29.27700
C  44.97000 11.29800 32.51700
O  46.00300 11.84400 32.80000
C  43.77000 11.07000 33.44700
C  44.27300 10.18900 34.55200
O  44.62700 8.98500 34.45900
O  44.14100 10.81500 35.76200
C  44.39800 9.95800 36.94200
H  37.91700 7.33600 33.05300
H  38.98400 6.79700 26.64500
H  44.43000 9.78700 27.16000
H  41.76500 9.05000 35.07200
H  38.75700 9.33600 34.51600
H  40.47500 7.27800 35.83300
H  39.25800 6.65300 34.76100
H  38.74000 7.81800 35.98000
H  39.97400 11.34600 34.54500
H  41.68100 11.62200 35.07500
H  40.37800 9.97300 37.02400
H  39.26400 11.22100 36.63700
H  35.74400 5.26400 30.93900
H  35.07700 6.94200 31.00800
H  36.23100 6.40300 32.19900
H  34.43700 6.65800 28.59100
H  35.01400 5.05600 28.97100
H  34.55800 5.44500 27.27600
H  40.44800 7.97400 24.96100
H  43.33700 8.24000 25.54300
H  41.22700 5.52300 26.17600
H  42.61500 6.11900 25.23500
H  41.11900 5.96600 24.48100
H  41.83300 10.81500 25.79900
H  41.42500 10.05200 24.35500
H  43.38000 11.81200 24.44200
H  43.13000 10.65900 23.19100
H  44.31000 10.26600 24.35000
H  46.42200 10.79300 28.35900
H  47.03700 11.26400 29.93000
H  46.04200 12.35200 28.94300
H  43.39700 11.99400 33.88900
H  45.43200 9.96900 37.28800
H  43.96500 8.95800 36.91500
H  43.93100 10.49700 37.76700

