158

Mg -1.67400 17.53500 26.29600
C  -1.78700 15.16800 28.84200
C  -2.39200 19.95000 28.69900
C  -2.02000 19.84600 23.86600
C  -1.68100 14.90700 23.98300
N  -2.17300 17.50300 28.39800
C  -1.92400 16.47400 29.28900
C  -2.35200 16.84000 30.71700
C  -2.79000 18.33900 30.60500
C  -2.45100 18.62200 29.11100
C  -4.31900 18.63700 30.83100
C  -1.42600 16.59900 31.89300
C  -2.22800 15.97100 33.05400
H  -1.32800 15.38100 34.13500
N  -2.02100 19.66600 26.27100
C  -2.23500 20.44200 27.35600
C  -2.28600 21.83800 26.95200
C  -2.15900 21.80500 25.53300
C  -2.15000 20.41100 25.16600
C  -2.47200 22.97000 27.86600
C  -2.04600 22.89900 24.58800
O  -2.08300 22.76800 23.41600
C  -1.62700 24.35000 25.09500
N  -2.06900 17.36400 24.21900
C  -1.98800 18.49700 23.47800
C  -1.80700 18.15000 21.98800
C  -1.54500 16.61100 22.00100
C  -1.75600 16.26900 23.48100
C  -3.09900 18.57300 21.19500
C  -0.14300 16.28400 21.45700
C  -0.06100 15.50900 20.14200
N  -1.70500 15.45700 26.34700
C  -1.69800 14.51700 25.34100
C  -1.61900 13.25000 25.94000
C  -1.60600 13.46000 27.32100
C  -1.67400 14.80000 27.52900
C  -1.53300 11.95300 25.17400
C  -1.44000 12.84700 28.56900
O  -1.33200 11.63700 28.86700
C  -1.66200 13.86600 29.63300
C  -0.43500 13.79500 30.49500
O  0.65700 14.27600 30.25300
O  -0.73100 12.99900 31.56000
C  0.35700 12.77500 32.60200
H  -2.45700 20.70800 29.48300
H  -2.00100 20.51600 23.00400
H  -1.67300 14.00400 23.36800
H  -3.31300 16.36700 30.92000
H  -2.18700 19.00300 31.22400
H  -4.89600 17.83000 31.28100
H  -4.77600 18.97900 29.90200
H  -4.35700 19.55400 31.41900
H  -1.13100 17.58500 32.25200
H  -0.53800 16.07000 31.54800
H  -2.95900 15.19800 32.81700
H  -2.74900 16.85000 33.43400
H  -2.81400 22.65800 28.85300
H  -3.18600 23.71100 27.50700
H  -1.50900 23.43300 28.08300
H  -0.61200 24.36800 25.49200
H  -2.31600 24.81300 25.80100
H  -1.60600 25.10800 24.31200
H  -1.00300 18.77600 21.60100
H  -2.30800 16.08000 21.43000
H  -3.76800 19.09100 21.88300
H  -3.54600 17.76000 20.62200
H  -2.87900 19.37600 20.49300
H  0.36900 15.62400 22.15800
H  0.45800 17.17600 21.28100
H  0.51300 16.01800 19.36700
H  -1.04000 15.29700 19.71300
H  0.51100 14.61200 20.38000
H  -0.61900 11.39400 25.37600
H  -1.58200 12.05900 24.09100
H  -2.40300 11.38600 25.50600
H  -2.48300 13.52300 30.26200
H  -0.07800 12.77600 33.60100
H  1.06200 13.60600 32.62300
H  1.00000 11.91700 32.40500
Mg -1.11600 43.88800 26.29800
C  1.48700 43.54100 28.68000
C  -3.33100 42.89700 28.71100
C  -3.45000 43.28100 23.94700
C  1.35400 44.03700 23.76600
N  -0.92500 43.34000 28.43900
C  0.19000 43.33500 29.22000
C  -0.14000 43.23100 30.77800
C  -1.56300 42.55700 30.59900
C  -1.99900 42.84500 29.15100
C  -1.62300 41.10300 31.02800
C  -0.05800 44.66900 31.37500
C  -0.03700 44.84800 32.93800
H  -0.17000 43.59600 33.75200
N  -3.21300 43.52400 26.34100
C  -3.92400 43.07100 27.43500
C  -5.34200 42.86700 27.07000
C  -5.34300 42.86800 25.57800
C  -3.95700 43.22100 25.22600
C  -6.38900 42.46700 28.08500
C  -6.45900 42.36800 24.58100
O  -6.42200 42.41400 23.39000
C  -7.74200 41.75900 25.11900
N  -1.03900 43.73100 24.14100
C  -2.14800 43.46700 23.41600
C  -1.81600 43.62700 21.88800
C  -0.35400 44.15500 21.92200
C  -0.01500 43.96700 23.34700
C  -1.89700 42.31300 21.06300
C  -0.09200 45.65800 21.61500
C  0.69900 45.98800 20.33800
N  1.01300 43.88500 26.20300
C  1.85400 43.97500 25.12300
C  3.22900 43.98200 25.55800
C  3.13000 43.82000 26.97800
C  1.79600 43.83000 27.33500
C  4.51500 44.05400 24.79700
C  3.90800 43.61300 28.15900
O  5.15700 43.50600 28.35400
C  2.83300 43.54700 29.33500
C  3.20800 42.44600 30.18700
O  2.51300 41.48600 30.36900
O  4.37600 42.78900 30.90300
C  4.52500 42.00200 32.12800
H  -3.94300 42.33300 29.41800
H  -4.20400 43.08400 23.18200
H  2.17300 44.28700 23.08800
H  0.54600 42.55600 31.28900
H  -2.30900 42.91200 31.30900
H  -2.02800 40.57200 30.16600
H  -2.42100 41.04700 31.76800
H  -0.69800 40.61800 31.34100
H  -0.86100 45.33600 31.06200
H  0.90100 45.04000 31.01400
H  -0.86700 45.51900 33.15700
H  0.83700 45.43600 33.21700
H  -6.27200 43.24500 28.83900
H  -6.16200 41.45000 28.40400
H  -7.41100 42.53000 27.71000
H  -7.34200 40.99300 25.78300
H  -8.40100 41.18100 24.47100
H  -8.31700 42.52500 25.64000
H  -2.38500 44.45800 21.46900
H  0.32200 43.54400 21.32400
H  -0.95100 41.77500 20.99600
H  -2.27000 42.45900 20.04900
H  -2.55300 41.63400 21.60700
H  0.30800 46.20600 22.46800
H  -1.03800 46.16600 21.42400
H  1.54400 46.62900 20.58800
H  -0.09200 46.44600 19.74300
H  1.02100 45.12400 19.75700
H  4.61700 45.05800 24.38500
H  4.31200 43.38600 23.96000
H  5.32400 43.60700 25.37500
H  2.92400 44.46400 29.91700
H  4.54000 42.78800 32.88300
H  5.47700 41.48900 31.98800
H  3.80200 41.21500 32.34000

