158

Mg 24.52200 -8.08600 47.95600
C  26.89800 -5.71000 46.95600
C  22.33300 -6.61900 45.63600
C  22.48900 -10.77900 48.09600
C  26.95100 -9.77200 49.81500
N  24.61800 -6.19000 46.61200
C  25.67700 -5.37300 46.29500
C  25.46400 -4.45500 45.09200
C  23.92200 -4.68600 44.86000
C  23.51600 -5.88000 45.80400
C  22.92700 -3.53800 45.01500
C  26.36700 -4.89400 43.85300
C  26.83900 -3.70100 42.90500
H  26.19800 -3.59700 41.51400
N  22.64000 -8.64900 46.97200
C  21.88800 -7.87000 46.10100
C  20.70900 -8.61900 45.77700
C  20.71900 -9.80800 46.49200
C  22.00700 -9.76900 47.20600
C  19.60600 -8.09400 44.79100
C  19.65300 -10.92000 46.53500
O  18.60000 -10.74200 46.01000
C  19.83200 -12.14900 47.29800
N  24.65300 -9.96100 48.91600
C  23.62800 -10.87000 48.87500
C  23.93500 -12.09000 49.75900
C  25.28200 -11.71500 50.49900
C  25.65400 -10.44200 49.71500
C  22.76900 -12.34500 50.77400
C  26.35800 -12.89700 50.41700
C  27.48100 -12.85500 51.50100
N  26.46900 -7.81400 48.42500
C  27.33600 -8.54000 49.16200
C  28.68200 -7.97900 49.17400
C  28.48900 -6.82200 48.40000
C  27.15200 -6.78900 47.90300
C  29.96200 -8.48300 49.82400
C  29.14600 -5.63100 47.87500
O  30.28700 -5.24200 48.03600
C  28.20800 -4.94600 46.85100
C  28.06000 -3.47600 47.16800
O  27.56800 -2.90500 48.17100
O  28.72600 -2.77800 46.20000
C  28.54500 -1.28400 46.24800
H  21.70100 -6.22200 44.83900
H  21.92400 -11.67600 48.36000
H  27.70300 -10.26600 50.43400
H  25.67400 -3.44100 45.43200
H  23.82600 -5.05300 43.83800
H  22.56500 -3.29700 44.01500
H  23.51300 -2.66100 45.29200
H  22.10400 -3.73500 45.70100
H  25.76800 -5.62200 43.30600
H  27.08300 -5.55800 44.33700
H  27.88100 -3.94700 42.69800
H  26.94000 -2.79100 43.49600
H  19.88100 -7.27100 44.13100
H  18.75800 -7.70000 45.35000
H  19.16100 -8.97300 44.32400
H  20.70800 -12.70100 46.95800
H  19.01800 -12.87100 47.23500
H  19.83900 -11.95300 48.37000
H  23.93600 -12.84700 48.97500
H  25.22800 -11.40200 51.54100
H  22.56200 -13.41300 50.83000
H  21.85900 -11.77800 50.57700
H  23.22800 -12.13800 51.74100
H  26.87600 -12.75600 49.46800
H  25.87400 -13.87400 50.41800
H  27.28100 -12.16100 52.31800
H  28.44300 -12.67300 51.02300
H  27.42700 -13.88300 51.85900
H  29.81500 -8.87600 50.83000
H  30.69700 -7.68100 49.89700
H  30.29900 -9.33600 49.23500
H  28.66900 -5.08600 45.87400
H  29.17300 -0.79600 46.99300
H  27.51500 -0.96700 46.41000
H  28.84300 -0.95700 45.25200
Mg 47.75400 45.58700 42.52000
C  44.34500 44.85700 42.28300
C  48.40900 42.32600 42.18100
C  50.95900 46.45700 42.15400
C  46.81200 49.04500 42.47800
N  46.51100 43.83300 42.06400
C  45.11100 43.70700 42.11600
C  44.66800 42.27900 42.14200
C  45.99900 41.53100 42.33000
C  47.04700 42.58200 42.13300
C  46.16500 40.59200 43.62300
C  43.75700 41.75900 40.97700
C  43.86100 42.56600 39.67400
H  43.52900 41.89400 38.33000
N  49.45700 44.58800 42.29200
C  49.53200 43.17700 42.20100
C  50.90200 42.86900 42.09100
C  51.72900 43.95600 42.16800
C  50.70800 45.03600 42.17200
C  51.30600 41.42200 42.00000
C  53.30500 44.03100 42.12600
O  53.99400 42.98500 41.97900
C  54.03500 45.22900 42.34300
N  48.76200 47.48500 42.13500
C  50.09500 47.56200 42.28000
C  50.48600 49.06700 42.33000
C  49.28200 49.87200 42.32900
C  48.23000 48.71600 42.34700
C  51.42700 49.50300 43.50000
C  49.14000 50.87200 41.11000
C  48.71600 52.35600 41.39700
N  45.98100 46.73000 42.36600
C  45.72900 48.13600 42.54000
C  44.34900 48.43900 42.57100
C  43.78600 47.13200 42.58200
C  44.77600 46.18600 42.33400
C  43.63300 49.74500 42.69600
C  42.49400 46.43800 42.54100
O  41.37900 46.90000 42.58000
C  42.82100 44.89400 42.44700
C  42.26000 44.15000 43.62500
O  41.39800 43.31000 43.62500
O  42.88100 44.60100 44.75300
C  42.41900 44.03300 45.99400
H  48.69600 41.27300 42.14500
H  52.00900 46.71100 41.99300
H  46.49000 50.08800 42.51100
H  44.12900 42.02200 43.05400
H  46.18400 40.91500 41.45000
H  47.05800 39.97400 43.52300
H  45.29200 39.94000 43.65600
H  46.29100 41.16800 44.53900
H  42.71200 41.85300 41.27300
H  44.02700 40.72700 40.75500
H  44.88100 42.92000 39.52400
H  43.22500 43.44000 39.81300
H  50.92200 40.90200 42.87800
H  52.37600 41.21900 41.96400
H  50.93300 41.05500 41.04400
H  54.00000 45.90000 41.48500
H  55.07100 44.92100 42.48500
H  53.76300 45.73100 43.27100
H  51.02600 49.20800 41.39400
H  49.07700 50.42300 43.24700
H  52.28200 50.06100 43.12000
H  51.65600 48.56500 44.00700
H  50.86800 50.14300 44.18300
H  48.35500 50.43000 40.49600
H  49.99500 50.66800 40.46500
H  49.33900 53.01800 40.79500
H  48.94400 52.62500 42.42800
H  47.66700 52.53900 41.16500
H  44.24700 50.55900 43.08200
H  42.69200 49.64800 43.23700
H  43.41100 49.97700 41.65400
H  42.25400 44.58400 41.56900
H  41.34300 43.87900 45.91900
H  42.74800 44.64100 46.83700
H  42.98800 43.10400 46.02200

