158

Mg 34.37700 3.40600 29.30600
C  32.45300 4.24300 31.97600
C  37.05900 2.82400 31.51900
C  36.55000 2.81100 26.64800
C  31.81000 3.92500 27.15800
N  34.70000 3.53400 31.45700
C  33.72900 3.86600 32.34000
C  34.26200 3.87500 33.79000
C  35.79300 3.64300 33.70200
C  35.86600 3.24200 32.13800
C  36.65100 4.96500 33.98500
C  33.49700 2.86900 34.70200
C  33.20700 3.35400 36.06800
H  33.90900 4.41500 36.79800
N  36.46800 2.84000 29.13000
C  37.32900 2.57500 30.11400
C  38.62500 2.35500 29.64600
C  38.55800 2.33600 28.22600
C  37.17000 2.69500 27.92400
C  39.82200 2.14700 30.59800
C  39.65600 2.03800 27.16900
O  39.45600 2.12800 25.91500
C  41.07500 1.59000 27.76100
N  34.18900 3.36400 27.21800
C  35.20300 3.04200 26.26800
C  34.78700 3.35700 24.84800
C  33.27000 3.65300 25.00200
C  33.08700 3.66000 26.56300
C  35.60300 4.46900 24.12200
C  32.39100 2.66400 24.12400
C  31.89500 1.37800 24.86200
N  32.45900 3.92400 29.47100
C  31.52500 4.07600 28.51000
C  30.28000 4.55400 29.09300
C  30.62600 4.62400 30.48000
C  31.96200 4.22100 30.62900
C  29.09300 4.81600 28.21700
C  30.06600 4.92000 31.79700
O  28.92500 5.10500 32.24500
C  31.25600 4.68200 32.82900
C  31.43000 5.94300 33.59500
O  32.11800 6.91300 33.31400
O  30.60300 5.90300 34.69300
C  30.59000 7.15700 35.45500
H  37.81500 2.74500 32.30300
H  37.08700 2.81900 25.69700
H  31.08800 4.14000 26.36800
H  34.08400 4.89700 34.12300
H  36.15000 2.78700 34.27600
H  36.03300 5.56200 34.65600
H  36.95600 5.57100 33.13200
H  37.53400 4.74000 34.58200
H  34.02700 1.92900 34.54300
H  32.56900 2.68600 34.16000
H  33.47100 2.55700 36.76300
H  32.13600 3.51100 36.19600
H  40.71300 2.59700 30.16100
H  40.12900 1.13000 30.84100
H  39.66500 2.68300 31.53400
H  41.69000 1.20000 26.95000
H  41.00500 0.79700 28.50500
H  41.65700 2.45100 28.09100
H  34.86400 2.37400 24.38400
H  33.11700 4.66300 24.62000
H  36.09100 3.88300 23.34200
H  36.32600 4.98800 24.75000
H  34.89900 5.20300 23.73000
H  32.88500 2.31700 23.21600
H  31.52900 3.27100 23.84600
H  32.44700 1.27800 25.79600
H  32.06900 0.50300 24.23500
H  30.81600 1.48300 24.97800
H  28.69800 3.98600 27.62900
H  29.48800 5.57300 27.54000
H  28.24500 5.21000 28.77700
H  30.84200 3.94200 33.51300
H  29.78200 7.14600 36.18700
H  30.48000 8.11100 34.93900
H  31.57600 7.24700 35.91100
Mg -5.93800 24.69900 26.33300
C  -4.56200 26.34200 29.16600
C  -7.93300 22.92100 28.53100
C  -6.62400 22.65500 23.84600
C  -3.66200 26.37900 24.40100
N  -6.06200 24.58300 28.67100
C  -5.45400 25.35800 29.55400
C  -6.01800 25.02500 31.00100
C  -6.95600 23.77000 30.77300
C  -6.97400 23.71500 29.19600
C  -6.59300 22.47200 31.47000
C  -6.68900 26.37700 31.59600
C  -6.74600 26.41900 33.17300
H  -6.40200 25.12800 33.99700
N  -7.19900 23.08800 26.21300
C  -8.06800 22.56000 27.12200
C  -8.89000 21.60300 26.48100
C  -8.41400 21.41900 25.13400
C  -7.36500 22.42500 25.00300
C  -9.96300 20.81200 27.26700
C  -8.80700 20.49200 24.10000
O  -8.37200 20.42200 22.93000
C  -9.96000 19.57800 24.36900
N  -5.28200 24.52100 24.28900
C  -5.71500 23.63100 23.45300
C  -5.11600 23.82600 22.04200
C  -4.03100 24.97800 22.33400
C  -4.34900 25.33200 23.79600
C  -4.57500 22.67600 21.29000
C  -3.97900 26.14400 21.36000
C  -2.59400 26.57100 20.83000
N  -4.48600 26.11700 26.60300
C  -3.70900 26.78900 25.73800
C  -2.80300 27.64900 26.47300
C  -3.11300 27.55100 27.81400
C  -4.19800 26.60800 27.79700
C  -1.74900 28.46700 25.77100
C  -2.81600 28.00500 29.12500
O  -2.00600 28.82000 29.50600
C  -3.73100 27.20200 30.14200
C  -2.87400 26.34200 31.02500
O  -2.35000 25.30500 30.71800
O  -2.66800 27.02300 32.21400
C  -1.99500 26.15100 33.16000
H  -8.48300 22.24100 29.18600
H  -6.80900 22.00600 22.98800
H  -2.97400 26.94600 23.77000
H  -5.16300 24.70900 31.59700
H  -7.98100 24.00700 31.06000
H  -5.56700 22.46300 31.83800
H  -6.71600 21.78300 30.63500
H  -7.28200 22.30400 32.29800
H  -7.71300 26.52800 31.25500
H  -6.10800 27.22600 31.23400
H  -7.60600 26.93400 33.60000
H  -5.86400 27.02600 33.37600
H  -10.94700 21.10300 26.89900
H  -10.13200 21.15600 28.28800
H  -9.98100 19.73100 27.12900
H  -9.70100 18.81600 25.10400
H  -10.05400 19.00600 23.44500
H  -10.93000 20.06400 24.47300
H  -5.94700 24.09400 21.39000
H  -3.05600 24.49300 22.37800
H  -3.54200 22.92600 21.05100
H  -5.26500 22.53000 20.45800
H  -4.53300 21.77900 21.90700
H  -4.52500 26.98000 21.79700
H  -4.47300 25.98300 20.40200
H  -2.72100 26.99900 19.83600
H  -1.97500 25.67500 20.89000
H  -2.13500 27.24000 21.55800
H  -1.35100 28.00500 24.86800
H  -0.95100 28.57300 26.50700
H  -2.10200 29.46500 25.50800
H  -4.25500 27.95900 30.72600
H  -2.39500 26.39200 34.14500
H  -0.90900 26.23700 33.12000
H  -2.31300 25.11200 33.07200

