158

Mg 42.92900 4.16000 47.64200
C  40.89700 6.98400 47.40900
C  40.07700 2.21600 47.60800
C  44.90800 1.44200 47.06800
C  45.71900 6.24500 47.33500
N  40.72300 4.55500 47.46500
C  40.11500 5.77300 47.49100
C  38.53300 5.63300 47.77900
C  38.39800 4.11500 47.85000
C  39.80500 3.58000 47.69500
C  37.77900 3.51100 49.13500
C  37.58600 6.33300 46.69900
C  38.04400 5.95500 45.26600
H  38.41400 7.03700 44.29600
N  42.52100 2.09500 47.48500
C  41.28400 1.50500 47.40400
C  41.38800 0.09100 47.11900
C  42.79600 -0.13300 46.91200
C  43.48700 1.14800 47.20500
C  40.32300 -0.93800 47.12500
C  43.37500 -1.55700 46.54700
O  42.69700 -2.51500 46.35600
C  44.91100 -1.75700 46.32200
N  45.01100 3.89300 47.19600
C  45.63600 2.63600 47.17700
C  47.16100 2.75600 47.25400
C  47.41400 4.25800 47.38900
C  45.97400 4.87400 47.38300
C  47.83400 1.87000 48.39400
C  48.47100 4.82900 46.37600
C  49.94300 4.97800 46.88000
N  43.26500 6.21600 47.31700
C  44.41000 6.86600 47.26100
C  44.14100 8.29800 47.21100
C  42.73700 8.39000 47.22500
C  42.27600 7.09000 47.31000
C  45.15600 9.41500 47.14200
C  41.60100 9.29500 47.22800
O  41.52500 10.54500 47.20900
C  40.32100 8.42000 47.31500
C  39.47400 8.99600 48.42400
O  39.45200 8.68400 49.64600
O  38.56600 9.88600 47.85600
C  37.66800 10.49300 48.76800
H  39.12200 1.68800 47.64600
H  45.60200 0.59900 47.06500
H  46.61600 6.86600 47.29300
H  38.33700 6.24600 48.65900
H  38.01600 3.68600 46.92400
H  37.40100 4.32300 49.75600
H  38.55400 3.11600 49.79200
H  36.91700 2.86700 48.96400
H  37.68800 7.41300 46.80400
H  36.56500 6.08200 46.98700
H  37.16400 5.40300 44.93600
H  38.82000 5.18900 45.24900
H  40.59700 -1.83700 47.67800
H  40.27900 -1.17300 46.06200
H  39.35500 -0.56400 47.45700
H  45.50200 -1.90100 47.22600
H  45.26900 -0.94500 45.68900
H  44.97700 -2.78400 45.96300
H  47.60200 2.38700 46.32800
H  47.63900 4.50100 48.42800
H  48.55900 2.46100 48.95500
H  48.41900 1.06900 47.94200
H  47.19900 1.43800 49.16700
H  48.00100 5.71700 45.95400
H  48.54400 4.14600 45.52900
H  50.01400 4.57900 47.89100
H  50.25900 6.01900 46.95700
H  50.62200 4.41800 46.23700
H  44.57200 10.30900 46.92300
H  45.93400 9.26300 46.39400
H  45.56500 9.58600 48.13700
H  39.79400 8.64200 46.38700
H  37.04500 9.81900 49.35700
H  36.93800 11.12400 48.26100
H  38.19600 11.10300 49.50100
Mg 36.32200 49.54200 24.36700
C  36.68300 47.73500 27.25200
C  35.28200 52.24600 26.05900
C  35.55200 50.95000 21.42100
C  37.43300 46.66100 22.57200
N  35.80800 49.83500 26.47300
C  36.08900 48.96000 27.50200
C  35.68200 49.68300 28.76700
C  35.05500 51.05900 28.30800
C  35.41600 51.07900 26.84900
C  33.55300 51.18100 28.68800
C  36.90500 49.84200 29.78500
C  36.59300 50.18300 31.26900
H  35.41800 49.58600 32.15600
N  35.74200 51.44900 23.86200
C  35.36200 52.48600 24.68000
C  35.04700 53.65800 23.93900
C  34.91100 53.21300 22.58900
C  35.41400 51.78500 22.56100
C  34.86900 54.97400 24.56300
C  34.47500 53.90100 21.35400
O  34.43000 53.39400 20.26600
C  34.05500 55.40400 21.49100
N  36.40700 48.85300 22.26400
C  36.03200 49.65400 21.25600
C  36.19400 48.86800 19.92200
C  36.92400 47.58600 20.26900
C  37.01000 47.73100 21.80200
C  34.90600 48.57300 19.06500
C  38.31800 47.54400 19.55800
C  39.44900 48.46800 20.01400
N  37.00700 47.56300 24.78600
C  37.45600 46.56600 23.96200
C  37.92300 45.43700 24.77600
C  37.62600 45.84600 26.07400
C  37.11200 47.16000 26.01900
C  38.34400 44.11700 24.24600
C  37.57600 45.42200 27.44000
O  37.95500 44.33400 27.97500
C  36.91400 46.56000 28.23200
C  35.70200 46.24900 28.95800
O  34.53200 46.35200 28.54500
O  36.11200 45.83200 30.19800
C  35.04500 45.45100 31.13000
H  34.97300 53.19600 26.50100
H  35.22800 51.27300 20.43000
H  37.87100 45.74500 22.17000
H  35.01500 48.98200 29.26900
H  35.59800 51.88800 28.76300
H  33.15100 50.27900 29.14900
H  33.06300 51.49400 27.76600
H  33.47600 51.97700 29.42800
H  37.36500 50.74000 29.37200
H  37.58500 48.99300 29.72400
H  36.53400 51.25200 31.47300
H  37.45300 49.83600 31.84100
H  35.35800 55.73500 23.95400
H  35.31300 54.97300 25.55800
H  33.83900 55.30200 24.70100
H  33.51800 55.51000 20.54900
H  34.93300 56.03600 21.62700
H  33.30400 55.40400 22.28100
H  36.77300 49.40400 19.17000
H  36.37800 46.64500 20.20500
H  34.69400 47.51400 18.92200
H  35.06200 48.93500 18.04800
H  34.03700 49.11100 19.44400
H  38.12500 47.51900 18.48500
H  38.72200 46.56000 19.79900
H  39.83800 48.93200 19.10700
H  40.26100 47.83300 20.36800
H  39.15300 49.17500 20.78800
H  37.94000 44.02600 23.23800
H  37.84300 43.34500 24.83100
H  39.40500 43.86800 24.26000
H  37.66700 46.87800 28.95300
H  34.09200 45.87800 30.81700
H  35.32100 45.69000 32.15700
H  34.98400 44.36400 31.08300

