158

Mg 25.66000 1.51000 29.56000
C  27.53000 1.12000 32.39300
C  22.91000 1.79000 31.43300
C  23.82600 1.32500 26.56700
C  28.50100 0.82100 27.67500
N  25.28500 1.59700 31.65400
C  26.20600 1.42200 32.64200
C  25.63400 1.82400 34.06400
C  24.10200 1.89600 33.73900
C  24.05700 1.72700 32.19900
C  23.29800 0.83500 34.52300
C  26.27500 3.14900 34.58400
C  25.92300 3.50700 36.10300
H  27.02500 3.58200 37.12600
N  23.65800 1.66000 29.01500
C  22.72200 1.90500 29.97600
C  21.46500 2.03900 29.27700
C  21.73100 1.89300 27.87000
C  23.13900 1.70300 27.74400
C  20.18300 2.29900 29.93700
C  20.79700 2.07700 26.69800
O  21.10500 1.99300 25.51100
C  19.33000 2.20200 26.91400
N  26.03900 0.87400 27.41000
C  25.18800 1.09600 26.35400
C  25.88000 0.97000 24.96400
C  27.35900 0.98000 25.39700
C  27.30100 0.93200 26.94300
C  25.48200 -0.30200 24.07800
C  28.15200 2.15800 24.78900
C  28.11400 3.40700 25.72000
N  27.62300 0.99900 29.87400
C  28.65000 0.64400 29.02800
C  29.84500 0.57400 29.77300
C  29.40900 0.64600 31.12900
C  28.04900 0.90700 31.12600
C  31.27300 0.19500 29.24900
C  29.90200 0.66100 32.46600
O  31.04200 0.36100 32.85200
C  28.68000 0.99900 33.37600
C  28.48800 0.04800 34.46600
O  27.92500 -1.00400 34.36200
O  29.05500 0.44800 35.68000
C  28.97700 -0.52200 36.74600
H  22.02400 1.89900 32.06100
H  23.14700 1.25700 25.71500
H  29.48100 0.82100 27.19400
H  25.84800 0.99700 34.74100
H  23.80400 2.87600 34.11400
H  23.13200 1.19800 35.53800
H  23.95500 -0.03500 34.52300
H  22.32000 0.72700 34.05500
H  25.93700 3.98700 33.97400
H  27.35900 3.23100 34.51700
H  25.15300 2.81200 36.43900
H  25.38500 4.45400 36.07400
H  19.51200 1.48200 29.67300
H  19.72800 3.21900 29.57200
H  20.23000 2.35600 31.02500
H  19.40000 3.18800 27.37200
H  18.91200 1.42500 27.55400
H  18.83900 2.31000 25.94600
H  25.63800 1.81800 24.32300
H  27.81100 0.03200 25.10500
H  25.20800 -1.07200 24.80000
H  26.25400 -0.59200 23.36500
H  24.52400 -0.04500 23.62600
H  27.68600 2.59200 23.90300
H  29.21600 1.95900 24.66300
H  27.40900 3.40500 26.55100
H  27.96800 4.26100 25.05900
H  29.10600 3.58300 26.13500
H  32.04000 0.54300 29.94100
H  31.55200 0.59500 28.27300
H  31.31900 -0.88300 29.40100
H  28.85700 1.99200 33.78900
H  28.66100 -1.53800 36.51200
H  28.41700 -0.09900 37.58000
H  29.99300 -0.66500 37.11400
Mg 0.76200 42.52600 25.90700
C  2.49300 42.29800 28.97800
C  -2.13000 41.43100 27.57400
C  -0.84500 42.31500 22.96800
C  3.66400 43.41800 24.31800
N  0.27800 42.00300 28.02800
C  1.11600 42.10900 29.17800
C  0.26100 41.91900 30.45400
C  -1.14800 41.66300 29.91400
C  -1.02900 41.67300 28.37500
C  -1.85000 40.35600 30.48400
C  0.38300 43.22100 31.42000
C  0.44300 43.01000 32.96600
H  0.17800 41.68300 33.61200
N  -1.19500 41.85100 25.35000
C  -2.20300 41.46300 26.15800
C  -3.42600 41.26200 25.37600
C  -3.09000 41.59300 24.03200
C  -1.64600 41.91100 24.04700
C  -4.66400 40.66500 26.06200
C  -4.02600 41.65600 22.85100
O  -3.63300 41.85800 21.76900
C  -5.52200 41.51600 23.12400
N  1.46100 42.51100 23.86300
C  0.52300 42.60900 22.87400
C  1.27200 42.75300 21.50500
C  2.52000 43.54300 22.01000
C  2.61000 43.08900 23.48300
C  1.53800 41.39200 20.92200
C  2.53400 45.11000 21.79100
C  3.66600 45.71200 20.90400
N  2.70800 42.84500 26.50600
C  3.75800 43.19300 25.72900
C  4.88700 43.22100 26.53400
C  4.47600 43.00000 27.85500
C  3.15300 42.65200 27.76900
C  6.29100 43.52600 26.01500
C  4.89800 42.92100 29.24300
O  5.98300 42.99000 29.83200
C  3.57800 42.55100 30.03400
C  4.00700 41.35700 30.78200
O  4.21700 40.22700 30.37800
O  3.95400 41.65500 32.20100
C  4.10500 40.55600 33.07500
H  -3.06000 41.15800 28.07700
H  -1.32100 42.38800 21.98800
H  4.56100 43.77200 23.80600
H  0.57100 41.04100 31.02100
H  -1.83800 42.45300 30.21300
H  -1.52300 40.20600 31.51200
H  -1.66200 39.46400 29.88700
H  -2.92200 40.52400 30.38000
H  -0.42600 43.92000 31.20800
H  1.27200 43.77300 31.11500
H  -0.24000 43.72600 33.42300
H  1.35700 43.35100 33.45300
H  -4.55400 40.32900 27.09300
H  -5.02400 39.84200 25.44600
H  -5.38200 41.48100 25.98100
H  -5.85100 40.66500 23.72000
H  -6.06300 41.41400 22.18400
H  -5.73100 42.46900 23.61000
H  0.63900 43.33300 20.83400
H  3.42400 43.18100 21.52100
H  1.78200 40.64800 21.68100
H  2.46200 41.54600 20.36400
H  0.78700 40.92500 20.28400
H  2.72100 45.48300 22.79800
H  1.59700 45.38500 21.30600
H  4.22500 46.38700 21.55300
H  3.34300 46.42600 20.14700
H  4.35600 44.98200 20.48000
H  7.01400 43.07600 26.69600
H  6.47700 44.56200 25.73200
H  6.51800 42.95300 25.11600
H  3.37500 43.37600 30.71700
H  4.94800 39.91100 32.82900
H  3.24500 39.89100 33.00300
H  4.25800 41.01000 34.05500

