158

Mg 9.10100 3.40100 27.59600
C  10.33400 1.58400 30.31900
C  7.37000 5.32400 29.84200
C  7.52900 4.84600 24.91300
C  10.18200 0.80800 25.40900
N  8.88300 3.41100 29.79800
C  9.58300 2.68000 30.73200
C  9.58500 3.28400 32.17900
C  8.42600 4.45900 31.95200
C  8.15500 4.36400 30.47600
C  7.15800 4.26800 32.83600
C  10.94900 3.69800 32.79100
C  10.76800 4.67400 33.94600
H  11.55800 4.36100 35.23100
N  7.60400 4.86400 27.41900
C  7.08900 5.58900 28.42600
C  6.29200 6.65300 27.91200
C  6.18300 6.48100 26.50100
C  7.15700 5.35000 26.22800
C  5.56800 7.65800 28.91900
C  5.46300 7.28000 25.46700
O  5.63500 7.12000 24.24800
C  4.53500 8.43000 25.96300
N  9.00200 2.96600 25.45400
C  8.32900 3.73900 24.57000
C  8.28100 3.08500 23.12500
C  9.21900 1.84000 23.31900
C  9.42400 1.81200 24.83100
C  6.90600 2.70200 22.44400
C  10.61600 2.04300 22.66300
C  11.16900 0.78200 22.06200
N  9.99700 1.56000 27.78100
C  10.44900 0.68900 26.79100
C  11.17900 -0.32600 27.51100
C  11.21700 -0.00300 28.86000
C  10.48400 1.18700 28.97000
C  11.88200 -1.55800 26.87100
C  11.68800 -0.38900 30.15000
O  12.30400 -1.40300 30.48600
C  11.14200 0.62200 31.22800
C  10.25900 0.06000 32.24100
O  9.09400 -0.32600 32.03000
O  10.84600 0.17200 33.46700
C  9.94800 -0.16500 34.60400
H  6.79600 5.83900 30.61600
H  6.99200 5.21500 24.03700
H  10.67300 0.08500 24.75500
H  9.18300 2.51000 32.83100
H  8.83500 5.46900 31.91900
H  6.26900 4.10200 32.22700
H  6.92000 5.01600 33.59200
H  7.27400 3.31500 33.35300
H  11.69500 4.14900 32.13800
H  11.45100 2.79200 33.13200
H  9.69600 4.65000 34.14000
H  11.07000 5.66400 33.60300
H  5.40100 7.31600 29.94100
H  4.56600 7.86900 28.54400
H  6.19900 8.54300 28.99700
H  5.19300 9.00600 26.61400
H  3.70100 8.17800 26.61800
H  4.16000 9.02500 25.13100
H  8.77800 3.79100 22.46000
H  8.78600 0.86700 23.08500
H  6.17700 2.99300 23.20100
H  6.79100 1.62500 22.32500
H  6.71400 3.14900 21.46900
H  11.39200 2.27000 23.39400
H  10.58700 2.81600 21.89400
H  10.32800 0.25000 21.61900
H  11.71200 0.29500 22.87200
H  11.90500 0.96500 21.27900
H  11.28800 -1.79400 25.98800
H  11.78500 -2.36600 27.59600
H  12.91100 -1.28100 26.64400
H  11.90500 1.15900 31.79100
H  9.66800 0.81300 34.99600
H  10.44400 -0.77400 35.35900
H  9.01700 -0.68800 34.38700
Mg 53.10300 23.41100 45.28300
C  50.56300 25.63300 44.19600
C  51.30300 20.81200 44.27200
C  55.93000 21.66000 45.69300
C  54.77800 26.37000 46.37700
N  51.28000 23.25300 44.07200
C  50.29800 24.23800 43.85700
C  49.00000 23.65800 43.26400
C  49.16100 22.23100 43.84600
C  50.67400 22.03400 44.08100
C  48.32600 21.97900 45.09600
C  49.06200 23.79800 41.68000
C  47.73600 24.34000 41.03100
H  47.10300 23.43200 39.88100
N  53.56000 21.49100 44.90000
C  52.66200 20.51900 44.53200
C  53.26600 19.23700 44.43100
C  54.58100 19.36000 44.94500
C  54.75700 20.89000 45.23000
C  52.63100 18.01900 43.89500
C  55.71100 18.31700 45.12600
O  55.46400 17.14400 44.87400
C  57.09400 18.52600 45.60600
N  55.04000 23.94600 45.85300
C  56.04000 23.02600 45.90400
C  57.36800 23.70500 46.32900
C  56.98200 25.13600 46.45100
C  55.46900 25.14300 46.24400
C  58.12100 23.02600 47.51100
C  57.72500 26.17100 45.53300
C  58.77200 26.99900 46.30100
N  52.78400 25.53200 45.40100
C  53.47500 26.56400 45.96200
C  52.67900 27.79000 46.00100
C  51.53200 27.49600 45.22800
C  51.63900 26.12400 44.90400
C  53.05600 29.06600 46.67200
C  50.41500 28.03900 44.59700
O  49.99500 29.17400 44.54600
C  49.73700 26.79400 43.86000
C  49.73600 27.15300 42.34700
O  50.74000 27.41300 41.70000
O  48.48200 27.52700 41.94500
C  48.48800 28.24500 40.63300
H  50.66300 19.94400 44.10100
H  56.88500 21.13800 45.78300
H  55.42400 27.17200 46.73900
H  48.07300 24.12000 43.60200
H  48.79900 21.61100 43.02600
H  48.99200 21.63500 45.88700
H  47.62500 21.19900 44.79900
H  47.81600 22.84600 45.51500
H  49.30800 22.85500 41.19000
H  49.92400 24.38800 41.37000
H  48.04300 25.25200 40.51900
H  46.93300 24.57300 41.73000
H  51.55600 17.99400 44.07500
H  52.97100 17.13700 44.43800
H  52.85600 17.80700 42.85000
H  57.60200 18.82400 44.68900
H  57.51300 17.58500 45.96400
H  57.33300 19.22600 46.40600
H  57.98800 23.49300 45.45800
H  57.19300 25.32200 47.50400
H  57.53600 22.28200 48.05200
H  58.45100 23.73000 48.27600
H  59.10000 22.61600 47.26200
H  57.01800 26.80400 44.99600
H  58.35200 25.75100 44.74600
H  58.34600 28.00100 46.24700
H  59.63300 26.99900 45.63300
H  59.04900 26.68800 47.30800
H  52.17000 29.51100 47.12500
H  53.34600 29.75200 45.87600
H  53.79600 29.00100 47.47000
H  48.68700 26.73700 44.14800
H  47.55400 28.78500 40.78500
H  48.43100 27.54800 39.79700
H  49.30400 28.92000 40.37700

