158

Mg 53.24600 23.20300 44.25600
C  50.91000 25.56200 43.42600
C  51.02700 20.79000 43.09800
C  55.66400 20.88800 44.77200
C  55.45300 25.78300 45.00400
N  51.28500 23.22900 43.03900
C  50.53000 24.29600 42.92700
C  49.18100 23.87700 42.32600
C  48.99000 22.37800 42.65600
C  50.51600 22.11000 43.05500
C  48.08700 22.06700 43.83000
C  49.18100 24.12600 40.70900
C  47.74000 24.33600 40.11800
H  47.15800 23.24700 39.25700
N  53.36800 21.15900 43.90600
C  52.35500 20.35300 43.46200
C  52.71200 18.98100 43.52900
C  54.06400 18.97300 43.94000
C  54.44200 20.37900 44.25700
C  51.75000 17.79400 43.14800
C  54.86600 17.73500 43.90500
O  54.37700 16.70500 43.56300
C  56.27900 17.71100 44.27700
N  55.35500 23.26800 44.71500
C  56.11700 22.20800 44.96400
C  57.54600 22.64800 45.41400
C  57.42100 24.23400 45.55300
C  56.01800 24.48100 45.04800
C  58.20200 22.00100 46.61300
C  58.51600 25.08800 44.83800
C  59.70900 25.39400 45.80000
N  53.26500 25.23200 44.32000
C  54.21700 26.15700 44.72200
C  53.71100 27.44200 44.61100
C  52.38400 27.25800 44.17000
C  52.19700 25.91500 43.94200
C  54.35000 28.76400 44.89400
C  51.17900 27.93800 43.82000
O  50.90600 29.10900 43.92300
C  50.11800 26.86900 43.41700
C  49.57900 27.12700 42.05700
O  50.18200 27.32800 41.04600
O  48.21300 27.10500 42.18900
C  47.41500 27.78100 41.14900
H  50.22700 20.09100 42.84700
H  56.50200 20.18800 44.77400
H  56.05500 26.57100 45.46100
H  48.22700 24.31400 42.62000
H  48.77700 21.81900 41.74400
H  48.70000 21.59700 44.59900
H  47.30800 21.41700 43.43100
H  47.65900 22.96600 44.27500
H  49.57700 23.25100 40.19300
H  49.78000 24.98400 40.40100
H  47.75700 25.30700 39.62500
H  47.03500 24.45700 40.94100
H  52.10200 17.06300 42.42100
H  50.76800 18.12900 42.81400
H  51.49800 17.41400 44.13800
H  56.77000 17.94800 43.33400
H  56.51800 16.65700 44.42200
H  56.55600 18.25700 45.17900
H  58.20100 22.37000 44.58800
H  57.42200 24.43900 46.62300
H  57.70500 21.09000 46.94500
H  58.44500 22.58900 47.49900
H  59.23700 21.77600 46.35600
H  58.00400 26.01900 44.59400
H  58.85300 24.71300 43.87200
H  59.54000 24.90900 46.76100
H  59.79400 26.47500 45.91100
H  60.58400 24.97600 45.30300
H  54.10300 29.08100 45.90700
H  54.01500 29.55500 44.22200
H  55.43700 28.68600 44.87400
H  49.35300 26.80600 44.19000
H  46.90100 27.09300 40.47800
H  47.92600 28.59600 40.63500
H  46.60100 28.20400 41.73800
Mg 47.83700 34.80100 27.61900
C  46.16600 32.89800 30.06100
C  47.94600 37.46000 29.90400
C  49.16000 36.77000 25.25700
C  46.84500 32.46300 25.27300
N  47.24800 35.07200 29.69300
C  46.60400 34.10900 30.47200
C  46.68700 34.58300 31.96000
C  46.78100 36.15300 31.79600
C  47.38800 36.25500 30.41000
C  45.45500 37.02400 31.89200
C  48.09400 34.02400 32.48700
C  48.24100 33.44500 33.91600
H  47.40100 34.03300 35.14300
N  48.56500 36.82500 27.62500
C  48.62900 37.66800 28.67500
C  49.39500 38.82300 28.36000
C  49.77900 38.67600 27.01700
C  49.15800 37.40800 26.54100
C  49.58200 39.93500 29.26800
C  50.50300 39.61300 26.14300
O  50.75700 39.35500 24.97500
C  50.88100 40.98000 26.68900
N  48.00300 34.66100 25.55100
C  48.55000 35.60700 24.73400
C  48.42400 35.22300 23.21700
C  47.70900 33.82400 23.33600
C  47.56600 33.61100 24.78700
C  47.67100 36.22000 22.31400
C  48.34100 32.69800 22.47600
C  47.59200 32.23800 21.22000
N  46.91200 32.98600 27.64500
C  46.57500 32.14000 26.59500
C  45.90700 30.94400 27.10800
C  45.76500 31.27800 28.50700
C  46.27000 32.48800 28.72700
C  45.45700 29.76500 26.32700
C  45.13300 30.80800 29.66500
O  44.44700 29.80600 29.86400
C  45.46200 31.82600 30.76400
C  46.25800 31.15700 31.88500
O  47.40600 30.83300 31.86700
O  45.27000 30.70300 32.81100
C  45.76600 29.93200 33.97800
H  48.05400 38.28000 30.61600
H  49.52300 37.40400 24.44500
H  46.70000 31.66200 24.54400
H  45.80000 34.19800 32.46400
H  47.54400 36.49300 32.49700
H  44.58600 36.36800 31.83500
H  45.47400 37.71800 31.05200
H  45.35200 37.58100 32.82300
H  48.77800 34.87200 32.47600
H  48.46400 33.24900 31.81500
H  49.31300 33.44700 34.11500
H  47.95300 32.41200 34.10800
H  49.40700 39.68700 30.31500
H  49.07500 40.83500 28.91900
H  50.62400 40.25200 29.22700
H  51.80500 41.04100 27.26400
H  50.04200 41.50400 27.14800
H  50.89600 41.69400 25.86500
H  49.39300 34.98300 22.77900
H  46.65600 33.87700 23.05900
H  46.92700 35.77200 21.65500
H  48.36600 36.92300 21.85400
H  47.16200 36.91400 22.98300
H  48.56300 31.88100 23.16300
H  49.16400 33.19400 21.96200
H  47.87000 32.77200 20.31200
H  46.51100 32.29200 21.34800
H  47.80600 31.18400 21.04400
H  44.45800 30.08700 26.03200
H  45.50600 28.95200 27.05100
H  46.18300 29.56400 25.53900
H  44.61500 32.30900 31.25200
H  46.32900 30.59600 34.63400
H  46.37300 29.13000 33.55900
H  44.88600 29.55700 34.50100

