158

Mg 16.84800 51.96400 25.53300
C  18.72300 50.72100 28.29300
C  14.48600 52.98400 27.83800
C  15.41800 53.60700 23.09600
C  19.51300 50.91500 23.51800
N  16.66200 51.74600 27.84800
C  17.58100 51.35100 28.74400
C  17.15600 51.67300 30.18500
C  15.70900 52.22200 30.10700
C  15.56100 52.29100 28.48700
C  14.60100 51.22500 30.54500
C  18.15400 52.67500 30.84700
C  18.28300 52.51200 32.42100
H  17.16300 53.30200 33.18500
N  15.24300 53.16000 25.43600
C  14.36500 53.48300 26.48800
C  13.36700 54.35700 26.00700
C  13.66800 54.58600 24.65200
C  14.82300 53.74500 24.31200
C  12.25900 54.81900 26.99900
C  13.06000 55.52400 23.67700
O  13.44400 55.71700 22.52100
C  11.91500 56.42100 24.15600
N  17.36000 52.10600 23.58300
C  16.61500 52.90900 22.70400
C  17.14000 52.83000 21.22400
C  18.43300 51.97700 21.44100
C  18.50400 51.73300 22.96600
C  16.09900 52.31400 20.12500
C  19.70300 52.70600 20.89100
C  20.43900 52.10500 19.68800
N  18.64500 50.72400 25.72400
C  19.65700 50.37600 24.81200
C  20.69500 49.63600 25.45000
C  20.41300 49.86100 26.84000
C  19.13800 50.50500 26.92300
C  21.87000 49.06800 24.81100
C  20.88800 49.50600 28.16600
O  21.91600 48.96800 28.60000
C  19.85600 50.10800 29.11500
C  19.23200 49.03400 29.90100
O  18.45900 48.18100 29.53200
O  19.39000 49.32200 31.28900
C  18.62300 48.42500 32.19200
H  13.75200 53.32500 28.57100
H  15.05600 53.99700 22.14200
H  20.35600 50.78600 22.83600
H  17.21000 50.69000 30.65300
H  15.59900 53.24600 30.46400
H  14.08000 50.80200 29.68600
H  13.89400 51.60900 31.28000
H  15.06700 50.43200 31.12900
H  17.62900 53.60000 30.60800
H  19.10500 52.69700 30.31400
H  19.24100 52.97200 32.66700
H  18.10900 51.50000 32.78600
H  12.12500 54.10100 27.80800
H  11.26600 55.09300 26.64200
H  12.57600 55.67300 27.59700
H  12.30700 57.20000 24.81100
H  11.20100 55.79100 24.68600
H  11.32600 56.87500 23.35900
H  17.30500 53.82800 20.81600
H  18.32200 51.04600 20.88600
H  15.24800 51.85500 20.62800
H  16.50900 51.51000 19.51400
H  15.83200 53.23200 19.60000
H  20.40100 52.71000 21.72900
H  19.57900 53.76800 20.68100
H  19.89300 51.35800 19.11200
H  21.36400 51.61700 19.99500
H  20.76000 52.97800 19.11900
H  21.93200 49.42300 23.78200
H  21.82400 47.98500 24.69300
H  22.78300 49.27800 25.36700
H  20.24500 50.76200 29.89600
H  17.73700 48.08300 31.65900
H  18.31000 48.90400 33.12000
H  19.19300 47.56300 32.53900
Mg -6.09700 25.44500 25.85600
C  -4.41600 26.87400 28.60600
C  -7.19600 22.99400 28.00900
C  -6.82100 23.48500 23.16300
C  -4.25100 27.65200 23.80200
N  -5.77300 25.03500 28.09000
C  -5.28800 25.89000 29.02600
C  -5.62100 25.50900 30.43700
C  -6.27300 24.06800 30.18800
C  -6.41200 24.00800 28.63900
C  -5.41700 22.85300 30.81500
C  -6.67500 26.44800 31.09900
C  -6.64900 26.72000 32.62500
H  -5.84400 25.78400 33.53700
N  -6.95200 23.58900 25.65200
C  -7.46000 22.79300 26.65000
C  -8.21000 21.69500 26.10000
C  -8.03700 21.75200 24.69400
C  -7.20800 22.98200 24.48100
C  -8.94000 20.63200 26.90400
C  -8.44800 20.80500 23.59300
O  -8.19500 21.01200 22.44900
C  -9.26200 19.46000 23.86800
N  -5.52400 25.49600 23.74600
C  -6.04100 24.64800 22.84000
C  -5.58700 24.98000 21.45300
C  -4.99100 26.45500 21.60300
C  -4.88500 26.54800 23.14400
C  -4.55300 23.89500 20.87100
C  -5.81500 27.66500 21.01300
C  -5.01200 28.50700 19.92400
N  -4.67500 27.00300 26.10700
C  -4.04200 27.80000 25.17300
C  -3.27600 28.83600 25.83600
C  -3.42700 28.53300 27.16400
C  -4.17700 27.37700 27.28800
C  -2.43500 29.97000 25.20300
C  -2.92200 28.95600 28.54000
O  -2.17700 29.82700 28.92100
C  -3.58500 27.82800 29.47900
C  -2.44700 27.06000 30.01800
O  -1.64300 26.42100 29.39000
O  -2.38200 27.07100 31.41700
C  -1.27600 26.47400 32.18300
H  -7.53700 22.20100 28.67800
H  -6.95200 22.89300 22.25500
H  -3.78200 28.33200 23.08700
H  -4.69500 25.42500 31.00600
H  -7.30400 24.06900 30.54000
H  -4.78100 22.26000 30.15800
H  -6.18600 22.21300 31.24800
H  -4.87000 23.33300 31.62700
H  -7.71900 26.31600 30.81300
H  -6.50000 27.42800 30.65500
H  -7.65800 26.89500 32.99700
H  -6.18700 27.69700 32.76800
H  -8.26700 19.79400 27.08900
H  -9.84600 20.22100 26.45800
H  -9.21900 21.09900 27.84900
H  -8.69400 18.80600 24.53000
H  -9.37600 18.76900 23.03200
H  -10.21000 19.65700 24.36800
H  -6.38200 25.07300 20.71400
H  -3.97600 26.49800 21.20600
H  -4.22400 23.46400 21.81700
H  -3.73400 24.29700 20.27500
H  -5.05500 23.14000 20.26700
H  -6.12100 28.22700 21.89500
H  -6.60700 27.22600 20.40600
H  -5.66400 29.24800 19.46100
H  -4.40900 27.85400 19.29300
H  -4.28900 29.11800 20.46500
H  -1.96500 29.55800 24.31000
H  -1.85200 30.62400 25.85000
H  -3.24400 30.60100 24.83300
H  -4.22800 28.17900 30.28600
H  -0.99900 25.51400 31.74500
H  -1.76800 26.23500 33.12600
H  -0.46600 27.14500 32.46400

