158

Mg 48.04900 25.66300 28.04700
C  49.00600 27.89400 30.55100
C  46.75500 23.62100 30.59400
C  47.40100 23.32600 25.81500
C  49.56000 27.72700 25.71700
N  47.76800 25.82500 30.29900
C  48.20200 26.84500 31.09900
C  47.69800 26.76200 32.50100
C  47.00800 25.30900 32.53800
C  47.27000 24.82300 31.02500
C  47.50800 24.36000 33.65800
C  46.80700 27.93300 32.93900
C  47.13900 28.58200 34.32200
H  45.92000 28.94300 35.19800
N  47.18300 23.74100 28.18600
C  46.70600 23.06300 29.29200
C  46.07500 21.89100 28.83800
C  46.30300 21.74100 27.47600
C  47.01900 22.98200 27.09500
C  45.35600 21.01800 29.77700
C  46.08800 20.55700 26.52400
O  46.44700 20.47600 25.35100
C  45.34400 19.32400 27.05600
N  48.52500 25.48700 26.06500
C  48.10400 24.40900 25.29300
C  48.35300 24.68600 23.75600
C  48.76200 26.21800 23.79500
C  48.89700 26.56600 25.28300
C  49.41200 23.74300 23.13600
C  47.82300 27.14500 22.92900
C  48.69900 27.99800 21.93800
N  49.14700 27.37600 28.07100
C  49.70100 28.11100 27.02800
C  50.31900 29.32800 27.57800
C  50.10800 29.20400 28.92300
C  49.43000 28.03700 29.22700
C  51.00600 30.43900 26.83100
C  50.35800 29.90100 30.19300
O  51.01100 30.90400 30.48900
C  49.60700 29.07400 31.21800
C  50.37600 28.65800 32.47300
O  51.23200 27.77800 32.49600
O  50.12500 29.49200 33.48800
C  50.90200 29.32400 34.74700
H  46.22800 23.03200 31.34800
H  47.27800 22.52000 25.08800
H  49.93700 28.39900 24.94400
H  48.55700 26.82100 33.17000
H  45.94000 25.44300 32.71600
H  47.78300 23.37600 33.27700
H  46.87000 24.26900 34.53700
H  48.44800 24.76800 34.02800
H  45.81200 27.52900 33.12800
H  46.55500 28.64000 32.14800
H  47.68900 29.52200 34.28400
H  47.77700 27.95200 34.94200
H  45.09900 21.32100 30.79200
H  45.89400 20.07600 29.88500
H  44.37400 20.82900 29.34500
H  45.32800 18.52200 26.31800
H  44.33800 19.62800 27.34500
H  45.66000 18.94500 28.02700
H  47.37000 24.49700 23.32200
H  49.79600 26.23100 23.45100
H  49.49500 22.99300 23.92400
H  50.29600 24.33100 22.88900
H  48.91300 23.33200 22.25900
H  47.26300 27.93200 23.43500
H  47.13300 26.52400 22.35700
H  48.09400 28.86200 21.66500
H  48.77000 27.36700 21.05100
H  49.67100 28.28000 22.34200
H  51.75200 30.65600 27.59500
H  50.32000 31.20000 26.46000
H  51.48700 30.06500 25.92700
H  48.81200 29.70900 31.60700
H  51.13000 30.30300 35.16900
H  51.81100 28.74300 34.59400
H  50.29800 28.69300 35.40000
Mg 49.41700 46.85500 43.18000
C  46.18300 47.44100 42.15700
C  49.22800 43.96400 41.16400
C  52.69300 46.39800 43.56000
C  49.66600 49.97900 44.36500
N  47.90900 45.81700 41.86600
C  46.68500 46.32900 41.55000
C  46.02300 45.53200 40.44200
C  46.94600 44.29600 40.19200
C  48.13600 44.72500 41.11900
C  46.25600 42.85700 40.40700
C  45.65300 46.23200 39.19000
C  44.23100 45.92700 38.64800
H  44.15000 45.82000 37.08500
N  50.82300 45.29100 42.64300
C  50.46300 44.17200 41.85500
C  51.65900 43.25500 41.86000
C  52.65700 43.91500 42.69500
C  52.05100 45.22700 43.06900
C  51.83100 41.90300 41.14400
C  53.98700 43.39400 43.09500
O  54.38300 42.25700 42.72400
C  54.82500 44.01800 44.27100
N  50.94000 48.04200 43.95800
C  52.21700 47.64300 43.97700
C  53.20300 48.70700 44.59700
C  52.18100 49.77200 44.96800
C  50.81200 49.23200 44.41800
C  54.23100 48.32800 45.63000
C  52.56400 51.21100 44.34600
C  52.53700 52.27200 45.41200
N  48.22400 48.39000 43.39200
C  48.42000 49.60800 43.91700
C  47.13300 50.35600 43.95300
C  46.22500 49.46200 43.35800
C  46.93000 48.29600 42.98600
C  46.87100 51.79500 44.51400
C  44.90100 49.35900 42.94900
O  44.01300 50.19200 43.03100
C  44.77900 48.02700 42.13600
C  43.78600 47.03700 42.76300
O  43.79900 46.78900 43.96700
O  42.87400 46.68300 41.77100
C  41.80300 45.83300 42.35100
H  49.32200 43.14200 40.45100
H  53.72800 46.16400 43.81700
H  49.75600 51.00800 44.72100
H  45.07300 45.25200 40.89700
H  47.37100 44.30600 39.18800
H  45.31900 42.86300 40.96400
H  47.05400 42.32600 40.92500
H  46.08800 42.47400 39.40000
H  46.39900 46.07600 38.41000
H  45.86500 47.29100 39.33300
H  43.58100 46.71200 39.03600
H  43.90200 44.98200 39.07900
H  52.54800 42.02200 40.33200
H  50.89900 41.55100 40.70200
H  52.19700 41.14000 41.83000
H  55.41700 43.21300 44.70600
H  54.19900 44.32600 45.10800
H  55.41200 44.87900 43.95300
H  53.74400 48.91000 43.67300
H  52.05000 49.77200 46.05100
H  54.40700 49.07500 46.40400
H  55.18100 48.06400 45.16600
H  53.76900 47.46800 46.11300
H  51.94000 51.49700 43.49900
H  53.61300 51.19100 44.04900
H  51.73800 52.90400 45.02400
H  53.53900 52.69900 45.37200
H  52.32400 51.95900 46.43400
H  45.92700 51.86500 45.05500
H  46.83400 52.60400 43.78400
H  47.64800 52.07500 45.22500
H  44.48400 48.29400 41.12100
H  41.28000 46.36500 43.14600
H  42.29800 44.99300 42.83800
H  41.10400 45.37600 41.65100

