158

Mg 47.24900 14.49800 27.65700
C  45.39800 14.73800 30.70900
C  49.46900 16.74000 28.92300
C  48.61100 14.81300 24.60100
C  44.49800 12.88000 26.41200
N  47.43500 15.59800 29.64700
C  46.54800 15.48800 30.65300
C  47.13400 16.28000 31.87500
C  48.19600 17.23000 31.16200
C  48.43200 16.52500 29.83300
C  47.80500 18.69400 30.90700
C  47.75600 15.23600 32.92900
C  47.03500 15.18200 34.31200
H  48.01300 15.11900 35.49700
N  48.98500 15.42800 26.94800
C  49.80300 16.23900 27.63000
C  50.89000 16.67500 26.79400
C  50.59400 16.17300 25.50600
C  49.37800 15.41900 25.60000
C  51.99600 17.59600 27.19300
C  51.29500 16.37300 24.18800
O  51.04300 15.74700 23.14900
C  52.36200 17.45900 24.07600
N  46.60800 14.00000 25.80400
C  47.36300 14.16800 24.68900
C  46.68000 13.51300 23.48400
C  45.54900 12.64200 24.15600
C  45.59300 13.18900 25.60000
C  46.18300 14.61700 22.43800
C  45.72500 11.10200 23.97500
C  46.97100 10.43400 24.68600
N  45.37200 13.81200 28.36900
C  44.27600 13.24100 27.72800
C  43.27700 12.90200 28.64700
C  43.65900 13.38700 29.88200
C  44.90100 14.00900 29.62200
C  41.97600 12.22000 28.35600
C  43.35600 13.58900 31.29200
O  42.33100 13.31100 31.94800
C  44.49700 14.48800 31.89200
C  43.89800 15.62500 32.57500
O  43.55500 16.71200 32.07300
O  43.66000 15.34900 33.93800
C  43.00000 16.37100 34.63000
H  50.06300 17.56500 29.32300
H  48.94700 14.88300 23.56400
H  43.70000 12.26600 25.99000
H  46.34300 16.84200 32.37000
H  49.05000 17.41800 31.81400
H  46.72300 18.71000 31.03800
H  47.82200 18.97100 29.85300
H  48.39600 19.38900 31.50400
H  48.79100 15.50100 33.14500
H  47.75200 14.22600 32.51800
H  46.55600 14.21000 34.42900
H  46.29200 15.96300 34.47500
H  52.11500 17.50700 28.27300
H  51.68100 18.59800 26.90300
H  52.98600 17.44400 26.76200
H  53.28900 17.33600 24.63600
H  51.92800 18.41600 24.36600
H  52.69900 17.52700 23.04200
H  47.39500 12.89800 22.93700
H  44.62400 12.93500 23.65900
H  45.44300 15.25800 22.91800
H  45.84600 14.07700 21.55300
H  46.99600 15.27600 22.13000
H  45.82000 10.97500 22.89600
H  44.80800 10.61000 24.30100
H  46.53600 9.81500 25.47100
H  47.57600 11.23100 25.12000
H  47.43700 9.72900 23.99800
H  41.59700 12.09100 29.37000
H  41.94700 11.21500 27.93600
H  41.36600 12.86400 27.72100
H  45.00400 13.82600 32.59500
H  43.51400 16.37800 35.59100
H  42.02500 16.04400 34.99000
H  43.00400 17.39700 34.26100
Mg -8.45400 40.63300 42.45100
C  -7.56400 37.31100 41.48400
C  -5.61700 41.77600 40.68200
C  -9.74500 43.71500 42.50600
C  -11.64300 39.20300 43.27400
N  -6.80500 39.58300 41.23200
C  -6.68300 38.26700 40.91900
C  -5.40700 37.99400 40.03500
C  -4.71100 39.45600 39.95600
C  -5.78100 40.37700 40.64800
C  -3.30400 39.54700 40.51900
C  -5.76000 37.32000 38.66000
C  -5.16500 35.94700 38.42200
H  -3.98900 35.93500 37.34700
N  -7.69800 42.52000 41.93200
C  -6.51200 42.77800 41.20400
C  -6.29300 44.22500 41.14000
C  -7.54500 44.78700 41.65200
C  -8.40000 43.63800 42.09400
C  -5.20600 44.98000 40.47400
C  -7.75000 46.30900 41.72100
O  -6.94200 47.11400 41.27900
C  -8.95000 46.87500 42.34900
N  -10.37900 41.32800 43.08200
C  -10.63900 42.69300 42.92200
C  -12.18900 42.98700 43.04900
C  -12.76200 41.51000 43.31300
C  -11.52000 40.60000 43.16500
C  -12.55200 44.04600 44.18400
C  -13.90200 41.14900 42.34800
C  -15.13900 40.52500 42.93100
N  -9.35800 38.61900 42.54500
C  -10.62800 38.24100 42.91500
C  -10.69400 36.81800 43.06800
C  -9.44400 36.36000 42.51400
C  -8.74600 37.50100 42.18800
C  -11.86600 36.02700 43.62000
C  -8.56100 35.21800 42.25700
O  -8.77900 34.02100 42.43500
C  -7.30500 35.78400 41.58700
C  -6.10500 35.52000 42.36300
O  -5.71900 36.17100 43.36200
O  -5.39800 34.43900 41.80100
C  -4.27500 33.96200 42.52000
H  -4.80400 42.16400 40.06400
H  -10.38200 44.56100 42.23800
H  -12.64000 38.86900 43.56900
H  -4.76600 37.32300 40.60600
H  -4.69100 39.70900 38.89600
H  -3.17800 38.70800 41.20300
H  -3.11100 40.53500 40.93900
H  -2.55800 39.44100 39.73100
H  -5.48900 37.95700 37.81900
H  -6.83800 37.17300 38.59300
H  -5.91300 35.23200 38.07900
H  -4.86300 35.51100 39.37400
H  -4.65600 45.52600 41.24000
H  -5.60600 45.59000 39.66300
H  -4.42800 44.30300 40.12000
H  -8.92100 47.90400 42.70500
H  -9.05700 46.36800 43.30800
H  -9.77700 46.76200 41.64700
H  -12.69800 43.30900 42.14000
H  -13.12100 41.50900 44.34200
H  -11.56500 44.39900 44.48400
H  -13.18200 43.71900 45.01100
H  -12.97900 44.96300 43.77600
H  -13.30400 40.63100 41.59900
H  -14.30500 42.05100 41.88800
H  -15.51600 40.96300 43.85500
H  -15.03200 39.45300 43.09900
H  -16.01800 40.57600 42.28900
H  -12.18700 36.20200 44.64600
H  -11.53800 34.98800 43.65600
H  -12.71700 36.08400 42.94100
H  -7.22000 35.44200 40.55500
H  -4.31800 32.87300 42.55300
H  -4.35200 34.26300 43.56500
H  -3.37600 34.19000 41.94800

