158

Mg -2.41500 16.50200 26.87900
C  -2.87100 14.72200 29.84400
C  -2.37600 19.43900 28.80600
C  -2.37700 18.20900 24.02400
C  -2.80400 13.47600 25.15100
N  -2.60000 16.96300 29.09500
C  -2.82700 16.11900 30.11400
C  -2.86900 16.80600 31.47500
C  -2.77000 18.29600 31.11200
C  -2.52000 18.26800 29.58600
C  -3.91700 19.21200 31.49400
C  -1.77800 16.39000 32.54900
C  -1.61800 17.34900 33.76500
H  -0.84300 16.91300 35.05100
N  -2.36000 18.52900 26.47800
C  -2.32900 19.53400 27.40200
C  -2.26400 20.79300 26.66500
C  -2.21500 20.58500 25.25900
C  -2.27800 19.05900 25.14800
C  -2.30700 22.19200 27.45500
C  -2.08700 21.53900 24.09200
O  -1.94500 21.11900 22.93800
C  -1.99500 23.01700 24.33600
N  -2.76400 15.92900 24.85900
C  -2.44600 16.79900 23.87800
C  -2.46400 16.09000 22.52400
C  -2.28800 14.58100 22.90800
C  -2.62300 14.61200 24.40800
C  -3.72900 16.43400 21.66100
C  -0.79100 14.13400 22.68400
C  -0.48500 13.75700 21.18600
N  -2.79400 14.59500 27.28700
C  -2.86800 13.41700 26.52100
C  -2.98900 12.27300 27.33600
C  -2.96200 12.76400 28.60400
C  -2.85600 14.18000 28.60000
C  -3.08700 10.89500 26.78300
C  -3.00700 12.39900 29.94600
O  -3.25100 11.27400 30.39000
C  -2.92700 13.65500 30.80200
C  -1.72200 13.39400 31.56900
O  -0.58200 13.73600 31.25900
O  -2.13700 12.67700 32.64600
C  -1.05900 12.43400 33.55100
H  -2.29500 20.32800 29.43600
H  -2.31900 18.69600 23.04900
H  -2.67300 12.54100 24.60200
H  -3.89900 16.62700 31.78400
H  -1.93200 18.81300 31.58000
H  -3.56300 20.22300 31.69400
H  -4.42600 18.81600 32.37200
H  -4.67100 19.36000 30.72100
H  -0.79400 16.24700 32.10100
H  -1.94300 15.41500 33.00500
H  -2.55300 17.79800 34.09900
H  -0.99700 18.12500 33.31800
H  -1.24600 22.34300 27.65500
H  -2.91900 22.17800 28.35700
H  -2.59200 23.06300 26.86600
H  -2.09400 23.49600 23.36200
H  -1.00800 23.30100 24.70000
H  -2.87800 23.35400 24.88000
H  -1.65800 16.42400 21.87100
H  -2.97000 13.99000 22.29600
H  -4.13300 15.52400 21.21900
H  -3.45700 17.02200 20.78500
H  -4.47900 16.99700 22.21800
H  -0.53700 13.30000 23.34000
H  -0.08800 14.95400 22.83200
H  0.16500 12.88200 21.17700
H  0.10500 14.59800 20.82200
H  -1.39900 13.76300 20.59200
H  -2.30600 10.74700 26.03800
H  -4.01500 10.81600 26.21700
H  -2.94400 10.22100 27.62800
H  -3.83600 13.73200 31.39800
H  -0.02700 12.44300 33.20100
H  -1.28500 11.47100 34.00800
H  -1.24200 13.22400 34.28000
Mg 24.20600 -6.07900 44.78400
C  26.50200 -3.68500 43.59200
C  21.69600 -4.54500 43.27600
C  22.30800 -8.83900 45.40000
C  27.04200 -7.61700 46.35000
N  24.17900 -4.36000 43.44500
C  25.19100 -3.48700 43.11500
C  24.69300 -2.39700 42.12400
C  23.13000 -2.62500 42.35100
C  22.94500 -3.92800 43.08400
C  22.42300 -1.50300 43.15300
C  25.26600 -2.64100 40.68200
C  25.44800 -1.37000 39.77400
H  24.73900 -1.35200 38.36600
N  22.26500 -6.58000 44.34200
C  21.38800 -5.80000 43.76700
C  20.07900 -6.39500 43.69400
C  20.29500 -7.68000 44.29500
C  21.67700 -7.74400 44.71000
C  18.86100 -5.70200 43.09400
C  19.16000 -8.81000 44.39400
O  18.04500 -8.69200 43.84900
C  19.41600 -10.10100 45.20400
N  24.62400 -7.92300 45.62200
C  23.62200 -8.86600 45.81200
C  24.20600 -10.14200 46.38100
C  25.55600 -9.65100 47.02700
C  25.79900 -8.32200 46.24200
C  23.32800 -10.88900 47.44800
C  26.75600 -10.65200 46.97900
C  27.35600 -10.91000 48.35600
N  26.39800 -5.69100 45.10700
C  27.36900 -6.35100 45.74900
C  28.59800 -5.72200 45.63400
C  28.29700 -4.59900 44.78100
C  26.92500 -4.59900 44.51900
C  29.98700 -6.22300 46.05400
C  28.90100 -3.56300 44.02700
O  30.05300 -3.17200 44.02700
C  27.79800 -2.86200 43.28000
C  27.67600 -1.43700 43.73200
O  27.49600 -1.06200 44.86400
O  27.78300 -0.61100 42.65200
C  27.77900 0.80200 43.00100
H  20.85600 -4.01800 42.81800
H  21.76800 -9.76700 45.60100
H  27.80000 -8.06000 47.00000
H  25.14800 -1.48600 42.51200
H  22.63000 -2.63100 41.38300
H  23.07900 -0.63400 43.21100
H  22.20800 -1.85200 44.16300
H  21.48100 -1.14200 42.74100
H  24.48500 -3.20800 40.17600
H  26.17800 -3.23900 40.67900
H  26.52200 -1.30100 39.59700
H  25.22200 -0.43300 40.28200
H  19.06000 -5.20700 42.14300
H  18.53400 -4.99900 43.86000
H  18.03400 -6.37300 42.86500
H  18.54800 -10.74800 45.33100
H  19.76400 -9.67400 46.14400
H  20.23600 -10.71000 44.82400
H  24.52300 -10.81800 45.58600
H  25.50300 -9.22900 48.03100
H  22.55000 -10.23200 47.83500
H  23.90600 -11.25700 48.29600
H  22.85600 -11.72500 46.93300
H  27.55100 -10.35400 46.29500
H  26.34100 -11.61300 46.67400
H  27.53400 -11.98400 48.40900
H  26.60700 -10.68900 49.11700
H  28.25700 -10.33100 48.55500
H  30.44300 -6.62500 45.14900
H  29.89300 -7.00200 46.81000
H  30.68400 -5.46700 46.41700
H  28.05500 -2.81400 42.22200
H  28.80900 1.08900 43.21500
H  27.09700 1.08500 43.80200
H  27.49100 1.32200 42.08700

