158

Mg 0.41100 7.56800 26.63200
C  1.20200 9.29200 29.55300
C  0.59300 4.56800 28.53300
C  -0.01500 5.81300 23.81700
C  1.34400 10.39900 24.77000
N  0.82400 7.07400 28.78700
C  0.91100 7.97900 29.79900
C  0.72400 7.36300 31.18100
C  0.93200 5.81900 30.88500
C  0.84600 5.80500 29.29500
C  2.12500 4.97700 31.45900
C  -0.67600 7.74300 31.75300
C  -0.78500 8.04000 33.23900
H  0.31700 7.63200 34.23900
N  0.15600 5.51400 26.26100
C  0.09800 4.47900 27.14400
C  -0.16800 3.19400 26.50300
C  -0.28800 3.52700 25.10400
C  0.02400 4.99000 24.99400
C  -0.07000 1.85800 27.28700
C  -0.50700 2.63400 23.93100
O  -0.44000 3.06800 22.75100
C  -0.89500 1.24000 24.06700
N  0.59100 8.05600 24.62600
C  0.21700 7.18800 23.64900
C  0.30600 7.81600 22.24600
C  0.58600 9.32300 22.62200
C  0.83300 9.30100 24.13200
C  1.39300 7.22700 21.28900
C  -0.77100 10.31900 22.40200
C  -0.56400 11.64400 21.69300
N  1.00600 9.49900 27.00300
C  1.36500 10.53200 26.17400
C  1.74600 11.62200 26.94200
C  1.63600 11.22300 28.26000
C  1.25400 9.87800 28.26900
C  2.14900 12.99400 26.42100
C  1.82500 11.66400 29.62400
O  2.17500 12.75200 29.98800
C  1.45900 10.44400 30.51700
C  2.61000 10.26600 31.39000
O  3.58100 9.49500 31.25000
O  2.56500 11.26300 32.33300
C  3.76900 11.51900 33.11000
H  0.55100 3.68900 29.18000
H  -0.29900 5.33800 22.87600
H  1.49900 11.33000 24.22100
H  1.49600 7.83500 31.78900
H  0.06700 5.31400 31.31500
H  1.70000 4.06100 31.87000
H  2.67900 5.53200 32.21700
H  2.76900 4.81000 30.59600
H  -1.42100 6.95900 31.61900
H  -0.88600 8.59200 31.10200
H  -1.70400 7.48600 33.42600
H  -1.11500 9.06900 33.37400
H  0.96900 1.67700 27.56200
H  -0.55600 0.97700 26.86700
H  -0.63400 2.11400 28.18300
H  -1.83200 1.16700 24.61800
H  -0.17700 0.65900 24.64500
H  -1.13200 0.76000 23.11700
H  -0.64000 7.75800 21.70700
H  1.46200 9.73500 22.12200
H  1.99200 7.96400 20.75400
H  1.10100 6.46500 20.56500
H  2.18000 6.76700 21.88500
H  -1.20600 10.48400 23.38800
H  -1.55400 9.84900 21.80700
H  -0.81100 11.41500 20.65600
H  0.44900 12.03400 21.79200
H  -1.29400 12.39700 21.99000
H  1.84300 13.72700 27.16700
H  1.51400 13.17700 25.55400
H  3.18500 13.15900 26.12700
H  0.61100 10.70700 31.14900
H  3.45900 11.74400 34.13100
H  4.34000 12.36700 32.73400
H  4.40400 10.63500 33.16800
Mg 27.02000 49.95000 26.04200
C  25.49700 51.45900 28.67200
C  29.81000 49.35700 27.96500
C  28.80000 49.13800 23.17800
C  24.51100 51.28100 23.91500
N  27.55300 50.48100 28.04300
C  26.70200 50.94500 28.99000
C  27.08100 50.55100 30.38400
C  28.56600 50.12300 30.15100
C  28.65000 49.95700 28.67100
C  29.75900 50.93000 30.76900
C  26.17100 49.44100 31.11700
C  25.64000 49.64400 32.55800
H  26.48000 50.37400 33.62000
N  28.99900 49.22900 25.66800
C  29.97500 49.03400 26.59900
C  31.13100 48.51300 26.00200
C  30.94600 48.49000 24.59200
C  29.48200 48.96500 24.42200
C  32.25500 48.05400 26.81700
C  31.94200 48.17500 23.56100
O  31.63300 48.15800 22.36700
C  33.34700 47.82200 23.92000
N  26.76500 50.24800 23.82400
C  27.53400 49.61600 22.92900
C  26.91000 49.48200 21.49200
C  25.50600 50.15400 21.77500
C  25.52000 50.53900 23.26400
C  27.64200 50.23900 20.31300
C  24.27900 49.23200 21.63600
C  23.01000 49.98200 21.11400
N  25.33600 51.11400 26.24700
C  24.39500 51.61000 25.29500
C  23.33900 52.33300 25.97600
C  23.64100 52.25900 27.33100
C  24.88500 51.49600 27.43500
C  22.01800 52.76800 25.47100
C  23.22400 52.56000 28.68500
O  22.16200 53.04200 29.10400
C  24.49300 52.12800 29.61500
C  25.00300 53.22700 30.46800
O  25.87400 53.95800 30.12300
O  24.27400 53.34000 31.59300
C  24.72500 54.13700 32.69600
H  30.60300 49.14700 28.68600
H  29.35900 48.71200 22.34200
H  23.79400 51.58600 23.14900
H  27.09500 51.47800 30.95800
H  28.72500 49.11300 30.53000
H  30.27600 51.57000 30.05400
H  30.47700 50.20600 31.15500
H  29.36500 51.58800 31.54300
H  26.70600 48.49200 31.10200
H  25.32900 49.21400 30.46200
H  25.45300 48.63900 32.93800
H  24.62800 50.04200 32.48500
H  32.02500 47.99900 27.88100
H  33.04600 48.78600 26.65700
H  32.60300 47.09100 26.44300
H  33.36800 46.95900 24.58500
H  33.72300 48.75500 24.34100
H  33.83800 47.51800 22.99600
H  26.82700 48.46500 21.10800
H  25.33100 51.14800 21.36300
H  28.63400 49.82700 20.12600
H  27.71500 51.30600 20.52700
H  27.10700 50.14000 19.36900
H  24.01900 48.79000 22.59800
H  24.54800 48.40700 20.97700
H  23.26700 50.99700 20.80900
H  22.34200 50.14000 21.96100
H  22.53200 49.38600 20.33700
H  21.81300 52.35700 24.48300
H  21.85700 53.84200 25.57100
H  21.21200 52.34900 26.07300
H  24.19600 51.40200 30.37200
H  24.01600 54.02000 33.51500
H  24.67200 55.19600 32.44200
H  25.71500 53.78700 32.99000

