158

Mg 9.09900 3.84600 27.38300
C  10.42400 2.34500 30.18600
C  7.08900 5.80700 29.48700
C  7.73900 5.25700 24.61400
C  10.73500 1.53000 25.39300
N  8.67700 3.86500 29.61300
C  9.46000 3.33200 30.59400
C  8.96900 3.64500 31.97600
C  7.69900 4.52200 31.60400
C  7.89300 4.84800 30.12100
C  6.27400 3.94200 31.88900
C  10.07500 4.35500 32.72600
C  10.31500 3.91900 34.21000
H  10.66600 5.01400 35.21300
N  7.66900 5.33000 27.11100
C  7.00300 6.07100 28.09000
C  6.25800 7.13600 27.39800
C  6.33000 6.89700 25.99500
C  7.29000 5.83500 25.84900
C  5.46200 8.18100 28.17400
C  5.58900 7.57800 24.91400
O  5.71600 7.33700 23.70200
C  4.77100 8.80400 25.22400
N  9.12400 3.33200 25.26700
C  8.48400 4.10000 24.33000
C  8.84700 3.62400 22.93500
C  9.66100 2.30400 23.17000
C  9.86300 2.38500 24.71500
C  7.66100 3.41900 21.93700
C  11.03500 2.23300 22.38800
C  11.19700 1.13000 21.33400
N  10.37400 2.21800 27.66700
C  10.91000 1.36700 26.82600
C  11.72700 0.37200 27.47900
C  11.58800 0.74800 28.84000
C  10.74800 1.85300 28.90000
C  12.61300 -0.57600 26.84200
C  12.01300 0.48800 30.18600
O  12.82300 -0.33200 30.57100
C  11.32100 1.53300 31.10100
C  10.52500 0.69300 32.07800
O  9.36100 0.37700 31.98800
O  11.09200 0.63100 33.31600
C  10.25400 0.18400 34.44300
H  6.59500 6.55700 30.11000
H  7.44200 5.78800 23.70700
H  11.27900 0.77000 24.82800
H  8.55200 2.73400 32.40600
H  7.69800 5.53400 32.00900
H  6.23600 3.02400 32.47500
H  5.78200 3.67600 30.95300
H  5.62900 4.68900 32.35100
H  9.97000 5.43700 32.64400
H  11.01300 4.24300 32.18100
H  11.11900 3.18300 34.20300
H  9.40700 3.42500 34.55800
H  5.58900 9.22600 27.88900
H  5.66900 8.09400 29.24100
H  4.41300 7.92800 28.02000
H  5.50700 9.56900 25.47200
H  4.11000 8.61000 26.07000
H  4.03800 9.09900 24.47300
H  9.60600 4.35500 22.65600
H  9.05400 1.42700 22.94500
H  6.75900 3.74100 22.45700
H  7.50700 2.38300 21.63600
H  7.77900 4.05600 21.06100
H  11.84900 2.12400 23.10500
H  11.04900 3.14700 21.79400
H  10.31100 0.54500 21.08500
H  12.00500 0.45100 21.60600
H  11.50600 1.47800 20.34900
H  11.99900 -1.42200 26.53100
H  13.34600 -1.00300 27.52700
H  13.17800 -0.20000 25.99000
H  11.98000 2.22300 31.62800
H  9.76800 -0.77100 34.24200
H  9.40700 0.82300 34.69000
H  10.70900 -0.10400 35.39100
Mg -11.87600 16.80000 42.99300
C  -8.32900 17.15900 42.79400
C  -11.99300 20.27600 42.19400
C  -15.13500 16.67000 42.56200
C  -11.54200 13.38100 42.87000
N  -10.34000 18.44800 42.31800
C  -8.90000 18.37200 42.39500
C  -8.22000 19.72900 42.21000
C  -9.45400 20.66700 42.45700
C  -10.68200 19.76700 42.32000
C  -9.45900 21.18100 43.94700
C  -7.48300 19.65400 40.83400
C  -5.92600 19.89900 40.94100
H  -5.13100 18.98600 39.95400
N  -13.38800 18.26900 42.51800
C  -13.22200 19.60200 42.32200
C  -14.47900 20.27100 42.06400
C  -15.46400 19.22100 42.21600
C  -14.73600 17.94900 42.45600
C  -14.74700 21.70900 41.55200
C  -17.04600 19.37400 42.00500
O  -17.56400 20.45000 41.84800
C  -17.98100 18.19600 41.98800
N  -13.13600 15.27700 42.67500
C  -14.47300 15.43900 42.62700
C  -15.23400 14.04700 42.62800
C  -14.06900 13.01600 42.67100
C  -12.85700 13.93200 42.76200
C  -16.27100 13.88100 43.78000
C  -14.09400 12.05600 41.50500
C  -14.74100 10.72000 41.74800
N  -10.29900 15.50400 43.00800
C  -10.30900 14.12300 42.91000
C  -8.93200 13.64100 42.95500
C  -8.14700 14.79900 42.99400
C  -9.05200 15.91700 42.95400
C  -8.47700 12.19300 42.98200
C  -6.74300 15.31200 42.98300
O  -5.67600 14.76000 43.08600
C  -6.85400 16.86100 43.05900
C  -6.36500 17.16000 44.39400
O  -6.94300 16.95900 45.47600
O  -5.14300 17.91900 44.22100
C  -4.39400 18.40800 45.42400
H  -12.10500 21.36200 42.18500
H  -16.22700 16.66500 42.55100
H  -11.41900 12.30000 42.97100
H  -7.47500 19.92300 42.98200
H  -9.47900 21.46200 41.71200
H  -8.47000 21.20400 44.40400
H  -10.01600 20.50400 44.59400
H  -10.03900 22.10300 43.88600
H  -7.96900 20.41500 40.22300
H  -7.60600 18.67100 40.37900
H  -5.60500 19.80200 41.97800
H  -5.86900 20.91500 40.55100
H  -15.52800 22.14200 42.17600
H  -15.18600 21.49800 40.57700
H  -13.83900 22.31100 41.51200
H  -19.03300 18.48100 41.97100
H  -17.98300 17.74100 42.97900
H  -17.92100 17.32900 41.33000
H  -15.83700 14.05600 41.72000
H  -14.12100 12.42700 43.58600
H  -16.19000 14.66000 44.53800
H  -16.27500 12.87000 44.18900
H  -17.19300 14.10800 43.24500
H  -13.12100 11.88500 41.04400
H  -14.63500 12.55500 40.70200
H  -15.59500 10.89200 42.40400
H  -13.99900 10.07500 42.21900
H  -15.13200 10.27700 40.83200
H  -9.29100 11.66500 42.48500
H  -8.22400 11.77400 43.95600
H  -7.50700 12.03600 42.51100
H  -6.21500 17.39500 42.35500
H  -4.41500 19.49700 45.47000
H  -3.36000 18.06700 45.37600
H  -4.73200 18.02700 46.38800

