158

Mg 24.59900 -4.83400 46.64700
C  26.29400 -2.06300 45.32000
C  21.84500 -3.98200 44.65500
C  23.29800 -7.90700 47.15600
C  27.61300 -5.99700 48.01800
N  24.22400 -3.22000 45.16400
C  25.02500 -2.16900 44.80400
C  24.32600 -1.26100 43.81000
C  22.79900 -1.58400 44.05500
C  22.94400 -3.05000 44.61700
C  21.95300 -0.67500 45.03000
C  24.81700 -1.58700 42.37300
C  25.36500 -0.52100 41.45300
H  24.85500 -0.60700 39.99400
N  22.76600 -5.74900 46.06700
C  21.75700 -5.18300 45.35300
C  20.71100 -6.10800 45.37200
C  21.11600 -7.28200 46.09800
C  22.44800 -7.04600 46.44600
C  19.39100 -5.82400 44.69800
C  20.18900 -8.51700 46.29400
O  19.08700 -8.61400 45.70000
C  20.55800 -9.78300 47.08800
N  25.30100 -6.75200 47.37400
C  24.59000 -7.86600 47.56600
C  25.25700 -8.81400 48.60100
C  26.73600 -8.33400 48.62000
C  26.59600 -6.95300 47.90500
C  24.62000 -8.95600 50.03300
C  27.72700 -9.26000 47.94800
C  28.70600 -10.00800 48.78900
N  26.60100 -4.15800 46.70800
C  27.67400 -4.70700 47.37600
C  28.79500 -3.69200 47.38200
C  28.34600 -2.65600 46.53500
C  27.01400 -2.98200 46.12800
C  30.08300 -3.77100 48.16300
C  28.68700 -1.33800 45.94600
O  29.72000 -0.67500 46.06100
C  27.37600 -0.90100 45.06400
C  26.86000 0.49900 45.42200
O  27.15300 1.55400 44.87200
O  25.94600 0.32200 46.45400
C  25.30200 1.53600 46.90600
H  21.02200 -3.51300 44.11200
H  22.84400 -8.79400 47.60300
H  28.48800 -6.21500 48.63500
H  24.55400 -0.23900 44.11100
H  22.32800 -1.60800 43.07200
H  21.00200 -0.38900 44.58000
H  22.40100 0.27100 45.33100
H  21.69600 -1.15800 45.97300
H  24.08900 -2.18100 41.82000
H  25.66600 -2.25800 42.50700
H  26.44300 -0.68000 41.47800
H  25.07700 0.47200 41.79700
H  19.20100 -4.77200 44.91200
H  18.54800 -6.38000 45.10900
H  19.36400 -6.05200 43.63300
H  20.75500 -9.43700 48.10300
H  21.42900 -10.32000 46.71300
H  19.66000 -10.39700 47.15300
H  25.16300 -9.80300 48.15300
H  27.13800 -8.27600 49.63100
H  25.10700 -8.36100 50.80600
H  24.35500 -9.96500 50.35000
H  23.74200 -8.33700 49.85200
H  28.34900 -8.62600 47.31600
H  27.22200 -9.90600 47.23000
H  29.68100 -9.52400 48.74000
H  28.75300 -11.04400 48.45200
H  28.45400 -9.92500 49.84600
H  30.89100 -3.16200 47.75700
H  30.35500 -4.78700 48.45100
H  29.88700 -3.23300 49.09100
H  27.58800 -0.78500 44.00200
H  24.78600 2.00000 46.06600
H  25.88300 2.26700 47.47000
H  24.49300 1.30500 47.59800
Mg 17.08700 51.84200 26.34500
C  18.62900 50.14600 29.04300
C  14.73200 53.14900 28.52300
C  15.63200 53.28500 23.84100
C  19.22900 49.98400 24.14400
N  16.75100 51.55700 28.49200
C  17.50700 50.94000 29.42600
C  16.95600 51.26400 30.93700
C  15.60700 51.97700 30.62700
C  15.69000 52.28300 29.08500
C  14.28500 51.23600 31.13700
C  17.95600 52.27100 31.70500
C  18.08500 51.93500 33.26700
H  17.10000 51.09000 34.13700
N  15.33800 53.08700 26.19900
C  14.57700 53.57100 27.20700
C  13.70200 54.61300 26.66700
C  13.98300 54.71600 25.23300
C  14.96300 53.64300 25.00500
C  12.74600 55.34700 27.50400
C  13.45000 55.63200 24.16900
O  13.89600 55.55600 22.99000
C  12.45100 56.68900 24.56500
N  17.32900 51.54400 24.27800
C  16.61500 52.33800 23.44100
C  17.04500 52.15200 21.94000
C  18.18200 51.13200 22.09800
C  18.23300 50.81700 23.56000
C  15.89900 51.63100 21.00500
C  19.52200 51.54000 21.52200
C  20.32200 52.61100 22.19600
N  18.67800 50.43400 26.46500
C  19.43000 49.75500 25.52000
C  20.44700 49.06500 26.23900
C  20.13200 49.15900 27.63700
C  19.01200 49.93600 27.67700
C  21.62300 48.33400 25.66000
C  20.60100 48.77200 28.98000
O  21.63500 48.26100 29.40800
C  19.57700 49.42700 29.99000
C  18.96700 48.41700 30.83600
O  18.10900 47.59800 30.56600
O  19.59600 48.33400 32.12000
C  19.11800 47.33200 33.07700
H  14.12500 53.62000 29.30000
H  15.29200 53.75700 22.91700
H  19.85100 49.43900 23.43100
H  16.74200 50.32000 31.43700
H  15.61100 52.92500 31.16500
H  13.64600 51.29400 30.25600
H  13.72100 51.95000 31.73700
H  14.28400 50.26600 31.63600
H  17.65300 53.31000 31.57700
H  18.91200 51.90000 31.33400
H  18.14900 52.92000 33.72700
H  19.04400 51.44400 33.43400
H  13.05600 56.33700 27.83700
H  12.57200 54.94600 28.50200
H  11.76700 55.48300 27.04400
H  11.50700 56.20600 24.81600
H  12.36700 57.40500 23.74800
H  12.84800 57.18700 25.45000
H  17.45600 53.12500 21.66700
H  17.99300 50.18700 21.58700
H  16.03400 52.34600 20.19300
H  14.94300 51.62100 21.52900
H  16.17500 50.63800 20.65000
H  19.15700 51.99100 20.59900
H  20.02700 50.62200 21.22200
H  21.32700 52.21700 22.34600
H  19.99300 53.00200 23.15900
H  20.24500 53.39900 21.44700
H  21.25900 47.70400 24.84900
H  22.21400 47.73100 26.35000
H  22.28200 49.09100 25.23400
H  20.14700 50.13300 30.59500
H  19.37600 47.67500 34.07900
H  19.59600 46.35300 33.02700
H  18.03800 47.20700 33.00300

