158

Mg 0.09800 7.59800 26.87400
C  1.07400 9.90300 29.38100
C  -0.09200 5.14300 29.27800
C  -0.32100 5.47200 24.33200
C  0.85100 10.17600 24.50200
N  0.53100 7.50400 29.02700
C  0.71500 8.64300 29.83800
C  0.53600 8.24700 31.28900
C  0.45000 6.68900 31.28400
C  0.22400 6.44100 29.78700
C  1.72700 5.97400 31.75300
C  -0.69000 8.89400 32.00000
C  -0.64500 9.01100 33.56900
H  0.54400 8.63600 34.39200
N  -0.12300 5.53100 26.79200
C  -0.14100 4.68700 27.93800
C  -0.29000 3.29000 27.39600
C  -0.25100 3.38400 26.02000
C  -0.18000 4.86700 25.62900
C  -0.63600 2.11900 28.31200
C  -0.27400 2.26300 25.05000
O  -0.14600 2.48000 23.84700
C  -0.28700 0.81200 25.51800
N  -0.06100 7.81800 24.71500
C  -0.27600 6.75800 23.80400
C  -0.36500 7.22500 22.40200
C  0.18800 8.68000 22.50900
C  0.32400 8.93900 24.01200
C  0.41800 6.43900 21.35700
C  -0.66800 9.66400 21.67500
C  -1.82700 10.30000 22.45800
N  0.70700 9.55900 26.89200
C  0.88500 10.52400 25.87400
C  1.38100 11.75600 26.34300
C  1.49100 11.52100 27.72100
C  0.98300 10.21700 28.05200
C  1.74700 12.96900 25.54600
C  1.80700 12.19600 29.04700
O  2.33200 13.29800 29.23300
C  1.56300 11.12000 30.10300
C  2.81700 10.81700 30.85900
O  3.71100 10.04500 30.56500
O  2.89200 11.63900 31.92900
C  4.15200 11.65500 32.75000
H  -0.17600 4.37900 30.05300
H  -0.45800 4.71900 23.55200
H  1.09000 10.96300 23.78400
H  1.47700 8.58300 31.72500
H  -0.41200 6.24200 31.78000
H  2.41300 6.71700 32.15900
H  2.20700 5.76600 30.79700
H  1.66100 5.01600 32.26900
H  -1.46700 8.16300 31.77500
H  -1.08200 9.76100 31.46800
H  -1.57400 8.55900 33.91400
H  -0.71000 10.08600 33.73700
H  -1.59500 1.69300 28.01800
H  -0.70600 2.45200 29.34700
H  0.15100 1.36500 28.30300
H  -1.22000 0.56300 26.02100
H  0.55000 0.79100 26.21600
H  -0.09500 0.12000 24.69800
H  -1.38600 7.16300 22.02600
H  1.17800 8.77000 22.06000
H  0.61000 5.41200 21.66800
H  1.36000 6.96500 21.19900
H  -0.18800 6.24600 20.47200
H  -1.08500 9.11400 20.83300
H  -0.02200 10.50700 21.43100
H  -1.92000 9.85200 23.44700
H  -2.79000 10.32400 21.94800
H  -1.60000 11.35500 22.61200
H  2.49100 13.58900 26.04800
H  0.82400 13.50100 25.31800
H  2.20600 12.65100 24.61000
H  0.82100 11.51500 30.79700
H  4.94900 10.95700 32.49400
H  3.87100 11.43600 33.78000
H  4.62000 12.63100 32.61600
Mg 24.77000 -5.06700 45.66500
C  26.87800 -2.42200 44.35300
C  22.33900 -3.90400 43.51100
C  23.14900 -7.89800 46.03700
C  27.59800 -6.41800 47.20500
N  24.68100 -3.38600 44.04500
C  25.58100 -2.40200 43.88900
C  24.99000 -1.28100 42.94300
C  23.52800 -1.78900 42.62500
C  23.46800 -3.07500 43.44400
C  22.33100 -0.72700 42.80100
C  25.83700 -1.03000 41.62900
C  26.41300 -2.20400 40.84400
H  26.06200 -2.44900 39.38300
N  22.96300 -5.74200 44.96600
C  22.07400 -5.12300 44.17700
C  20.89200 -5.91700 44.12400
C  21.09700 -7.11000 44.89700
C  22.45300 -6.96200 45.36500
C  19.72100 -5.41100 43.40300
C  20.07200 -8.25300 45.14000
O  19.04200 -8.28800 44.49500
C  20.35400 -9.41400 46.09800
N  25.30200 -6.89700 46.45300
C  24.43100 -7.91600 46.63800
C  24.99600 -9.18600 47.32200
C  26.36800 -8.55000 47.93100
C  26.45400 -7.23300 47.16600
C  24.09000 -9.83800 48.43100
C  27.58800 -9.54300 47.88400
C  28.13900 -10.11300 49.16200
N  26.77300 -4.56100 45.84800
C  27.80400 -5.17500 46.55400
C  29.02500 -4.40200 46.45900
C  28.60600 -3.28700 45.68900
C  27.27600 -3.45400 45.27300
C  30.39300 -4.91400 46.90800
C  29.12100 -2.03600 45.11000
O  30.13900 -1.48300 45.39400
C  28.03000 -1.49100 44.15100
C  27.67100 -0.07000 44.51300
O  26.97200 0.31600 45.45700
O  28.11400 0.80200 43.56900
C  27.81200 2.25400 43.70000
H  21.42900 -3.59800 42.99000
H  22.70700 -8.86500 46.28500
H  28.46200 -6.86100 47.70500
H  24.89800 -0.45200 43.64500
H  23.50500 -2.21700 41.62300
H  22.09100 -0.53700 43.84800
H  21.39300 -1.11900 42.40700
H  22.44700 0.24100 42.31400
H  26.61900 -0.30400 41.85200
H  25.18000 -0.52900 40.91800
H  26.31300 -3.20200 41.27100
H  27.46400 -1.91700 40.88300
H  19.97900 -5.02600 42.41600
H  19.17100 -4.72500 44.04700
H  18.97900 -6.20100 43.28900
H  19.51800 -10.11100 46.16200
H  20.55100 -8.94300 47.06100
H  21.19300 -9.96500 45.67400
H  25.17000 -9.83400 46.46400
H  26.12000 -8.31100 48.96600
H  23.64400 -10.77400 48.09600
H  23.15800 -9.29900 48.59900
H  24.66200 -9.84800 49.35900
H  28.35000 -9.00800 47.31700
H  27.36500 -10.42400 47.28100
H  28.06500 -11.19500 49.27200
H  27.65600 -9.52600 49.94300
H  29.19100 -9.85100 49.27400
H  30.76300 -5.45400 46.03700
H  30.52400 -5.56700 47.77100
H  30.96500 -4.00600 47.09900
H  28.33800 -1.53000 43.10600
H  27.59300 2.48700 44.74300
H  26.98200 2.59800 43.08200
H  28.58100 2.95700 43.38100

