158

Mg 47.54400 34.65100 27.94200
C  45.96000 32.76500 30.41700
C  48.18600 37.12000 30.13200
C  48.66400 36.51100 25.32500
C  46.72200 32.09900 25.62000
N  47.09700 34.90400 30.07400
C  46.34300 34.05100 30.85100
C  46.72800 34.42000 32.27300
C  47.20500 35.95900 32.18100
C  47.51400 35.99500 30.68900
C  46.10200 36.99600 32.63600
C  47.87400 33.50500 32.78100
C  47.93500 33.42000 34.35800
H  46.98800 34.35400 35.14900
N  48.36300 36.57100 27.76400
C  48.64700 37.44500 28.80700
C  49.28000 38.63700 28.31000
C  49.49600 38.45100 26.88400
C  48.84100 37.11200 26.58200
C  49.71300 39.73700 29.24600
C  50.08400 39.42600 25.84300
O  50.45100 39.02600 24.73400
C  50.46500 40.86500 26.30000
N  47.62100 34.34600 25.79000
C  48.27700 35.22800 24.99000
C  48.41900 34.71700 23.51700
C  47.76800 33.22700 23.68600
C  47.42500 33.22700 25.12300
C  47.83400 35.63900 22.41000
C  48.75800 32.13500 23.22600
C  48.23500 31.13100 22.22000
N  46.54800 32.85800 27.96900
C  46.31400 31.89100 26.94900
C  45.69500 30.73000 27.47800
C  45.46500 30.99200 28.84800
C  46.11900 32.27700 29.06000
C  45.32900 29.55100 26.60500
C  44.86700 30.52200 30.07100
O  44.16000 29.50900 30.30900
C  45.03400 31.74600 31.00100
C  45.01900 31.31400 32.39700
O  45.86000 30.68900 33.02500
O  43.82300 31.62600 33.01600
C  43.63600 31.36500 34.43200
H  48.44000 37.84900 30.90500
H  49.14400 37.07700 24.52300
H  46.42700 31.29800 24.93800
H  45.83400 34.34500 32.89300
H  47.98000 36.14800 32.92400
H  45.14400 36.51100 32.82300
H  46.13700 37.79900 31.90000
H  46.46300 37.49100 33.53800
H  48.82100 33.91500 32.43100
H  47.65400 32.48300 32.47300
H  48.97700 33.67400 34.55700
H  47.75000 32.37300 34.59600
H  50.72400 39.65000 29.64500
H  49.04200 39.70200 30.10400
H  49.54000 40.74600 28.87100
H  51.38600 40.79100 26.87800
H  49.62200 41.36800 26.77400
H  50.55200 41.42500 25.36900
H  49.50800 34.70900 23.46100
H  46.89500 33.14300 23.03800
H  48.63200 35.89400 21.71300
H  47.41900 36.53200 22.87600
H  46.99000 35.24600 21.84300
H  49.09200 31.51400 24.05700
H  49.62500 32.54700 22.71000
H  48.93200 30.72700 21.48500
H  47.46000 31.70100 21.70800
H  47.85600 30.36100 22.89200
H  46.21300 29.13700 26.12000
H  44.67400 29.86900 25.79300
H  44.88900 28.81000 27.27300
H  44.14300 32.37300 30.95400
H  42.61200 31.04300 34.62500
H  43.89200 32.22900 35.04500
H  44.34200 30.65200 34.85900
Mg 29.74900 58.17300 38.51200
C  26.75500 56.46200 37.95900
C  31.50300 55.40000 37.40000
C  32.48100 60.15800 38.25800
C  27.77300 61.08900 39.09800
N  29.17400 56.19400 37.56800
C  27.87500 55.65800 37.62900
C  27.98600 54.15700 37.11000
C  29.48200 53.82000 37.35600
C  30.10000 55.21100 37.42000
C  29.93300 52.90000 38.48600
C  27.60200 54.24700 35.59300
C  26.12300 53.74600 35.28400
H  25.47000 54.37200 34.08300
N  31.73900 57.78100 38.00600
C  32.27800 56.59900 37.63800
C  33.76100 56.75400 37.47100
C  34.10500 58.09400 37.59800
C  32.75700 58.77500 37.96800
C  34.54400 55.52700 37.22400
C  35.51800 58.66700 37.46400
O  36.55000 58.04800 37.09500
C  35.81000 60.04200 37.91800
N  30.06900 60.40300 38.47400
C  31.30100 60.86800 38.65700
C  31.33100 62.40500 38.89700
C  29.86000 62.65900 39.31800
C  29.16900 61.30200 38.95100
C  32.48700 62.91000 39.80800
C  29.16100 63.96600 38.72100
C  28.40900 64.81700 39.77400
N  27.70400 58.73300 38.47300
C  27.04000 59.91800 38.74900
C  25.61600 59.74400 38.64000
C  25.44000 58.38300 38.39100
C  26.75700 57.79400 38.26900
C  24.54200 60.86400 38.68400
C  24.45800 57.36100 38.19500
O  23.22600 57.38900 38.21500
C  25.27500 56.05200 37.95200
C  24.93800 54.96800 38.91200
O  25.63900 54.55700 39.87500
O  23.76800 54.33000 38.45000
C  23.50500 53.09400 39.21900
H  32.06900 54.52100 37.08500
H  33.33000 60.84200 38.19600
H  27.10200 61.86700 39.46800
H  27.33100 53.37900 37.50200
H  29.98800 53.36100 36.50700
H  29.31700 53.11300 39.36000
H  31.01300 52.90600 38.63100
H  29.62800 51.86500 38.33300
H  28.35000 53.65900 35.06000
H  27.64000 55.28700 35.26700
H  25.51400 53.95900 36.16200
H  26.25900 52.67600 35.12000
H  34.38000 55.17900 36.20500
H  34.13500 54.69800 37.80300
H  35.61200 55.56900 37.44100
H  36.89200 60.14600 37.99600
H  35.35100 60.24500 38.88500
H  35.50400 60.82100 37.21900
H  31.46900 62.94000 37.95700
H  29.81300 62.75600 40.40300
H  32.15400 63.23100 40.79500
H  32.91200 63.80100 39.34500
H  33.25200 62.15600 39.99700
H  28.43400 63.55600 38.02000
H  29.82500 64.68100 38.23600
H  28.81100 64.60300 40.76500
H  27.33000 64.67000 39.81100
H  28.63900 65.84100 39.48000
H  24.34300 61.21500 39.69600
H  23.59800 60.45300 38.32600
H  24.85200 61.67900 38.03000
H  24.87600 55.72400 36.99200
H  22.73000 52.49500 38.74200
H  23.22400 53.41400 40.22300
H  24.43400 52.52800 39.28800

