158

Mg 1.19600 7.96500 24.64400
C  1.49200 9.69400 27.80100
C  1.56400 5.01300 26.34900
C  1.01400 6.47300 21.75800
C  1.76300 11.11300 23.02100
N  1.53100 7.50100 26.89200
C  1.47200 8.30800 28.00000
C  1.48200 7.48500 29.32100
C  1.83900 5.97800 28.76800
C  1.70600 6.15200 27.18000
C  3.30700 5.57800 29.03500
C  0.04800 7.58200 29.92600
C  -0.03000 7.33100 31.47100
H  1.10200 6.61500 32.20400
N  1.17700 6.03000 24.09000
C  1.31400 4.92600 24.91500
C  1.01800 3.65900 24.23100
C  0.93100 4.09100 22.83000
C  1.04300 5.60200 22.82900
C  0.94200 2.31300 24.82500
C  0.69300 3.22300 21.63100
O  0.38700 3.71800 20.58400
C  0.70100 1.77500 21.62200
N  1.48800 8.70900 22.70100
C  1.17900 7.81800 21.74000
C  1.16200 8.51300 20.32300
C  1.56200 9.99900 20.68300
C  1.59800 9.94400 22.23600
C  2.06800 7.96100 19.20400
C  0.82000 11.23400 20.05200
C  -0.65200 11.37700 20.38800
N  1.49800 10.02500 25.21400
C  1.66700 11.12000 24.39900
C  1.76300 12.24600 25.18300
C  1.72400 11.79200 26.49900
C  1.58200 10.38100 26.48800
C  1.94500 13.63900 24.65800
C  1.83700 12.09400 27.95400
O  2.00800 13.15000 28.53600
C  1.54100 10.79900 28.80500
C  2.66900 10.78500 29.78300
O  3.84100 10.38100 29.56300
O  2.26100 11.25500 30.96300
C  3.33100 11.46000 31.98000
H  1.67000 4.05100 26.85500
H  0.88700 6.00000 20.78200
H  2.09500 12.06000 22.59000
H  2.29000 7.64400 30.03600
H  1.21100 5.16900 29.14100
H  3.82600 6.26700 29.70200
H  3.94300 5.39500 28.16900
H  3.16200 4.61300 29.52000
H  -0.59500 6.90400 29.36300
H  -0.26300 8.62500 29.87400
H  -0.90500 6.71000 31.66000
H  -0.27000 8.17700 32.11400
H  0.90800 2.18100 25.90600
H  1.77400 1.75100 24.40100
H  0.02500 1.90100 24.40300
H  1.58000 1.33200 22.08900
H  0.63600 1.43500 20.58800
H  -0.28300 1.49100 21.99400
H  0.15300 8.39600 19.92800
H  2.57200 10.19100 20.32000
H  2.44800 8.72900 18.53100
H  1.39900 7.34900 18.60000
H  2.92000 7.44500 19.64700
H  0.89700 11.14100 18.96800
H  1.49700 12.02500 20.37200
H  -0.61100 12.24200 21.05000
H  -0.93800 10.56200 21.05200
H  -1.32800 11.56200 19.55400
H  1.74400 14.34300 25.46600
H  1.36700 13.87100 23.76400
H  3.00400 13.70800 24.40700
H  0.55400 10.90000 29.25800
H  4.07700 12.13800 31.56500
H  3.84800 10.51900 32.17100
H  2.92500 11.81800 32.92700
Mg -3.58800 35.59400 26.74200
C  -4.87500 33.45900 29.31700
C  -2.40900 37.58700 29.30100
C  -2.50100 37.61700 24.38900
C  -5.39600 33.83400 24.42600
N  -3.50000 35.33300 29.09400
C  -4.09900 34.39700 29.89600
C  -3.78100 34.65900 31.37000
C  -3.10700 36.08500 31.37700
C  -2.96200 36.40600 29.83400
C  -3.82900 37.23400 32.16300
C  -3.04900 33.48500 32.11600
C  -3.61400 32.86100 33.40600
H  -2.63700 32.64000 34.62200
N  -2.44000 37.23200 26.84500
C  -2.08500 37.95500 27.94200
C  -1.24300 39.10800 27.55200
C  -1.07800 39.06200 26.11500
C  -1.94500 37.91200 25.72400
C  -0.64300 40.13500 28.59000
C  -0.34500 39.87300 25.15200
O  -0.24900 39.68700 23.97600
C  0.15500 41.12200 25.70900
N  -3.94300 35.73300 24.68900
C  -3.38100 36.65000 23.91800
C  -3.62200 36.33300 22.42600
C  -4.66000 35.18900 22.46000
C  -4.71100 34.93500 23.97300
C  -4.11200 37.59900 21.68500
C  -4.37300 33.92100 21.56700
C  -3.42900 32.78500 22.14400
N  -4.90200 34.00800 26.77100
C  -5.52100 33.31000 25.73300
C  -6.14000 32.04600 26.24200
C  -5.92300 32.09700 27.65600
C  -5.20100 33.31800 27.93300
C  -6.76800 31.02400 25.39500
C  -6.20300 31.37300 28.92700
O  -6.76300 30.29900 29.12300
C  -5.53200 32.24300 30.05700
C  -6.70200 32.69500 30.91000
O  -7.54800 33.45400 30.51600
O  -6.61900 32.21000 32.23600
C  -7.74300 32.43700 33.11700
H  -2.06400 38.31600 30.03700
H  -2.16600 38.42200 23.73100
H  -6.00400 33.34600 23.66200
H  -4.78200 34.64600 31.80200
H  -2.07800 36.01800 31.73100
H  -3.34200 37.38200 33.12700
H  -4.83200 36.89200 32.41800
H  -3.96400 38.19100 31.65900
H  -2.07600 33.86700 32.42300
H  -2.98100 32.62300 31.45300
H  -3.78000 31.82900 33.09800
H  -4.56900 33.36200 33.56500
H  -0.76500 39.98000 29.66200
H  -0.87400 41.17300 28.34900
H  0.44300 40.07400 28.52300
H  -0.63300 41.75600 26.11500
H  0.78600 41.59200 24.95500
H  0.94700 40.93200 26.43400
H  -2.65900 36.20400 21.93200
H  -5.67100 35.49900 22.19500
H  -4.94800 37.35800 21.02900
H  -3.46300 38.17500 21.02500
H  -4.31500 38.35000 22.44900
H  -3.99500 34.27100 20.60600
H  -5.35400 33.54000 21.28300
H  -2.93400 33.19700 23.02500
H  -2.71100 32.66500 21.33200
H  -4.04600 31.89700 22.27900
H  -5.90600 30.70700 24.80900
H  -7.52900 31.44600 24.73800
H  -6.90400 30.10400 25.96400
H  -4.89800 31.63600 30.70300
H  -8.09100 31.45500 33.43800
H  -8.54500 32.94300 32.58100
H  -7.34700 33.05900 33.92000

