158

Mg -12.20100 39.42600 40.08100
C  -10.57400 36.22900 39.85000
C  -9.05200 40.91800 39.04500
C  -13.76700 42.15900 39.63800
C  -15.16300 37.64400 40.76400
N  -10.09500 38.63100 39.50100
C  -9.72300 37.27000 39.39400
C  -8.42700 37.15900 38.59300
C  -7.81000 38.53300 38.97600
C  -9.06900 39.46200 39.13000
C  -7.01200 38.49400 40.22500
C  -8.76500 36.92000 37.07700
C  -7.64800 36.20300 36.31900
H  -7.93800 35.49700 34.94600
N  -11.44300 41.26100 39.58100
C  -10.18400 41.68700 39.20300
C  -10.25000 43.09600 39.20100
C  -11.56900 43.56500 39.42700
C  -12.34200 42.27900 39.51400
C  -8.95000 43.97400 38.92100
C  -12.03500 45.02400 39.51200
O  -11.31500 46.00000 39.30900
C  -13.41700 45.33400 39.99900
N  -14.26000 39.82300 39.93500
C  -14.64300 41.09000 39.91500
C  -16.16900 41.18200 39.98500
C  -16.50800 39.78100 40.62100
C  -15.24900 39.04300 40.43900
C  -16.76600 42.43500 40.68300
C  -17.69200 39.06300 39.86500
C  -18.87800 38.45600 40.61400
N  -12.77800 37.37700 40.35300
C  -14.00300 36.82800 40.61200
C  -13.87900 35.43100 40.80900
C  -12.50100 35.16800 40.59600
C  -11.90200 36.37900 40.22700
C  -15.00900 34.52100 41.21000
C  -11.53300 34.04600 40.41100
O  -11.71100 32.79400 40.46800
C  -10.24300 34.77300 39.92500
C  -9.13500 34.50200 40.90900
O  -9.25800 34.51500 42.10400
O  -7.91700 34.28900 40.30300
C  -6.82000 34.17000 41.22100
H  -8.09900 41.43400 38.90800
H  -14.18300 43.14200 39.41100
H  -16.09500 37.16400 41.06900
H  -7.74500 36.41000 38.99500
H  -7.07900 38.84600 38.23000
H  -6.01800 38.81400 39.91400
H  -7.02200 37.55700 40.78200
H  -7.37100 39.29600 40.86900
H  -8.92000 37.88100 36.58700
H  -9.72200 36.41300 36.96200
H  -7.28600 35.48800 37.05800
H  -6.87900 36.95800 36.15700
H  -8.17400 43.41300 38.40100
H  -8.55100 44.30100 39.88100
H  -9.15500 44.92700 38.43300
H  -13.46800 46.34300 40.40700
H  -13.65700 44.60400 40.77200
H  -14.17000 45.20800 39.22100
H  -16.41900 41.22400 38.92500
H  -16.87000 39.91300 41.64100
H  -17.66900 42.67900 40.12400
H  -16.10900 43.30500 40.65900
H  -17.17500 42.13100 41.64700
H  -17.27500 38.27500 39.23700
H  -18.16400 39.80700 39.22200
H  -19.06500 37.47600 40.17500
H  -19.76900 39.08400 40.61700
H  -18.54400 38.38400 41.64900
H  -15.62700 34.98000 41.98200
H  -14.65900 33.61100 41.69600
H  -15.54700 34.29900 40.28800
H  -9.95300 34.21200 39.03700
H  -6.06400 34.25300 40.44000
H  -6.78200 33.13100 41.54700
H  -6.72700 34.91500 42.01100
Mg -9.87000 17.40000 41.03000
C  -6.43900 17.31500 41.29600
C  -9.79000 20.72900 40.34200
C  -13.16600 17.24500 40.21800
C  -9.83700 13.94900 41.37600
N  -8.25400 18.83800 40.70100
C  -6.95900 18.61300 40.95100
C  -6.19800 19.91700 40.66700
C  -7.25600 21.05500 40.85500
C  -8.55500 20.19700 40.68300
C  -7.18500 21.80100 42.22600
C  -5.56200 19.92600 39.29300
C  -4.08100 19.78900 39.08300
H  -3.42900 18.68100 38.22700
N  -11.26600 18.79900 40.33600
C  -11.06000 20.14000 40.14500
C  -12.26500 20.80900 39.66000
C  -13.28500 19.79700 39.59700
C  -12.61700 18.54300 40.10900
C  -12.26300 22.25300 39.21600
C  -14.76200 20.01400 39.08700
O  -15.10100 21.10500 38.57200
C  -15.81200 18.89500 38.89400
N  -11.30200 15.72900 40.55000
C  -12.57100 15.95300 40.38900
C  -13.41700 14.64400 40.45600
C  -12.31100 13.60800 41.03300
C  -10.99700 14.45100 40.88800
C  -14.75400 14.66800 41.28600
C  -12.28400 12.20900 40.21100
C  -12.51300 10.99700 41.14900
N  -8.42500 15.84300 41.22100
C  -8.57200 14.51300 41.29400
C  -7.34600 13.87400 41.28800
C  -6.47100 14.94300 41.45700
C  -7.16500 16.12600 41.27100
C  -7.02900 12.34700 41.30400
C  -5.10600 15.29000 41.58000
O  -4.06300 14.60000 41.67000
C  -5.00400 16.86400 41.43700
C  -4.39200 17.53200 42.65800
O  -3.45000 18.29300 42.57500
O  -5.17500 17.23300 43.76600
C  -4.57300 17.96300 44.87300
H  -9.75800 21.78600 40.07000
H  -14.24700 17.32200 40.08400
H  -9.75100 12.87000 41.52100
H  -5.45300 20.03300 41.45400
H  -7.31700 21.77800 40.04100
H  -6.96800 21.16100 43.08200
H  -8.05400 22.40400 42.48600
H  -6.47500 22.59200 41.98800
H  -5.91700 20.85500 38.84800
H  -6.08400 19.10000 38.80800
H  -3.68900 19.75500 40.09900
H  -3.72300 20.67600 38.56000
H  -13.30300 22.57900 39.20500
H  -11.76500 22.29200 38.24700
H  -11.73100 22.80700 39.98900
H  -15.36300 18.18600 38.19900
H  -16.72300 19.33300 38.48500
H  -16.07900 18.39000 39.82200
H  -13.75300 14.29100 39.48100
H  -12.46300 13.43700 42.09900
H  -14.77900 13.94500 42.10100
H  -15.55300 14.36200 40.61100
H  -14.94500 15.59400 41.82800
H  -11.34900 12.19600 39.65100
H  -13.07700 12.24000 39.46300
H  -12.13600 10.19500 40.51400
H  -13.59000 10.87300 41.26100
H  -11.96400 11.10200 42.08400
H  -7.25800 11.98400 42.30700
H  -5.99100 12.06100 41.13500
H  -7.73900 11.75100 40.73100
H  -4.32400 17.09500 40.61800
H  -3.76800 17.40400 45.35200
H  -5.30900 17.94500 45.67700
H  -4.38500 19.02600 44.72300

