158

Mg 5.66300 53.71600 42.62400
C  5.09400 50.36200 41.85900
C  8.47000 53.66900 40.94200
C  5.74700 56.99000 42.94200
C  2.32500 53.72500 43.83300
N  6.54900 52.17500 41.37000
C  6.24500 50.84800 41.20100
C  7.29100 50.05200 40.37800
C  8.43600 51.13900 40.42500
C  7.78300 52.44800 40.97900
C  9.61900 50.74000 41.41700
C  6.74100 49.75700 39.00400
C  7.11700 48.48800 38.41600
H  6.46200 48.05200 37.08600
N  6.97100 55.19500 42.08600
C  8.13400 54.93900 41.46000
C  8.99000 56.16300 41.45700
C  8.19600 57.20700 42.08900
C  6.87200 56.49000 42.41500
C  10.28100 56.24400 40.72300
C  8.57500 58.63100 42.34300
O  9.71900 58.99800 41.99300
C  7.76600 59.59700 43.16300
N  4.13100 55.24000 43.12100
C  4.49600 56.53100 43.22800
C  3.36800 57.38400 43.81500
C  2.23600 56.27800 44.05400
C  2.93200 55.00200 43.63800
C  3.77900 58.34900 45.00700
C  0.87000 56.43700 43.24600
C  -0.36500 56.63100 44.26200
N  4.09900 52.37200 42.96400
C  2.87700 52.52700 43.48500
C  2.22600 51.25800 43.62700
C  3.09600 50.33600 43.00800
C  4.22100 51.06800 42.57600
C  0.91600 51.01400 44.26500
C  3.33200 48.97200 42.66600
O  2.62000 47.93300 42.82100
C  4.71300 48.87300 41.98600
C  4.61800 48.02000 40.77000
O  4.11900 48.35600 39.70400
O  5.06000 46.75700 41.03600
C  4.67700 45.75100 40.12600
H  9.41500 53.71500 40.39900
H  5.79400 58.07400 43.06300
H  1.36000 53.73300 44.34300
H  7.68100 49.17000 40.88500
H  8.89200 51.31300 39.45000
H  9.55600 51.37600 42.30000
H  10.60800 50.99600 41.03500
H  9.67400 49.66800 41.60800
H  7.24900 50.44400 38.32700
H  5.69300 50.03200 38.88300
H  6.92500 47.73600 39.18200
H  8.19900 48.61600 38.40000
H  10.58300 55.32500 40.22300
H  11.07300 56.71900 41.30200
H  10.10100 57.03500 39.99500
H  8.26700 60.55900 43.26800
H  7.66100 59.18900 44.16900
H  6.80500 59.76600 42.67700
H  3.06400 57.92200 42.91800
H  2.07900 56.25300 45.13300
H  4.86200 58.38500 45.12400
H  3.26200 57.94000 45.87500
H  3.40100 59.33900 44.75500
H  0.68600 55.50000 42.72000
H  0.80200 57.34700 42.65100
H  0.00900 56.50200 45.27800
H  -1.16600 55.97700 43.91600
H  -0.68300 57.67300 44.23700
H  1.00200 50.59500 45.26800
H  0.29700 50.29100 43.73400
H  0.33900 51.93400 44.35900
H  5.41600 48.36300 42.64600
H  3.59500 45.72400 40.25800
H  5.23800 44.86600 40.42400
H  5.01200 45.94100 39.10700
Mg 17.69000 51.39900 26.38300
C  19.63200 49.92500 28.83600
C  15.44200 52.10400 28.76700
C  15.58700 52.45400 23.87000
C  19.79300 50.01200 23.94500
N  17.56500 51.10100 28.55500
C  18.52500 50.52600 29.39600
C  18.08300 50.56100 30.83000
C  16.47600 50.74500 30.66700
C  16.45900 51.34100 29.27600
C  15.57400 49.43600 30.72100
C  18.73500 51.75000 31.53900
C  19.02400 51.46800 33.01800
H  17.81800 50.82400 33.87700
N  15.81900 52.32600 26.34600
C  15.11700 52.60800 27.46800
C  13.92600 53.34800 27.05300
C  13.84900 53.31200 25.60200
C  15.09400 52.67500 25.21100
C  13.02600 54.01000 28.11700
C  12.70600 53.86900 24.74000
O  12.90800 53.85600 23.52300
C  11.49800 54.54000 25.28800
N  17.61000 51.17000 24.21400
C  16.71800 51.80300 23.42600
C  17.32800 52.02900 22.02200
C  18.72700 51.36000 22.07700
C  18.72900 50.80200 23.52100
C  16.46100 51.57400 20.83300
C  19.96900 52.41000 21.93200
C  21.29900 51.77100 21.39000
N  19.35000 50.17400 26.31300
C  20.11300 49.69900 25.23000
C  21.18300 48.83400 25.74100
C  21.08400 48.94400 27.15500
C  19.98200 49.75300 27.47800
C  22.25100 48.22900 24.93500
C  21.63200 48.48100 28.45500
O  22.55400 47.68700 28.72300
C  20.75400 49.18500 29.55700
C  20.21800 48.16500 30.47600
O  19.39000 47.33300 30.27600
O  20.85400 48.24200 31.71100
C  20.65600 47.16900 32.67700
H  14.63500 52.30300 29.47600
H  15.05600 52.96900 23.06700
H  20.48800 49.76500 23.14000
H  18.22100 49.63000 31.37900
H  16.12700 51.56200 31.29800
H  14.85100 49.31700 29.91400
H  14.89300 49.56000 31.56300
H  16.21600 48.57000 30.88000
H  18.11500 52.63400 31.39200
H  19.69300 51.94200 31.05700
H  19.18400 52.49000 33.36400
H  19.92100 50.85000 33.06200
H  13.48900 54.08200 29.10100
H  12.23100 53.28200 28.27600
H  12.67400 54.97200 27.74600
H  10.80600 54.53700 24.44600
H  11.69500 55.51800 25.72500
H  10.96400 53.96800 26.04700
H  17.37700 53.10900 21.88100
H  18.77400 50.61500 21.28200
H  16.59400 50.50000 20.70400
H  16.75000 52.14000 19.94800
H  15.40600 51.69600 21.07900
H  20.08800 53.00700 22.83700
H  19.84200 53.17400 21.16500
H  21.32000 50.69000 21.52800
H  22.17200 52.13900 21.92900
H  21.57200 51.95000 20.35000
H  22.00800 47.27000 24.47700
H  23.13000 48.18500 25.57900
H  22.34700 48.93000 24.10600
H  21.37000 49.90300 30.09800
H  20.44500 46.23000 32.16400
H  19.80600 47.46900 33.28900
H  21.52200 47.14500 33.33900

