158

Mg 25.59400 2.19500 29.93000
C  27.65400 1.22300 32.61800
C  22.86100 2.11800 32.08500
C  23.44300 2.68900 27.35300
C  28.15200 1.62600 27.74600
N  25.29000 1.84100 32.09900
C  26.29300 1.55300 33.05000
C  25.80100 1.79900 34.49200
C  24.24900 1.77500 34.28400
C  24.14800 1.95300 32.71900
C  23.58800 0.46200 34.81200
C  26.35900 3.01400 35.20200
C  27.34200 2.63600 36.34700
H  27.47200 3.65300 37.49400
N  23.42800 2.45700 29.77100
C  22.53100 2.37600 30.78100
C  21.19700 2.57200 30.27000
C  21.32000 2.64500 28.83900
C  22.78500 2.58200 28.60500
C  20.00700 2.63200 31.19000
C  20.29600 2.81500 27.78800
O  20.57400 2.95500 26.56700
C  18.97500 2.90800 28.20200
N  25.77900 2.20400 27.87200
C  24.83600 2.57900 27.01200
C  25.38000 2.74600 25.54700
C  26.92800 2.42100 25.71000
C  26.95300 2.03400 27.18700
C  24.58600 1.99300 24.43900
C  27.76600 3.68000 25.40600
C  28.98800 3.27100 24.57700
N  27.50800 1.57000 30.10600
C  28.41900 1.26800 29.04600
C  29.55900 0.68500 29.61100
C  29.33300 0.76900 31.04000
C  28.08000 1.23000 31.27500
C  30.82000 0.37300 28.82200
C  30.00600 0.62300 32.34400
O  31.13500 0.28100 32.66100
C  28.93100 0.91800 33.41700
C  28.80100 -0.16900 34.44400
O  28.21900 -1.25900 34.26500
O  29.46800 0.20000 35.62500
C  29.27300 -0.65200 36.79700
H  22.09000 2.03100 32.85400
H  22.85600 2.99500 26.48500
H  28.96000 1.67600 27.01300
H  26.03200 0.90100 35.06600
H  23.66600 2.56100 34.76500
H  22.55500 0.60000 35.13000
H  24.16000 0.27000 35.71900
H  23.68100 -0.37500 34.11900
H  25.51900 3.54100 35.65400
H  26.84800 3.66200 34.47500
H  28.34800 2.63900 35.92700
H  27.20400 1.59800 36.65000
H  20.11100 2.14600 32.16000
H  19.21100 2.02400 30.76000
H  19.70500 3.65700 31.40400
H  18.64600 2.05100 28.78800
H  18.36500 3.22900 27.35700
H  19.01600 3.73800 28.90700
H  25.16600 3.79300 25.33300
H  27.30200 1.52400 25.21700
H  25.31100 1.37400 23.91100
H  24.06400 2.70600 23.80100
H  23.81500 1.40700 24.93900
H  28.09700 4.11700 26.34800
H  27.16800 4.38200 24.82400
H  29.05800 4.05700 23.82500
H  28.89200 2.30000 24.09100
H  29.88800 3.26800 25.19200
H  30.85100 -0.64600 28.43600
H  31.67600 0.37100 29.49700
H  30.88200 1.07400 27.98900
H  29.31800 1.82600 33.88000
H  28.30900 -0.38500 37.23100
H  30.09800 -0.41900 37.47000
H  29.39600 -1.73300 36.72400
Mg 43.07500 3.49500 46.82300
C  41.39400 6.60700 47.01600
C  39.81900 1.91100 46.83100
C  44.42400 0.62900 46.12900
C  46.06600 5.25900 46.28100
N  40.94400 4.24800 46.93600
C  40.54100 5.53900 47.03200
C  39.00900 5.70200 47.19600
C  38.57500 4.18800 47.14500
C  39.84300 3.35800 46.98800
C  37.69900 3.69000 48.36400
C  38.21000 6.45600 46.13600
C  38.84600 6.49700 44.65000
H  38.08600 5.76800 43.48800
N  42.24700 1.49400 46.46700
C  40.91300 1.03700 46.63500
C  40.91800 -0.36900 46.41100
C  42.25900 -0.77700 46.16600
C  43.09500 0.42100 46.21400
C  39.69000 -1.20400 46.56300
C  42.69400 -2.26800 45.93700
O  41.84900 -3.16800 45.74800
C  44.07200 -2.62300 45.53700
N  44.96700 3.04600 46.21900
C  45.25800 1.74000 46.10100
C  46.78300 1.61400 46.03300
C  47.34600 3.03900 45.79200
C  46.05400 3.84400 46.13700
C  47.34600 1.01500 47.30800
C  47.93100 3.28700 44.42300
C  49.16400 4.04100 44.27400
N  43.69700 5.49000 46.75000
C  44.91200 6.04700 46.51900
C  44.75600 7.52000 46.56900
C  43.39600 7.68900 46.72600
C  42.82500 6.50300 46.88300
C  45.85200 8.60900 46.42600
C  42.37900 8.81700 46.80400
O  42.44700 10.06500 46.72600
C  41.06900 8.10400 46.95800
C  40.52300 8.65800 48.27100
O  40.96400 8.54700 49.38200
O  39.36700 9.32600 48.00900
C  38.82300 10.00400 49.20600
H  38.84200 1.42200 46.81900
H  45.00300 -0.29600 46.10300
H  46.96400 5.87000 46.17000
H  38.86800 6.17900 48.16500
H  38.09500 3.92000 46.20400
H  37.80000 2.61800 48.53200
H  36.65600 3.92700 48.15700
H  37.94200 4.11200 49.33900
H  38.10300 7.45300 46.56400
H  37.21300 6.07200 45.91600
H  39.79700 5.97000 44.56600
H  38.93600 7.56900 44.47700
H  39.82600 -2.18800 47.01300
H  39.06100 -1.10700 45.67900
H  39.03100 -0.72500 47.28700
H  44.56700 -2.69700 46.50600
H  44.35700 -1.85300 44.82100
H  44.11600 -3.56000 44.98200
H  46.99100 1.06400 45.11500
H  47.99000 3.45900 46.56500
H  46.66300 0.54500 48.01600
H  47.84700 1.81500 47.85200
H  48.10700 0.30800 46.97600
H  47.21400 3.82700 43.80300
H  47.90200 2.39000 43.80400
H  49.00400 4.93500 43.67200
H  49.90900 3.41600 43.78200
H  49.50900 4.31500 45.27200
H  46.90100 8.31200 46.41400
H  45.71500 9.25700 47.29100
H  45.76200 9.13800 45.47700
H  40.37300 8.24700 46.13200
H  38.57100 9.20800 49.90700
H  37.83800 10.40800 48.97200
H  39.43400 10.79000 49.65100

