158

Mg 29.88200 58.02900 40.98300
C  27.00600 56.28300 40.08300
C  31.72400 55.68700 39.42500
C  32.49600 60.22300 41.21700
C  27.70300 60.74200 41.94300
N  29.34200 56.26800 39.85100
C  28.17300 55.63800 39.65500
C  28.25400 54.37600 38.69400
C  29.79600 54.08000 38.90400
C  30.33800 55.44100 39.36200
C  30.17900 52.88600 39.75900
C  27.84100 54.77300 37.24000
C  26.95100 53.67400 36.69200
H  26.96900 53.49300 35.12300
N  31.92200 57.86600 40.64300
C  32.44100 56.83200 39.92400
C  33.79500 57.13100 39.69200
C  34.04200 58.40200 40.18600
C  32.76800 58.90700 40.73300
C  34.75800 56.27800 38.88100
C  35.46300 58.98600 40.15200
O  36.41300 58.37300 39.69400
C  35.90800 60.19100 40.92600
N  30.11700 60.16900 41.53300
C  31.28600 60.80900 41.53200
C  31.12500 62.31400 42.02300
C  29.65700 62.38100 42.50400
C  29.12300 61.05700 41.97500
C  32.19500 62.69500 43.03300
C  28.95500 63.70300 42.09800
C  27.89300 64.17100 43.13000
N  27.84400 58.46700 41.14900
C  27.11200 59.54900 41.64200
C  25.69300 59.25400 41.57200
C  25.64000 57.99400 40.97500
C  26.95500 57.54500 40.75600
C  24.51800 60.11500 42.02700
C  24.70500 57.11400 40.39400
O  23.53800 57.29800 40.16800
C  25.51900 55.80400 39.96600
C  25.11700 54.64700 40.78800
O  25.71300 54.22300 41.73700
O  23.97100 54.12600 40.23800
C  23.57500 52.82000 40.63100
H  32.26500 54.82700 39.02600
H  33.41800 60.80300 41.29600
H  27.15300 61.62800 42.26500
H  27.50400 53.63300 38.96500
H  30.21500 54.01400 37.90000
H  29.33000 52.21700 39.61400
H  30.48300 53.10600 40.78300
H  31.00000 52.34000 39.29400
H  28.71200 54.87200 36.59100
H  27.30900 55.72400 37.26000
H  25.94400 53.66800 37.10800
H  27.42400 52.77600 37.09000
H  34.24500 55.51800 38.29100
H  35.46400 55.70600 39.48300
H  35.19800 56.96600 38.16000
H  35.48000 60.22600 41.92800
H  35.68900 61.11300 40.38700
H  36.93500 60.06500 41.27100
H  31.14400 62.91900 41.11600
H  29.64000 62.23500 43.58400
H  31.97300 63.53700 43.68800
H  33.22100 62.86800 42.70700
H  32.38500 61.84000 43.68100
H  28.51100 63.72100 41.10300
H  29.74700 64.44500 42.20000
H  28.32400 64.96200 43.74400
H  27.60800 63.29900 43.71900
H  27.05300 64.61500 42.59600
H  24.64500 61.17800 41.82400
H  24.32400 60.19500 43.09600
H  23.61800 59.70400 41.56900
H  25.30200 55.48300 38.94700
H  24.48700 52.23100 40.73700
H  22.83100 52.32400 40.00800
H  23.19000 52.84000 41.65000
Mg -11.40500 37.49400 43.25900
C  -8.98800 35.24400 42.41300
C  -9.20200 40.01000 41.92500
C  -13.85100 39.91800 43.36500
C  -13.63400 35.01400 43.78000
N  -9.37400 37.56200 42.07100
C  -8.53900 36.51500 41.98200
C  -7.10600 36.85300 41.49600
C  -7.22500 38.42700 41.66600
C  -8.70700 38.69300 41.89300
C  -6.31600 39.08500 42.73700
C  -6.88100 36.29500 40.03900
C  -5.47800 35.62400 39.76600
H  -4.96100 35.45300 38.36900
N  -11.48800 39.64100 42.67800
C  -10.53700 40.43600 42.14900
C  -10.94600 41.78100 42.04900
C  -12.31700 41.83400 42.48600
C  -12.61900 40.43500 42.86100
C  -10.06700 42.88300 41.55800
C  -13.18100 43.13700 42.66000
O  -12.80900 44.22500 42.22300
C  -14.57200 43.12500 43.18400
N  -13.46700 37.47900 43.35600
C  -14.22700 38.59600 43.64600
C  -15.60600 38.25500 44.31800
C  -15.56400 36.66600 44.16200
C  -14.11200 36.34200 43.71400
C  -15.82200 38.78200 45.76000
C  -16.52100 36.06900 43.07400
C  -17.83800 35.43600 43.69800
N  -11.36500 35.48600 43.24800
C  -12.31500 34.54400 43.45000
C  -11.77200 33.26200 43.41000
C  -10.43500 33.41700 43.00100
C  -10.23000 34.86500 42.93100
C  -12.49100 31.96000 43.64700
C  -9.20000 32.75600 42.69400
O  -8.82500 31.56200 42.69200
C  -8.19300 33.92500 42.30300
C  -6.99800 33.93000 43.19800
O  -5.88300 33.92500 42.70800
O  -7.24700 34.01500 44.54800
C  -6.10500 33.90400 45.50200
H  -8.46100 40.77500 41.68100
H  -14.59900 40.66800 43.62800
H  -14.24200 34.24900 44.26700
H  -6.40600 36.43300 42.21800
H  -6.94600 38.86400 40.70800
H  -6.82500 39.47300 43.62000
H  -5.63000 39.73600 42.19400
H  -5.66500 38.35200 43.21300
H  -6.98800 37.16900 39.39600
H  -7.51000 35.45900 39.73300
H  -5.68900 34.60400 40.08700
H  -4.66100 36.01900 40.36900
H  -10.14000 42.92300 40.47100
H  -9.03500 42.69800 41.85500
H  -10.24900 43.92700 41.81400
H  -15.09500 44.07300 43.30900
H  -14.46200 42.64900 44.15900
H  -15.10800 42.53000 42.44400
H  -16.47600 38.56700 43.74100
H  -15.62600 36.19600 45.14400
H  -14.89100 39.22200 46.11600
H  -16.03600 37.89600 46.35800
H  -16.62500 39.51100 45.65300
H  -16.08300 35.28500 42.45600
H  -16.73700 36.76000 42.26000
H  -18.69000 35.83000 43.14300
H  -17.90200 35.68200 44.75800
H  -17.81900 34.36600 43.48800
H  -13.48800 32.13100 44.05200
H  -11.95900 31.31700 44.34800
H  -12.65100 31.34000 42.76500
H  -8.05200 33.79400 41.23000
H  -6.39100 33.18500 46.27000
H  -6.00500 34.94700 45.80400
H  -5.18700 33.58300 45.00900

