158

Mg 46.57300 44.65900 43.13200
C  43.10500 43.84300 43.22600
C  47.27100 41.32700 42.77300
C  49.72800 45.52300 42.63700
C  45.57000 48.00600 43.64500
N  45.26300 42.82900 42.91600
C  43.92200 42.72600 43.09200
C  43.47300 41.28800 42.85500
C  44.80200 40.50200 43.03000
C  45.89500 41.58100 42.97100
C  44.93600 39.65200 44.24900
C  42.72600 40.96500 41.50600
C  43.01500 41.89000 40.22500
H  42.99700 41.23300 38.89600
N  48.22500 43.60800 42.73000
C  48.35000 42.20900 42.67100
C  49.69100 41.80400 42.60900
C  50.48400 43.01000 42.48400
C  49.47800 44.14700 42.61200
C  50.18400 40.42100 42.40300
C  52.04700 43.04000 42.33500
O  52.65300 42.00000 42.31400
C  52.79100 44.35100 42.25900
N  47.51400 46.51600 43.12200
C  48.81900 46.64000 42.85500
C  49.23200 48.06300 42.88600
C  47.87800 48.90600 42.97400
C  46.94100 47.76400 43.27800
C  50.34500 48.44900 43.90500
C  47.53300 49.92400 41.83400
C  47.65400 51.37300 42.28400
N  44.76200 45.77100 43.45200
C  44.49200 47.10100 43.57400
C  43.10600 47.33000 43.53800
C  42.48900 46.09000 43.42300
C  43.53300 45.16800 43.40800
C  42.50700 48.70300 43.70800
C  41.26500 45.40500 43.27700
O  40.11900 45.84400 43.27500
C  41.65600 43.88100 43.21700
C  40.93400 42.97900 44.23000
O  40.43800 41.91100 44.01400
O  40.82200 43.62200 45.43500
C  39.85300 42.98700 46.37200
H  47.56400 40.27700 42.83900
H  50.74900 45.77500 42.34200
H  45.29300 49.06200 43.68000
H  42.82500 41.14400 43.71900
H  45.04500 39.90900 42.14800
H  45.24800 38.64100 43.98600
H  43.98400 39.57100 44.77300
H  45.57000 40.12300 45.00000
H  41.69800 41.17100 41.80500
H  43.01300 39.93600 41.28800
H  43.93400 42.45800 40.36200
H  42.17600 42.57700 40.10900
H  50.56500 40.12500 41.42600
H  49.29800 39.79000 42.47800
H  50.91000 40.06800 43.13500
H  52.70700 44.80300 43.24700
H  52.33300 45.04700 41.55600
H  53.85000 44.14600 42.10200
H  49.60800 48.22000 41.87500
H  47.87100 49.40600 43.94200
H  50.47900 47.59400 44.56700
H  50.15400 49.38200 44.43500
H  51.32900 48.43200 43.43700
H  46.55100 49.74200 41.39700
H  48.14500 49.78900 40.94300
H  47.74600 51.45100 43.36700
H  46.80700 51.94700 41.90900
H  48.48900 51.83600 41.75700
H  43.29100 49.40800 43.43200
H  42.12700 48.82400 44.72200
H  41.66200 48.77900 43.02300
H  41.28000 43.41700 42.30500
H  39.17700 43.65700 46.90400
H  40.38100 42.38300 47.11000
H  39.21000 42.25600 45.87900
Mg -2.01900 34.13800 26.35800
C  -3.31100 32.49300 29.21100
C  -0.78100 36.55200 28.42600
C  -1.43400 36.10700 23.55700
C  -4.02900 32.01700 24.36700
N  -1.94200 34.43700 28.67100
C  -2.50200 33.60200 29.59700
C  -2.14900 34.11300 31.01400
C  -1.46900 35.47400 30.66700
C  -1.34200 35.42300 29.15200
C  -1.99500 36.75700 31.29900
C  -1.26700 32.98100 31.66800
C  -1.89500 32.38100 32.89600
H  -1.17700 32.54300 34.18700
N  -1.11600 36.00200 26.06800
C  -0.65700 36.83300 27.03700
C  -0.08100 38.00200 26.46200
C  -0.14800 37.89800 25.05400
C  -0.89700 36.59800 24.81800
C  0.62500 39.08600 27.30300
C  0.35700 38.83100 23.94500
O  0.14800 38.60400 22.75500
C  1.10300 40.06100 24.24600
N  -2.65800 34.04900 24.27700
C  -2.25300 34.96100 23.34500
C  -2.85200 34.58900 21.94800
C  -3.65300 33.29000 22.22600
C  -3.41800 33.07900 23.72000
C  -3.75200 35.67000 21.31400
C  -3.13900 32.15200 21.30500
C  -2.17400 31.13500 21.84000
N  -3.27000 32.50000 26.64600
C  -3.98300 31.68800 25.78500
C  -4.55100 30.61900 26.50600
C  -4.37300 30.92500 27.84600
C  -3.62100 32.10300 27.87300
C  -5.29100 29.45300 25.99500
C  -4.83100 30.58600 29.19900
O  -5.55700 29.73300 29.65900
C  -4.03500 31.53600 30.13500
C  -5.07000 32.29700 30.97600
O  -5.72500 33.25700 30.66900
O  -5.19000 31.51600 32.10100
C  -5.87500 32.21000 33.17700
H  -0.33700 37.36100 29.00800
H  -1.30700 36.60200 22.59300
H  -4.58900 31.31700 23.74300
H  -3.08500 34.25300 31.55600
H  -0.44800 35.40100 31.04200
H  -2.90900 36.51000 31.84000
H  -2.34200 37.43900 30.52200
H  -1.27100 37.25200 31.94500
H  -0.25300 33.33500 31.85600
H  -1.25000 32.10600 31.01900
H  -1.94100 31.29500 32.81500
H  -2.92300 32.70000 33.06900
H  1.69400 38.92300 27.16200
H  0.29000 39.16400 28.33800
H  0.41400 39.98100 26.71800
H  1.55700 40.43000 23.32600
H  1.95300 39.88300 24.90400
H  0.45600 40.84600 24.63600
H  -1.94600 34.38700 21.37700
H  -4.73500 33.40200 22.17100
H  -3.09200 36.12500 20.57400
H  -3.96400 36.44900 22.04600
H  -4.62900 35.20500 20.86500
H  -2.66600 32.72900 20.51000
H  -4.00100 31.65600 20.85800
H  -2.58300 30.12900 21.94000
H  -1.85700 31.36600 22.85700
H  -1.19900 31.05700 21.36000
H  -4.79000 28.52200 25.73100
H  -5.85300 29.87300 25.16000
H  -6.06800 29.12900 26.68800
H  -3.44300 30.94200 30.83100
H  -6.74400 32.74500 32.79300
H  -5.23700 32.81400 33.82100
H  -6.29300 31.42200 33.80500

