158

Mg 1.88800 -1.50600 43.21700
C  5.36600 -1.09300 42.83300
C  1.40100 1.37000 41.25900
C  -1.38600 -2.26500 42.90400
C  2.48200 -4.72700 44.54400
N  3.14000 -0.10100 42.14100
C  4.54000 -0.07800 42.18800
C  5.16200 1.05100 41.45700
C  3.85000 2.08600 41.33900
C  2.70700 1.05900 41.61800
C  3.86700 3.31300 42.29900
C  5.77200 0.71400 40.03200
C  6.69100 1.83800 39.50900
H  6.29400 2.51700 38.17500
N  0.24300 -0.56400 42.32900
C  0.25400 0.58000 41.50200
C  -1.13800 0.83700 41.07800
C  -1.96800 -0.14800 41.61600
C  -1.06200 -1.02800 42.39300
C  -1.60000 1.93400 40.20400
C  -3.46600 -0.19900 41.42300
O  -4.10000 0.65100 40.78800
C  -4.33200 -1.25700 42.08300
N  0.74500 -3.31200 43.61100
C  -0.60000 -3.24800 43.58000
C  -1.23500 -4.54300 43.94100
C  -0.02000 -5.36400 44.52100
C  1.16900 -4.45300 44.11700
C  -2.43900 -4.51300 44.99400
C  0.10300 -6.80600 43.91200
C  0.36100 -7.93200 44.91200
N  3.53500 -2.61800 43.80600
C  3.66800 -3.87600 44.36100
C  5.04200 -4.16600 44.60400
C  5.79500 -3.18100 44.01300
C  4.85200 -2.20100 43.54500
C  5.44100 -5.44400 45.27200
C  7.06200 -2.62400 43.62400
O  8.18400 -3.09100 43.81600
C  6.86100 -1.35900 42.85600
C  7.52300 -0.22200 43.43900
O  7.21900 0.44000 44.42800
O  8.68500 -0.00600 42.70900
C  9.13700 1.35400 42.81200
H  1.32200 2.27900 40.65900
H  -2.42100 -2.61400 42.93100
H  2.57500 -5.73300 44.95800
H  5.91000 1.54200 42.08100
H  3.81700 2.33900 40.27900
H  2.88900 3.49700 42.74400
H  4.04000 4.14700 41.61900
H  4.62300 3.17300 43.07200
H  4.96000 0.61400 39.31100
H  6.25000 -0.26500 40.02200
H  7.70000 1.42400 39.51800
H  6.69400 2.57400 40.31300
H  -0.78600 2.65100 40.10400
H  -2.38400 2.53900 40.65800
H  -1.91200 1.60500 39.21300
H  -5.38800 -1.17900 41.82800
H  -4.09200 -1.15600 43.14200
H  -3.92100 -2.19800 41.71800
H  -1.48900 -5.15200 43.07300
H  -0.08500 -5.32100 45.60800
H  -3.40400 -4.71900 44.53100
H  -2.41300 -3.53300 45.46900
H  -2.29900 -5.37800 45.64200
H  1.05200 -6.83700 43.37600
H  -0.80200 -6.99000 43.33300
H  1.30200 -8.44200 44.70400
H  -0.48000 -8.61500 44.79200
H  0.23300 -7.51700 45.91200
H  6.53000 -5.40400 45.25600
H  5.26900 -6.32200 44.65000
H  5.17400 -5.65300 46.30800
H  7.07200 -1.51900 41.79900
H  10.10100 1.39300 42.30500
H  9.23800 1.70100 43.84100
H  8.43200 2.10700 42.45800
Mg 53.75100 24.67600 45.34900
C  51.05900 26.55200 44.28600
C  51.99000 21.81600 44.13500
C  56.62200 22.87100 45.52700
C  55.40100 27.50700 46.27600
N  51.77600 24.30800 44.12500
C  50.95500 25.24600 43.88000
C  49.79200 24.68400 43.05000
C  49.82600 23.21300 43.42400
C  51.26100 23.05000 43.87400
C  48.67200 22.59700 44.32500
C  49.91600 24.72900 41.49700
C  48.60700 24.90700 40.64300
H  48.26900 23.82600 39.59300
N  54.18000 22.66300 44.98700
C  53.32800 21.66700 44.53700
C  54.01000 20.41400 44.60300
C  55.39300 20.65900 44.82300
C  55.46200 22.12400 45.14700
C  53.29700 19.07200 44.27800
C  56.45700 19.58100 44.93500
O  56.18300 18.41800 44.72400
C  57.95500 19.86700 45.24500
N  55.81300 25.18900 45.55900
C  56.73000 24.20100 45.72800
C  57.85900 24.76000 46.52200
C  57.52900 26.21400 46.66900
C  56.12300 26.32600 46.17500
C  58.11900 24.05900 47.90400
C  58.50200 27.14400 46.01900
C  59.85800 27.33900 46.84500
N  53.36300 26.68500 45.43100
C  54.09700 27.73600 45.85700
C  53.28600 28.89400 45.77300
C  52.08500 28.47800 45.20100
C  52.20200 27.12400 44.97200
C  53.75400 30.28600 46.18600
C  50.80500 28.97300 44.79300
O  50.34900 30.11100 44.69100
C  50.11000 27.69600 44.10700
C  49.68100 28.08500 42.68400
O  50.42900 28.48400 41.78600
O  48.34100 28.00400 42.61200
C  47.77200 28.61200 41.46200
H  51.37100 20.94600 43.90400
H  57.52500 22.31200 45.78200
H  55.90800 28.29900 46.83100
H  48.82600 25.13600 43.27300
H  49.60900 22.57600 42.56600
H  48.40300 21.61000 43.94900
H  47.80400 23.25200 44.38700
H  49.16000 22.51900 45.29700
H  50.33000 23.86000 40.98400
H  50.48300 25.62800 41.25700
H  48.77500 25.78600 40.02200
H  47.73700 24.99800 41.29400
H  53.87300 18.50200 43.54800
H  52.33300 19.15800 43.77700
H  53.13500 18.38400 45.10800
H  58.41500 20.61400 44.59800
H  58.54000 18.96600 45.06100
H  57.94300 19.98500 46.32800
H  58.75200 24.66700 45.90400
H  57.49900 26.45500 47.73200
H  57.53200 23.14100 47.92400
H  57.85200 24.64500 48.78400
H  59.17700 23.80700 47.96600
H  58.02700 28.11600 45.88700
H  58.80200 26.72700 45.05800
H  59.86000 27.03700 47.89200
H  60.12000 28.39500 46.79100
H  60.65500 26.82600 46.30800
H  53.17000 31.00300 45.60900
H  54.82800 30.47200 46.18300
H  53.31800 30.57400 47.14300
H  49.18600 27.38900 44.59600
H  46.76100 28.91400 41.73400
H  47.78300 27.86600 40.66800
H  48.31400 29.47700 41.08000

