158

Mg 40.54000 9.06700 29.89900
C  42.35900 10.44900 32.63200
C  38.63000 7.34600 31.93100
C  39.05900 7.85700 27.14400
C  43.03700 10.55800 27.84000
N  40.63300 8.80500 32.05400
C  41.29100 9.55000 33.04900
C  40.84300 9.16700 34.50800
C  39.74000 8.12900 34.25900
C  39.61300 8.08400 32.63100
C  40.07200 6.70500 34.78500
C  40.46400 10.40100 35.39900
C  39.86800 10.23600 36.76400
H  40.35300 11.10300 37.93000
N  39.03800 7.73500 29.53500
C  38.19600 7.25400 30.58200
C  37.10400 6.49300 29.99500
C  37.18400 6.73300 28.58600
C  38.45700 7.44300 28.36600
C  36.01000 5.79000 30.76300
C  36.28600 6.20800 27.49300
O  36.49800 6.39200 26.26000
C  35.10700 5.31600 27.84100
N  41.07500 9.05700 27.77700
C  40.18400 8.67500 26.88400
C  40.70500 8.88200 25.47500
C  41.84100 9.84200 25.67200
C  41.96700 9.92200 27.18300
C  40.81600 7.64300 24.60500
C  41.75200 11.26200 24.99900
C  42.71700 11.52400 23.88600
N  42.37700 10.11700 30.08700
C  43.25000 10.63100 29.23600
C  44.23700 11.46600 29.88700
C  43.94200 11.47100 31.24300
C  42.80400 10.58800 31.32800
C  45.38400 12.16300 29.28200
C  44.34300 11.93700 32.51900
O  45.15500 12.75000 32.84700
C  43.42200 11.21300 33.53600
C  44.10200 10.26400 34.47000
O  44.81700 9.41100 34.00600
O  43.75600 10.46500 35.79300
C  44.00800 9.39400 36.79400
H  37.94600 6.87000 32.63600
H  38.61300 7.57800 26.18700
H  43.74800 11.08400 27.20000
H  41.66100 8.62900 34.99000
H  38.76900 8.43400 34.64800
H  40.19300 6.04900 33.92200
H  39.31600 6.27700 35.44200
H  41.02000 6.68300 35.32400
H  39.74400 10.99600 34.83700
H  41.39600 10.91700 35.62900
H  39.79900 9.18600 37.04900
H  38.82300 10.54600 36.72700
H  36.20600 6.07100 31.79800
H  36.08700 4.71200 30.62100
H  35.00600 6.15400 30.54500
H  34.37500 5.77400 28.50700
H  35.50700 4.45200 28.37200
H  34.60900 4.95600 26.94100
H  39.93600 9.38100 24.88500
H  42.77000 9.36000 25.36700
H  40.44400 6.72300 25.05600
H  41.88500 7.44900 24.51600
H  40.41400 7.94900 23.63900
H  41.75900 12.05400 25.74700
H  40.73500 11.39400 24.62900
H  43.22800 12.43500 24.19600
H  42.32500 11.70800 22.88500
H  43.58600 10.86600 23.88300
H  45.72000 11.73000 28.34000
H  46.17500 12.47500 29.96400
H  44.89800 13.07500 28.93700
H  42.97300 12.00000 34.14400
H  43.54900 9.52300 37.77400
H  45.07500 9.35300 37.00900
H  43.76400 8.45100 36.30400
Mg 30.53300 58.82100 38.88300
C  27.92300 56.72100 37.60700
C  32.63300 56.26900 38.01400
C  33.01000 61.02000 39.10800
C  28.13100 61.42000 38.96400
N  30.28200 56.74500 37.70700
C  29.15600 56.13500 37.40400
C  29.41100 54.74900 36.81700
C  31.02700 54.60400 37.04900
C  31.32100 55.89300 37.77200
C  31.42500 53.35000 37.83100
C  29.00300 54.54600 35.36200
C  29.31700 55.66800 34.32200
H  28.31600 56.18300 33.26500
N  32.60900 58.59000 38.74500
C  33.24400 57.42500 38.36000
C  34.67900 57.64000 38.51100
C  34.79800 59.07900 38.88800
C  33.43000 59.65000 38.87600
C  35.76000 56.62200 38.27700
C  36.00800 59.79800 39.29500
O  37.03900 59.23500 39.12900
C  36.06400 61.12800 39.80100
N  30.52300 60.92400 39.12500
C  31.69300 61.54100 39.22800
C  31.48800 63.03600 39.56900
C  29.92000 63.20600 39.23400
C  29.45900 61.77500 39.17000
C  31.89700 63.47600 41.03200
C  29.68800 64.07700 37.92600
C  29.82600 65.62900 37.81500
N  28.42300 59.04700 38.54100
C  27.63200 60.13700 38.68300
C  26.25400 59.81300 38.39400
C  26.30900 58.48000 37.97000
C  27.67300 58.08400 38.01100
C  25.04400 60.75600 38.40000
C  25.58600 57.34500 37.48000
O  24.39400 57.17000 37.30700
C  26.55400 56.16100 37.31500
C  26.07400 54.91400 38.07700
O  26.24300 54.69400 39.28000
O  25.25000 54.14400 37.24100
C  24.49100 53.07700 37.96100
H  33.35800 55.48300 37.79600
H  33.73600 61.83200 39.18700
H  27.43500 62.26100 38.99500
H  28.79300 54.05100 37.38200
H  31.64500 54.55700 36.15200
H  31.70400 53.63700 38.84500
H  32.18700 52.72900 37.36100
H  30.65400 52.58000 37.87000
H  27.92700 54.37400 35.32200
H  29.56400 53.66800 35.04100
H  30.23200 55.36600 33.81300
H  29.61200 56.59900 34.80700
H  36.41600 56.63500 39.14700
H  36.20800 56.66400 37.28500
H  35.29100 55.63900 38.32500
H  37.08600 61.25700 40.15700
H  35.42000 61.24600 40.67200
H  35.80200 61.79500 38.97900
H  32.07600 63.69800 38.93300
H  29.42300 63.68100 40.08000
H  32.76800 64.12400 40.94100
H  32.25500 62.59300 41.56100
H  31.20500 63.95100 41.72700
H  28.60900 63.97500 37.81100
H  30.20000 63.63900 37.06900
H  30.26300 66.02400 38.73200
H  28.87500 66.09500 37.55800
H  30.53200 65.86300 37.01800
H  24.16900 60.10600 38.41900
H  24.91900 61.42100 37.54500
H  25.10500 61.38100 39.29100
H  26.61400 56.02700 36.23400
H  24.03000 53.32200 38.91700
H  25.13500 52.21900 38.15300
H  23.69000 52.83600 37.26200

