158

Mg 26.80100 51.13600 26.56200
C  24.82800 52.02900 29.21400
C  29.33200 50.22400 28.83100
C  28.65200 49.97500 23.90500
C  24.33900 52.12000 24.32500
N  27.09100 51.29400 28.81100
C  26.02300 51.52700 29.68100
C  26.43600 51.17400 31.10700
C  27.94800 50.85300 30.97600
C  28.20400 50.79700 29.43600
C  28.83100 51.91100 31.64900
C  25.56400 50.05400 31.73100
C  24.84800 50.26300 33.11700
H  25.61900 50.90100 34.29500
N  28.75900 50.27300 26.38000
C  29.55900 49.91900 27.40400
C  30.73300 49.22400 26.86700
C  30.60200 49.12800 25.46100
C  29.24200 49.82900 25.14300
C  31.81500 48.50100 27.67200
C  31.50200 48.48000 24.43300
O  31.10000 48.37700 23.25600
C  32.85800 47.81400 24.63500
N  26.59300 51.22100 24.39800
C  27.44700 50.60100 23.53300
C  26.94500 50.74500 22.07600
C  25.52800 51.38500 22.24000
C  25.44600 51.59500 23.75700
C  27.87400 51.51100 21.12100
C  24.43300 50.38100 21.66000
C  23.32600 51.06500 20.90600
N  25.12300 52.11100 26.61300
C  24.13200 52.41300 25.71800
C  22.97300 52.96600 26.29600
C  23.17400 52.80100 27.66200
C  24.47000 52.23900 27.81100
C  21.81600 53.59000 25.58700
C  22.61200 52.96700 28.94400
O  21.56500 53.48700 29.21700
C  23.58100 52.43700 30.02500
C  23.90800 53.56000 30.97900
O  24.64200 54.44600 30.75100
O  23.13400 53.32700 32.07200
C  23.34100 54.24400 33.23500
H  30.12700 49.94400 29.52500
H  29.20300 49.56900 23.05400
H  23.56000 52.39500 23.61000
H  26.32300 52.07100 31.71600
H  28.11500 49.82700 31.30300
H  28.56300 52.88700 31.24300
H  29.84400 51.60300 31.38900
H  28.81700 51.88600 32.73900
H  26.02500 49.07500 31.86000
H  24.75700 49.97000 31.00200
H  24.35900 49.35600 33.47200
H  24.07200 50.96600 32.81100
H  32.70100 49.11600 27.82700
H  32.07900 47.58200 27.14800
H  31.39500 48.31200 28.66000
H  33.32500 47.66100 23.66200
H  32.73300 46.84500 25.11800
H  33.36600 48.47900 25.33400
H  26.84400 49.71000 21.75000
H  25.38700 52.39000 21.84200
H  27.44500 52.41900 20.69700
H  28.38300 50.84400 20.42600
H  28.62300 51.87800 21.82200
H  24.00800 49.76600 22.45300
H  24.85700 49.70500 20.91700
H  23.12200 50.53500 19.97600
H  23.59400 52.06200 20.55700
H  22.39400 50.96200 21.46100
H  22.14100 54.55500 25.19900
H  21.07800 53.64800 26.38800
H  21.51300 52.84900 24.84600
H  23.01000 51.66300 30.53800
H  23.67200 55.23900 32.93700
H  24.03300 53.77600 33.93500
H  22.40900 54.44800 33.76300
Mg 0.42200 44.20200 25.30800
C  2.66400 43.89900 27.93500
C  -2.04400 42.90800 27.34300
C  -1.72700 44.11300 22.68200
C  3.02700 44.92500 23.21300
N  0.37900 43.48900 27.48400
C  1.38000 43.52300 28.34600
C  0.85800 43.29600 29.82300
C  -0.68000 42.87700 29.57900
C  -0.80300 43.09700 28.03200
C  -1.06100 41.43000 30.01500
C  0.89800 44.58700 30.68500
C  1.46000 44.40100 32.09500
H  1.30500 43.03000 32.81700
N  -1.60400 43.68100 25.08600
C  -2.44100 43.15200 26.03100
C  -3.75800 42.89700 25.45600
C  -3.66700 43.32000 24.09000
C  -2.30500 43.75300 23.87800
C  -4.89100 42.44800 26.35200
C  -4.76600 43.30700 23.02400
O  -4.67300 43.76700 21.87200
C  -6.13100 42.67100 23.33700
N  0.62900 44.36600 23.20700
C  -0.46000 44.48200 22.36800
C  0.00900 44.83500 20.91300
C  1.53300 45.09500 21.09800
C  1.77500 44.82800 22.59800
C  -0.45300 43.79400 19.90100
C  2.06500 46.43100 20.54500
C  1.76900 47.77600 21.38300
N  2.48700 44.39800 25.51900
C  3.43500 44.67600 24.52900
C  4.78000 44.60000 25.15800
C  4.48100 44.54600 26.52300
C  3.09600 44.23800 26.64000
C  6.08300 44.75100 24.48600
C  5.04900 44.26800 27.74400
O  6.25700 44.13200 28.00500
C  3.88700 44.05700 28.77200
C  4.26500 42.83800 29.47200
O  3.96000 41.68100 29.10300
O  4.75100 43.08900 30.65200
C  5.24700 41.93100 31.45000
H  -2.75000 42.30100 27.91400
H  -2.42300 44.20800 21.84600
H  3.79100 45.19600 22.48200
H  1.29500 42.41700 30.29700
H  -1.43700 43.56400 29.95900
H  -1.44900 41.39700 31.03300
H  -0.12500 40.88400 30.13100
H  -1.78700 40.83500 29.46100
H  -0.10900 44.97300 30.84000
H  1.57700 45.22800 30.12300
H  1.05100 45.26700 32.61700
H  2.53000 44.54700 31.94800
H  -5.02000 41.36600 26.32700
H  -5.84800 42.86200 26.03600
H  -4.83600 42.83300 27.37000
H  -6.06200 41.73300 23.88800
H  -6.73300 42.55600 22.43600
H  -6.58100 43.39600 24.01600
H  -0.30300 45.83100 20.59600
H  2.11600 44.35200 20.55400
H  0.29100 43.03900 19.64900
H  -0.70300 44.28400 18.96000
H  -1.38600 43.30000 20.17200
H  1.67900 46.65600 19.55100
H  3.14900 46.35200 20.47000
H  1.32200 47.57600 22.35700
H  1.04000 48.35300 20.81500
H  2.72000 48.30000 21.47600
H  6.87600 44.89300 25.22000
H  6.00800 45.51000 23.70800
H  6.21700 43.74200 24.09600
H  3.85600 44.84700 29.52200
H  5.93500 41.41200 30.78300
H  4.44500 41.30400 31.83700
H  5.78200 42.32100 32.31600

