158

Mg 42.87000 41.93800 26.36800
C  42.04800 44.28500 28.82100
C  44.15500 39.93900 28.75400
C  44.09700 39.84400 23.98600
C  42.47900 44.39800 23.96600
N  43.13300 42.21900 28.61900
C  42.60600 43.15000 29.43400
C  42.61500 42.68600 30.87900
C  43.45200 41.35600 30.81200
C  43.64100 41.20900 29.28900
C  44.84000 41.42400 31.49600
C  41.24200 42.61700 31.65200
C  41.42900 41.81000 32.97200
H  40.59700 42.12800 34.15100
N  43.92500 40.16500 26.41400
C  44.36000 39.53500 27.47800
C  44.99600 38.31000 27.07900
C  44.80500 38.14200 25.67600
C  44.23100 39.41400 25.26800
C  45.58700 37.32200 28.09100
C  45.11200 36.97300 24.77400
O  45.01400 37.07900 23.54600
C  45.62500 35.68100 25.30800
N  43.12900 42.05700 24.31400
C  43.62900 41.07600 23.52400
C  43.62700 41.48900 22.05400
C  42.96700 42.82600 22.11100
C  42.79800 43.11300 23.52000
C  45.00400 41.35700 21.34300
C  41.66200 42.89300 21.31800
C  40.37600 42.32700 22.04100
N  42.21200 43.85500 26.32200
C  42.11700 44.73500 25.24900
C  41.55000 45.98200 25.75900
C  41.45500 45.78700 27.16200
C  41.93600 44.55800 27.43800
C  41.28500 47.20400 24.84600
C  41.02000 46.35200 28.44800
O  40.51100 47.41700 28.67300
C  41.40600 45.47400 29.55700
C  42.32400 46.21900 30.34800
O  43.50000 46.54600 30.05400
O  41.82400 46.18700 31.63800
C  42.77800 46.16900 32.77600
H  44.36300 39.14500 29.47300
H  44.39100 39.20900 23.14800
H  42.13800 45.09400 23.19600
H  43.12600 43.49800 31.39500
H  43.02600 40.41900 31.17000
H  45.58800 41.10800 30.76900
H  44.85100 40.79800 32.38900
H  45.05200 42.38600 31.96200
H  40.52600 42.11000 31.00400
H  40.96600 43.62400 31.96200
H  42.40800 41.90900 33.44200
H  41.27200 40.74700 32.79000
H  45.02900 36.39300 28.21100
H  45.79700 37.73600 29.07800
H  46.50900 36.95300 27.64300
H  45.77700 35.02400 24.45100
H  44.95700 35.41900 26.12800
H  46.62900 35.97700 25.61200
H  42.96700 40.79400 21.53500
H  43.60500 43.57100 21.63600
H  45.08900 40.60000 20.56300
H  45.80900 41.26400 22.07200
H  45.21500 42.27900 20.80100
H  41.79600 42.37800 20.36700
H  41.50300 43.93600 21.04500
H  40.49700 41.70100 22.92500
H  39.88600 41.56100 21.43900
H  39.67000 43.11500 22.30500
H  41.32200 48.10500 25.45900
H  40.37100 47.02100 24.28100
H  42.08300 47.08100 24.11400
H  40.50500 45.24000 30.12600
H  43.75000 45.79300 32.45800
H  42.51600 45.45000 33.55200
H  42.80600 47.11500 33.31800
Mg 16.78800 52.38700 26.67700
C  19.14400 50.59700 28.48400
C  14.90000 52.76900 29.44000
C  14.68200 53.99800 24.73800
C  18.60800 51.32000 23.69000
N  17.05000 51.89700 28.69800
C  18.08700 51.17000 29.27600
C  18.04600 51.20200 30.81000
C  16.55100 51.56300 31.01200
C  16.14400 52.10700 29.60300
C  15.60800 50.41400 31.31400
C  19.11200 52.21400 31.46700
C  19.20700 52.39200 32.96800
H  18.11500 51.77900 33.87600
N  15.02600 53.21500 27.00200
C  14.37400 53.30000 28.26800
C  13.13500 54.06900 28.17300
C  13.08000 54.52800 26.81600
C  14.29600 53.95800 26.09500
C  12.13900 54.24200 29.25100
C  12.11700 55.47700 26.13700
O  12.02800 55.57400 24.91700
C  11.19000 56.29800 26.98200
N  16.67200 52.63700 24.58600
C  15.74300 53.44100 24.00100
C  15.81400 53.55700 22.42200
C  17.10700 52.71400 22.22700
C  17.51200 52.21500 23.60300
C  14.69200 52.99100 21.55300
C  18.26400 53.45200 21.51000
C  19.17300 54.27400 22.48700
N  18.54000 51.21400 26.13800
C  19.15600 50.90300 24.92700
C  20.37100 50.07200 25.24000
C  20.38700 49.96400 26.65200
C  19.24600 50.67000 27.10500
C  21.39400 49.59500 24.18100
C  21.05100 49.36300 27.80000
O  21.99200 48.59700 27.83700
C  20.40300 49.96200 29.01000
C  20.19700 48.81000 29.96900
O  19.40900 47.88600 29.85500
O  20.76800 49.13700 31.19200
C  20.40700 48.37400 32.36400
H  14.30600 52.99000 30.32900
H  14.04000 54.60400 24.09500
H  19.23400 51.00300 22.85300
H  18.12700 50.21700 31.27000
H  16.39500 52.36300 31.73600
H  14.90200 50.89000 31.99500
H  16.12900 49.60100 31.82000
H  15.08300 50.09600 30.41300
H  18.90900 53.22700 31.12100
H  20.13200 51.95700 31.17700
H  19.26500 53.47700 33.05900
H  20.19500 52.02000 33.24000
H  11.47800 55.10800 29.25700
H  12.68100 54.30600 30.19500
H  11.45000 53.39800 29.29500
H  11.71900 56.71900 27.83700
H  10.34600 55.72400 27.36300
H  10.86300 57.15900 26.39900
H  16.02300 54.56500 22.06500
H  16.92300 51.74700 21.76000
H  13.96600 52.37500 22.08300
H  15.11300 52.38200 20.75300
H  14.12500 53.77200 21.04500
H  17.89800 54.12100 20.73100
H  18.74100 52.70100 20.88100
H  19.46000 55.26600 22.13600
H  20.05800 53.64300 22.56700
H  18.75400 54.43000 23.48100
H  22.21800 49.10800 24.70200
H  21.74800 50.37900 23.51300
H  20.86600 48.94200 23.48600
H  21.11300 50.72600 29.32600
H  21.35700 48.34000 32.89800
H  20.03700 47.37800 32.12300
H  19.72700 48.98700 32.95600

