158

Mg 40.35200 10.17700 29.32000
C  42.13900 11.31900 32.25000
C  38.07100 8.64700 31.46300
C  38.89300 8.74100 26.66200
C  43.06800 11.05200 27.53100
N  40.08200 10.08300 31.55600
C  40.87100 10.67300 32.56100
C  40.33000 10.36300 33.98400
C  39.06500 9.38700 33.69700
C  39.04600 9.35200 32.11000
C  39.17600 7.96000 34.33900
C  39.98800 11.66700 34.65600
C  39.91500 11.38900 36.17700
H  40.68600 12.26100 37.16800
N  38.59200 9.02600 29.08900
C  37.79900 8.50900 30.06500
C  36.61200 7.86600 29.50900
C  36.78700 8.07800 28.07200
C  38.14300 8.63500 27.88800
C  35.54200 7.12300 30.32300
C  35.87100 7.65600 26.89500
O  36.25000 7.84700 25.74600
C  34.45900 7.20800 27.28100
N  40.97800 9.76300 27.41600
C  40.22000 9.18700 26.45700
C  41.02600 9.14800 25.09600
C  42.28900 9.96000 25.37600
C  42.10500 10.28600 26.84000
C  41.14100 7.73100 24.58800
C  42.37100 11.27500 24.60900
C  41.30200 12.41700 24.69200
N  42.18900 11.07900 29.69900
C  43.12400 11.48800 28.86000
C  44.20300 12.23700 29.54100
C  43.81600 12.15800 30.90300
C  42.61600 11.50500 30.93200
C  45.45400 12.86000 29.04600
C  44.22000 12.47400 32.21500
O  45.24200 13.02700 32.60900
C  43.14200 11.98800 33.18400
C  43.81000 11.00300 34.15800
O  44.03700 9.82500 33.94600
O  44.21600 11.65400 35.27000
C  44.77400 10.73000 36.29600
H  37.32500 8.33400 32.19600
H  38.43600 8.37600 25.74000
H  43.84000 11.43600 26.86100
H  41.22600 9.85300 34.33700
H  38.11400 9.82500 34.00000
H  39.66200 8.14800 35.29600
H  39.70700 7.27600 33.67700
H  38.17200 7.58600 34.53700
H  38.96400 11.92500 34.38300
H  40.67500 12.50500 34.54300
H  40.19700 10.34900 36.34100
H  38.85300 11.37500 36.41900
H  35.62300 7.17900 31.40800
H  35.48100 6.11500 29.91100
H  34.59200 7.65400 30.26600
H  33.93900 7.84900 27.99200
H  34.57500 6.23700 27.76200
H  33.83200 7.10900 26.39500
H  40.45500 9.72800 24.37100
H  43.12500 9.26200 25.34800
H  40.86200 6.98800 25.33600
H  42.17200 7.42200 24.41700
H  40.43200 7.51200 23.78900
H  42.35900 10.97400 23.56200
H  43.37800 11.67400 24.72700
H  40.85500 12.44200 23.69900
H  41.69700 13.43000 24.77500
H  40.50000 12.22500 25.40500
H  45.47900 12.72500 27.96500
H  46.36800 12.33400 29.32200
H  45.53800 13.91100 29.32300
H  42.60600 12.83300 33.61500
H  44.12900 9.90800 36.60700
H  44.86500 11.33700 37.19700
H  45.72200 10.34300 35.92300
Mg 49.30900 35.61600 27.13900
C  47.14000 34.01300 29.43300
C  49.46400 38.25000 29.43000
C  50.60700 37.59600 24.69600
C  48.87000 33.01600 24.82000
N  48.56100 35.90000 29.24200
C  47.79200 35.11300 30.01200
C  47.70900 35.59400 31.45000
C  48.17800 37.10700 31.33100
C  48.80100 37.06900 29.92400
C  47.06400 38.20300 31.67200
C  48.64000 34.74100 32.36100
C  48.35700 34.76900 33.90800
H  47.35400 35.68500 34.43800
N  50.01200 37.55400 27.09600
C  49.95300 38.49500 28.11800
C  50.57500 39.81400 27.66300
C  50.93900 39.61200 26.28900
C  50.53100 38.19700 25.98800
C  50.61900 40.99200 28.52800
C  51.62300 40.55800 25.29100
O  52.14500 40.15200 24.22300
C  51.90200 42.04500 25.61300
N  49.67700 35.25000 24.98500
C  50.28900 36.28300 24.26300
C  50.74100 35.67300 22.90100
C  50.35800 34.13300 23.04700
C  49.63800 34.08600 24.33500
C  50.18200 36.51000 21.67700
C  51.62700 33.16000 23.08000
C  51.31900 31.76000 22.59800
N  48.18300 33.91400 27.07500
C  48.09200 32.95200 26.03900
C  47.19800 31.90600 26.55400
C  46.78800 32.27700 27.78900
C  47.45000 33.47500 28.14600
C  46.87500 30.59100 25.88000
C  45.90000 31.89400 28.81200
O  45.17700 30.93900 29.03600
C  46.01900 33.12700 29.89800
C  46.16500 32.60000 31.30700
O  46.92500 31.69800 31.60000
O  45.25800 33.16300 32.16900
C  45.19800 32.58600 33.55600
H  49.28100 39.10200 30.08700
H  51.12600 38.26100 24.00200
H  48.83900 32.12600 24.18800
H  46.67200 35.46000 31.75800
H  49.00100 37.27300 32.02600
H  46.93800 38.89300 30.83800
H  47.45000 38.71500 32.55300
H  46.08100 37.78000 31.87900
H  49.64200 35.14100 32.21000
H  48.67300 33.69500 32.05500
H  49.32400 34.87500 34.39900
H  48.01200 33.75700 34.11700
H  50.16100 40.94100 29.51600
H  50.03500 41.67700 27.91300
H  51.68100 41.23100 28.57200
H  52.40300 42.47900 24.74800
H  52.45300 42.16800 26.54600
H  50.89600 42.46200 25.60000
H  51.82800 35.62600 22.85000
H  49.65700 33.84300 22.26400
H  49.36500 35.88800 21.31200
H  50.96300 36.65800 20.93200
H  49.82400 37.48800 22.00000
H  51.98200 33.02700 24.10200
H  52.52600 33.58400 22.63300
H  52.12700 31.68000 21.87100
H  50.30800 31.75000 22.19000
H  51.57600 30.95100 23.28200
H  46.02600 30.74600 25.21300
H  46.86500 29.78100 26.60900
H  47.63500 30.32000 25.14600
H  45.06300 33.64900 29.85700
H  44.18500 32.91600 33.78400
H  45.94900 33.15100 34.10900
H  45.42700 31.52500 33.45600

