158

Mg 16.18000 -1.99100 28.16200
C  15.14100 0.22900 30.70400
C  18.06400 -3.50700 30.52000
C  17.41100 -3.76600 25.63200
C  14.46700 0.16800 25.76900
N  16.50200 -1.69600 30.42900
C  15.90600 -0.78000 31.26800
C  16.26700 -1.05500 32.76800
C  17.35800 -2.10100 32.62400
C  17.37800 -2.44300 31.10300
C  18.82300 -1.74200 33.16800
C  15.07700 -1.45900 33.65700
C  14.78400 -1.00600 35.06800
H  16.00000 -0.47400 35.76000
N  17.46900 -3.60100 28.09600
C  18.11100 -4.07200 29.20600
C  18.91400 -5.18900 28.80500
C  18.65500 -5.42700 27.43700
C  17.76900 -4.26600 26.96900
C  19.67200 -6.11300 29.71900
C  19.13600 -6.47200 26.47100
O  18.77600 -6.50700 25.28600
C  20.15100 -7.46500 26.85200
N  15.98800 -1.76900 26.05900
C  16.61000 -2.66200 25.25700
C  16.31700 -2.34800 23.80800
C  15.05900 -1.40700 23.93200
C  15.23700 -0.91800 25.33700
C  17.60100 -1.76500 23.13000
C  13.61600 -1.89100 23.56500
C  12.85100 -1.00600 22.56100
N  15.02700 -0.21000 28.19700
C  14.36400 0.48300 27.16800
C  13.57900 1.55300 27.79800
C  13.93900 1.54600 29.15300
C  14.75600 0.42500 29.35000
C  12.64100 2.45800 26.94100
C  13.73300 2.22000 30.44000
O  13.12800 3.26000 30.71200
C  14.51300 1.35800 31.45800
C  15.56300 2.16400 32.12100
O  16.73700 2.21000 31.85800
O  14.97600 2.95100 33.08500
C  15.78100 3.89200 33.89800
H  18.49700 -4.14300 31.29500
H  17.77100 -4.41300 24.82900
H  13.81400 0.74200 25.10900
H  16.61800 -0.11700 33.20100
H  17.02600 -3.01200 33.12200
H  18.69000 -0.82400 33.74100
H  19.62000 -1.68900 32.42700
H  19.07100 -2.49800 33.91400
H  15.04400 -2.54300 33.54000
H  14.23700 -1.15700 33.03100
H  14.26100 -1.69000 35.73700
H  14.13700 -0.12900 35.08700
H  20.70900 -6.20200 29.39300
H  19.20400 -7.07000 29.94700
H  19.87200 -5.63200 30.67700
H  21.00500 -6.84500 27.12300
H  20.38400 -8.19900 26.08000
H  19.72500 -7.94500 27.73300
H  16.10800 -3.28900 23.29800
H  15.27200 -0.57300 23.26300
H  18.22600 -1.25400 23.86300
H  17.23900 -1.05700 22.38400
H  18.21700 -2.47500 22.57900
H  13.04100 -1.91700 24.49100
H  13.64100 -2.94500 23.28600
H  12.00400 -0.49600 23.02000
H  12.51400 -1.65900 21.75600
H  13.42800 -0.16200 22.18100
H  11.86600 1.75400 26.63500
H  13.11500 3.00300 26.12500
H  12.31300 3.26500 27.59500
H  13.93000 0.86000 32.23300
H  16.09000 4.74500 33.29400
H  16.55500 3.33500 34.42700
H  15.15400 4.36100 34.65700
Mg 45.27200 4.78900 46.93300
C  43.64700 7.75400 46.29200
C  42.29500 3.10900 46.44700
C  46.91700 1.77900 47.53100
C  48.29900 6.46500 47.11200
N  43.26500 5.28300 46.24700
C  42.80600 6.60600 46.13900
C  41.39600 6.62300 45.59200
C  40.89600 5.25500 45.99700
C  42.21800 4.50800 46.29600
C  39.78300 5.25200 47.08100
C  41.39400 6.80100 44.00400
C  40.61500 8.13100 43.52800
H  40.89300 8.72600 42.10200
N  44.69800 2.72300 46.93000
C  43.42100 2.27200 46.78900
C  43.38300 0.87400 46.79700
C  44.70500 0.45500 47.07300
C  45.54000 1.62100 47.21700
C  42.24100 0.01100 46.44700
C  45.12100 -1.05100 47.09800
O  44.40000 -1.99900 46.79100
C  46.48600 -1.50700 47.52200
N  47.30600 4.18200 47.08300
C  47.72400 2.93100 47.38500
C  49.19900 2.88700 47.83200
C  49.73900 4.32800 47.55200
C  48.33300 5.04400 47.29900
C  49.57800 2.45000 49.29500
C  50.79000 4.55500 46.40100
C  51.94100 5.53800 46.78000
N  45.90100 6.77000 46.68700
C  47.22300 7.28200 46.81000
C  47.01200 8.72100 46.71600
C  45.62400 8.98000 46.54200
C  45.03100 7.75400 46.46900
C  48.00500 9.75200 47.02500
C  44.62200 9.98800 46.52500
O  44.60500 11.16900 46.71000
C  43.24900 9.20100 46.22000
C  42.15400 9.68900 47.16500
O  41.71200 9.02400 48.13400
O  41.70700 10.89200 46.72100
C  40.53500 11.49500 47.38400
H  41.28700 2.70400 46.33500
H  47.46900 0.90700 47.88600
H  49.16000 7.07300 47.39700
H  40.90000 7.48200 46.04400
H  40.50700 4.64400 45.18200
H  39.57100 6.29100 47.33300
H  40.23900 4.75800 47.93900
H  39.04000 4.56000 46.68300
H  40.82100 5.99600 43.54400
H  42.41900 6.89800 43.64700
H  40.77000 9.00600 44.16000
H  39.54200 7.94000 43.55700
H  41.27600 0.37700 46.79500
H  42.22800 -0.97600 46.91100
H  42.17800 -0.12800 45.36700
H  46.66000 -1.00200 48.47200
H  47.15400 -1.05200 46.79000
H  46.56300 -2.58600 47.66200
H  49.70400 2.19500 47.15900
H  50.04300 4.74700 48.51100
H  49.67100 1.36400 49.29200
H  48.83800 2.48600 50.09500
H  50.56800 2.80300 49.58400
H  50.31900 5.10900 45.58900
H  51.07300 3.60000 45.95900
H  51.57000 6.54700 46.60100
H  52.68000 5.17900 46.06400
H  52.19500 5.54400 47.84000
H  48.88900 9.43200 47.57600
H  47.50000 10.59200 47.50200
H  48.28100 10.20900 46.07400
H  43.01200 9.57000 45.22200
H  39.80400 10.71600 47.59800
H  40.06200 12.26900 46.77900
H  40.85800 12.02800 48.27800

