158

Mg 47.47300 16.23800 29.23700
C  44.93200 15.94400 31.69000
C  49.16900 18.27700 31.31700
C  49.56700 17.07100 26.54300
C  45.15600 15.02100 26.89500
N  47.05300 16.95300 31.27900
C  45.98300 16.71400 32.13100
C  46.32200 17.24800 33.57700
C  47.52100 18.25800 33.30100
C  47.91000 17.85800 31.84400
C  47.14500 19.81100 33.50200
C  46.49000 16.12900 34.59200
C  45.41800 16.04100 35.76200
H  45.11900 17.20600 36.64300
N  49.23900 17.26200 29.11000
C  49.80300 18.01000 30.06400
C  51.07900 18.51000 29.59600
C  51.21800 18.16600 28.23300
C  50.02100 17.42800 27.89600
C  52.14900 19.15400 30.53100
C  52.32100 18.50700 27.27100
O  52.25400 18.09100 26.09000
C  53.41600 19.53500 27.71800
N  47.33200 16.17400 27.03800
C  48.30000 16.57200 26.19000
C  47.90300 16.26300 24.70800
C  46.61500 15.38600 24.83300
C  46.33200 15.54200 26.38100
C  47.70100 17.55600 23.85500
C  46.70800 13.97600 24.11000
C  46.95000 12.68700 24.99600
N  45.56100 15.38100 29.29100
C  44.74400 14.97800 28.25700
C  43.50900 14.44100 28.78300
C  43.53400 14.83200 30.17000
C  44.77100 15.42100 30.38100
C  42.43800 13.72500 27.98900
C  42.78500 14.88000 31.36400
O  41.62300 14.56800 31.53400
C  43.68700 15.58000 32.44500
C  42.89900 16.74500 32.87000
O  42.45600 17.64900 32.11500
O  42.53200 16.63600 34.16300
C  41.64400 17.71100 34.73000
H  49.65900 18.84800 32.10700
H  50.15000 17.32800 25.65600
H  44.50100 14.58800 26.13700
H  45.41000 17.81700 33.75900
H  48.37400 17.95700 33.90800
H  46.10100 20.01000 33.74500
H  47.34400 20.29200 32.54400
H  47.79700 20.28000 34.23900
H  47.41800 16.24600 35.15300
H  46.52000 15.20000 34.02200
H  45.93500 15.32600 36.40200
H  44.53800 15.48800 35.43300
H  52.24900 20.20600 30.26300
H  53.14800 18.71900 30.49800
H  51.77600 19.12000 31.55400
H  53.03400 20.49900 28.05400
H  53.95900 19.79000 26.80800
H  54.08800 19.04100 28.42000
H  48.77100 15.85100 24.19200
H  45.83800 15.92500 24.29100
H  48.25100 17.66200 22.92000
H  48.04700 18.36700 24.49700
H  46.67700 17.74500 23.53200
H  47.48700 13.99900 23.34800
H  45.76100 13.83000 23.59100
H  47.69100 12.12800 24.42500
H  46.04500 12.10800 25.18000
H  47.30500 12.96300 25.98900
H  42.65900 12.65700 27.97200
H  42.46600 14.13300 26.97900
H  41.42900 13.86600 28.37700
H  43.83500 14.81400 33.20700
H  41.05800 18.22500 33.96800
H  42.35200 18.45200 35.10000
H  40.96300 17.26200 35.45200
Mg 42.75600 41.82600 26.12100
C  42.13900 44.11000 28.73600
C  44.28000 39.80100 28.44600
C  43.79300 39.97000 23.56600
C  41.70300 44.38500 23.88400
N  43.18200 42.03300 28.29800
C  42.78200 42.98600 29.16400
C  42.96900 42.52000 30.61200
C  43.88300 41.24500 30.52500
C  43.84000 41.00900 28.97000
C  45.39900 41.45700 31.04300
C  41.63300 42.35400 31.43000
C  41.50200 43.26300 32.71200
H  42.41000 42.77400 33.83200
N  43.77900 40.11800 26.00400
C  44.31000 39.40500 27.05900
C  44.95400 38.22100 26.55100
C  44.89600 38.30500 25.13000
C  44.07000 39.46500 24.81500
C  45.64500 37.19300 27.32600
C  45.51500 37.38100 24.15900
O  45.29200 37.43500 22.97000
C  46.49100 36.26400 24.51400
N  42.80100 42.18900 24.08200
C  43.08000 41.17200 23.24700
C  42.93800 41.59600 21.72900
C  42.23100 42.99100 21.91000
C  42.31500 43.24500 23.36400
C  44.26800 41.72900 20.93700
C  40.83000 43.04400 21.38500
C  39.81800 41.92900 21.87300
N  41.98800 43.86400 26.19800
C  41.52000 44.66600 25.22400
C  40.88100 45.89000 25.82700
C  41.15500 45.68400 27.22800
C  41.81300 44.44100 27.37400
C  40.54900 47.19300 25.20400
C  41.06800 46.27200 28.49600
O  40.63900 47.42600 28.82800
C  41.65300 45.31100 29.57100
C  42.81700 45.99500 30.15000
O  43.91300 46.18600 29.68000
O  42.46300 46.33100 31.40800
C  43.57300 46.74400 32.29400
H  44.72800 39.13300 29.18500
H  43.98100 39.28700 22.73500
H  41.42800 45.19200 23.20200
H  43.44500 43.38800 31.06900
H  43.48900 40.43500 31.13900
H  45.58600 42.47100 31.39700
H  46.14100 41.29600 30.26100
H  45.55700 40.87000 31.94700
H  41.68700 41.28200 31.62200
H  40.78600 42.66100 30.81700
H  40.48000 43.15700 33.07700
H  41.76100 44.30600 32.53100
H  46.71400 37.39600 27.26500
H  45.27200 36.21500 27.02100
H  45.30600 37.24400 28.36000
H  45.86900 35.44200 24.86900
H  47.20800 36.61200 25.25700
H  47.00600 36.01500 23.58500
H  42.24500 40.87300 21.29900
H  42.77300 43.73100 21.32200
H  45.09500 41.46900 21.59800
H  44.33100 42.67100 20.39200
H  44.31600 40.89600 20.23700
H  41.04100 42.96300 20.31900
H  40.39200 44.03500 21.49800
H  40.34200 41.45800 22.70500
H  39.48400 41.30000 21.04800
H  38.90700 42.34500 22.30400
H  40.39000 47.09100 24.13100
H  41.29600 47.95400 25.43300
H  39.63200 47.55000 25.67200
H  40.88900 45.05200 30.30300
H  43.95700 47.63600 31.79900
H  44.32100 45.95200 32.33900
H  43.07700 46.90300 33.25100

