158

Mg 56.08900 24.03900 43.93100
C  53.57300 26.19400 42.67700
C  54.46300 21.36800 42.78400
C  59.01600 22.17800 44.33200
C  57.89900 26.87200 44.82300
N  54.28700 23.84700 42.75500
C  53.37400 24.84900 42.28800
C  52.38100 24.18300 41.35000
C  52.36000 22.74500 41.96100
C  53.79000 22.60800 42.60200
C  51.30200 22.44800 43.06100
C  52.77500 24.18400 39.82300
C  51.81600 25.03900 38.88000
H  51.42400 24.47100 37.55800
N  56.63700 22.00500 43.66800
C  55.77900 21.09400 43.27800
C  56.42900 19.77200 43.35100
C  57.76700 19.97600 43.70200
C  57.86100 21.46200 43.90600
C  55.65300 18.56000 42.89200
C  58.80900 18.83900 43.85100
O  58.55600 17.67200 43.53400
C  60.22600 19.17300 44.40800
N  58.11700 24.43200 44.67600
C  59.10900 23.47100 44.73800
C  60.45300 24.11200 45.07300
C  60.08700 25.64300 45.22400
C  58.57800 25.66500 44.95500
C  61.08000 23.44100 46.31100
C  60.84500 26.53200 44.22600
C  62.25900 26.83100 44.74900
N  55.77600 26.10000 43.95800
C  56.56500 27.12800 44.48200
C  55.81700 28.36000 44.35500
C  54.67500 27.98300 43.69800
C  54.65000 26.62800 43.51600
C  56.19500 29.71900 44.72800
C  53.50000 28.61600 43.07600
O  53.18000 29.77300 43.01400
C  52.83100 27.47800 42.28800
C  52.77900 27.80700 40.96200
O  53.74600 27.74700 40.21400
O  51.51500 28.19200 40.59500
C  51.48700 28.69600 39.19200
H  53.82500 20.52700 42.50400
H  59.90500 21.57200 44.51900
H  58.51500 27.72300 45.12100
H  51.48500 24.79900 41.42900
H  52.36700 21.91800 41.25100
H  51.51100 22.99700 43.97900
H  51.34700 21.38100 43.28200
H  50.29800 22.68800 42.71300
H  52.67200 23.16600 39.44700
H  53.81200 24.45500 39.62500
H  52.38500 25.96000 38.74900
H  50.93700 25.14500 39.51600
H  55.69000 18.60500 41.80400
H  54.61000 18.71000 43.17100
H  55.89600 17.66500 43.46600
H  60.79300 19.79000 43.71000
H  60.73600 18.24100 44.65100
H  60.06400 19.79000 45.29200
H  61.15700 23.91600 44.26500
H  60.20200 26.01800 46.24100
H  60.30500 22.91500 46.87000
H  61.43800 24.21500 46.98900
H  61.94700 22.84000 46.03600
H  60.40700 27.52900 44.18300
H  61.00400 26.04700 43.26200
H  62.54900 27.87500 44.85800
H  63.02100 26.43300 44.07900
H  62.36300 26.20600 45.63700
H  55.39100 30.36000 44.36600
H  57.14200 30.02900 44.28600
H  56.36200 29.74400 45.80500
H  51.85400 27.43700 42.77100
H  50.62700 28.29100 38.65700
H  52.33500 28.42500 38.56200
H  51.51400 29.78500 39.15600
Mg 16.88900 52.22400 26.74400
C  18.63500 50.81200 29.45900
C  14.37800 53.06200 28.87300
C  15.22000 53.26200 24.11800
C  19.27900 50.73800 24.55100
N  16.43700 51.66800 28.95300
C  17.41600 51.37500 29.92600
C  16.91600 51.60500 31.34800
C  15.41400 52.07600 31.09500
C  15.43600 52.40300 29.58400
C  14.35800 51.01700 31.49600
C  17.99500 52.58100 32.12600
C  18.31000 52.30500 33.59300
H  17.32300 51.61900 34.59800
N  15.00400 53.06300 26.53300
C  14.11300 53.30600 27.54700
C  12.92600 53.84400 27.02600
C  13.14100 53.89300 25.59300
C  14.49500 53.48000 25.37100
C  11.70000 54.25100 27.76700
C  12.32400 54.52600 24.44400
O  12.75500 54.82900 23.32200
C  10.99100 54.97900 24.71100
N  17.02200 51.76200 24.62100
C  16.28400 52.52200 23.74900
C  16.77800 52.40000 22.29800
C  18.25500 51.97700 22.53900
C  18.24800 51.43200 23.96400
C  15.89800 51.33200 21.48400
C  19.19600 53.23700 22.33800
C  20.68000 52.93100 22.16000
N  18.55700 50.93400 26.91200
C  19.45200 50.41800 25.95300
C  20.44600 49.66700 26.61900
C  20.14800 49.88700 27.96500
C  19.02500 50.62800 28.09600
C  21.54300 48.87700 26.03500
C  20.55100 49.50700 29.29800
O  21.44900 48.79800 29.69800
C  19.59800 50.13200 30.30000
C  19.05800 49.03200 31.22500
O  18.18900 48.24800 30.89500
O  19.74800 48.96700 32.38700
C  19.43900 47.90500 33.36400
H  13.59700 53.36800 29.57300
H  14.81300 53.73300 23.22100
H  20.11700 50.45700 23.91000
H  16.98900 50.64100 31.85100
H  15.29600 52.99700 31.66500
H  13.56400 50.85000 30.76700
H  13.79900 51.41800 32.34200
H  14.84400 50.07600 31.75300
H  17.49100 53.54200 32.01700
H  18.97300 52.63900 31.64900
H  18.51500 53.30600 33.97300
H  19.27100 51.81900 33.75600
H  11.69100 54.14500 28.85200
H  10.98400 53.63700 27.22000
H  11.46100 55.29400 27.55700
H  11.06600 55.70600 25.52000
H  10.51000 54.03800 24.97900
H  10.39100 55.32300 23.86800
H  16.64600 53.36000 21.79800
H  18.63800 51.25800 21.81500
H  16.48200 50.41500 21.40300
H  15.70200 51.62200 20.45200
H  14.90200 51.11000 21.86900
H  19.08700 53.84300 23.23800
H  18.83300 53.86000 21.52100
H  20.66700 51.84500 22.24800
H  21.40300 53.30700 22.88400
H  20.94800 53.20700 21.14000
H  22.33600 49.56900 25.75000
H  21.14900 48.43000 25.12200
H  21.87300 48.09200 26.71500
H  20.18900 50.86200 30.85400
H  20.30600 47.59600 33.94800
H  18.97400 47.05000 32.87400
H  18.70100 48.39100 34.00300

