158

Mg 48.65900 13.60600 27.44600
C  46.49500 14.37000 30.30600
C  51.03500 15.55700 28.97700
C  50.42300 13.05200 24.72500
C  45.76100 12.17400 26.02300
N  48.72700 14.74600 29.52400
C  47.83800 14.81900 30.54100
C  48.46400 15.57800 31.71000
C  49.86600 16.00600 31.19600
C  49.87400 15.40900 29.79000
C  50.00300 17.53400 31.12400
C  48.51700 14.53600 32.97500
C  48.03400 15.11300 34.27300
H  49.07100 14.90100 35.43700
N  50.46200 14.13800 26.97900
C  51.28100 14.98000 27.71800
C  52.44100 15.25200 26.92800
C  52.31900 14.60700 25.63500
C  51.05200 13.84100 25.69900
C  53.58300 16.18000 27.46000
C  53.32200 14.67000 24.47100
O  53.01800 14.13200 23.42400
C  54.71500 15.24800 24.51700
N  48.20300 12.67800 25.71200
C  49.08700 12.56700 24.71400
C  48.50000 11.77600 23.47900
C  47.12200 11.30200 24.07300
C  47.00400 12.09800 25.35800
C  48.28800 12.65600 22.20600
C  47.05400 9.77300 24.24000
C  47.98500 9.15600 25.29800
N  46.53900 13.40900 27.98300
C  45.54900 12.76200 27.27400
C  44.36800 12.73100 28.04900
C  44.72600 13.33700 29.27800
C  46.04200 13.68000 29.13100
C  43.17600 12.01100 27.68300
C  44.20500 13.64600 30.57900
O  43.11900 13.45100 31.10500
C  45.33100 14.40600 31.32700
C  44.90000 15.75700 31.77500
O  44.74600 16.67200 31.04900
O  44.81400 15.81000 33.14400
C  44.45500 17.08400 33.72800
H  51.74800 16.17000 29.53300
H  50.90800 12.89100 23.76000
H  44.93900 11.71900 25.46600
H  47.80500 16.39700 31.99600
H  50.63100 15.56400 31.83500
H  50.77200 17.83400 31.83500
H  49.15400 18.15800 31.40400
H  50.41300 17.82300 30.15600
H  49.55600 14.21000 33.02300
H  47.94200 13.64600 32.71900
H  47.16900 14.47200 34.44200
H  47.62200 16.12300 34.26000
H  53.25900 16.86400 28.24400
H  54.05600 16.77100 26.67600
H  54.32700 15.54300 27.93800
H  55.47300 14.82300 25.17500
H  54.52300 16.28000 24.81000
H  55.19800 15.21900 23.54000
H  49.03900 10.86800 23.20900
H  46.30100 11.50600 23.38500
H  49.18400 12.63400 21.58600
H  48.04900 13.67300 22.51700
H  47.43200 12.27600 21.64700
H  47.36000 9.34800 23.28400
H  46.02000 9.54000 24.49400
H  48.35900 9.83200 26.06800
H  48.84800 8.71600 24.79800
H  47.56000 8.35700 25.90500
H  43.35100 10.93700 27.74600
H  42.79600 12.35800 26.72200
H  42.48700 12.20700 28.50400
H  45.56100 13.76700 32.18000
H  43.38900 17.10700 33.95200
H  44.63300 18.02100 33.20000
H  44.96400 17.20300 34.68500
Mg 15.90900 51.63400 25.89600
C  17.85700 50.67500 28.59200
C  13.35300 52.48100 27.91100
C  13.92700 52.27200 23.09900
C  18.42300 50.48200 23.71200
N  15.58000 51.51700 28.09200
C  16.58200 51.21600 29.02500
C  16.07600 51.50600 30.42200
C  14.59500 51.94800 30.20600
C  14.48800 52.07300 28.65600
C  13.56300 50.86300 30.81200
C  17.04400 52.55700 31.08500
C  17.18000 52.49800 32.60500
H  16.32800 51.44900 33.35700
N  13.93800 52.51700 25.58700
C  12.99700 52.64400 26.58500
C  11.78000 53.02100 25.95700
C  11.98600 53.13800 24.59000
C  13.39100 52.71800 24.33000
C  10.58900 53.30600 26.80200
C  10.92700 53.57700 23.52600
O  11.16200 53.71900 22.31000
C  9.58800 54.12400 23.87800
N  16.15900 51.57000 23.71400
C  15.16700 51.82800 22.80200
C  15.55900 51.48100 21.35600
C  17.08200 51.14400 21.56900
C  17.30300 51.05900 23.10200
C  14.62800 50.41800 20.78800
C  18.10900 52.03100 20.83900
C  18.34100 53.44300 21.35000
N  17.69500 50.69000 26.10500
C  18.66300 50.35700 25.11500
C  19.74000 49.80500 25.77000
C  19.52900 49.85100 27.13400
C  18.24500 50.45400 27.29200
C  20.99600 49.30200 25.10500
C  19.97300 49.52800 28.40500
O  20.97000 48.89900 28.75100
C  18.92900 50.05100 29.48200
C  18.48700 48.94100 30.40700
O  17.76800 48.00900 30.03100
O  19.03500 49.12600 31.64900
C  18.66600 48.03100 32.59500
H  12.47200 52.63900 28.53700
H  13.24900 52.25200 22.24300
H  19.13500 50.12300 22.96600
H  16.14600 50.56700 30.97100
H  14.40400 52.87200 30.75200
H  12.74300 50.72300 30.10800
H  13.04500 51.36600 31.62900
H  14.02500 49.96300 31.21800
H  16.65000 53.51300 30.74100
H  18.02400 52.51700 30.60700
H  16.99600 53.50200 32.98600
H  18.20600 52.19100 32.81000
H  10.67200 52.75700 27.74000
H  9.62000 53.02700 26.38800
H  10.56300 54.36800 27.04800
H  9.73000 55.01300 24.49100
H  8.94900 53.43500 24.43100
H  9.18900 54.46600 22.92300
H  15.40200 52.40400 20.79600
H  17.21700 50.11600 21.23200
H  15.25600 49.67900 20.28900
H  14.01000 50.88300 20.02000
H  13.87900 49.97900 21.44700
H  17.72300 52.11300 19.82200
H  19.02800 51.46500 20.68300
H  18.25400 54.22700 20.59800
H  19.32000 53.58800 21.80700
H  17.66400 53.76400 22.14200
H  21.31200 49.90400 24.25300
H  20.92000 48.26100 24.79200
H  21.79000 49.40900 25.84500
H  19.39200 50.85600 30.05200
H  18.02600 47.19400 32.31700
H  18.25600 48.44800 33.51600
H  19.53700 47.57500 33.06500

