158

Mg 29.97100 57.81300 39.66700
C  27.53800 55.75600 38.17800
C  32.23000 55.28400 38.90300
C  32.59000 60.04500 40.06000
C  27.80900 60.37600 39.91300
N  29.87900 55.76800 38.52500
C  28.74700 55.13800 38.13100
C  28.99400 53.64200 37.81500
C  30.54600 53.54300 38.00300
C  30.90500 54.92000 38.60000
C  31.08300 52.36700 38.88200
C  28.78700 53.26100 36.33600
C  29.19300 54.40100 35.27200
H  28.08300 54.94900 34.38400
N  32.15400 57.62600 39.61100
C  32.81300 56.51800 39.33400
C  34.24500 56.84300 39.27800
C  34.41200 58.17200 39.69300
C  33.03600 58.70400 39.88400
C  35.39100 55.88600 39.05500
C  35.74900 58.92200 39.77800
O  36.77300 58.35800 39.60100
C  35.82600 60.35600 40.06700
N  30.20600 59.88400 39.93300
C  31.35600 60.60400 40.12500
C  31.14000 62.07400 40.45700
C  29.58400 62.11000 40.58400
C  29.12700 60.74300 40.08200
C  31.93200 62.60700 41.68300
C  28.95700 63.35800 39.93400
C  28.10300 64.26100 40.85300
N  28.01200 58.05800 39.36600
C  27.21900 59.10900 39.66400
C  25.86800 58.73900 39.42300
C  25.95900 57.43200 38.92200
C  27.28400 57.03700 38.82800
C  24.69800 59.61100 39.48400
C  25.15200 56.40400 38.24600
O  23.94400 56.28300 38.10800
C  26.15400 55.26400 37.80500
C  25.70400 54.09300 38.65700
O  25.84800 53.96200 39.83900
O  25.04300 53.21000 37.85200
C  24.25400 52.11100 38.49200
H  33.02200 54.56000 38.69700
H  33.37200 60.80100 40.15200
H  27.04400 61.12000 40.14600
H  28.37700 52.98300 38.42600
H  31.09500 53.49500 37.06300
H  32.06700 52.58100 39.29800
H  31.09700 51.48400 38.24300
H  30.33100 52.33300 39.67100
H  27.72100 53.04000 36.28800
H  29.31200 52.42200 35.88100
H  29.99400 54.09400 34.59900
H  29.48600 55.29000 35.82900
H  35.99300 56.22500 38.21200
H  34.99400 54.88500 38.88700
H  36.04400 55.83300 39.92600
H  35.33200 60.77600 39.19100
H  36.87100 60.66600 40.03900
H  35.52900 60.66800 41.06900
H  31.40400 62.63400 39.56100
H  29.33400 62.14300 41.64500
H  31.16300 62.99200 42.35200
H  32.63500 63.39000 41.39600
H  32.48400 61.80000 42.16500
H  28.28000 62.98800 39.16500
H  29.61700 64.13000 39.53900
H  28.22900 65.29000 40.51400
H  28.44000 64.12700 41.88100
H  27.05100 63.98800 40.77300
H  24.65700 60.40600 38.74000
H  24.65200 60.00900 40.49800
H  23.87100 58.93900 39.25500
H  25.92100 55.14100 36.74800
H  24.55700 51.84400 39.50400
H  24.29600 51.18800 37.91300
H  23.19700 52.37600 38.50500
Mg 35.80300 50.04800 25.14600
C  36.12100 47.98000 27.96400
C  34.19800 52.47800 27.07900
C  35.30200 51.81700 22.34300
C  37.08200 47.41500 23.14400
N  35.27900 50.22700 27.32200
C  35.59200 49.24100 28.25300
C  35.21500 49.83800 29.59000
C  34.35800 51.20800 29.31100
C  34.53200 51.29600 27.78100
C  32.92600 51.15000 29.87600
C  36.64400 50.22500 30.23200
C  36.76200 50.25300 31.83900
H  35.41900 50.13400 32.69000
N  34.85300 51.89700 24.77200
C  34.44000 52.82000 25.69700
C  34.11700 54.03100 25.00100
C  34.49700 53.91200 23.69500
C  34.87500 52.45200 23.54500
C  33.41300 55.17000 25.70800
C  34.50400 54.93000 22.59900
O  34.70100 54.65200 21.39800
C  34.07800 56.34800 22.78300
N  35.91100 49.61000 22.93300
C  35.85400 50.56900 22.07300
C  36.05600 50.11200 20.64300
C  36.78400 48.74400 20.88900
C  36.58700 48.54900 22.40700
C  34.74900 49.97600 19.75300
C  38.34700 48.74900 20.40600
C  39.44900 49.12100 21.49300
N  36.49900 48.08700 25.40700
C  37.04300 47.15200 24.55000
C  37.64100 46.06600 25.34100
C  37.21400 46.31900 26.68200
C  36.51100 47.53600 26.65000
C  38.44300 44.93800 24.78900
C  37.23700 45.77400 28.02900
O  37.61500 44.67700 28.35600
C  36.49800 46.88900 28.95700
C  35.32900 46.41000 29.76100
O  34.15200 46.64300 29.45000
O  35.75300 45.74800 30.85200
C  34.95400 45.76300 32.11900
H  33.69400 53.19500 27.73000
H  35.29500 52.45400 21.45600
H  37.58400 46.65900 22.53600
H  34.65000 49.11000 30.17300
H  34.75000 52.05900 29.86700
H  32.78200 50.13900 30.25700
H  32.27800 51.28000 29.01000
H  32.68700 51.85900 30.66900
H  36.89500 51.17400 29.75800
H  37.45200 49.58000 29.88800
H  37.18200 51.23600 32.05200
H  37.42800 49.49600 32.25300
H  32.41900 55.36700 25.30600
H  33.97100 56.05200 25.39300
H  33.42600 55.08300 26.79400
H  34.12300 56.93500 21.86600
H  34.88100 56.75300 23.39900
H  33.08200 56.45100 23.21200
H  36.73100 50.77600 20.10200
H  36.12700 48.04900 20.36700
H  34.81500 49.29300 18.90600
H  34.55500 50.99200 19.41100
H  33.88700 49.83800 20.40600
H  38.41500 49.59000 19.71600
H  38.46100 47.75800 19.96600
H  40.01100 48.19400 21.60200
H  39.00400 49.53500 22.39800
H  40.02300 49.91100 21.00800
H  37.78700 44.07400 24.68100
H  39.29600 44.73000 25.43500
H  38.83000 45.28700 23.83100
H  37.35800 47.14300 29.57800
H  33.92700 46.11800 32.03800
H  35.48700 46.40200 32.82300
H  35.07900 44.80100 32.61600

