158

Mg 24.37400 -5.60100 46.14700
C  26.56800 -3.27900 44.68600
C  21.96000 -4.48000 44.23800
C  22.89600 -8.42000 47.03400
C  27.35400 -6.84200 47.88900
N  24.38700 -4.25500 44.27800
C  25.37600 -3.32900 43.95700
C  24.76900 -2.28700 42.97600
C  23.27800 -2.50500 43.05000
C  23.18600 -3.83100 43.91800
C  22.37000 -1.42100 43.55600
C  25.39600 -2.42100 41.54800
C  25.38700 -1.13400 40.62900
H  24.39800 -1.14600 39.48000
N  22.68200 -6.26100 45.82700
C  21.76300 -5.68400 45.01500
C  20.57600 -6.57800 45.02200
C  20.78200 -7.70800 45.82300
C  22.18700 -7.54800 46.26900
C  19.30700 -6.10800 44.24300
C  19.81000 -8.75200 46.07300
O  18.70600 -8.64400 45.54100
C  20.07800 -9.94900 46.81300
N  25.07000 -7.36700 47.28800
C  24.19100 -8.39300 47.53700
C  24.88300 -9.58300 48.21900
C  26.11600 -8.89300 48.81600
C  26.25400 -7.67700 47.83300
C  23.97200 -10.28800 49.29100
C  27.39200 -9.73000 48.83700
C  28.31500 -9.56900 50.10000
N  26.57900 -5.08100 46.39000
C  27.58900 -5.65200 47.13300
C  28.77500 -4.86900 47.08100
C  28.39600 -3.83200 46.14200
C  27.05500 -4.09200 45.70600
C  30.02100 -5.26000 47.75200
C  28.89100 -2.78700 45.36100
O  30.02600 -2.34400 45.26900
C  27.77300 -2.41900 44.36900
C  27.43200 -0.99800 44.35400
O  26.71100 -0.43900 45.14900
O  27.95400 -0.33300 43.30300
C  27.65100 1.09700 43.21200
H  21.09900 -4.07500 43.70300
H  22.39400 -9.34100 47.33800
H  28.16300 -7.32600 48.44100
H  25.09800 -1.32800 43.37600
H  22.90700 -2.73500 42.05100
H  23.06400 -0.88800 44.20600
H  21.53700 -1.76400 44.17000
H  22.05300 -0.77500 42.73700
H  24.78700 -3.15500 41.02000
H  26.38600 -2.86400 41.65500
H  26.38700 -0.95200 40.23500
H  25.14500 -0.22900 41.18500
H  19.12000 -6.71100 43.35400
H  19.46800 -5.12000 43.81200
H  18.35600 -5.96300 44.75700
H  19.17800 -10.42900 47.19800
H  20.54600 -9.64900 47.75100
H  20.60700 -10.76000 46.31200
H  25.17200 -10.29400 47.44500
H  25.95700 -8.50000 49.82000
H  23.85000 -11.35300 49.09300
H  22.99500 -9.81200 49.37500
H  24.50800 -10.28100 50.24000
H  27.92300 -9.39100 47.94700
H  27.12000 -10.78300 48.76400
H  27.72300 -9.41400 51.00300
H  29.02400 -8.75900 49.93100
H  28.81400 -10.52300 50.27300
H  30.15800 -4.78700 48.72500
H  30.83800 -4.93100 47.10900
H  30.07700 -6.32900 47.95500
H  28.24000 -2.65200 43.41100
H  26.82600 1.20700 42.50700
H  28.50400 1.60800 42.76400
H  27.51900 1.60300 44.16800
Mg 26.85300 50.13100 26.09400
C  24.79900 51.26700 28.94500
C  29.28000 49.28100 28.39500
C  28.64200 49.14100 23.48400
C  24.46500 51.69800 24.08600
N  26.91100 50.08300 28.40600
C  25.94500 50.53600 29.35800
C  26.50900 50.28900 30.76700
C  28.01500 49.99400 30.58600
C  28.11100 49.78400 29.05700
C  29.06900 50.90500 31.32400
C  25.60400 49.19900 31.50800
C  25.00700 49.50900 32.88400
H  25.62800 50.39400 33.98800
N  28.68900 49.27000 25.94900
C  29.55000 49.02600 26.97800
C  30.67000 48.23500 26.43000
C  30.53100 48.21700 25.01100
C  29.26600 48.89500 24.74800
C  31.73900 47.54500 27.21700
C  31.38400 47.46300 23.87800
O  31.08700 47.53400 22.69000
C  32.45000 46.49200 24.20400
N  26.50700 50.43400 24.14500
C  27.45400 49.85100 23.27600
C  26.85500 49.91100 21.86000
C  25.57000 50.80600 21.91400
C  25.46800 51.00500 23.43300
C  27.78700 50.42500 20.71700
C  24.25100 50.30700 21.32800
C  23.73600 48.93000 21.76600
N  25.01300 51.19600 26.42200
C  24.22000 51.78600 25.45700
C  23.04400 52.36100 26.03900
C  23.26100 52.14900 27.44400
C  24.47400 51.41400 27.61800
C  21.97700 52.97500 25.19700
C  22.69900 52.50800 28.69700
O  21.71500 53.24100 28.92100
C  23.66200 51.84700 29.71200
C  24.02800 52.94400 30.63200
O  24.93300 53.77900 30.38500
O  23.32800 52.94400 31.81200
C  23.75100 54.02200 32.76100
H  30.01200 48.95200 29.13500
H  29.15800 48.76800 22.59800
H  23.69800 52.08600 23.41200
H  26.40500 51.29100 31.18500
H  28.21200 49.05300 31.09900
H  28.44500 51.75700 31.59500
H  29.81300 51.22400 30.59300
H  29.45700 50.33800 32.17000
H  26.23900 48.33500 31.70400
H  24.88900 48.95500 30.72300
H  24.94300 48.50400 33.30000
H  23.97700 49.83700 32.74400
H  31.95000 48.09500 28.13400
H  32.68100 47.76000 26.71200
H  31.56400 46.47200 27.30300
H  33.35000 47.06800 24.41800
H  32.55500 45.85000 23.32900
H  32.27300 45.89400 25.09700
H  26.53800 48.89600 21.61900
H  25.83300 51.80000 21.55100
H  28.70200 50.80200 21.17400
H  27.29800 51.22600 20.16300
H  28.10200 49.65500 20.01300
H  24.26300 50.09400 20.25900
H  23.52500 51.11600 21.40900
H  22.65800 49.04500 21.87400
H  24.21700 48.60500 22.68800
H  23.81100 48.18400 20.97400
H  21.34400 52.20400 24.75700
H  22.48300 53.59000 24.45300
H  21.50400 53.68500 25.87500
H  22.96700 51.12500 30.14100
H  24.17200 54.90000 32.27200
H  24.30900 53.59400 33.59500
H  22.78800 54.29300 33.19300

