158

Mg 8.38600 3.10300 27.58700
C  10.19100 1.78300 30.45500
C  6.53200 5.07700 29.90500
C  6.52100 3.96000 25.08700
C  10.14600 0.68300 25.72000
N  8.42600 3.32800 29.93100
C  9.32900 2.82500 30.85300
C  9.27400 3.60300 32.12000
C  8.03900 4.59200 31.95200
C  7.60700 4.34500 30.50700
C  6.90900 4.45500 32.99700
C  10.61700 4.39900 32.36000
C  11.21200 4.12400 33.73100
H  10.85000 5.02600 34.92900
N  6.82200 4.37400 27.47000
C  6.14800 5.01700 28.47200
C  5.03900 5.72000 27.92600
C  5.06500 5.57900 26.53000
C  6.21000 4.66100 26.25700
C  4.02900 6.37200 28.79500
C  4.10100 6.25100 25.53300
O  4.10100 5.92200 24.36000
C  3.22700 7.33700 25.86200
N  8.48900 2.56200 25.69200
C  7.51800 2.95300 24.86700
C  7.83100 2.39000 23.40000
C  9.01300 1.48400 23.54000
C  9.27500 1.56100 25.07300
C  6.51500 1.73100 22.83600
C  10.30200 1.87200 22.80600
C  10.71400 1.09200 21.54000
N  9.84600 1.49800 27.93000
C  10.43000 0.63800 27.03500
C  11.33800 -0.23100 27.70000
C  11.32500 0.23000 29.06900
C  10.32000 1.24800 29.14600
C  12.10800 -1.25900 27.04500
C  11.97400 0.11000 30.31500
O  12.86800 -0.65000 30.67300
C  11.22800 1.06600 31.32000
C  10.52800 0.21800 32.29400
O  9.78100 -0.71600 32.11900
O  10.93000 0.59400 33.49800
C  10.32800 -0.06000 34.69700
H  6.09900 5.79000 30.61000
H  5.97000 4.23700 24.18600
H  10.64500 -0.00700 25.03800
H  9.03500 3.03300 33.01800
H  8.36300 5.63300 31.92300
H  6.00700 4.17200 32.45500
H  6.78100 5.42300 33.48100
H  7.15000 3.67200 33.71500
H  10.46100 5.47400 32.26600
H  11.36600 4.22300 31.58700
H  12.29000 3.97000 33.68200
H  10.80600 3.18600 34.10900
H  4.10400 7.44500 28.61800
H  4.08900 6.05300 29.83600
H  3.01100 6.11900 28.49900
H  3.80100 8.12600 26.34700
H  2.35900 6.89200 26.34800
H  2.99900 7.80000 24.90200
H  7.95800 3.24500 22.73700
H  8.68000 0.46800 23.32500
H  5.80900 1.71200 23.66600
H  6.69300 0.74600 22.40400
H  5.98800 2.34900 22.10900
H  11.10700 1.84100 23.54100
H  10.23500 2.92600 22.53700
H  10.90700 1.83200 20.76300
H  9.95400 0.37600 21.22600
H  11.61100 0.48100 21.63400
H  11.44000 -2.06500 26.73900
H  12.93300 -1.70400 27.60100
H  12.51300 -0.91700 26.09200
H  11.81800 1.88300 31.73400
H  9.30400 -0.41500 34.57400
H  10.22500 0.76800 35.39800
H  11.03000 -0.68100 35.25300
Mg 17.44000 52.61000 26.25700
C  18.96300 51.34300 29.10400
C  14.85100 53.88000 28.18100
C  16.01500 53.54100 23.36500
C  19.92800 50.88900 24.42300
N  16.98700 52.55100 28.38700
C  17.77400 51.96900 29.40900
C  17.18800 52.38700 30.81500
C  15.79700 52.97500 30.40900
C  15.86900 53.18900 28.89600
C  14.60300 52.14500 30.79300
C  18.14500 53.44900 31.46900
C  18.31000 53.37400 32.99700
H  17.09200 53.04800 33.91800
N  15.72600 53.70400 25.81400
C  14.82300 54.14200 26.76600
C  13.91700 54.95900 26.09100
C  14.25300 54.96300 24.63200
C  15.36200 54.07500 24.54100
C  12.89500 55.72500 26.87400
C  13.53800 55.60300 23.49500
O  13.98300 55.51500 22.38200
C  12.41700 56.51500 23.76700
N  17.79400 52.12100 24.14400
C  17.12300 52.76000 23.17800
C  17.71400 52.51200 21.72600
C  19.18800 51.96000 22.21000
C  19.02100 51.63600 23.67500
C  16.91000 51.62400 20.78500
C  20.35400 53.01100 22.01900
C  21.64900 52.49000 21.44100
N  19.12400 51.36400 26.62300
C  19.94100 50.71000 25.77200
C  20.89000 49.91400 26.51600
C  20.52200 50.12900 27.83600
C  19.41800 50.99400 27.84700
C  22.02700 49.02900 26.05200
C  20.84300 49.82800 29.20000
O  21.72000 49.24100 29.84300
C  19.84300 50.66900 30.07400
C  19.21000 49.78600 31.03200
O  18.33500 49.01000 30.71400
O  19.79100 49.87600 32.31000
C  19.04200 49.14600 33.32100
H  13.99000 54.19100 28.77600
H  15.68500 53.91500 22.39400
H  20.68300 50.42900 23.78200
H  17.04800 51.51300 31.45100
H  15.57000 53.91700 30.90900
H  13.99800 52.74200 31.47500
H  14.95100 51.32900 31.42700
H  14.15800 51.77900 29.86800
H  17.73800 54.44100 31.27400
H  19.02500 53.60500 30.84500
H  18.76100 54.29400 33.37100
H  19.18500 52.73100 33.09900
H  12.12600 55.08200 27.30500
H  12.44200 56.53200 26.29900
H  13.36900 56.12500 27.77000
H  11.56900 56.03900 24.26100
H  12.12600 56.92600 22.80000
H  12.82600 57.31300 24.38700
H  17.83000 53.48800 21.25500
H  19.48900 51.08000 21.64100
H  15.98200 51.18000 21.14700
H  17.59300 50.82000 20.51000
H  16.62200 52.20100 19.90600
H  20.46500 53.56900 22.94800
H  19.93600 53.66700 21.25500
H  21.92200 53.17100 20.63500
H  21.42900 51.46900 21.12600
H  22.43500 52.60100 22.18800
H  22.69500 49.11800 26.90900
H  22.39300 49.38500 25.08900
H  21.72300 47.99100 25.91800
H  20.31100 51.41300 30.71900
H  17.96500 49.30200 33.37200
H  19.53300 49.30900 34.28000
H  19.22500 48.08400 33.15800

