158

Mg 23.90200 -4.52400 45.60800
C  26.18200 -2.43400 44.06800
C  21.35500 -3.33800 43.53200
C  22.10300 -7.31200 46.13500
C  26.68100 -6.14100 47.10400
N  23.85700 -3.10800 43.89900
C  24.93600 -2.36200 43.52700
C  24.46100 -1.33900 42.42300
C  22.92400 -1.30300 42.67500
C  22.64900 -2.68800 43.40600
C  22.46700 -0.07300 43.55700
C  24.90700 -1.96500 41.04500
C  25.71300 -1.07400 40.05500
H  25.45200 -1.16800 38.55200
N  21.90200 -5.10600 45.09100
C  21.01300 -4.47600 44.20200
C  19.80000 -5.22700 44.14600
C  19.95300 -6.39300 44.93300
C  21.34100 -6.32800 45.46000
C  18.52900 -4.71800 43.29600
C  18.84900 -7.35600 45.31700
O  17.69100 -7.20400 44.82700
C  19.02100 -8.55700 46.30700
N  24.34700 -6.40500 46.45500
C  23.40500 -7.38200 46.67300
C  24.04000 -8.70100 47.10100
C  25.44200 -8.23300 47.62800
C  25.53500 -6.85000 47.08900
C  23.27700 -9.29500 48.30400
C  26.57100 -9.12900 47.02000
C  27.68100 -9.62300 48.00400
N  26.00000 -4.19100 45.84100
C  26.97900 -4.93200 46.49500
C  28.24400 -4.20100 46.35400
C  27.96900 -3.19000 45.43000
C  26.62500 -3.26900 45.11600
C  29.57300 -4.36900 47.08500
C  28.48600 -2.01500 44.84300
O  29.57800 -1.50700 44.97100
C  27.36000 -1.42900 43.89100
C  27.14700 -0.01700 44.24000
O  26.47900 0.34300 45.22400
O  27.71100 0.85400 43.36200
C  27.45600 2.34200 43.54500
H  20.64400 -2.71300 42.98800
H  21.44000 -8.15200 46.35300
H  27.57500 -6.49800 47.62100
H  24.93200 -0.35700 42.39300
H  22.36300 -1.31600 41.74000
H  23.33600 0.41800 43.99600
H  21.89400 -0.34200 44.44400
H  21.89100 0.67000 43.00500
H  23.97600 -2.14500 40.50900
H  25.38700 -2.92000 41.26000
H  26.76900 -1.28100 40.22600
H  25.60700 -0.03000 40.34700
H  18.86000 -4.15700 42.42200
H  17.78200 -4.17000 43.86900
H  18.06900 -5.60700 42.86300
H  19.57200 -9.34100 45.78900
H  18.02100 -8.85700 46.62100
H  19.43800 -8.12800 47.21800
H  24.19300 -9.42600 46.30100
H  25.54400 -8.14600 48.71000
H  22.39500 -8.73800 48.62000
H  23.94500 -9.50500 49.13900
H  22.85700 -10.25600 48.00700
H  26.97700 -8.56400 46.18000
H  26.22500 -10.00200 46.46600
H  27.31700 -9.39900 49.00700
H  28.50400 -8.91500 47.90300
H  28.03200 -10.64600 47.86700
H  29.49400 -5.37400 47.49900
H  29.64500 -3.58200 47.83500
H  30.30600 -4.33700 46.27800
H  27.72300 -1.43300 42.86400
H  26.78500 2.44200 44.39900
H  27.06600 2.73800 42.60800
H  28.43400 2.71800 43.84500
Mg -13.25300 16.79200 42.23800
C  -10.45600 14.41700 41.71000
C  -11.32300 19.05900 40.43700
C  -16.02800 18.51200 41.96200
C  -15.01600 13.97200 43.55000
N  -11.24400 16.66600 41.11400
C  -10.24500 15.67600 41.11400
C  -8.96700 16.12800 40.50400
C  -9.23900 17.62700 40.09200
C  -10.66200 17.82400 40.68900
C  -8.17700 18.72600 40.58400
C  -8.46500 15.11900 39.37200
C  -6.98500 14.56900 39.59800
H  -5.85700 15.11300 38.60500
N  -13.62900 18.68500 41.43500
C  -12.66000 19.45700 40.74400
C  -13.34000 20.71300 40.43800
C  -14.72500 20.63500 40.94700
C  -14.90400 19.21000 41.41400
C  -12.72000 21.79500 39.77300
C  -15.74300 21.74600 40.98500
O  -15.40200 22.81600 40.56800
C  -17.10100 21.61100 41.70900
N  -15.36100 16.19000 42.37800
C  -16.25500 17.19700 42.42200
C  -17.53100 16.74700 42.96900
C  -17.13400 15.35500 43.68100
C  -15.79300 15.08400 43.16300
C  -18.30300 17.78200 43.86300
C  -18.11100 14.17500 43.63000
C  -18.52800 13.57500 45.01600
N  -12.87100 14.63600 42.74000
C  -13.69000 13.74000 43.24100
C  -12.92100 12.54200 43.55300
C  -11.63000 12.75900 43.00700
C  -11.65600 14.07800 42.42800
C  -13.45600 11.25300 44.13600
C  -10.29000 12.22600 42.87600
O  -9.79300 11.13200 43.17500
C  -9.49300 13.25700 41.95100
C  -8.18900 13.46300 42.55900
O  -7.95600 14.33500 43.37200
O  -7.31800 12.48800 42.10000
C  -6.04900 12.50800 42.83100
H  -10.65500 19.74700 39.91500
H  -16.87800 19.07700 41.57300
H  -15.45800 13.16700 44.14000
H  -8.37100 16.06900 41.41500
H  -9.27000 17.72200 39.00600
H  -8.58700 19.35400 41.37500
H  -7.99000 19.33200 39.69700
H  -7.19800 18.36200 40.89400
H  -8.53700 15.59800 38.39600
H  -9.06300 14.20900 39.33800
H  -6.94900 13.48200 39.51600
H  -6.62500 14.81900 40.59600
H  -13.28400 21.91600 38.84800
H  -11.65800 21.69600 39.55000
H  -12.90800 22.72100 40.31700
H  -17.52600 22.61100 41.79100
H  -16.91900 21.18600 42.69600
H  -17.60700 20.91100 41.04500
H  -18.20100 16.57800 42.12500
H  -16.82600 15.58600 44.70100
H  -18.82200 17.41000 44.74700
H  -19.16000 18.25900 43.38700
H  -17.62200 18.58200 44.15200
H  -17.80100 13.41900 42.90800
H  -19.06200 14.43100 43.16400
H  -19.44300 14.03100 45.39500
H  -17.78200 13.88500 45.74700
H  -18.64300 12.49100 45.01700
H  -14.26600 10.98600 43.45800
H  -13.93300 11.31500 45.11300
H  -12.72500 10.44400 44.14400
H  -9.32000 12.59800 41.10000
H  -5.35200 13.23400 42.41000
H  -5.65800 11.54900 42.49000
H  -6.12700 12.61500 43.91300

