158

Mg 45.94100 24.71200 28.51600
C  46.51800 27.04100 30.99200
C  44.97100 22.55200 30.86700
C  45.84200 22.17300 26.13600
C  47.20500 26.86100 26.16700
N  45.78000 24.81300 30.76700
C  46.03900 25.86500 31.58100
C  45.75500 25.54400 33.13100
C  45.17100 24.06100 32.92400
C  45.28900 23.75600 31.41700
C  45.84100 22.96700 33.77900
C  44.75600 26.55200 33.77200
C  45.24700 27.10200 35.17700
H  44.21800 26.95200 36.31900
N  45.32200 22.67700 28.45700
C  44.90500 21.96100 29.53900
C  44.57300 20.62300 29.14700
C  44.73900 20.48900 27.74700
C  45.29100 21.81500 27.39700
C  44.16100 19.55000 30.21200
C  44.67700 19.24900 26.85200
O  45.08400 19.21000 25.70600
C  44.00700 17.96300 27.41800
N  46.50200 24.50400 26.46200
C  46.49700 23.35100 25.76300
C  47.08000 23.51300 24.27700
C  47.19600 25.06600 24.29800
C  46.93900 25.54900 25.69300
C  48.39600 22.65500 24.12700
C  46.33400 25.78100 23.23300
C  45.02300 26.56200 23.58500
N  46.82400 26.53700 28.50800
C  47.16100 27.36300 27.45500
C  47.59300 28.65400 27.96700
C  47.32900 28.52100 29.32100
C  46.86700 27.28300 29.64600
C  48.10400 29.79600 27.15700
C  47.46100 29.32300 30.56800
O  47.76800 30.51500 30.67500
C  46.94100 28.38800 31.71300
C  48.09100 28.06200 32.68600
O  48.92300 27.22400 32.41700
O  47.92500 28.66300 33.91400
C  48.79700 28.26100 35.05500
H  44.66800 21.83900 31.63600
H  45.72500 21.54800 25.24800
H  47.41200 27.50000 25.30600
H  46.70000 25.47100 33.67000
H  44.10900 24.07100 33.16900
H  46.59700 23.38900 34.44200
H  46.35400 22.11200 33.33900
H  45.02800 22.64100 34.42700
H  43.76600 26.12800 33.94400
H  44.71400 27.41800 33.11200
H  45.36900 28.16200 34.95100
H  46.20400 26.73800 35.55100
H  43.11900 19.24000 30.14000
H  44.29900 19.89200 31.23800
H  44.85400 18.72000 30.07400
H  44.64200 17.33900 28.04600
H  43.69500 17.44400 26.51100
H  43.12200 18.22900 27.99700
H  46.31500 23.21900 23.55800
H  48.23000 25.32800 24.07200
H  48.58500 22.38800 25.16700
H  49.21800 23.17300 23.63300
H  48.23300 21.78400 23.49400
H  46.11600 25.19100 22.34300
H  46.99800 26.57500 22.89400
H  44.55600 26.03000 24.41300
H  44.35500 26.41900 22.73500
H  45.19000 27.63800 23.62100
H  47.59500 29.82700 26.19400
H  49.12700 29.64500 26.81200
H  48.02700 30.75500 27.67100
H  46.21200 29.01300 32.22900
H  48.78600 27.20200 35.31400
H  48.36100 28.93600 35.79100
H  49.82700 28.61600 35.01100
Mg 16.00100 52.93200 25.52900
C  17.74300 51.53700 28.34000
C  13.73900 54.22900 27.66100
C  14.64700 54.19000 22.85900
C  18.43700 51.29700 23.46400
N  15.71100 52.69900 27.74200
C  16.54400 52.22000 28.70600
C  16.04200 52.51600 30.12000
C  14.57800 53.16000 29.86100
C  14.70400 53.40900 28.32200
C  13.41000 52.27600 30.37900
C  17.05100 53.39900 30.86000
C  17.61000 52.91100 32.23900
H  16.87300 51.90900 33.17200
N  14.32800 53.95800 25.31400
C  13.58000 54.54300 26.29700
C  12.58300 55.30300 25.62800
C  12.69300 55.17800 24.17000
C  13.88400 54.35200 24.03500
C  11.48400 55.97500 26.41800
C  11.85000 55.61800 23.03600
O  12.07700 55.24400 21.91700
C  10.53300 56.32200 23.27300
N  16.27600 52.45400 23.43600
C  15.77300 53.38700 22.58000
C  16.24700 53.18200 21.18900
C  17.56200 52.37600 21.36800
C  17.44700 52.06100 22.87000
C  15.07800 52.38500 20.43600
C  18.81800 53.15000 20.91500
C  18.92700 54.55000 21.55700
N  17.79700 51.69700 25.78100
C  18.62900 51.09100 24.80200
C  19.71900 50.41600 25.53700
C  19.41600 50.56800 26.86200
C  18.22100 51.32600 26.97400
C  21.01600 49.88200 25.06100
C  19.89500 50.27400 28.16800
O  20.88500 49.67000 28.53200
C  18.76400 50.83800 29.23500
C  18.24900 49.60900 29.87500
O  17.49900 48.77800 29.33700
O  18.56300 49.65400 31.19100
C  18.01200 48.48000 31.93800
H  13.05800 54.73900 28.34600
H  14.40100 54.85400 22.02700
H  19.14000 50.73900 22.84200
H  15.96900 51.61600 30.73100
H  14.56700 54.16500 30.28300
H  13.02400 51.72000 29.52400
H  12.58400 52.80100 30.85800
H  13.86600 51.56300 31.06600
H  16.51900 54.34200 30.99400
H  17.93800 53.65300 30.28000
H  17.66400 53.85100 32.78900
H  18.62800 52.52200 32.26000
H  11.31500 57.01000 26.12000
H  11.75400 56.01500 27.47300
H  10.54600 55.43000 26.31700
H  9.94400 56.47500 22.36800
H  10.68800 57.27900 23.77000
H  9.97400 55.60300 23.87200
H  16.35000 54.10100 20.61200
H  17.56900 51.44500 20.80000
H  14.21300 52.22400 21.07900
H  15.40300 51.44500 19.99100
H  14.77500 53.08500 19.65800
H  18.70300 53.40200 19.86100
H  19.77800 52.64100 21.00100
H  18.01900 54.93300 22.02400
H  19.24700 55.37600 20.92100
H  19.56000 54.54900 22.44500
H  21.30700 49.02500 25.66900
H  21.75400 50.66900 25.21200
H  20.99100 49.51600 24.03500
H  19.28100 51.38800 30.02100
H  18.30400 47.48000 31.61600
H  16.92600 48.39000 31.90700
H  18.30000 48.54900 32.98700

