158

Mg -2.40200 17.70000 25.55200
C  -2.58300 15.56700 28.36800
C  -2.88100 20.47100 27.54900
C  -2.57100 19.60800 22.86300
C  -2.54200 14.77300 23.54200
N  -2.69700 17.93000 27.70300
C  -2.85200 16.95400 28.66900
C  -3.15700 17.59000 30.12300
C  -3.53400 19.09500 29.71600
C  -2.99400 19.21800 28.28700
C  -5.05300 19.32600 29.64700
C  -1.91900 17.47400 31.09800
C  -2.21300 17.95800 32.49100
H  -1.36900 17.38200 33.64600
N  -2.47700 19.80500 25.26100
C  -2.50000 20.78400 26.22400
C  -2.32500 22.08800 25.60400
C  -2.00300 21.79100 24.26400
C  -2.38900 20.38500 24.05300
C  -2.23200 23.32900 26.40900
C  -1.47700 22.70300 23.20300
O  -1.20500 22.35000 22.07200
C  -1.04600 24.14700 23.49700
N  -2.56800 17.24100 23.60700
C  -2.62000 18.24300 22.64500
C  -2.68500 17.72500 21.20600
C  -2.60800 16.20100 21.45200
C  -2.57500 16.06700 22.93700
C  -3.84400 18.18300 20.38900
C  -1.41800 15.53600 20.65000
C  0.02400 15.88300 21.00900
N  -2.47700 15.62900 25.84900
C  -2.49500 14.58000 24.93300
C  -2.37300 13.32500 25.64100
C  -2.37700 13.65300 26.99300
C  -2.54200 15.09700 27.06800
C  -2.26400 11.95400 24.99000
C  -2.37100 13.07000 28.33000
O  -2.25400 11.94000 28.70700
C  -2.50600 14.28500 29.25400
C  -1.18400 14.28800 30.00300
O  -0.20200 14.78200 29.52700
O  -1.26800 13.71600 31.23000
C  -0.09600 13.74800 32.15400
H  -3.13600 21.37900 28.09700
H  -2.59200 20.28400 22.00600
H  -2.44400 13.90200 22.89000
H  -4.07100 17.10800 30.46700
H  -3.09600 19.87100 30.34300
H  -5.55200 18.51700 30.18000
H  -5.37300 19.34400 28.60500
H  -5.38300 20.23400 30.15100
H  -1.11100 18.09100 30.70600
H  -1.57600 16.44200 31.17600
H  -3.28600 17.89300 32.67400
H  -2.01200 19.02100 32.36300
H  -2.23500 23.13500 27.48100
H  -3.13900 23.89600 26.19900
H  -1.35200 23.92700 26.17200
H  -0.16900 24.06400 24.13800
H  -1.81400 24.75800 23.97100
H  -0.74200 24.56400 22.53700
H  -1.81800 18.04500 20.62800
H  -3.51000 15.71000 21.08600
H  -3.43300 18.96400 19.75000
H  -4.59400 18.50400 21.11200
H  -4.11400 17.31700 19.78400
H  -1.60000 15.93000 19.65100
H  -1.52700 14.46200 20.80000
H  0.11300 16.26600 22.02600
H  0.42200 16.60700 20.29800
H  0.55000 14.93900 21.15000
H  -3.22400 11.44300 24.91600
H  -1.62600 11.35000 25.63500
H  -1.70100 11.96900 24.05700
H  -3.26000 14.28100 30.04100
H  -0.04400 12.74000 32.56500
H  -0.19600 14.45700 32.97600
H  0.79900 13.97300 31.57300
Mg 24.80000 -7.50000 48.10100
C  27.34400 -5.47700 46.64100
C  22.61200 -6.05900 45.89300
C  22.80700 -9.84300 48.97500
C  27.46100 -9.08300 49.99200
N  24.93500 -5.82300 46.46700
C  26.10700 -5.21100 46.02800
C  25.87400 -4.21000 44.95200
C  24.24300 -4.36400 44.79200
C  23.85000 -5.47000 45.78400
C  23.43100 -3.09600 45.07700
C  26.72500 -4.44100 43.72600
C  27.26400 -3.14900 43.11400
H  26.73400 -2.69900 41.75100
N  22.90800 -7.90800 47.52400
C  22.18000 -7.20000 46.57700
C  20.90500 -7.77300 46.46700
C  20.85500 -8.89900 47.37600
C  22.24100 -8.92200 48.00700
C  19.81800 -7.20100 45.63900
C  19.70800 -9.87800 47.46800
O  18.77900 -9.76100 46.70100
C  19.78200 -11.13600 48.40700
N  25.11100 -9.29100 49.24800
C  24.03000 -9.96800 49.62100
C  24.33100 -10.87500 50.84400
C  25.81200 -10.66000 51.22400
C  26.18300 -9.68100 50.10100
C  23.30700 -10.80800 52.08000
C  26.61500 -12.04700 51.18000
C  27.18400 -12.55100 49.80100
N  26.99800 -7.31100 48.32100
C  27.85700 -8.03300 49.15500
C  29.23700 -7.44900 49.01600
C  29.01400 -6.46300 48.00200
C  27.64900 -6.41900 47.65800
C  30.57700 -7.86700 49.63200
C  29.70800 -5.46900 47.31500
O  30.86800 -5.15500 47.40100
C  28.70900 -4.67700 46.45000
C  28.41200 -3.30500 46.99700
O  28.00800 -2.98400 48.10700
O  28.62100 -2.39700 45.95000
C  28.18500 -0.95200 46.25200
H  21.90500 -5.54400 45.23900
H  22.04400 -10.60400 49.15300
H  28.27100 -9.35900 50.67000
H  26.05500 -3.32500 45.56100
H  24.22200 -4.80100 43.79400
H  22.72200 -2.84900 44.28700
H  24.07000 -2.23100 45.25200
H  22.67100 -3.26800 45.83900
H  26.22600 -4.95100 42.90200
H  27.50900 -5.17600 43.90800
H  28.35300 -3.09900 43.10200
H  27.10000 -2.36100 43.85000
H  20.01100 -6.19400 45.26800
H  18.87500 -7.38700 46.15200
H  19.90700 -7.86600 44.78000
H  20.63700 -11.72400 48.07400
H  18.88400 -11.75500 48.40100
H  19.96300 -10.80600 49.43000
H  24.31000 -11.92200 50.54300
H  25.97700 -10.15300 52.17500
H  23.34900 -9.82000 52.53900
H  23.38200 -11.67300 52.73900
H  22.39000 -10.81400 51.49100
H  26.01600 -12.83700 51.63300
H  27.50900 -11.98400 51.79900
H  28.26300 -12.70000 49.83000
H  26.95300 -11.85800 48.99200
H  26.83400 -13.54000 49.50400
H  30.63800 -8.95100 49.73100
H  30.80300 -7.32300 50.54900
H  31.26600 -7.52000 48.86100
H  28.99300 -4.63500 45.39900
H  27.23900 -0.77400 45.74200
H  28.98700 -0.29600 45.91200
H  28.00900 -0.71100 47.30000

