158

Mg 55.28800 23.95100 44.64600
C  52.67700 26.24300 43.94400
C  53.22600 21.55300 43.39200
C  57.89300 21.91400 44.57200
C  57.42100 26.75600 44.92800
N  53.27200 23.94400 43.78300
C  52.30700 24.93200 43.67200
C  50.96700 24.37200 43.12400
C  51.12100 22.84500 43.36700
C  52.59900 22.76600 43.57800
C  50.20600 22.26800 44.47000
C  50.64000 24.81100 41.66800
C  49.19800 25.28400 41.30900
H  48.63100 24.54800 40.07700
N  55.50600 22.03700 44.02000
C  54.49800 21.17500 43.61300
C  55.02300 19.80200 43.58400
C  56.37800 19.85800 44.09200
C  56.67900 21.27900 44.19900
C  54.12300 18.55000 43.32500
C  57.36600 18.69800 44.50300
O  56.92100 17.57000 44.76300
C  58.74200 18.89700 44.89400
N  57.36000 24.33100 44.70100
C  58.20500 23.23000 44.75000
C  59.64700 23.67200 45.06800
C  59.50500 25.24200 45.07800
C  58.03200 25.50700 44.81700
C  60.27200 23.03800 46.30300
C  60.59900 26.00900 44.28600
C  61.88000 26.28700 45.15100
N  55.08500 26.08800 44.81600
C  56.03500 27.07900 44.83900
C  55.39200 28.34300 44.86200
C  54.04900 28.05900 44.54400
C  53.94200 26.67000 44.42400
C  56.02200 29.64900 45.02400
C  52.74000 28.63500 44.37000
O  52.41900 29.84500 44.36800
C  51.80300 27.46200 43.74900
C  51.72500 27.88600 42.29600
O  52.57500 27.66500 41.43200
O  50.59900 28.57200 42.02500
C  50.29000 28.77800 40.63200
H  52.55400 20.71200 43.20400
H  58.78800 21.30300 44.70400
H  58.05000 27.62700 45.12100
H  50.20100 24.70300 43.82600
H  50.96000 22.13800 42.55300
H  49.26800 21.88900 44.06300
H  49.85900 23.04900 45.14700
H  50.66800 21.49900 45.08900
H  50.91000 23.93700 41.07500
H  51.29900 25.67100 41.55200
H  49.14300 26.35100 41.09400
H  48.57400 25.12700 42.18900
H  54.56300 17.84600 42.61900
H  53.09500 18.86400 43.14200
H  54.10000 17.93200 44.22300
H  59.19400 19.24900 43.96700
H  59.22400 17.96700 45.19300
H  58.70600 19.61800 45.71100
H  60.11800 23.28700 44.16400
H  59.67100 25.70700 46.05000
H  59.43600 22.58600 46.83500
H  60.73200 23.78700 46.94700
H  60.95500 22.22600 46.05000
H  60.20300 26.97200 43.96600
H  60.85700 25.40600 43.41500
H  62.63600 25.68200 44.65100
H  61.78000 25.82200 46.13100
H  62.23900 27.31400 45.07600
H  56.65800 29.76400 45.90200
H  55.17900 30.33800 44.97300
H  56.54900 29.82400 44.08600
H  50.87000 27.59100 44.29600
H  50.66200 27.95300 40.02400
H  50.76700 29.64900 40.18200
H  49.20900 28.84400 40.51500
Mg 5.57800 54.15600 40.87900
C  5.74900 50.65600 40.97900
C  8.71100 54.18600 39.52300
C  5.19100 57.40600 40.55900
C  2.30400 53.86500 42.17500
N  7.05800 52.57000 40.28000
C  6.96000 51.20400 40.47700
C  8.17100 50.49500 39.90400
C  9.25100 51.67600 39.80000
C  8.26700 52.87600 39.80400
C  10.20100 51.71600 41.09600
C  7.95000 49.71300 38.57100
C  7.04800 50.25600 37.39400
H  6.35100 49.22800 36.46900
N  6.68000 55.56200 40.10200
C  7.96300 55.39200 39.61000
C  8.62200 56.61500 39.36500
C  7.66300 57.68900 39.59300
C  6.44300 56.96900 40.14300
C  10.06400 56.86200 38.88600
C  7.82200 59.20700 39.27500
O  8.82500 59.64000 38.77700
C  6.76100 60.27800 39.44800
N  3.84700 55.48700 41.20500
C  3.98200 56.76500 41.00200
C  2.75300 57.53000 41.58600
C  1.71700 56.35200 41.87500
C  2.68400 55.16700 41.84600
C  2.89700 58.47500 42.80800
C  0.45700 56.36400 40.99600
C  -0.84700 56.48200 41.80200
N  4.31200 52.63300 41.40800
C  3.00200 52.61800 41.95200
C  2.57200 51.30000 42.27800
C  3.67600 50.57200 41.90100
C  4.66600 51.35400 41.38600
C  1.34600 50.84600 43.04800
C  4.17400 49.20300 41.97600
O  3.58500 48.20300 42.40200
C  5.49100 49.15800 41.35700
C  5.42200 48.24900 40.30100
O  4.82200 48.44000 39.24000
O  6.14500 47.19400 40.59300
C  6.15900 46.12400 39.61600
H  9.72400 54.24300 39.12100
H  5.12000 58.49300 40.48500
H  1.28900 53.69000 42.53800
H  8.57300 49.75400 40.59400
H  9.90800 51.64600 38.93100
H  10.25700 50.77600 41.64500
H  9.83800 52.51600 41.74200
H  11.23000 51.92300 40.80400
H  7.74900 48.65400 38.73300
H  8.89600 49.66500 38.03100
H  7.66700 50.95400 36.83000
H  6.26600 50.83400 37.88600
H  10.15700 56.98000 37.80600
H  10.82800 56.20200 39.29600
H  10.22000 57.85900 39.29800
H  5.86500 59.83300 39.01500
H  7.21800 61.14400 38.97000
H  6.61400 60.46200 40.51200
H  2.39800 58.19200 40.79600
H  1.29500 56.48300 42.87100
H  2.07400 59.18100 42.69900
H  3.87400 58.93200 42.96600
H  2.50400 58.01700 43.71600
H  0.44900 55.42400 40.44500
H  0.61500 57.16900 40.27900
H  -0.76900 56.86400 42.82000
H  -1.25500 55.47200 41.76800
H  -1.48400 57.04400 41.11900
H  0.54100 51.57400 43.14500
H  1.64400 50.74100 44.09100
H  0.90200 49.95200 42.61000
H  6.26700 48.87700 42.07000
H  5.17200 45.65900 39.62200
H  6.93800 45.39600 39.84300
H  6.42800 46.40300 38.59800

