158

Mg 47.68200 24.70400 28.15800
C  48.67500 27.03000 30.73600
C  47.03600 22.48500 30.73200
C  46.88800 22.49000 25.88300
C  49.00700 26.79400 25.86000
N  47.81200 24.81900 30.49100
C  48.08500 25.90300 31.31200
C  47.88600 25.51000 32.75200
C  47.57300 24.00000 32.74500
C  47.57500 23.72300 31.20100
C  48.64600 23.12000 33.46000
C  46.76600 26.37600 33.46100
C  47.30800 27.39600 34.49000
H  46.63400 27.64300 35.85700
N  46.97700 22.77900 28.28500
C  46.82900 22.00600 29.45300
C  46.22800 20.68900 29.01600
C  46.16400 20.68400 27.61000
C  46.65700 22.03500 27.19200
C  45.79300 19.53400 29.99700
C  45.82800 19.62200 26.55600
O  45.96000 19.72100 25.35900
C  45.24100 18.34100 27.09500
N  48.08100 24.60700 26.06800
C  47.44300 23.67600 25.33700
C  47.52300 24.05900 23.82300
C  47.96600 25.54000 23.87600
C  48.28200 25.67200 25.38600
C  48.47700 23.07800 23.06500
C  46.92000 26.56800 23.38200
C  47.31000 27.66900 22.35500
N  48.72600 26.53000 28.24600
C  49.23600 27.20600 27.18500
C  49.66900 28.47200 27.71300
C  49.44700 28.45700 29.07700
C  48.90000 27.24300 29.35000
C  50.19800 29.68600 27.02000
C  49.72900 29.19200 30.34100
O  50.24600 30.28400 30.51500
C  49.12100 28.22900 31.48900
C  50.31000 27.97700 32.35900
O  51.21100 27.24500 32.18200
O  50.20200 28.72200 33.41700
C  51.11200 28.53300 34.52400
H  46.88800 21.84400 31.60300
H  46.59300 21.88200 25.02500
H  49.31800 27.51600 25.10300
H  48.78300 25.73600 33.32800
H  46.59000 23.70300 33.11100
H  48.99000 22.36600 32.75200
H  48.08300 22.58200 34.22300
H  49.47900 23.72200 33.82400
H  45.97700 25.81600 33.96300
H  46.35000 26.90300 32.60100
H  47.36700 28.37000 34.00400
H  48.35700 27.22600 34.73200
H  46.20300 18.55600 29.74600
H  44.71100 19.42800 30.08500
H  46.14200 19.85100 30.98000
H  45.93300 17.76400 27.70800
H  44.91700 17.72700 26.25400
H  44.41000 18.58600 27.75700
H  46.54300 23.89000 23.37600
H  48.90300 25.73300 23.35300
H  48.86500 22.43600 23.85600
H  49.34600 23.56000 22.61700
H  47.92800 22.60800 22.24800
H  46.43200 26.93700 24.28400
H  46.16100 26.06800 22.78100
H  48.37100 27.81400 22.15100
H  46.97200 28.64700 22.69700
H  46.82100 27.45100 21.40500
H  50.47800 29.43500 25.99700
H  51.01700 30.07900 27.62300
H  49.43400 30.46100 26.96100
H  48.32100 28.78600 31.97600
H  51.98800 29.17500 34.42400
H  51.51100 27.52000 34.58000
H  50.55400 28.81100 35.41700
Mg 16.55700 52.35000 26.53900
C  18.45700 50.93300 28.99200
C  14.18800 53.15900 28.80400
C  14.37500 53.30600 23.91600
C  18.71900 51.07700 24.19900
N  16.29400 51.89100 28.61700
C  17.23200 51.43600 29.46400
C  16.90600 51.76300 31.04000
C  15.34100 52.09200 30.88600
C  15.22600 52.40500 29.28500
C  14.38900 51.01300 31.46100
C  17.70700 52.97000 31.57800
C  17.89400 53.11700 33.14500
H  16.98500 52.18000 33.99100
N  14.70200 53.33400 26.40600
C  13.88900 53.58300 27.48400
C  12.82900 54.39300 27.03700
C  12.91000 54.59000 25.65100
C  14.04500 53.73000 25.21100
C  11.94200 54.99700 28.10200
C  12.07500 55.43000 24.68900
O  12.31200 55.49100 23.52400
C  11.03700 56.42500 25.21000
N  16.47200 51.87200 24.32400
C  15.51200 52.45700 23.51700
C  15.84600 52.25800 22.03800
C  17.29000 51.65800 22.13100
C  17.58000 51.60500 23.61900
C  14.80200 51.48700 21.36600
C  18.37900 52.43000 21.34000
C  19.44000 51.71700 20.59600
N  18.23900 51.16500 26.51800
C  19.03400 50.72800 25.49000
C  20.17800 49.91100 26.00800
C  19.94400 49.98400 27.42500
C  18.81600 50.79900 27.66000
C  21.27900 49.08100 25.35600
C  20.42700 49.56800 28.62000
O  21.35200 48.80100 28.89500
C  19.52900 50.29600 29.77100
C  19.03500 49.18400 30.64600
O  18.57500 48.11900 30.16300
O  19.23200 49.44600 31.92300
C  19.07000 48.41300 32.91700
H  13.51500 53.40800 29.62700
H  13.93300 53.70100 23.00000
H  19.53000 50.80300 23.52100
H  17.05500 50.85100 31.61800
H  15.07800 52.93800 31.52100
H  13.71800 51.54100 32.13900
H  14.98400 50.19100 31.85900
H  13.81800 50.51300 30.67900
H  17.27800 53.90300 31.21300
H  18.72500 52.90200 31.19500
H  17.66700 54.12100 33.50200
H  18.94000 53.01100 33.43300
H  11.23600 55.72000 27.69400
H  12.45200 55.54100 28.89700
H  11.45000 54.16500 28.60700
H  11.56600 57.07900 25.90300
H  10.34000 55.89500 25.85900
H  10.55500 57.00100 24.41900
H  15.84800 53.16200 21.42900
H  17.31700 50.64200 21.73700
H  15.23000 50.62700 20.85100
H  14.28000 52.08600 20.61900
H  14.02100 51.17300 22.05900
H  18.94200 53.09400 21.99700
H  17.94900 53.16600 20.66100
H  20.45600 51.86000 20.96500
H  19.33900 51.94800 19.53600
H  19.36800 50.63900 20.74300
H  21.44100 49.43600 24.33800
H  21.16900 47.99700 25.36300
H  22.23700 49.23000 25.85400
H  20.13700 50.97000 30.37300
H  17.99400 48.46300 33.08500
H  19.59800 48.67600 33.83400
H  19.17500 47.37600 32.59800

