158

Mg 43.40200 2.81100 48.02400
C  41.23000 5.48200 47.15000
C  40.95200 0.50600 47.65000
C  45.73800 0.41100 48.28200
C  46.05500 5.26000 47.84100
N  41.32000 3.01000 47.23100
C  40.58700 4.18100 47.20800
C  39.06500 3.82100 47.05900
C  39.02000 2.26800 47.38300
C  40.53200 1.87100 47.47000
C  38.18100 2.02300 48.80200
C  38.55900 4.19500 45.59500
C  37.66500 5.45300 45.60800
H  37.77100 6.38600 44.35600
N  43.38800 0.75500 47.90000
C  42.24700 0.00800 47.74800
C  42.57500 -1.38400 47.97300
C  43.97100 -1.44300 48.21500
C  44.49000 -0.11400 48.10100
C  41.67300 -2.47900 47.89300
C  44.75300 -2.72900 48.56200
O  44.16400 -3.79000 48.60300
C  46.22000 -2.82200 48.61600
N  45.52800 2.83300 47.82600
C  46.20500 1.72000 48.13100
C  47.71000 2.03500 48.34800
C  47.83600 3.42500 47.73100
C  46.40000 3.90100 47.79300
C  48.14600 1.98900 49.83000
C  48.33500 3.41800 46.25700
C  49.79800 3.65100 46.04300
N  43.64400 5.03100 47.70600
C  44.76400 5.80300 47.77100
C  44.33000 7.25100 47.72100
C  42.97600 7.15700 47.46200
C  42.61400 5.78000 47.34600
C  45.21600 8.43800 48.06500
C  41.79400 7.96400 47.35000
O  41.51500 9.16300 47.29400
C  40.60100 6.84800 47.10600
C  39.60400 7.00300 48.14900
O  39.70500 6.58300 49.31600
O  38.66200 7.89000 47.70900
C  37.81200 8.40000 48.77900
H  40.11200 -0.19200 47.64600
H  46.60100 -0.22200 48.49500
H  46.86000 5.98900 47.72700
H  38.47900 4.35800 47.80500
H  38.46500 1.70400 46.63300
H  37.50300 2.84600 49.02600
H  38.84400 1.99000 49.66700
H  37.71200 1.03900 48.78300
H  37.97400 3.39000 45.15200
H  39.42400 4.38400 44.95800
H  37.67900 6.12600 46.46500
H  36.62600 5.12600 45.57300
H  41.82900 -2.94700 46.92100
H  40.62600 -2.21500 48.03600
H  41.83200 -3.23400 48.66400
H  46.52900 -2.30700 47.70600
H  46.48700 -3.87700 48.68500
H  46.54200 -2.35400 49.54600
H  48.30400 1.38400 47.70600
H  48.52900 4.06400 48.27900
H  47.28800 1.69000 50.43200
H  48.74800 2.81900 50.20100
H  48.83700 1.15100 49.92300
H  47.71400 4.14700 45.73700
H  47.98200 2.51300 45.76300
H  49.84800 4.43700 45.28900
H  50.33800 2.98700 45.36800
H  50.42600 3.86200 46.90800
H  45.97700 8.54200 47.29100
H  45.59400 8.17900 49.05300
H  44.56000 9.30200 47.95200
H  40.22700 7.03100 46.09800
H  37.09100 8.97000 48.19300
H  38.28000 9.09200 49.47900
H  37.25600 7.58900 49.25000
Mg 41.49500 41.56200 26.65300
C  40.70800 43.88700 29.02900
C  42.38500 39.28600 29.01500
C  42.55400 39.51800 24.07100
C  40.70000 43.99100 24.13100
N  41.62400 41.59900 28.73000
C  41.08400 42.61800 29.54300
C  41.13100 42.22600 31.02200
C  41.70900 40.77900 31.03700
C  41.86900 40.49600 29.48100
C  42.99800 40.62600 31.79700
C  39.87200 42.42600 31.78000
C  39.97900 43.24700 33.09400
H  39.46600 42.83000 34.42900
N  42.42800 39.74000 26.52000
C  42.70700 38.93300 27.65800
C  43.36000 37.73700 27.26100
C  43.32200 37.77600 25.84100
C  42.73800 39.07000 25.40300
C  43.74800 36.63900 28.17300
C  43.69500 36.63400 24.86200
O  43.64000 36.77400 23.65700
C  44.07700 35.30200 25.35800
N  41.55600 41.75700 24.43800
C  41.99600 40.69400 23.63400
C  41.74900 41.06600 22.11400
C  40.79500 42.32100 22.17400
C  41.02000 42.77200 23.64000
C  43.08200 41.28800 21.28500
C  39.28000 42.08200 21.76600
C  38.57600 40.91000 22.37500
N  40.98100 43.47900 26.52900
C  40.64100 44.37900 25.50600
C  40.28700 45.68300 26.00000
C  40.36500 45.58400 27.38300
C  40.74000 44.19200 27.66000
C  39.75600 46.74800 25.12600
C  40.08300 46.16900 28.61900
O  39.66100 47.31700 28.82500
C  40.39000 45.14300 29.74200
C  41.42400 45.64500 30.72800
O  42.56800 45.24800 30.79100
O  40.75300 46.58300 31.57800
C  41.53400 46.93700 32.80300
H  42.70400 38.59800 29.80100
H  42.97200 38.83200 23.33100
H  40.42900 44.71700 23.36100
H  41.86500 42.89500 31.47000
H  41.01100 40.02900 31.40800
H  43.31900 41.55600 32.26500
H  43.82300 40.37100 31.13100
H  42.87400 39.84300 32.54500
H  39.42600 41.47200 32.05900
H  39.16700 42.88400 31.08600
H  39.49700 44.19800 32.86600
H  40.99900 43.57500 33.29800
H  43.13500 35.76800 27.94000
H  43.51200 36.96000 29.18700
H  44.75700 36.22800 28.15800
H  43.24400 34.82300 25.87300
H  44.96000 35.37400 25.99200
H  44.30900 34.72500 24.46300
H  41.20000 40.29300 21.57500
H  41.05600 43.16800 21.54100
H  43.36400 42.31500 21.05100
H  42.98300 40.77200 20.32900
H  43.92900 40.83600 21.80100
H  39.30600 41.85700 20.70000
H  38.74100 43.00100 21.99700
H  38.15800 40.35600 21.53400
H  37.76200 41.33400 22.96300
H  39.22400 40.28600 22.99000
H  39.07900 46.31200 24.39100
H  40.51000 47.23800 24.51000
H  39.19100 47.43800 25.75300
H  39.43500 44.94800 30.23000
H  42.56800 46.59300 32.78500
H  41.11000 46.39900 33.65100
H  41.51200 48.00600 33.01300

