158

Mg 36.74900 49.28100 25.95400
C  36.76600 47.43500 28.79700
C  35.32400 51.91700 27.74100
C  36.41700 51.00400 22.98900
C  38.23600 46.75100 24.20400
N  36.03200 49.52300 28.04100
C  36.23400 48.72400 29.08200
C  35.90300 49.30900 30.49000
C  35.30500 50.67700 30.03600
C  35.58600 50.73400 28.56000
C  33.74800 50.76400 30.42900
C  37.21500 49.45300 31.30000
C  37.31300 48.99300 32.77500
H  36.08700 48.86300 33.65500
N  35.95400 51.22200 25.44200
C  35.46000 52.15800 26.31800
C  35.10500 53.36500 25.61200
C  35.39700 53.08500 24.22000
C  35.94600 51.74000 24.17900
C  34.52600 54.57600 26.31400
C  35.21600 54.01600 23.02800
O  35.51400 53.59200 21.88700
C  34.69600 55.33500 23.19700
N  37.21600 48.93500 23.94100
C  37.00100 49.77500 22.86800
C  37.61400 49.27200 21.52400
C  38.44600 47.99700 21.96200
C  38.01100 47.95300 23.47600
C  36.48200 48.97300 20.48200
C  39.98000 48.09200 21.80500
C  40.67700 47.26800 20.66700
N  37.35700 47.47000 26.31700
C  37.92900 46.49600 25.56700
C  38.17800 45.30200 26.30300
C  37.68000 45.65300 27.56300
C  37.21700 46.96100 27.53100
C  38.80500 44.02900 25.71000
C  37.54300 45.08300 28.89400
O  37.70700 43.97900 29.39400
C  36.94100 46.24400 29.77700
C  35.63800 45.68900 30.30500
O  34.59500 45.57600 29.66400
O  35.85400 45.33700 31.58000
C  34.66700 45.19500 32.30900
H  34.90900 52.75100 28.31100
H  36.39600 51.39600 21.97000
H  38.71900 45.96300 23.62300
H  35.22100 48.70200 31.08600
H  35.83200 51.49000 30.53500
H  33.39400 50.01100 31.13300
H  33.17300 50.75000 29.50400
H  33.68600 51.71600 30.95700
H  37.65700 50.44900 31.30700
H  37.92700 48.83500 30.75200
H  37.96800 49.71400 33.26500
H  37.88000 48.06300 32.79200
H  33.82600 55.17600 25.73200
H  35.28500 55.26300 26.68700
H  33.82500 54.19900 27.05900
H  34.89800 55.89300 22.28200
H  35.13500 55.90600 24.01500
H  33.63200 55.15600 23.34800
H  38.33700 50.04400 21.26100
H  38.06200 47.07000 21.53600
H  36.50600 49.76400 19.73200
H  35.50100 49.01500 20.95500
H  36.64200 48.03300 19.95300
H  40.49300 47.73900 22.69900
H  40.21600 49.14300 21.64100
H  39.86200 46.82800 20.09200
H  41.28600 46.45800 21.06900
H  41.37800 47.80900 20.03100
H  39.28800 44.17900 24.74500
H  38.06900 43.28800 25.39700
H  39.61100 43.69700 26.36500
H  37.57500 46.39500 30.65100
H  33.79400 45.80400 32.07300
H  34.87500 45.46700 33.34400
H  34.47200 44.12900 32.20000
Mg -12.76400 38.97000 42.37400
C  -10.83500 35.99300 41.57600
C  -10.68900 40.70800 40.18500
C  -14.69800 41.59000 42.77400
C  -15.16000 36.80500 43.72400
N  -10.92000 38.39700 41.07400
C  -10.25600 37.18800 41.03600
C  -8.96000 37.36800 40.26300
C  -8.95900 38.92400 39.90700
C  -10.31000 39.34800 40.35800
C  -7.75200 39.75800 40.46100
C  -8.83100 36.41100 38.99500
C  -7.57400 35.52700 39.00000
H  -6.65500 35.56300 37.65800
N  -12.66100 40.94400 41.65000
C  -11.74300 41.46600 40.76300
C  -12.13500 42.85000 40.34200
C  -13.34400 43.14100 41.14400
C  -13.63300 41.89700 41.89500
C  -11.73200 43.71200 39.16700
C  -14.12900 44.42100 41.05200
O  -13.75600 45.45700 40.50300
C  -15.42100 44.62300 41.76200
N  -14.64300 39.21800 43.16200
C  -15.21500 40.43800 43.30800
C  -16.63100 40.30600 43.92200
C  -16.78400 38.77800 44.18300
C  -15.48600 38.20000 43.57800
C  -16.86400 41.19200 45.19100
C  -18.10600 38.15600 43.81200
C  -18.78900 37.07100 44.68800
N  -12.87800 36.78500 42.75800
C  -13.95800 36.09700 43.35500
C  -13.70300 34.74500 43.36500
C  -12.46800 34.63800 42.78200
C  -11.97200 35.95700 42.38500
C  -14.65100 33.67500 43.81000
C  -11.47400 33.64700 42.30900
O  -11.40200 32.46400 42.43500
C  -10.40000 34.46100 41.44800
C  -9.05400 34.28600 42.06300
O  -8.26500 33.43600 41.70200
O  -8.73400 35.25000 42.94100
C  -7.42300 35.13700 43.60000
H  -10.03500 41.40400 39.65600
H  -15.49900 42.30200 42.98600
H  -15.86300 36.02200 44.01500
H  -8.15000 37.17800 40.96700
H  -8.85100 39.05300 38.83000
H  -7.00200 39.68000 39.67400
H  -7.31400 39.23600 41.31200
H  -8.01300 40.79600 40.66800
H  -8.80600 36.96300 38.05600
H  -9.69600 35.75300 38.91900
H  -7.93600 34.50300 39.09200
H  -6.99400 35.66700 39.91200
H  -12.58300 43.65400 38.48700
H  -10.78300 43.39600 38.73400
H  -11.50600 44.75500 39.39100
H  -16.08000 43.85200 41.36300
H  -15.79500 45.57300 41.38000
H  -15.37400 44.59700 42.85100
H  -17.41600 40.64300 43.24500
H  -16.66600 38.44300 45.21300
H  -17.43500 42.05900 44.85900
H  -15.91100 41.50400 45.61800
H  -17.29500 40.67200 46.04700
H  -17.98800 37.73900 42.81200
H  -18.92500 38.87100 43.74400
H  -18.84800 36.10200 44.19300
H  -19.80300 37.32600 44.99800
H  -18.23500 36.86900 45.60500
H  -14.67500 33.68300 44.89900
H  -14.32500 32.73700 43.36100
H  -15.58700 33.81200 43.26900
H  -10.25900 34.19600 40.40000
H  -6.89700 36.09200 43.58700
H  -6.78000 34.33400 43.23900
H  -7.46800 34.82600 44.64300

