158

Mg 8.19200 2.88600 27.13700
C  9.63700 1.15800 30.03100
C  6.51600 4.81300 29.35300
C  6.95900 4.32200 24.44400
C  9.99000 0.55900 25.18000
N  8.14400 2.95600 29.52200
C  8.80700 2.20100 30.42800
C  8.52300 2.72600 31.87700
C  7.32300 3.73900 31.58800
C  7.19800 3.80300 30.05200
C  6.01900 3.35000 32.20600
C  9.79300 3.24300 32.55200
C  9.62500 4.22600 33.81200
H  10.61000 4.22700 34.90600
N  6.96900 4.46500 26.97500
C  6.33100 5.15000 27.98400
C  5.49400 6.23800 27.39300
C  5.73500 6.12800 25.94600
C  6.58600 4.89000 25.73400
C  4.60600 7.12700 28.18300
C  5.11600 6.98300 24.86500
O  5.08100 6.66700 23.69100
C  4.46100 8.24700 25.12000
N  8.40200 2.45800 25.15400
C  7.78600 3.19400 24.19200
C  7.97100 2.55600 22.80600
C  9.11400 1.58200 23.00700
C  9.24900 1.55100 24.56100
C  6.64600 1.95200 22.15000
C  10.34300 2.11000 22.31200
C  11.43500 1.07100 21.82100
N  9.40000 1.03100 27.43700
C  10.18900 0.33600 26.55000
C  11.04000 -0.63800 27.20200
C  10.83800 -0.33400 28.60300
C  9.81200 0.72800 28.67400
C  11.91400 -1.58900 26.60100
C  11.33800 -0.61800 29.88500
O  12.24300 -1.36600 30.22200
C  10.54400 0.28300 30.94100
C  9.60400 -0.46700 31.81400
O  8.82100 -1.31200 31.39700
O  9.89000 -0.22100 33.14800
C  9.38500 -1.22200 34.14100
H  5.90800 5.33400 30.09600
H  6.48000 4.71900 23.54600
H  10.51900 -0.13200 24.52100
H  8.10200 1.89600 32.44500
H  7.52800 4.70800 32.04200
H  5.34900 2.97000 31.43400
H  5.46900 4.21600 32.57300
H  6.12100 2.57800 32.96900
H  10.43100 3.83900 31.90000
H  10.28700 2.36200 32.96200
H  8.62000 4.12100 34.22200
H  9.62900 5.16600 33.26000
H  4.65700 6.92500 29.25300
H  3.54600 7.07100 27.93600
H  4.94800 8.14700 28.00800
H  5.11100 8.94900 25.64200
H  3.56700 8.11100 25.73000
H  4.18600 8.72500 24.18000
H  8.20900 3.32800 22.07500
H  8.95700 0.53600 22.74300
H  5.81400 2.18800 22.81500
H  6.59900 0.89800 21.87500
H  6.51500 2.53200 21.23700
H  10.82900 2.72400 23.07000
H  10.11200 2.69100 21.41900
H  10.93600 0.10300 21.78700
H  12.23800 0.98600 22.55400
H  11.90000 1.23800 20.84900
H  12.86800 -1.70400 27.11600
H  12.19800 -1.48600 25.55400
H  11.52800 -2.60400 26.50600
H  11.23700 0.76800 31.62800
H  8.98300 -0.58200 34.92600
H  10.26200 -1.75900 34.50300
H  8.60900 -1.83200 33.67900
Mg 47.06000 16.65900 28.21200
C  44.96500 16.22200 30.94200
C  49.09500 18.60500 30.32900
C  48.77200 17.66100 25.48500
C  44.61100 15.23000 26.22900
N  46.93200 17.44200 30.37100
C  46.09000 16.95800 31.27300
C  46.46600 17.41500 32.69400
C  47.66200 18.40700 32.43500
C  47.96600 18.18200 30.92800
C  47.64800 19.89300 32.81400
C  46.83800 16.21100 33.63900
C  46.22300 16.21700 34.92700
H  45.73800 17.60100 35.56800
N  48.79300 17.82400 27.99100
C  49.49000 18.51700 28.94600
C  50.58800 19.21000 28.30100
C  50.58200 18.83400 26.90100
C  49.35100 18.06400 26.76600
C  51.64200 19.88600 29.14500
C  51.59300 19.18200 25.82000
O  51.42900 18.89900 24.65600
C  52.90200 19.82700 26.14300
N  46.78200 16.43800 26.19000
C  47.60700 16.88500 25.23100
C  47.04600 16.70200 23.83500
C  45.85800 15.75700 24.12200
C  45.70800 15.76700 25.58400
C  46.52900 18.11100 23.26500
C  46.08100 14.31300 23.65200
C  44.86300 13.42700 23.35100
N  45.18100 15.76000 28.57600
C  44.30400 15.21600 27.63000
C  43.19600 14.59500 28.31300
C  43.43500 14.93000 29.69400
C  44.60900 15.76200 29.67800
C  42.07900 13.87300 27.75200
C  42.84600 14.92100 31.05300
O  41.81800 14.40600 31.45800
C  43.85800 15.81200 31.92800
C  43.06800 16.98600 32.43300
O  42.76800 17.94300 31.77300
O  42.67700 16.81100 33.74400
C  41.89200 17.89200 34.38700
H  49.70400 19.19600 31.01700
H  49.29200 17.92100 24.56000
H  43.79400 14.83500 25.62200
H  45.70900 18.07700 33.11500
H  48.57300 18.06000 32.92200
H  46.79300 20.31200 33.34500
H  47.82700 20.59400 31.99900
H  48.50200 19.95000 33.48900
H  47.90200 16.01600 33.78000
H  46.46800 15.32100 33.13000
H  46.91800 15.77000 35.63800
H  45.41100 15.49100 34.96700
H  52.67100 19.72800 28.82200
H  51.69600 19.60500 30.19700
H  51.47900 20.96400 29.15400
H  52.74100 20.76500 26.67400
H  53.37400 20.11000 25.20200
H  53.46800 19.08400 26.70600
H  47.80900 16.28300 23.17900
H  44.93800 16.10400 23.65100
H  46.33500 18.87400 24.01800
H  45.66500 17.84700 22.65400
H  47.29300 18.57800 22.64300
H  46.70900 13.77000 24.35900
H  46.69000 14.32200 22.74800
H  43.94800 13.74600 23.84800
H  45.15400 12.42400 23.66500
H  44.71400 13.39600 22.27100
H  41.50800 13.56000 28.62600
H  42.28700 13.08800 27.02400
H  41.39800 14.55500 27.24400
H  44.01900 15.20500 32.81900
H  42.24700 18.88500 34.11300
H  42.15200 17.75200 35.43700
H  40.80400 17.83800 34.35500

