158

Mg 23.84100 -6.57900 45.58100
C  26.38800 -4.53200 44.01500
C  21.63900 -4.97600 43.34400
C  21.59000 -8.81300 46.45400
C  26.28200 -8.20100 47.38200
N  24.10100 -4.99400 43.72900
C  25.16700 -4.29000 43.36900
C  24.86000 -3.35200 42.17400
C  23.31700 -3.23000 42.25300
C  22.95100 -4.45200 43.17400
C  22.71300 -1.93400 42.99000
C  25.51700 -3.96200 40.88000
C  26.45800 -2.97700 40.18400
H  26.10700 -2.75300 38.70700
N  21.87900 -6.81100 45.07800
C  21.16700 -6.08800 44.16100
C  19.78300 -6.59500 44.17100
C  19.72300 -7.71300 45.03700
C  21.11200 -7.84600 45.57400
C  18.80900 -5.96300 43.24900
C  18.53600 -8.56800 45.30600
O  17.47500 -8.40800 44.72300
C  18.53900 -9.64300 46.30300
N  23.94200 -8.35900 46.71800
C  22.85400 -9.09900 47.03100
C  23.26800 -10.31300 47.95300
C  24.70000 -9.97600 48.36500
C  25.00700 -8.79700 47.45000
C  22.26500 -10.63200 49.06200
C  25.70900 -11.20500 48.19700
C  26.70900 -11.48500 49.26600
N  25.91700 -6.43200 45.75800
C  26.75600 -7.11200 46.57700
C  28.12100 -6.53800 46.41400
C  28.03300 -5.55400 45.39100
C  26.60100 -5.50300 45.04600
C  29.30300 -7.03100 47.24600
C  28.74300 -4.61200 44.70300
O  29.93000 -4.27200 44.77700
C  27.79100 -3.99700 43.71000
C  27.92800 -2.46900 43.74400
O  28.62300 -1.78400 42.99700
O  27.27300 -1.94300 44.86800
C  27.44400 -0.46500 45.19900
H  20.88300 -4.38000 42.82900
H  20.92600 -9.65700 46.65000
H  27.06300 -8.58400 48.04100
H  25.18700 -2.35100 42.45600
H  22.94000 -3.32200 41.23400
H  23.52200 -1.36000 43.44300
H  21.99400 -2.09700 43.79300
H  22.25300 -1.30700 42.22600
H  24.75200 -4.16300 40.12900
H  25.99700 -4.91600 41.09500
H  27.48400 -3.34100 40.25000
H  26.39300 -1.99900 40.66000
H  18.62900 -6.35900 42.25000
H  19.04700 -4.90700 43.12400
H  17.85100 -6.02100 43.76700
H  18.92000 -9.29700 47.26400
H  19.09300 -10.48700 45.89200
H  17.55000 -10.02600 46.55200
H  23.34100 -11.14000 47.24700
H  24.73300 -9.61600 49.39300
H  22.69400 -10.45200 50.04700
H  22.09800 -11.70800 49.01600
H  21.32400 -10.08300 49.09400
H  26.17300 -11.19700 47.21100
H  25.06800 -12.07100 48.35900
H  27.71800 -11.68800 48.90600
H  26.39200 -12.34000 49.86300
H  26.71200 -10.67900 50.00000
H  29.12100 -7.62300 48.14300
H  29.86900 -6.13300 47.49400
H  29.97700 -7.52400 46.54600
H  28.04300 -4.24300 42.67800
H  27.82400 0.22200 44.44300
H  28.26600 -0.44600 45.91500
H  26.46900 -0.24700 45.63400
Mg 30.18700 58.00300 40.10000
C  27.28800 56.52300 39.24800
C  31.85900 55.11500 39.38400
C  33.07800 59.77800 40.35100
C  28.42200 61.06500 40.31800
N  29.63900 56.01100 39.21600
C  28.35000 55.65600 38.97600
C  28.28800 54.21000 38.57800
C  29.73200 53.65800 39.10000
C  30.48000 54.95600 39.24400
C  29.82600 52.76500 40.38400
C  27.96200 53.77100 37.12000
C  28.49700 54.62200 35.94900
H  27.79300 54.65800 34.59300
N  32.17200 57.50500 39.84800
C  32.65500 56.24200 39.62800
C  34.07200 56.28200 39.59400
C  34.49400 57.56000 40.00600
C  33.23600 58.39600 40.12200
C  34.86400 55.03600 39.31500
C  35.87900 57.89300 40.34600
O  36.78200 57.11900 40.07400
C  36.20900 59.22100 41.05000
N  30.67300 60.10800 40.37300
C  31.93700 60.56700 40.46600
C  32.02800 62.09700 40.49400
C  30.49700 62.45000 40.56400
C  29.79000 61.15700 40.28800
C  32.95600 62.77800 41.51600
C  30.10500 63.41900 39.44000
C  29.08700 64.51200 39.76500
N  28.15100 58.68600 39.94400
C  27.52400 59.90700 40.17800
C  26.14400 59.76300 39.86600
C  26.01100 58.42500 39.52400
C  27.24100 57.83100 39.66300
C  25.19100 60.93200 39.75600
C  24.99100 57.47000 39.06800
O  23.82100 57.56700 38.77700
C  25.80700 56.13400 38.93100
C  25.34600 55.14900 39.93400
O  25.82500 54.99700 41.06300
O  24.43900 54.28500 39.32700
C  24.00500 53.15100 40.21200
H  32.28800 54.11200 39.32500
H  34.06200 60.25000 40.38000
H  27.98200 62.06200 40.40100
H  27.52000 53.90200 39.28800
H  30.29200 53.16900 38.30200
H  28.77300 52.54900 40.56300
H  30.24800 53.34900 41.20200
H  30.34800 51.86200 40.07000
H  26.87300 53.71700 37.11700
H  28.28700 52.75000 36.92000
H  29.57600 54.48000 35.88700
H  28.38700 55.64300 36.31400
H  34.31100 54.23800 38.81900
H  35.18600 54.60300 40.26200
H  35.67400 55.17200 38.59900
H  36.19400 60.09600 40.40000
H  37.26600 59.16700 41.31000
H  35.62100 59.38900 41.95200
H  32.33800 62.36400 39.48400
H  30.03000 62.72900 41.50900
H  32.32300 63.41700 42.13100
H  33.69900 63.36000 40.97000
H  33.47000 62.11700 42.21300
H  29.72400 62.87500 38.57500
H  30.96500 64.02200 39.14900
H  29.56400 65.45400 39.49300
H  28.90500 64.57500 40.83800
H  28.19500 64.40000 39.14800
H  24.73200 61.13400 40.72300
H  24.38700 60.65400 39.07500
H  25.63100 61.79500 39.25600
H  25.74900 55.72700 37.92100
H  23.09000 53.44700 40.72600
H  24.75400 52.80400 40.92400
H  23.72100 52.31500 39.57200

