158

Mg 48.95500 35.36100 27.40800
C  46.87300 33.66700 29.87600
C  49.11100 38.02800 29.72800
C  50.26800 36.99000 24.98400
C  48.33300 32.51400 25.44400
N  48.09800 35.75400 29.61700
C  47.37000 34.92800 30.40700
C  47.22900 35.47000 31.87200
C  47.60300 36.97200 31.70700
C  48.37900 36.99000 30.31400
C  46.37800 37.84600 31.71900
C  48.29300 34.60000 32.73800
C  47.94900 34.54000 34.27800
H  47.25700 35.69600 34.99400
N  49.69400 37.17100 27.40900
C  49.68800 38.13600 28.40300
C  50.39000 39.29200 27.93700
C  50.77900 39.01800 26.59900
C  50.32500 37.63500 26.26400
C  50.52800 40.53900 28.73700
C  51.46400 39.97700 25.55900
O  51.64600 39.72300 24.38100
C  51.93900 41.37600 25.95000
N  49.05300 34.91900 25.42600
C  49.66700 35.78700 24.59900
C  49.93900 35.16000 23.26300
C  49.60800 33.65000 23.48400
C  48.96500 33.66000 24.87700
C  49.15300 35.75800 22.09000
C  50.81300 32.65500 23.36400
C  51.32800 32.19600 21.97500
N  47.83300 33.51300 27.55600
C  47.75300 32.49200 26.66900
C  46.91400 31.40900 27.18200
C  46.53500 31.86600 28.40100
C  47.09600 33.13700 28.62900
C  46.45400 30.12600 26.45200
C  45.61100 31.60900 29.58600
O  44.90100 30.68300 29.88800
C  45.81500 32.77700 30.45600
C  45.89000 32.38400 31.89600
O  46.82800 31.67200 32.33000
O  44.89700 32.89100 32.60200
C  44.86900 32.62300 34.03300
H  49.19200 38.95900 30.29500
H  50.48400 37.55700 24.07600
H  48.21100 31.68300 24.74600
H  46.27800 35.44500 32.40500
H  48.26800 37.19000 32.54200
H  46.51800 38.69700 31.05300
H  46.12500 38.20600 32.71600
H  45.46800 37.33800 31.40000
H  49.22100 35.17200 32.71800
H  48.33600 33.59100 32.32900
H  48.81000 34.32200 34.91100
H  47.44100 33.58300 34.39200
H  51.42100 40.74500 29.32700
H  49.73800 40.58700 29.48700
H  50.25600 41.33000 28.03900
H  51.12300 42.07500 26.13000
H  52.72500 41.70900 25.27100
H  52.43000 41.07800 26.87600
H  50.99100 35.26700 22.99700
H  48.81700 33.33900 22.80100
H  48.07700 35.82600 22.25000
H  49.38700 35.14900 21.21700
H  49.60200 36.74100 21.94700
H  50.51600 31.82100 24.00000
H  51.70300 32.94500 23.92300
H  52.28300 32.68300 21.78000
H  50.59700 32.41800 21.19700
H  51.58600 31.13800 21.92900
H  46.58300 29.19300 27.00100
H  46.99500 29.93200 25.52600
H  45.40800 30.37600 26.27700
H  44.94300 33.41900 30.33600
H  44.60700 33.60500 34.42800
H  45.81200 32.27800 34.45700
H  44.03100 31.99200 34.32900
Mg 30.57400 58.09500 40.44200
C  27.69800 56.30100 39.56700
C  32.55600 55.70500 39.17300
C  33.24200 60.23800 40.53700
C  28.43300 60.84100 41.24600
N  30.11700 56.29400 39.37400
C  28.89300 55.66200 39.21800
C  29.02400 54.19400 38.71300
C  30.57800 54.08600 38.75300
C  31.17300 55.46300 39.16400
C  31.02800 52.98700 39.71000
C  28.27400 53.80300 37.39800
C  29.05900 53.90500 36.06700
H  28.21800 54.11600 34.84900
N  32.66200 58.00000 40.07200
C  33.23900 56.88100 39.50500
C  34.68800 57.04800 39.51800
C  34.92500 58.35200 40.01100
C  33.54900 58.94700 40.21200
C  35.69600 55.97800 39.13900
C  36.30500 59.02600 40.33900
O  37.39100 58.38600 40.21300
C  36.49800 60.49400 40.70600
N  30.82100 60.18900 40.87400
C  32.04000 60.80900 40.94400
C  31.86800 62.29600 41.11500
C  30.35300 62.44800 41.51200
C  29.81600 61.07600 41.18700
C  32.81800 63.09300 42.08700
C  29.49600 63.73600 40.92600
C  28.75700 64.58000 42.01700
N  28.47400 58.52100 40.52000
C  27.70600 59.68100 40.85000
C  26.26800 59.34400 40.56600
C  26.27700 57.99100 40.29600
C  27.57400 57.59600 40.13300
C  25.08600 60.20900 40.72600
C  25.35600 56.86400 40.09500
O  24.14700 56.85100 40.21600
C  26.30400 55.76800 39.48400
C  26.11200 54.60800 40.36100
O  26.64000 54.42300 41.43500
O  25.23800 53.64500 39.79800
C  24.89700 52.41200 40.69200
H  33.27500 54.93300 38.89300
H  33.89700 61.10100 40.40100
H  27.82600 61.68000 41.59400
H  28.61200 53.50300 39.44900
H  30.99300 53.84700 37.77400
H  31.47700 53.33600 40.64000
H  31.76800 52.40500 39.16100
H  30.23500 52.25700 39.86700
H  27.36600 54.40000 37.32000
H  27.99100 52.77500 37.62100
H  29.65100 52.99800 35.94400
H  29.88600 54.59900 36.21700
H  36.48600 56.44200 38.54900
H  35.20600 55.34800 38.39700
H  36.02000 55.36000 39.97700
H  35.87200 60.69500 41.57500
H  36.21100 61.08100 39.83400
H  37.55800 60.69100 40.86600
H  31.94600 62.83400 40.17100
H  30.36000 62.32100 42.59400
H  32.30600 63.54400 42.93600
H  33.28000 63.79100 41.38800
H  33.59800 62.50200 42.56600
H  28.82900 63.38900 40.13600
H  30.21000 64.43000 40.48200
H  29.40100 65.45500 42.09900
H  28.68600 64.04700 42.96600
H  27.74700 64.85600 41.71300
H  25.13700 60.95400 41.52000
H  24.10900 59.73900 40.83500
H  25.11600 60.76500 39.78900
H  26.03500 55.70900 38.43000
H  25.54300 51.56800 40.45000
H  23.85000 52.11400 40.64900
H  24.98200 52.53700 41.77200

