158

Mg 26.22600 0.67700 28.76700
C  28.18300 0.35900 31.71000
C  23.56800 1.24800 30.98100
C  24.28500 0.93500 26.12100
C  29.01600 -0.24400 26.88000
N  25.93100 0.63600 31.05900
C  26.83100 0.60000 32.07900
C  26.29800 0.79900 33.48100
C  24.82000 0.90700 33.15100
C  24.75200 0.98900 31.64800
C  24.05900 -0.38900 33.70800
C  26.99600 2.01100 34.13800
C  26.25600 2.75500 35.25000
H  27.00400 2.93800 36.65100
N  24.22200 1.06100 28.57600
C  23.32200 1.23800 29.59800
C  21.98600 1.45700 29.01900
C  22.24100 1.30300 27.54400
C  23.63100 1.09500 27.37900
C  20.75700 1.74800 29.82300
C  21.15400 1.28500 26.47400
O  21.32400 0.95300 25.32100
C  19.77700 1.63400 26.86000
N  26.62100 0.20900 26.74600
C  25.62200 0.53200 25.75900
C  26.16800 0.28500 24.32500
C  27.65600 -0.19600 24.64300
C  27.81000 0.00300 26.24200
C  25.35600 -0.66700 23.36300
C  28.80600 0.51600 23.87900
C  29.70600 -0.41100 23.03200
N  28.16500 0.18700 29.14800
C  29.18700 -0.19200 28.26600
C  30.37900 -0.51800 29.05400
C  29.97700 -0.22700 30.40600
C  28.64400 0.15500 30.39800
C  31.80800 -0.98200 28.74400
C  30.48400 -0.32400 31.74400
O  31.54500 -0.65300 32.25200
C  29.29700 0.14400 32.64800
C  28.92700 -0.90600 33.55500
O  28.40100 -1.98400 33.25200
O  29.49300 -0.62900 34.76400
C  29.16900 -1.56300 35.87100
H  22.74900 1.43500 31.67900
H  23.72300 1.04000 25.19100
H  29.92000 -0.44000 26.29900
H  26.47800 -0.05300 34.13600
H  24.32800 1.72400 33.67900
H  24.72600 -1.20200 33.99600
H  23.58900 -0.88700 32.86000
H  23.38500 -0.13600 34.52600
H  27.17900 2.76100 33.36800
H  28.00400 1.74800 34.46000
H  25.38900 2.16300 35.54300
H  25.99200 3.76700 34.94400
H  21.00000 1.69100 30.88400
H  20.00500 0.97000 29.69200
H  20.35500 2.75200 29.68900
H  19.07000 1.34600 26.08200
H  19.66000 2.69800 27.06500
H  19.46100 1.02500 27.70700
H  26.33600 1.26300 23.87300
H  27.62700 -1.24000 24.33000
H  25.88900 -1.59500 23.15500
H  25.26000 -0.11400 22.42900
H  24.38700 -0.95600 23.76900
H  29.50200 0.92900 24.60900
H  28.37100 1.26400 23.21700
H  29.26400 -0.72400 22.08600
H  29.89200 -1.37600 23.50400
H  30.67400 0.01200 22.76200
H  32.33100 -0.20200 28.19100
H  31.80600 -1.85500 28.09100
H  32.46800 -1.33400 29.53800
H  29.67000 0.97800 33.24300
H  29.07600 -2.59300 35.52700
H  28.25700 -1.33400 36.42300
H  30.02900 -1.53500 36.53900
Mg 45.20100 3.38200 47.18600
C  42.83400 5.73300 46.60700
C  42.66300 0.93900 47.07100
C  47.54600 0.95100 47.02100
C  47.67500 5.86500 46.81300
N  43.02600 3.29700 46.63800
C  42.29900 4.44500 46.61700
C  40.79200 4.10000 46.37900
C  40.69400 2.65800 47.10100
C  42.19700 2.28400 47.03200
C  39.97000 2.69800 48.55400
C  40.44200 4.13600 44.83800
C  39.24800 4.92000 44.39700
H  39.43100 5.79300 43.18400
N  45.10900 1.25500 47.20800
C  44.00000 0.53200 47.10500
C  44.34600 -0.91800 47.13100
C  45.76400 -0.98300 47.14200
C  46.21100 0.43400 47.11600
C  43.27800 -1.99100 47.14300
C  46.66400 -2.30400 47.13600
O  46.06500 -3.37000 47.14700
C  48.08500 -2.14200 47.02500
N  47.21200 3.39000 46.77300
C  48.00300 2.26000 46.91600
C  49.55400 2.57800 46.90300
C  49.53200 4.11600 47.01400
C  48.08000 4.47900 46.75500
C  50.38800 1.80600 48.02000
C  50.55600 4.80700 46.04900
C  51.43800 5.87100 46.76100
N  45.28400 5.40900 46.76100
C  46.36500 6.31800 46.73300
C  45.76100 7.67100 46.61600
C  44.36300 7.45300 46.58400
C  44.16200 6.04600 46.63800
C  46.45000 9.01600 46.54600
C  43.13800 8.12400 46.43800
O  42.90800 9.32800 46.42500
C  42.08200 6.99200 46.56400
C  41.33100 7.13600 47.87700
O  41.77500 6.77900 48.98100
O  40.01100 7.38600 47.62200
C  39.07400 7.49900 48.71200
H  41.83000 0.23300 47.08300
H  48.40000 0.27100 47.03700
H  48.40500 6.67000 46.92100
H  40.20000 4.81600 46.94900
H  39.96400 2.12600 46.49100
H  39.21600 1.91800 48.66100
H  39.51700 3.66900 48.75100
H  40.77100 2.46000 49.25400
H  40.37900 3.09200 44.53100
H  41.26800 4.50800 44.23100
H  38.71600 5.32200 45.25900
H  38.42200 4.31700 44.01900
H  43.02400 -2.16100 46.09700
H  42.44300 -1.66000 47.75900
H  43.68400 -2.88600 47.61600
H  48.25700 -1.45600 46.19500
H  48.69000 -3.02900 46.83700
H  48.44400 -1.73300 47.96900
H  49.87900 2.27600 45.90700
H  49.76800 4.31600 48.06000
H  50.94100 0.99800 47.54100
H  49.80300 1.50300 48.88800
H  51.10400 2.55100 48.36800
H  49.99100 5.26800 45.23900
H  51.36600 4.18400 45.66900
H  51.39700 5.87700 47.85100
H  51.28600 6.91600 46.49100
H  52.47000 5.68100 46.46800
H  47.05500 9.10300 45.64300
H  47.09600 9.06800 47.42200
H  45.70900 9.81400 46.48500
H  41.32700 7.01400 45.77900
H  38.22800 8.14200 48.46700
H  39.52200 7.79800 49.66000
H  38.66000 6.49100 48.71200

