158

Mg -1.19700 17.36800 27.56400
C  -1.73500 15.14400 30.12300
C  -1.57500 19.90100 29.78500
C  -1.11500 19.53800 24.96500
C  -1.20400 14.68700 25.27600
N  -1.60500 17.43000 29.69800
C  -1.62300 16.43400 30.61400
C  -1.58400 16.92800 32.07200
C  -1.67700 18.48500 31.89500
C  -1.51800 18.63200 30.38700
C  -2.95400 19.19300 32.47800
C  -0.30300 16.50500 32.86300
C  -0.11500 17.27000 34.18700
H  0.41500 16.51400 35.46800
N  -1.25200 19.46700 27.39900
C  -1.43700 20.34000 28.43900
C  -1.34400 21.66300 27.91300
C  -1.08900 21.61300 26.57000
C  -1.09300 20.17900 26.19600
C  -1.44700 22.90000 28.86700
C  -0.81300 22.69700 25.47700
O  -0.59200 22.38100 24.29900
C  -0.73700 24.10800 25.80000
N  -0.98400 17.16700 25.49100
C  -1.09600 18.16100 24.62900
C  -1.13700 17.72200 23.16900
C  -1.11600 16.20500 23.23800
C  -1.14800 15.98700 24.77400
C  -2.37100 18.35200 22.35300
C  -0.03500 15.37500 22.51800
C  1.44500 15.67700 22.81400
N  -1.45100 15.31200 27.62100
C  -1.43200 14.35500 26.59900
C  -1.77400 13.06100 27.19900
C  -1.76700 13.35400 28.54700
C  -1.69700 14.73400 28.74100
C  -2.01300 11.75300 26.50800
C  -2.07300 12.71800 29.80900
O  -2.31300 11.55400 30.11300
C  -2.02600 13.80900 30.90000
C  -0.96500 13.40800 31.84400
O  0.26800 13.37400 31.62900
O  -1.48800 12.92900 33.04000
C  -0.44500 12.42200 33.97300
H  -1.69000 20.62800 30.59300
H  -0.96400 20.20600 24.11500
H  -1.17400 13.81100 24.62400
H  -2.46500 16.51200 32.56100
H  -0.86100 19.02400 32.37600
H  -2.69800 20.22300 32.72600
H  -3.28100 18.62200 33.34700
H  -3.78500 19.24000 31.77300
H  0.42300 16.70100 32.07400
H  -0.32800 15.45000 33.13500
H  -0.92200 17.94500 34.47200
H  0.72400 17.95100 34.03900
H  -0.41200 23.24000 28.85700
H  -1.76200 22.61800 29.87100
H  -2.10900 23.71700 28.57800
H  -1.63600 24.48900 26.28600
H  -0.61900 24.73500 24.91600
H  0.17500 24.34000 26.34900
H  -0.19900 18.06900 22.73500
H  -2.10400 15.79900 23.02500
H  -2.95200 18.86500 23.11900
H  -2.83200 17.54000 21.79000
H  -2.02600 19.18400 21.73900
H  -0.29600 15.37900 21.46000
H  -0.19000 14.34900 22.85300
H  1.78600 15.99700 21.82900
H  1.96000 14.76400 23.11400
H  1.66200 16.38700 23.61100
H  -2.32900 11.96800 25.48700
H  -2.72300 11.14300 27.06600
H  -1.07800 11.19500 26.46400
H  -3.05300 13.75300 31.26200
H  0.10800 11.58900 33.53800
H  -0.84900 12.13500 34.94400
H  0.16600 13.26700 34.28900
Mg 9.24200 49.05200 25.96400
C  7.18500 49.37100 28.83000
C  11.75000 50.40600 27.92900
C  11.21500 48.81900 23.31100
C  6.56000 48.00400 24.06500
N  9.43800 49.77700 28.08200
C  8.47900 49.74500 29.09800
C  9.07800 50.31500 30.43500
C  10.48100 50.84000 29.96700
C  10.55900 50.31900 28.56400
C  10.54500 52.35300 29.84300
C  9.07200 49.32200 31.63800
C  8.21800 49.81300 32.80200
H  8.68100 50.83900 33.92800
N  11.25000 49.51500 25.63400
C  12.11500 50.04500 26.56200
C  13.45400 49.99400 25.98600
C  13.35500 49.54600 24.65600
C  11.89300 49.32800 24.41100
C  14.70400 50.39600 26.69100
C  14.35500 49.34000 23.58000
O  14.11100 48.98400 22.38600
C  15.81500 49.46000 23.99900
N  8.87100 48.62400 23.97500
C  9.88500 48.59900 23.05800
C  9.46300 47.99200 21.69100
C  8.00700 47.45100 22.10400
C  7.75500 48.10800 23.45800
C  9.21900 49.05400 20.55500
C  7.95600 45.92600 21.93800
C  8.78600 45.19600 23.04800
N  7.25000 48.78800 26.33100
C  6.28700 48.36800 25.42100
C  5.06000 48.25000 26.17700
C  5.38400 48.59900 27.50600
C  6.72200 48.93900 27.56500
C  3.73300 47.77700 25.71900
C  4.78400 48.75200 28.86800
O  3.70500 48.54600 29.31500
C  5.93800 49.24600 29.71900
C  6.04300 48.30100 30.83900
O  6.67500 47.26100 30.88100
O  5.26500 48.71000 31.89700
C  4.97800 47.61700 32.85200
H  12.56100 50.75000 28.57500
H  11.88900 48.76600 22.45300
H  5.70900 47.57000 23.53600
H  8.37200 51.09700 30.71400
H  11.34800 50.39100 30.45100
H  10.12000 52.56200 28.86100
H  11.56900 52.72500 29.79400
H  10.02400 52.95200 30.58900
H  10.11700 49.35000 31.94300
H  8.83800 48.26100 31.54700
H  7.84300 48.95800 33.36400
H  7.37300 50.34400 32.36400
H  14.28900 50.93800 27.54000
H  15.34000 51.09200 26.14400
H  15.24700 49.49700 26.98300
H  16.05700 50.49200 24.25200
H  16.47900 49.08100 23.22100
H  15.89900 48.88700 24.92300
H  10.09200 47.14000 21.43500
H  7.35400 47.91800 21.36700
H  10.14600 49.60300 20.38600
H  8.49500 49.82800 20.81000
H  8.87800 48.57000 19.64000
H  8.35900 45.54500 20.99900
H  6.93600 45.60000 22.13900
H  9.09700 45.87600 23.84100
H  9.63100 44.71900 22.55200
H  8.25500 44.32900 23.44000
H  2.99700 48.54600 25.95500
H  3.49400 46.81400 26.17000
H  3.76700 47.72200 24.63100
H  5.59300 50.18900 30.14300
H  4.29300 47.95500 33.63000
H  5.86200 47.12400 33.25500
H  4.42500 46.87100 32.28100

