158

Mg 44.96600 3.09200 47.20900
C  42.99900 5.97000 46.77200
C  42.07800 1.14500 46.74300
C  46.99400 0.36900 46.61200
C  47.85000 5.18400 46.72500
N  42.80700 3.53800 46.80000
C  42.27400 4.76900 46.78900
C  40.74500 4.64000 46.39800
C  40.38500 3.09000 46.62400
C  41.83300 2.52200 46.79800
C  39.54000 2.97000 47.94500
C  40.40500 5.17400 44.94400
C  39.21200 6.20800 44.81400
H  38.29500 6.04200 43.68700
N  44.57500 1.08400 46.96500
C  43.34500 0.47200 46.89100
C  43.55300 -0.99600 46.83800
C  44.94800 -1.25200 46.81700
C  45.59700 0.09900 46.87400
C  42.34700 -1.93100 46.76500
C  45.59800 -2.63500 46.65900
O  44.92100 -3.65700 46.86100
C  46.90200 -2.81700 46.24100
N  47.10100 2.81900 46.72400
C  47.67000 1.59400 46.62100
C  49.22000 1.73600 46.38600
C  49.51200 3.25000 46.40200
C  48.06600 3.78800 46.63500
C  50.00000 0.90800 47.38900
C  50.13600 3.80500 45.08000
C  51.04100 4.94800 45.19200
N  45.45900 5.14500 47.04200
C  46.63600 5.86900 46.93500
C  46.35300 7.33700 46.82900
C  44.92000 7.40800 46.77700
C  44.42600 6.05400 46.88000
C  47.29800 8.41400 46.52400
C  43.70900 8.28100 46.60600
O  43.61500 9.49200 46.54500
C  42.46800 7.40500 46.52400
C  41.64300 7.90600 47.68700
O  41.75900 7.49600 48.79500
O  40.84500 8.99600 47.22500
C  40.15600 9.74400 48.33100
H  41.19000 0.52200 46.61700
H  47.74800 -0.39100 46.40000
H  48.77100 5.71100 46.46700
H  40.08700 5.25800 47.00900
H  39.93900 2.66500 45.72600
H  40.15700 2.53200 48.73100
H  38.69200 2.36900 47.61800
H  39.24300 3.95400 48.30900
H  40.10500 4.32600 44.32900
H  41.31900 5.66700 44.61100
H  39.54300 7.24200 44.71800
H  38.63500 6.19200 45.73900
H  42.63100 -2.70600 46.05300
H  41.39300 -1.54700 46.40300
H  42.24400 -2.41700 47.73500
H  47.11600 -2.24500 45.33900
H  47.12500 -3.84400 45.95200
H  47.60500 -2.55700 47.03200
H  49.25400 1.35400 45.36600
H  50.14600 3.47100 47.26100
H  49.35500 0.25500 47.97700
H  50.61800 1.49500 48.06800
H  50.59400 0.15400 46.87200
H  49.36600 4.00200 44.33400
H  50.61200 2.92300 44.65100
H  50.92200 5.37900 46.18600
H  50.62100 5.79600 44.65000
H  52.04500 4.66700 44.87300
H  48.10900 8.48800 47.24900
H  46.73700 9.34800 46.54900
H  47.69100 8.32500 45.51200
H  41.97200 7.45900 45.55400
H  39.24700 9.22500 48.63500
H  39.86500 10.74000 47.99700
H  40.74400 9.84600 49.24300
Mg 46.91200 44.83700 42.80200
C  43.84300 43.39500 42.36500
C  48.40000 41.89600 41.67400
C  49.81500 46.55800 42.20400
C  45.25000 48.04700 43.28900
N  46.19900 42.87100 41.95900
C  44.91100 42.47400 42.09300
C  44.76800 40.90200 41.94200
C  46.26300 40.46700 41.85500
C  47.01800 41.83300 41.81900
C  46.82800 39.74700 43.07400
C  43.97500 40.43400 40.67200
C  44.07500 41.32900 39.43300
H  44.07900 40.75500 38.02100
N  48.82800 44.30000 42.14100
C  49.22200 42.99800 41.81300
C  50.63500 43.02200 41.41500
C  51.04300 44.38300 41.49300
C  49.88200 45.17300 41.92000
C  51.43200 41.75600 40.93500
C  52.32000 44.85900 40.98400
O  53.14200 44.07000 40.50100
C  52.77000 46.32400 41.00700
N  47.44500 47.03000 42.72000
C  48.74100 47.36100 42.60800
C  48.95300 48.84400 42.99100
C  47.52300 49.22800 43.55800
C  46.67000 48.04600 43.15000
C  49.97700 49.25100 43.89100
C  46.86100 50.53000 42.97400
C  46.58100 51.74000 43.87300
N  44.98800 45.58800 42.96500
C  44.46600 46.87100 43.18500
C  43.03000 46.74400 43.26300
C  42.71600 45.37100 42.96100
C  43.95000 44.75600 42.70500
C  42.20100 47.96100 43.68600
C  41.68500 44.43000 42.86900
O  40.46400 44.54000 43.08700
C  42.34400 43.08600 42.52400
C  42.06700 42.11600 43.61800
O  42.20300 42.27000 44.81500
O  41.57900 40.95200 43.13900
C  40.93700 39.95000 44.03500
H  48.82900 40.90700 41.50400
H  50.79200 47.04400 42.24900
H  44.75200 48.94300 43.66500
H  44.23100 40.52200 42.81100
H  46.32500 39.83700 40.96800
H  45.98800 39.15500 43.43900
H  46.94100 40.40300 43.93700
H  47.72400 39.21000 42.76400
H  42.98000 40.22400 41.06400
H  44.34300 39.45100 40.37500
H  44.96000 41.96000 39.52600
H  43.24700 42.03800 39.45200
H  52.06600 41.97400 40.07600
H  50.69800 41.01600 40.61700
H  52.15300 41.39700 41.67000
H  51.94800 46.91200 40.59700
H  53.54200 46.44000 40.24600
H  53.15100 46.66800 41.96800
H  49.06900 49.38500 42.05200
H  47.54300 49.31500 44.64500
H  49.65700 49.74600 44.80800
H  50.59600 49.93200 43.30700
H  50.43600 48.33100 44.25200
H  45.97400 50.43400 42.34800
H  47.56600 50.88400 42.22100
H  47.27000 52.55900 43.66800
H  46.70200 51.46800 44.92100
H  45.59300 52.15500 43.67200
H  42.53300 48.07900 44.71700
H  41.11500 47.87300 43.67700
H  42.59600 48.75200 43.04900
H  41.85600 42.78500 41.59800
H  41.44000 39.81000 44.99200
H  40.89600 39.01600 43.47500
H  39.89600 40.24100 44.17400

