158

Mg 25.24100 1.23700 30.01400
C  27.26600 1.17400 32.76400
C  22.54800 1.53800 31.99400
C  23.44700 1.19400 27.16700
C  28.11100 0.51900 28.09300
N  24.96500 1.32800 32.18200
C  25.90400 1.45000 33.12400
C  25.33500 1.60900 34.54700
C  23.74500 1.64600 34.29600
C  23.72100 1.39700 32.76900
C  22.86900 0.60700 35.13300
C  25.91200 2.79600 35.39000
C  26.42400 2.53200 36.83000
H  26.10600 3.46400 37.98500
N  23.21600 1.18200 29.59300
C  22.27300 1.38900 30.56900
C  20.97800 1.49900 29.87300
C  21.22400 1.46100 28.50000
C  22.67100 1.21500 28.34900
C  19.67300 1.66800 30.65000
C  20.17300 1.51500 27.32200
O  20.46200 1.44100 26.10000
C  18.63200 1.55100 27.67500
N  25.71000 0.79400 27.87700
C  24.76200 0.97500 26.92400
C  25.37000 1.06100 25.52200
C  26.93100 0.79200 25.82400
C  26.91100 0.63800 27.34000
C  24.74000 0.11100 24.45200
C  27.95300 1.84400 25.20300
C  27.86500 3.22400 25.88800
N  27.22100 0.82100 30.34000
C  28.25300 0.56500 29.47900
C  29.49800 0.30400 30.22000
C  29.14400 0.54800 31.49500
C  27.76400 0.90400 31.52300
C  30.89100 -0.07400 29.63000
C  29.69200 0.63700 32.85600
O  30.77100 0.53800 33.33000
C  28.39600 0.99000 33.76900
C  28.18000 -0.10600 34.76200
O  27.58000 -1.14100 34.52100
O  28.61700 0.31300 36.00700
C  28.50200 -0.66800 37.09700
H  21.66300 1.58000 32.63200
H  22.80500 1.28900 26.28900
H  29.02200 0.31500 27.52600
H  25.61300 0.73500 35.13600
H  23.27900 2.62600 34.40400
H  22.38200 1.18500 35.91900
H  23.58300 -0.13500 35.49100
H  22.24900 0.06200 34.42200
H  25.15600 3.57900 35.44200
H  26.76200 3.17800 34.82400
H  27.50600 2.44000 36.93000
H  26.14100 1.50400 37.05400
H  19.76600 1.79800 31.72800
H  19.11600 0.73000 30.64600
H  19.09000 2.55200 30.39200
H  18.33000 0.63500 28.18400
H  18.14700 1.59500 26.70000
H  18.36000 2.47400 28.18600
H  25.26700 2.11000 25.24700
H  27.21900 -0.21100 25.50900
H  24.13700 0.65400 23.72400
H  24.05400 -0.59900 24.91300
H  25.53900 -0.31100 23.84300
H  27.74200 1.99600 24.14500
H  28.92100 1.38700 25.41300
H  27.73400 3.05300 26.95700
H  27.07900 3.84000 25.45100
H  28.87700 3.60100 25.74600
H  30.76600 -0.47900 28.62600
H  31.30400 -0.83000 30.29700
H  31.49100 0.83700 29.63900
H  28.59400 1.88400 34.36100
H  28.98100 -1.59500 36.78100
H  27.46700 -0.82200 37.40300
H  29.01700 -0.34000 38.00000
Mg 48.17300 16.72500 28.92000
C  46.23100 16.39900 31.93400
C  50.29000 18.52800 30.63800
C  49.48500 17.48700 26.08500
C  45.41400 15.27300 27.19800
N  48.24200 17.38900 31.00700
C  47.45400 17.03500 32.07700
C  48.01200 17.56000 33.44800
C  49.11300 18.56700 32.84900
C  49.19800 18.16700 31.40000
C  48.83600 20.07200 32.97600
C  48.62700 16.47300 34.38000
C  48.16200 16.48600 35.89800
H  47.76000 17.84700 36.54200
N  49.73900 17.71800 28.44600
C  50.59400 18.32000 29.29500
C  51.77200 18.75900 28.63300
C  51.56900 18.49900 27.30000
C  50.22200 17.86300 27.22600
C  53.07400 19.11400 29.35400
C  52.49900 18.84100 26.12400
O  52.25400 18.51400 25.00800
C  53.81700 19.44600 26.26400
N  47.48200 16.53700 26.90400
C  48.27500 16.86100 25.86500
C  47.72600 16.46800 24.46000
C  46.47500 15.60800 24.92200
C  46.46800 15.80300 26.42900
C  47.34900 17.62900 23.70000
C  46.47200 14.10500 24.51500
C  45.85800 13.66600 23.13200
N  46.20200 15.91500 29.41900
C  45.20700 15.42300 28.56800
C  44.08300 15.01300 29.42700
C  44.46800 15.29400 30.70400
C  45.73100 15.82300 30.68800
C  42.70900 14.53400 28.97600
C  44.05100 15.27100 32.12600
O  43.03700 14.88400 32.64300
C  45.14600 15.97100 32.92300
C  44.49100 17.04500 33.69300
O  44.24200 18.11200 33.19000
O  44.01000 16.56600 34.95600
C  43.16200 17.53600 35.73800
H  51.00700 19.12500 31.20600
H  50.04200 17.73100 25.17700
H  44.56500 14.72000 26.79000
H  47.22700 18.16400 33.90200
H  50.09100 18.50700 33.32600
H  49.59200 20.58800 33.56900
H  47.87800 20.20900 33.47700
H  48.85700 20.46500 31.96000
H  49.71200 16.57500 34.35700
H  48.38300 15.52200 33.90700
H  48.91500 16.02300 36.53700
H  47.27400 15.85800 35.96800
H  53.87200 18.43200 29.06000
H  52.98800 19.01900 30.43600
H  53.37700 20.14100 29.14500
H  53.71700 20.25500 26.98700
H  54.20000 19.67100 25.26800
H  54.61400 18.77600 26.58700
H  48.60800 15.97300 24.05400
H  45.56000 16.06700 24.54800
H  46.34100 17.56900 23.29100
H  48.03600 17.67800 22.85400
H  47.47900 18.55300 24.26400
H  46.16900 13.59500 25.42900
H  47.54500 13.94400 24.41800
H  46.50700 13.08300 22.47900
H  45.35100 14.51000 22.66600
H  45.06400 12.93400 23.28000
H  42.25700 15.21100 28.25100
H  42.06500 14.40700 29.84700
H  42.75400 13.54000 28.53200
H  45.81600 15.34300 33.51100
H  42.12400 17.37400 35.44600
H  43.45700 18.56900 35.55500
H  43.14700 17.28500 36.79900

