158

Mg 8.62500 3.10000 27.36400
C  9.63700 1.61900 30.31200
C  6.53400 5.11400 29.31900
C  7.34700 4.27300 24.58900
C  10.12400 0.50100 25.57200
N  8.11500 3.28000 29.61900
C  8.79900 2.67400 30.58000
C  8.40600 3.23200 31.98600
C  7.33400 4.39800 31.65900
C  7.27400 4.23500 30.12600
C  6.09200 4.35500 32.46800
C  9.59700 3.80900 32.84000
C  9.98300 3.18200 34.15200
H  10.13800 4.09300 35.36800
N  7.22600 4.53600 27.01900
C  6.42900 5.27400 27.90700
C  5.72300 6.23400 27.21600
C  5.98600 6.03400 25.83300
C  6.90300 4.93300 25.73500
C  4.91700 7.26900 27.94200
C  5.54500 6.81800 24.61100
O  5.75300 6.57700 23.41500
C  4.57400 7.94400 24.86100
N  8.58800 2.37500 25.39900
C  8.08600 3.12000 24.43600
C  8.12200 2.42800 23.11500
C  9.35700 1.56600 23.34100
C  9.35400 1.43900 24.85300
C  6.80500 1.61100 22.85600
C  10.72700 2.03400 22.82600
C  11.61900 0.92000 22.23000
N  9.66000 1.34800 27.74600
C  10.24800 0.44300 26.92300
C  11.02400 -0.44900 27.75000
C  10.90900 0.00000 29.07400
C  9.99700 1.10300 29.05500
C  11.85400 -1.50300 27.23500
C  11.30100 -0.26900 30.46300
O  12.06600 -1.11800 30.92500
C  10.40600 0.71000 31.30700
C  9.53200 0.06400 32.23100
O  8.45100 -0.41300 31.98900
O  10.17300 -0.18700 33.48100
C  9.41700 -0.89200 34.53700
H  6.06200 5.90400 29.90700
H  7.10500 4.77400 23.64900
H  10.67100 -0.22800 24.97000
H  7.84400 2.43200 32.46800
H  7.81500 5.37600 31.67600
H  5.95000 3.46200 33.07600
H  5.19300 4.40300 31.85400
H  6.05100 5.29800 33.01300
H  9.38400 4.85900 33.04100
H  10.54500 3.83800 32.30400
H  10.97600 2.73500 34.11800
H  9.20400 2.46400 34.41000
H  5.36700 8.20500 27.61100
H  4.98700 7.30100 29.02900
H  3.86700 7.30200 27.65100
H  3.68400 7.54800 25.35000
H  4.21200 8.34200 23.91300
H  5.21100 8.59100 25.46500
H  8.24600 3.14000 22.29900
H  9.15700 0.59600 22.88400
H  6.17400 1.84500 23.71300
H  7.09700 0.56900 22.73000
H  6.32400 2.01700 21.96500
H  11.14600 2.50800 23.71400
H  10.63700 2.87400 22.13600
H  12.46800 0.79900 22.90300
H  11.93200 1.30400 21.25900
H  11.00100 0.04300 22.03900
H  11.25800 -2.29900 26.78800
H  12.55300 -1.83400 28.00300
H  12.46500 -1.05500 26.45100
H  11.04900 1.43200 31.81000
H  8.71100 -1.57200 34.05900
H  8.82400 -0.19300 35.12700
H  10.02100 -1.53400 35.17800
Mg 29.88200 58.02900 40.98300
C  27.00600 56.28300 40.08300
C  31.72400 55.68700 39.42500
C  32.49600 60.22300 41.21700
C  27.70300 60.74200 41.94300
N  29.34200 56.26800 39.85100
C  28.17300 55.63800 39.65500
C  28.25400 54.37600 38.69400
C  29.79600 54.08000 38.90400
C  30.33800 55.44100 39.36200
C  30.17900 52.88600 39.75900
C  27.84100 54.77300 37.24000
C  26.95100 53.67400 36.69200
H  26.96900 53.49300 35.12300
N  31.92200 57.86600 40.64300
C  32.44100 56.83200 39.92400
C  33.79500 57.13100 39.69200
C  34.04200 58.40200 40.18600
C  32.76800 58.90700 40.73300
C  34.75800 56.27800 38.88100
C  35.46300 58.98600 40.15200
O  36.41300 58.37300 39.69400
C  35.90800 60.19100 40.92600
N  30.11700 60.16900 41.53300
C  31.28600 60.80900 41.53200
C  31.12500 62.31400 42.02300
C  29.65700 62.38100 42.50400
C  29.12300 61.05700 41.97500
C  32.19500 62.69500 43.03300
C  28.95500 63.70300 42.09800
C  27.89300 64.17100 43.13000
N  27.84400 58.46700 41.14900
C  27.11200 59.54900 41.64200
C  25.69300 59.25400 41.57200
C  25.64000 57.99400 40.97500
C  26.95500 57.54500 40.75600
C  24.51800 60.11500 42.02700
C  24.70500 57.11400 40.39400
O  23.53800 57.29800 40.16800
C  25.51900 55.80400 39.96600
C  25.11700 54.64700 40.78800
O  25.71300 54.22300 41.73700
O  23.97100 54.12600 40.23800
C  23.57500 52.82000 40.63100
H  32.26500 54.82700 39.02600
H  33.41800 60.80300 41.29600
H  27.15300 61.62800 42.26500
H  27.50400 53.63300 38.96500
H  30.21500 54.01400 37.90000
H  29.33000 52.21700 39.61400
H  30.48300 53.10600 40.78300
H  31.00000 52.34000 39.29400
H  28.71200 54.87200 36.59100
H  27.30900 55.72400 37.26000
H  25.94400 53.66800 37.10800
H  27.42400 52.77600 37.09000
H  34.24500 55.51800 38.29100
H  35.46400 55.70600 39.48300
H  35.19800 56.96600 38.16000
H  35.48000 60.22600 41.92800
H  35.68900 61.11300 40.38700
H  36.93500 60.06500 41.27100
H  31.14400 62.91900 41.11600
H  29.64000 62.23500 43.58400
H  31.97300 63.53700 43.68800
H  33.22100 62.86800 42.70700
H  32.38500 61.84000 43.68100
H  28.51100 63.72100 41.10300
H  29.74700 64.44500 42.20000
H  28.32400 64.96200 43.74400
H  27.60800 63.29900 43.71900
H  27.05300 64.61500 42.59600
H  24.64500 61.17800 41.82400
H  24.32400 60.19500 43.09600
H  23.61800 59.70400 41.56900
H  25.30200 55.48300 38.94700
H  24.48700 52.23100 40.73700
H  22.83100 52.32400 40.00800
H  23.19000 52.84000 41.65000

