158

Mg 2.22100 -0.77200 44.32100
C  5.41900 0.31300 43.54100
C  0.88900 1.90400 42.65300
C  -0.74600 -2.45400 44.05400
C  3.64700 -3.84400 45.43500
N  3.09400 0.96600 43.32400
C  4.38700 1.14300 42.99500
C  4.61900 2.42500 42.21900
C  3.19800 3.00600 42.09400
C  2.31800 1.90000 42.67100
C  3.05600 4.46800 42.63600
C  5.41700 2.32200 40.83900
C  5.88000 3.66700 40.30100
H  5.45800 4.04400 38.87800
N  0.26700 -0.25700 43.63400
C  -0.02300 0.94800 43.09300
C  -1.46800 0.95200 42.84100
C  -1.96900 -0.38400 43.14900
C  -0.79400 -1.13400 43.56500
C  -2.11200 2.00700 42.05400
C  -3.47900 -0.90100 43.02100
O  -4.37500 -0.05500 42.90800
C  -4.02200 -2.33600 43.20000
N  1.65600 -2.93300 44.52700
C  0.30500 -3.20100 44.57400
C  0.07100 -4.73500 45.04000
C  1.49000 -5.10300 45.57400
C  2.32800 -3.90900 45.15800
C  -1.08100 -4.91400 46.05400
C  1.94200 -6.51000 45.16000
C  1.23800 -7.70300 45.76500
N  4.14100 -1.58600 44.67200
C  4.57900 -2.75800 45.13200
C  6.00300 -2.77000 45.29900
C  6.41600 -1.55900 44.72100
C  5.27400 -0.87800 44.28300
C  6.80000 -3.91400 45.95200
C  7.52900 -0.75900 44.38400
O  8.73000 -0.94100 44.62700
C  6.93100 0.54400 43.65500
C  7.21700 1.73800 44.60800
O  7.02400 1.81400 45.79300
O  7.75500 2.77900 43.86800
C  8.28400 3.92700 44.64600
H  0.50700 2.80600 42.16900
H  -1.67500 -3.01800 43.94500
H  4.17300 -4.65500 45.94300
H  5.27900 3.11200 42.74800
H  3.10100 3.13000 41.01500
H  3.10400 5.22000 41.84900
H  3.76100 4.81500 43.39100
H  2.04600 4.65400 43.00100
H  4.77300 1.81800 40.11800
H  6.33800 1.74400 40.92400
H  6.96900 3.68700 40.25100
H  5.53300 4.53800 40.85700
H  -2.16700 1.69400 41.01100
H  -1.60800 2.96000 42.21000
H  -3.14300 2.07200 42.40100
H  -5.08700 -2.37600 42.97200
H  -3.88000 -2.73100 44.20600
H  -3.50600 -2.93500 42.44900
H  -0.12300 -5.22400 44.08500
H  1.55800 -5.03200 46.66000
H  -1.88200 -5.43500 45.53000
H  -1.54400 -3.95800 46.29700
H  -0.82100 -5.40200 46.99400
H  3.01700 -6.63600 45.29100
H  1.77700 -6.62100 44.08800
H  1.85500 -8.49600 46.18800
H  0.82200 -8.18100 44.87800
H  0.53300 -7.44200 46.55400
H  6.46400 -4.15200 46.96100
H  7.82600 -3.54700 45.90300
H  6.79400 -4.79700 45.31300
H  7.54600 0.77000 42.78400
H  9.11000 4.40500 44.12100
H  8.73800 3.60200 45.58200
H  7.44600 4.55700 44.94300
Mg -1.70700 35.58200 26.49100
C  -3.43900 33.72400 28.86900
C  -0.80700 37.78500 28.95700
C  0.16600 37.22400 24.08700
C  -2.90400 33.48900 24.07700
N  -2.16900 35.75700 28.63200
C  -2.83300 34.82900 29.44500
C  -2.71000 35.20700 30.93100
C  -2.07100 36.65700 30.89100
C  -1.64100 36.74000 29.41100
C  -3.07000 37.77200 31.22700
C  -1.99300 34.18700 31.85900
C  -2.88700 33.40900 32.89100
H  -2.32200 33.18600 34.36100
N  -0.55000 37.22100 26.56900
C  -0.31500 38.03000 27.63300
C  0.53600 39.11300 27.21300
C  0.90200 38.92400 25.83300
C  0.17300 37.71900 25.43500
C  0.93100 40.20800 28.17500
C  1.89500 39.67500 24.94700
O  2.13800 39.39300 23.79400
C  2.58900 40.84600 25.56400
N  -1.22500 35.28400 24.39600
C  -0.57700 36.12200 23.59100
C  -0.68300 35.73900 22.13400
C  -1.48500 34.42500 22.15900
C  -1.89200 34.39500 23.62400
C  -1.20100 36.81900 21.24200
C  -0.66600 33.12200 21.76000
C  -1.48500 31.99400 21.12500
N  -2.98000 34.02700 26.44100
C  -3.40700 33.30100 25.37200
C  -4.35300 32.30100 25.82300
C  -4.36300 32.48800 27.17300
C  -3.53800 33.48300 27.53700
C  -5.10300 31.42000 24.98900
C  -4.87600 31.97100 28.34900
O  -5.72600 31.13600 28.55600
C  -4.23200 32.75600 29.60700
C  -5.44400 33.18600 30.33500
O  -6.12600 34.17400 30.07000
O  -5.65700 32.36100 31.36200
C  -6.83800 32.62400 32.22900
H  -0.51900 38.50800 29.72400
H  0.67300 37.82900 23.33100
H  -3.33700 32.92400 23.24800
H  -3.68400 35.28800 31.41300
H  -1.18100 36.65600 31.51900
H  -4.05500 37.42500 30.91600
H  -2.73200 38.73500 30.84400
H  -3.17200 37.99700 32.28900
H  -1.33300 34.72200 32.54100
H  -1.57200 33.34900 31.30300
H  -2.98200 32.37100 32.57300
H  -3.89000 33.83600 32.89400
H  1.93400 40.04700 28.57100
H  0.19800 40.21900 28.98100
H  0.77700 41.21600 27.79000
H  3.18900 41.42800 24.86400
H  3.26800 40.55000 26.36300
H  1.82900 41.53100 25.94100
H  0.34600 35.42300 21.96700
H  -2.36400 34.60700 21.54000
H  -1.90300 37.47200 21.76100
H  -1.89400 36.40500 20.50900
H  -0.38900 37.36000 20.75700
H  -0.27800 32.82100 22.73300
H  0.15900 33.47600 21.14200
H  -1.85900 31.28500 21.86400
H  -0.82800 31.37900 20.51000
H  -2.21000 32.27300 20.36100
H  -4.69200 31.44900 23.98000
H  -6.17500 31.60600 25.05900
H  -4.97600 30.38600 25.31000
H  -3.63600 32.13300 30.27400
H  -6.62500 33.35800 33.00700
H  -7.22700 31.70700 32.67000
H  -7.52900 32.99700 31.47300

