158

Mg 43.15400 41.31100 25.87700
C  41.97500 43.49400 28.38600
C  44.07600 39.02300 28.17200
C  43.82100 39.19300 23.31000
C  42.24600 43.71500 23.49100
N  42.89000 41.26000 28.04900
C  42.47000 42.26600 28.87500
C  42.58000 41.82900 30.35300
C  43.29600 40.42700 30.19400
C  43.44900 40.26200 28.73600
C  44.62300 40.24200 30.99600
C  41.19100 41.82800 31.02900
C  41.12200 42.50600 32.35300
H  40.36000 41.99000 33.54600
N  43.92100 39.41400 25.74000
C  44.21900 38.63000 26.78100
C  44.75500 37.37600 26.29400
C  44.69600 37.44500 24.86000
C  44.11200 38.69600 24.57900
C  45.39600 36.15500 27.04500
C  45.18100 36.44200 23.72600
O  44.86000 36.48000 22.54000
C  45.97000 35.27800 24.15300
N  43.26200 41.52900 23.64700
C  43.43900 40.46300 22.85800
C  43.06600 40.70900 21.41400
C  42.45500 42.14800 21.51700
C  42.56200 42.49100 22.94200
C  44.33600 40.53700 20.45400
C  41.06500 42.23600 20.89600
C  40.85100 43.44600 20.03500
N  42.40700 43.24200 25.87100
C  42.24000 44.14300 24.86500
C  41.72900 45.44700 25.36500
C  41.63900 45.19100 26.76000
C  42.04800 43.83800 27.06400
C  41.35100 46.58100 24.50100
C  41.29500 45.80700 28.00700
O  40.85300 46.92600 28.25600
C  41.57100 44.70700 29.16500
C  42.66600 45.19100 30.06500
O  43.81700 45.32800 29.68700
O  42.18000 45.61000 31.25900
C  43.16700 46.16400 32.15000
H  44.25700 38.19700 28.86400
H  43.89300 38.52800 22.44600
H  41.88700 44.37800 22.70100
H  43.28400 42.48200 30.87000
H  42.63000 39.60700 30.46200
H  45.52100 40.46000 30.41800
H  44.69400 39.29700 31.53400
H  44.66500 41.02400 31.75500
H  40.88800 40.78200 31.08500
H  40.46800 42.38100 30.42900
H  40.73700 43.49500 32.10200
H  42.12800 42.66200 32.74000
H  44.88900 35.26000 26.68400
H  45.19700 36.17400 28.11600
H  46.44600 36.20500 26.75800
H  46.66900 35.90400 24.70700
H  46.55900 34.90300 23.31600
H  45.41300 34.56100 24.75700
H  42.32800 39.92000 21.26900
H  43.05500 42.78700 20.87000
H  45.19900 40.13500 20.98500
H  44.54400 41.47800 19.94400
H  44.07900 39.84100 19.65500
H  40.36500 42.18500 21.73100
H  40.96900 41.27400 20.39400
H  41.07400 43.10800 19.02300
H  41.60800 44.21000 20.21300
H  39.87800 43.86800 20.28500
H  42.10500 46.86700 23.76800
H  41.29100 47.44300 25.16500
H  40.36400 46.42800 24.06400
H  40.63700 44.54500 29.70400
H  43.85500 46.76500 31.55500
H  43.85500 45.48700 32.65700
H  42.67100 46.81600 32.87000
Mg -5.79800 25.40400 26.14800
C  -4.40300 26.73700 29.12100
C  -7.45000 23.08200 27.93100
C  -6.32000 23.85100 23.27800
C  -3.42600 27.49700 24.34200
N  -5.74100 24.93500 28.21200
C  -5.33600 25.66800 29.24300
C  -5.89300 25.13800 30.56800
C  -6.63900 23.88600 30.22600
C  -6.64900 23.95100 28.71200
C  -5.89700 22.57600 30.68500
C  -6.73200 26.24800 31.29300
C  -6.38600 26.39800 32.82100
H  -5.68500 25.26400 33.52700
N  -6.93500 23.79100 25.63100
C  -7.57400 22.99200 26.52600
C  -8.36600 22.09900 25.78000
C  -8.13900 22.32300 24.39400
C  -7.12400 23.39300 24.36000
C  -9.28400 21.02800 26.41100
C  -8.78700 21.70500 23.21700
O  -8.59000 22.09600 22.06500
C  -9.60200 20.39600 23.32000
N  -4.87400 25.57700 24.08000
C  -5.32800 24.78800 23.12700
C  -4.63800 25.06700 21.73200
C  -3.88800 26.38400 22.02100
C  -4.04200 26.47800 23.54200
C  -3.85400 23.80300 21.23400
C  -4.52200 27.60700 21.35900
C  -3.95700 27.95000 19.96100
N  -4.36100 26.94100 26.60000
C  -3.43700 27.63700 25.75700
C  -2.58600 28.47700 26.57000
C  -2.95900 28.15300 27.85100
C  -3.97700 27.23500 27.85600
C  -1.69400 29.45400 26.03500
C  -2.65700 28.42300 29.33600
O  -1.84500 29.19100 29.84000
C  -3.62000 27.41900 30.19700
C  -2.70700 26.57400 30.89000
O  -2.10100 25.56500 30.51100
O  -2.51800 27.20900 32.13800
C  -1.47300 26.63900 32.97200
H  -8.13100 22.49800 28.55300
H  -6.44500 23.21100 22.40200
H  -2.68200 28.12100 23.84200
H  -5.04600 24.69700 31.09300
H  -7.66600 23.79900 30.58200
H  -5.34100 22.62400 31.62200
H  -5.08400 22.22700 30.04900
H  -6.63500 21.77400 30.68300
H  -7.76900 25.91300 31.29900
H  -6.64100 27.21000 30.78800
H  -7.35300 26.53100 33.30500
H  -5.74300 27.23700 33.08700
H  -10.25400 21.05700 25.91500
H  -9.49500 21.21800 27.46300
H  -8.84500 20.03100 26.41100
H  -9.09200 19.76900 24.05200
H  -9.72800 19.82100 22.40300
H  -10.60600 20.72400 23.59000
H  -5.44600 25.22300 21.01700
H  -2.86400 26.24200 21.67700
H  -2.77900 23.98200 21.20800
H  -4.23900 23.55800 20.24400
H  -4.07700 22.94300 21.86500
H  -4.35100 28.47000 22.00300
H  -5.56100 27.50100 21.04700
H  -3.51200 27.09200 19.45600
H  -3.20500 28.69800 20.21400
H  -4.69500 28.48400 19.36200
H  -0.69800 29.45100 26.47700
H  -2.14000 30.44800 26.06600
H  -1.45200 29.33000 24.98000
H  -4.27300 27.99500 30.85300
H  -1.81700 26.38500 33.97500
H  -0.69300 27.35600 33.22800
H  -0.90100 25.80200 32.57100

