158

Mg 16.74600 -2.50200 27.48000
C  15.54700 -0.33100 30.08800
C  19.18600 -3.46500 29.64900
C  18.16100 -4.21700 24.91300
C  14.60900 -0.92700 25.32100
N  17.21300 -1.89500 29.60800
C  16.57200 -1.14800 30.53800
C  17.14700 -1.30300 32.00100
C  18.44900 -2.15800 31.63500
C  18.27300 -2.58700 30.17700
C  19.74000 -1.30000 31.78400
C  16.21100 -1.86900 33.02900
C  16.49000 -1.56200 34.49400
H  17.75500 -0.84700 34.91700
N  18.43000 -3.65500 27.32400
C  19.29800 -3.98100 28.32600
C  20.28300 -4.91000 27.85300
C  20.02200 -5.01800 26.50800
C  18.81200 -4.28800 26.18400
C  21.32500 -5.62200 28.77300
C  20.84800 -5.77300 25.45500
O  20.59200 -5.75400 24.26900
C  22.21500 -6.34800 25.78300
N  16.53900 -2.52000 25.48300
C  17.06800 -3.38600 24.59100
C  16.62100 -3.23700 23.13900
C  15.42300 -2.22600 23.32000
C  15.51900 -1.86600 24.83100
C  17.84900 -2.71800 22.29700
C  14.08800 -2.93700 22.87500
C  13.38900 -2.32900 21.69400
N  15.21100 -1.02100 27.62600
C  14.44400 -0.53600 26.65800
C  13.50600 0.34000 27.28900
C  13.86700 0.44200 28.67700
C  14.99000 -0.37400 28.80300
C  12.47200 1.12300 26.68000
C  13.57100 1.15600 29.85800
O  12.75500 2.02900 30.13900
C  14.65300 0.69300 30.85400
C  15.42000 1.88000 31.24100
O  16.17700 2.43200 30.49200
O  15.21000 2.19700 32.54900
C  15.85600 3.42600 32.86400
H  19.97700 -3.78200 30.33200
H  18.48200 -4.78100 24.03400
H  13.83400 -0.51800 24.67000
H  17.39500 -0.27300 32.25800
H  18.53300 -3.00300 32.31800
H  19.61400 -0.46400 32.47100
H  20.04800 -0.81600 30.85700
H  20.50700 -2.01800 32.07500
H  16.29900 -2.95500 33.01400
H  15.19500 -1.58600 32.75200
H  16.55800 -2.44900 35.12400
H  15.63700 -1.04800 34.93600
H  22.31900 -5.63900 28.32500
H  21.03100 -6.56100 29.24100
H  21.38700 -5.09200 29.72400
H  22.01400 -7.16700 26.47300
H  22.84700 -5.56500 26.20200
H  22.66400 -6.65100 24.83700
H  16.34100 -4.24600 22.83800
H  15.51000 -1.34400 22.68500
H  18.69100 -2.52900 22.96400
H  17.54700 -1.76800 21.85700
H  17.94300 -3.43400 21.48000
H  13.32200 -2.99000 23.64900
H  14.23300 -3.97300 22.56800
H  12.36600 -2.21100 22.05100
H  13.29600 -3.02200 20.85800
H  13.89100 -1.46200 21.26500
H  12.00400 0.78900 25.75400
H  12.86300 2.13400 26.56800
H  11.60200 1.17800 27.33400
H  14.09400 0.26700 31.68800
H  15.50600 3.76500 33.83900
H  15.64400 4.18800 32.11300
H  16.92900 3.23800 32.89300
Mg 42.79000 42.06700 27.10100
C  41.67400 44.36000 29.48200
C  43.93700 40.07100 29.72500
C  44.14400 40.04900 24.79000
C  42.60800 44.56400 24.59900
N  42.73100 42.20400 29.36800
C  42.12400 43.20300 30.07400
C  42.08900 42.87600 31.53300
C  43.05200 41.61100 31.62400
C  43.34300 41.30100 30.15200
C  44.37400 41.81800 32.45400
C  40.64700 42.67100 32.06900
C  40.27200 43.43200 33.36200
H  41.20100 43.51700 34.57000
N  43.68500 40.21300 27.31600
C  44.09200 39.58200 28.39200
C  44.58700 38.24700 28.00000
C  44.42400 38.12500 26.60300
C  44.03500 39.48700 26.14200
C  45.10600 37.15200 28.94200
C  44.62500 36.95200 25.70800
O  44.36000 36.99900 24.52500
C  44.93300 35.56400 26.28100
N  43.60400 42.45300 25.11900
C  44.00900 41.37000 24.36700
C  44.16700 41.72000 22.83300
C  43.76000 43.20200 22.79000
C  43.35300 43.45400 24.25300
C  45.47300 41.40400 22.15100
C  42.58400 43.45900 21.81700
C  41.28300 42.66500 22.24700
N  42.15800 44.07800 26.97600
C  42.03500 44.92900 25.88300
C  41.28400 46.10600 26.30200
C  41.17400 45.96700 27.71300
C  41.78000 44.75600 28.11000
C  40.86200 47.26800 25.45400
C  40.59900 46.57800 28.91400
O  40.20500 47.68700 29.13000
C  40.89200 45.52100 30.08000
C  41.70400 46.34700 31.11000
O  42.90600 46.62300 31.02200
O  40.83900 46.79100 32.08700
C  41.45500 47.66500 33.06800
H  44.17600 39.27300 30.43100
H  44.37000 39.39900 23.94200
H  42.50500 45.30300 23.80100
H  42.63400 43.73500 31.92400
H  42.44600 40.86000 32.13200
H  45.15900 41.62600 31.72200
H  44.43300 41.08000 33.25400
H  44.41800 42.85100 32.79900
H  40.43000 41.60800 32.17400
H  39.91400 42.99200 31.32900
H  39.26400 43.13100 33.64900
H  40.12900 44.45700 33.02100
H  46.15100 37.02100 28.66300
H  44.57600 36.23700 28.67600
H  44.96900 37.38100 29.99900
H  44.14600 35.30100 26.98800
H  45.87500 35.59300 26.82700
H  45.07600 34.88500 25.44000
H  43.46200 41.07500 22.30900
H  44.61700 43.84400 22.58600
H  46.05800 40.80500 22.84900
H  46.05100 42.31200 21.97600
H  45.35300 40.81100 21.24400
H  42.83800 43.17900 20.79500
H  42.37500 44.52600 21.75300
H  40.51500 43.38100 22.53900
H  41.41000 41.94200 23.05200
H  40.80900 42.08000 21.45800
H  40.39400 46.79700 24.59100
H  41.79000 47.81500 25.28600
H  40.20100 47.93600 26.00700
H  39.90700 45.17400 30.39400
H  42.39400 48.06900 32.69000
H  41.54800 47.23200 34.06400
H  40.72700 48.45500 33.25500

