158

Mg 2.13500 -1.41800 43.99900
C  5.38200 -0.23500 43.78100
C  1.04500 1.42700 42.62300
C  -0.78700 -2.97700 43.24000
C  3.49600 -4.59800 44.74800
N  3.10600 0.40900 43.33700
C  4.46900 0.66700 43.33300
C  4.72600 2.11400 42.98600
C  3.20600 2.73600 43.18000
C  2.38400 1.50000 42.97900
C  2.93900 3.45500 44.59200
C  5.32300 2.29000 41.60000
C  6.70900 2.90700 41.48200
H  7.76600 2.32900 40.47800
N  0.36200 -0.80700 43.10900
C  0.12200 0.39800 42.56200
C  -1.25300 0.51600 42.18200
C  -1.85600 -0.66400 42.41200
C  -0.80200 -1.60400 42.99400
C  -1.85600 1.85400 41.69300
C  -3.33300 -1.02400 42.19000
O  -4.05400 -0.18700 41.66700
C  -3.83000 -2.25300 42.66900
N  1.43100 -3.46100 44.06400
C  0.15400 -3.82600 43.81700
C  -0.04600 -5.31600 43.97200
C  1.27500 -5.81900 44.57600
C  2.16800 -4.57300 44.48200
C  -1.25400 -5.77000 44.81400
C  1.90500 -7.16100 43.93900
C  1.80900 -8.37700 44.95800
N  4.00300 -2.28800 44.37900
C  4.42400 -3.56100 44.67000
C  5.85600 -3.56300 44.93900
C  6.27500 -2.30700 44.51700
C  5.06800 -1.59700 44.18200
C  6.75700 -4.65600 45.53700
C  7.43500 -1.44400 44.41100
O  8.57200 -1.67300 44.66100
C  6.90800 -0.10200 43.96200
C  7.31800 0.91800 44.92600
O  6.59200 1.19900 45.88400
O  8.43400 1.64500 44.50300
C  8.83200 2.91300 45.15500
H  0.63200 2.37700 42.27900
H  -1.73200 -3.52200 43.18900
H  3.96000 -5.54800 45.02200
H  5.34100 2.57200 43.76100
H  2.98100 3.47000 42.40600
H  3.08800 4.53500 44.58000
H  3.57400 3.08800 45.39800
H  1.86700 3.33900 44.75300
H  4.61000 2.85300 40.99800
H  5.32100 1.35400 41.04000
H  7.17300 2.80800 42.46400
H  6.53200 3.95800 41.25600
H  -2.59500 1.73800 40.90000
H  -1.09000 2.48600 41.24400
H  -2.26500 2.32800 42.58500
H  -3.54000 -2.27000 43.72000
H  -3.39700 -3.07400 42.09900
H  -4.89900 -2.20800 42.45900
H  -0.17800 -5.66400 42.94800
H  1.19400 -5.95200 45.65500
H  -0.89200 -6.42400 45.60700
H  -1.88000 -6.43200 44.21600
H  -1.81200 -4.93800 45.24400
H  2.98900 -7.05300 43.90100
H  1.45500 -7.45000 42.98900
H  2.78700 -8.53500 45.41100
H  1.43000 -9.26900 44.45800
H  1.10700 -8.19300 45.77200
H  6.70100 -5.46000 44.80300
H  6.48800 -5.10500 46.49300
H  7.78400 -4.30500 45.43800
H  7.41100 0.05900 43.00900
H  7.99500 3.36000 45.69100
H  9.32700 3.59200 44.46000
H  9.44700 2.63800 46.01100
Mg 41.67400 9.09800 29.38500
C  43.49400 10.53700 31.94700
C  39.52600 7.67100 31.59200
C  40.13700 7.63100 26.69100
C  44.29500 9.99800 27.16800
N  41.59500 9.01100 31.57800
C  42.33400 9.85100 32.42100
C  41.77100 9.81200 33.89600
C  40.62300 8.76800 33.76500
C  40.63700 8.34900 32.19600
C  40.64400 7.57300 34.70400
C  41.52000 11.23100 34.51700
C  40.36000 11.29800 35.54600
H  40.51700 12.11500 36.86100
N  40.02100 7.87100 29.11400
C  39.24900 7.31500 30.17800
C  38.10500 6.69000 29.65500
C  38.12700 6.80100 28.21700
C  39.47400 7.42400 27.91700
C  37.06500 6.03100 30.66000
C  37.15000 6.39200 27.22000
O  37.29500 6.41300 26.01000
C  35.88900 5.95500 27.73800
N  42.23000 8.74800 27.23700
C  41.35200 8.24600 26.34700
C  41.94900 8.29500 24.92500
C  43.26800 9.10500 25.06700
C  43.27100 9.25000 26.57800
C  42.13500 6.84700 24.43200
C  43.22200 10.51600 24.31800
C  42.05400 11.47600 24.61000
N  43.40100 10.16500 29.47100
C  44.39600 10.37500 28.54500
C  45.43400 11.21000 29.08500
C  45.09300 11.37500 30.48700
C  43.85000 10.64700 30.61300
C  46.51600 11.76200 28.25300
C  45.48800 11.91700 31.75700
O  46.45200 12.58500 32.13700
C  44.41600 11.37700 32.75700
C  45.10100 10.65800 33.86900
O  45.96000 9.81200 33.75600
O  44.68900 11.13200 35.13300
C  45.39000 10.68900 36.43000
H  38.88800 7.20500 32.34600
H  39.51500 7.13400 25.94300
H  45.06500 10.49800 26.57600
H  42.53300 9.49300 34.60800
H  39.63400 9.20700 33.89700
H  40.38100 6.69800 34.10900
H  39.86500 7.76400 35.44300
H  41.54400 7.55700 35.31800
H  41.39600 11.86400 33.63800
H  42.30000 11.55100 35.20700
H  40.14700 10.26000 35.80400
H  39.54800 11.79100 35.01200
H  36.16200 6.64000 30.67900
H  37.42300 5.97000 31.68800
H  36.67000 5.09100 30.27500
H  35.24500 5.70300 26.89500
H  35.35000 6.61400 28.41900
H  36.04500 5.03400 28.29900
H  41.23000 8.74000 24.23800
H  44.13000 8.55600 24.68800
H  41.74900 6.18700 25.20900
H  43.19200 6.65500 24.24500
H  41.54500 6.73100 23.52300
H  43.16700 10.33100 23.24500
H  44.15500 11.04800 24.50000
H  42.40600 12.40300 25.06300
H  41.29400 11.09700 25.29300
H  41.52400 11.63700 23.67100
H  47.09200 12.49800 28.81400
H  46.17400 12.16500 27.30000
H  47.19600 10.95800 27.97000
H  43.89400 12.28100 33.07100
H  46.03800 9.85700 36.15300
H  44.71500 10.25800 37.16900
H  45.98600 11.54000 36.76000

