158

Mg -1.39800 17.26600 26.21900
C  -1.94300 15.11200 28.91800
C  -1.86000 20.01800 28.20600
C  -1.61600 19.20100 23.52700
C  -1.79200 14.33600 24.08100
N  -1.80800 17.47700 28.28300
C  -1.90700 16.46800 29.30400
C  -2.03900 17.10200 30.66300
C  -2.00700 18.58900 30.35500
C  -1.89600 18.74900 28.87200
C  -3.18300 19.33400 31.06100
C  -0.98600 16.53700 31.74100
C  -0.63500 17.43900 32.89100
H  -0.32100 16.77800 34.23900
N  -1.56600 19.31300 25.94200
C  -1.76700 20.27000 26.88100
C  -1.80400 21.54100 26.25600
C  -1.67700 21.36900 24.83300
C  -1.61600 19.89600 24.70000
C  -1.92600 22.85200 27.03200
C  -1.76700 22.41500 23.71300
O  -1.72600 22.11100 22.53300
C  -1.92900 23.90600 24.03300
N  -1.47400 16.80100 24.11500
C  -1.55600 17.84300 23.24600
C  -1.79200 17.27300 21.80400
C  -1.60200 15.73000 21.89400
C  -1.57100 15.58600 23.44300
C  -3.12200 17.78600 21.13900
C  -0.35000 15.15800 21.29500
C  1.07400 15.90300 21.62000
N  -1.76300 15.16200 26.36600
C  -1.82000 14.10800 25.47800
C  -1.87600 12.87300 26.16000
C  -1.97300 13.22700 27.49800
C  -1.90400 14.59800 27.59300
C  -1.92200 11.52200 25.47300
C  -2.08100 12.73000 28.83900
O  -2.17000 11.51600 29.16400
C  -2.16400 13.92100 29.81100
C  -1.08300 13.65900 30.82700
O  0.05800 14.01700 30.68800
O  -1.62700 12.91900 31.87700
C  -0.72200 12.50400 32.94700
H  -1.85700 20.86700 28.89400
H  -1.49900 19.67600 22.55100
H  -1.96800 13.48000 23.42700
H  -2.96100 16.69900 31.08200
H  -1.02500 18.92700 30.68600
H  -3.37500 18.80600 31.99500
H  -4.10200 19.44200 30.48400
H  -2.88400 20.31200 31.43700
H  -0.09200 16.10400 31.29200
H  -1.45900 15.72800 32.29900
H  -1.39900 18.20000 33.05100
H  0.24700 17.98100 32.54900
H  -0.92500 23.25700 27.18400
H  -2.35700 22.75300 28.02800
H  -2.51100 23.60100 26.49900
H  -2.97300 24.10700 24.27200
H  -1.94100 24.40900 23.06600
H  -1.26800 24.27800 24.81600
H  -0.97600 17.71300 21.23100
H  -2.42500 15.11700 21.52600
H  -3.65800 18.47500 21.79100
H  -3.90400 17.02900 21.08100
H  -2.95400 18.15900 20.12900
H  -0.50900 15.13400 20.21700
H  -0.32700 14.10000 21.55500
H  1.28200 16.54000 20.76000
H  1.81900 15.11100 21.69900
H  1.07700 16.54600 22.50000
H  -1.35100 10.85800 26.12200
H  -1.58900 11.43900 24.43900
H  -2.95700 11.18000 25.50600
H  -3.19100 13.88800 30.17300
H  -1.30800 12.48700 33.86600
H  0.15600 13.14600 33.02800
H  -0.43200 11.46900 32.76900
Mg 8.68800 3.09800 27.43600
C  9.94100 1.65500 30.43300
C  6.99500 5.43200 29.28400
C  7.47800 4.41300 24.63200
C  10.43400 0.58600 25.66000
N  8.42000 3.41000 29.64900
C  9.00900 2.68700 30.66200
C  8.56500 3.26000 32.02200
C  7.63800 4.54300 31.65700
C  7.68600 4.48200 30.10100
C  6.18500 4.40700 32.23400
C  9.77900 3.62400 32.92200
C  9.42900 4.51700 34.07200
H  10.20000 4.31400 35.39200
N  7.39400 4.73900 27.01500
C  6.87100 5.62000 27.90400
C  5.98700 6.59700 27.21500
C  6.25300 6.32700 25.82300
C  7.07300 5.10200 25.78800
C  5.18900 7.68900 27.96400
C  5.83400 7.15400 24.64900
O  6.07400 6.81300 23.50500
C  5.22000 8.57600 24.91100
N  8.73800 2.43300 25.42700
C  8.21800 3.20600 24.48300
C  8.65500 2.73400 23.08700
C  9.79700 1.76300 23.48200
C  9.61100 1.52400 24.94800
C  7.50700 2.10000 22.24900
C  11.24500 2.13700 23.11100
C  12.19800 1.01000 22.55900
N  9.89100 1.36400 27.91400
C  10.52200 0.46500 27.06200
C  11.35100 -0.41000 27.87300
C  11.17400 -0.02100 29.23500
C  10.21300 0.99900 29.19000
C  12.15200 -1.58100 27.39600
C  11.61400 -0.17700 30.65400
O  12.44900 -0.84900 31.21600
C  10.76900 0.87300 31.43300
C  10.01100 0.22100 32.56300
O  8.98700 -0.39800 32.40000
O  10.71100 0.34300 33.70300
C  10.15400 -0.23700 34.93700
H  6.61100 6.28700 29.84400
H  7.13100 4.87600 23.70600
H  11.06800 -0.03600 25.02400
H  7.94300 2.48800 32.47500
H  8.08900 5.50000 31.91800
H  5.87200 3.55400 32.83600
H  5.43900 4.37100 31.44100
H  6.04600 5.24200 32.92100
H  10.55000 4.15500 32.36300
H  10.36200 2.78900 33.30900
H  8.37000 4.44300 34.31800
H  9.66100 5.48600 33.63000
H  5.75100 8.61000 28.11700
H  4.99500 7.32600 28.97400
H  4.31400 7.99600 27.39100
H  5.10100 9.22700 24.04500
H  5.88000 9.06000 25.63100
H  4.24200 8.41600 25.36400
H  8.98300 3.62000 22.54200
H  9.61100 0.76200 23.09300
H  6.53700 2.30300 22.70400
H  7.68000 1.04100 22.05700
H  7.46500 2.62500 21.29400
H  11.77000 2.49300 23.99700
H  11.16000 3.03300 22.49600
H  11.63200 0.08400 22.46100
H  13.00400 0.85100 23.27600
H  12.55800 1.39900 21.60700
H  12.77400 -1.20500 26.58400
H  11.57400 -2.44000 27.05600
H  12.70400 -1.77000 28.31700
H  11.52100 1.59200 31.75900
H  10.94400 -0.20500 35.68900
H  9.94100 -1.29700 34.80200
H  9.29100 0.27600 35.36100

