158

Mg 17.08100 -1.12700 28.28600
C  15.67500 1.05000 30.76700
C  19.00100 -2.51700 30.60600
C  18.76300 -2.58200 25.82200
C  15.53700 1.02800 25.90100
N  17.18500 -0.71100 30.42800
C  16.52200 0.05300 31.27500
C  16.92900 -0.05200 32.81500
C  18.26500 -0.92800 32.57700
C  18.14600 -1.48200 31.09700
C  19.59400 -0.27000 32.96000
C  15.78100 -0.67700 33.69300
C  16.15200 -0.92200 35.16900
H  17.52700 -0.49100 35.85600
N  18.57600 -2.43800 28.27100
C  19.22500 -2.94900 29.37300
C  20.04300 -4.07100 28.95000
C  19.79100 -4.23200 27.53300
C  19.02100 -3.03000 27.16500
C  20.82700 -4.96800 29.83400
C  20.31200 -5.33300 26.65900
O  19.90400 -5.46000 25.50500
C  21.22500 -6.51900 27.12400
N  17.03500 -0.93300 26.10700
C  17.88400 -1.60400 25.35000
C  17.78600 -1.24900 23.88600
C  16.88400 0.06500 23.93000
C  16.48900 0.10300 25.40400
C  19.15800 -0.90500 23.33000
C  15.69800 0.00200 22.93500
C  14.41000 -0.54300 23.57300
N  15.69500 0.47200 28.29000
C  15.12100 1.23900 27.27200
C  14.20600 2.24600 27.74900
C  14.39300 2.19200 29.13000
C  15.30800 1.14900 29.40700
C  13.38100 3.19500 26.94400
C  14.08200 2.78300 30.43500
O  13.34100 3.70600 30.69200
C  14.88300 2.08600 31.48600
C  15.81500 3.04200 32.25500
O  16.61400 3.80000 31.71200
O  15.65100 2.89200 33.64500
C  16.59200 3.73100 34.46600
H  19.63600 -2.97900 31.36400
H  19.27900 -3.11500 25.02100
H  15.10200 1.69600 25.15400
H  17.11000 0.96000 33.17500
H  18.19400 -1.65200 33.38900
H  19.55800 0.71000 33.43600
H  20.39800 -0.18600 32.22900
H  20.00100 -0.96000 33.70000
H  15.57400 -1.62700 33.20000
H  14.84600 -0.13400 33.56200
H  16.04400 -1.99100 35.35600
H  15.40800 -0.32900 35.70000
H  20.41500 -5.95100 30.06400
H  20.91000 -4.50300 30.81600
H  21.81300 -4.95400 29.37000
H  20.75500 -7.21200 27.82100
H  22.14700 -6.06200 27.48500
H  21.57100 -6.99800 26.20800
H  17.20800 -2.03700 23.40200
H  17.46100 0.96500 23.71800
H  19.69000 -0.36400 24.11200
H  19.10700 -0.23300 22.47400
H  19.82400 -1.74600 23.13500
H  15.88100 -0.54400 22.00900
H  15.62000 1.03300 22.58900
H  13.80000 -0.94500 22.76400
H  13.76000 0.09800 24.16800
H  14.66900 -1.38900 24.21100
H  12.62300 3.63800 27.58900
H  12.81800 2.67100 26.17200
H  13.98200 4.07600 26.71900
H  14.19900 1.60000 32.18200
H  17.61500 3.62600 34.10400
H  16.37900 3.42100 35.48900
H  16.15800 4.73000 34.50500
Mg 45.10500 4.11000 48.78700
C  43.54700 7.05200 47.89900
C  42.32000 2.36500 48.13500
C  46.97500 1.40900 48.65500
C  48.25400 6.10400 48.97400
N  43.11900 4.71400 48.26800
C  42.68600 5.96200 47.88000
C  41.18300 5.96200 47.69600
C  40.78400 4.48300 47.71800
C  42.13100 3.79600 48.07200
C  39.56700 4.07800 48.59500
C  40.61000 6.84000 46.59300
C  39.23700 6.59500 46.01400
H  38.97200 6.49900 44.45300
N  44.71200 2.10100 48.62400
C  43.44500 1.57100 48.29400
C  43.56800 0.15700 48.02300
C  44.94700 -0.19300 48.07300
C  45.59600 1.15300 48.44300
C  42.32700 -0.65300 47.69300
C  45.52200 -1.51800 47.84300
O  44.82300 -2.45900 47.53500
C  46.93800 -1.84000 48.05300
N  47.28300 3.87000 48.94500
C  47.76200 2.53400 48.89800
C  49.28200 2.48300 49.10900
C  49.68300 4.02200 49.26300
C  48.33300 4.73000 49.02700
C  49.75400 1.45400 50.21100
C  50.99700 4.52100 48.54900
C  51.93400 5.39200 49.45800
N  45.77400 6.18400 48.59000
C  47.06500 6.82200 48.69300
C  46.88100 8.22400 48.46200
C  45.53800 8.36500 48.19400
C  44.90300 7.04300 48.22900
C  48.00200 9.25700 48.50900
C  44.54200 9.25800 47.85500
O  44.53800 10.47700 47.72400
C  43.25000 8.46300 47.71000
C  42.17900 8.96100 48.71400
O  41.76100 8.34600 49.70100
O  41.59800 10.04400 48.12500
C  40.30600 10.40100 48.74300
H  41.39000 1.87400 47.84300
H  47.58600 0.50400 48.67500
H  49.17900 6.67400 48.86200
H  40.73800 6.31600 48.62500
H  40.53000 4.09700 46.73100
H  38.79000 3.58800 48.00900
H  38.95800 4.93500 48.88100
H  39.92300 3.59600 49.50600
H  41.33900 6.65700 45.80400
H  40.61300 7.91600 46.76400
H  38.70800 7.50400 46.29900
H  38.82700 5.75000 46.56900
H  42.54200 -1.23800 46.79800
H  41.38200 -0.13200 47.54000
H  42.14200 -1.40000 48.46500
H  47.22000 -1.65200 49.08900
H  47.51100 -1.45500 47.20900
H  46.99800 -2.91900 47.91300
H  49.77300 2.14000 48.19800
H  49.77800 4.24200 50.32600
H  50.17500 2.02200 51.04100
H  50.66800 0.92500 49.94300
H  48.89900 0.92400 50.63100
H  50.68000 5.21800 47.77300
H  51.55400 3.68700 48.12200
H  51.98400 6.36000 48.95700
H  52.89800 4.88900 49.53400
H  51.56300 5.58400 50.46500
H  48.38400 9.51100 47.52100
H  48.73900 8.82200 49.18400
H  47.55700 10.08800 49.05700
H  42.91500 8.72600 46.70700
H  39.79700 10.96300 47.96000
H  40.36000 10.94400 49.68700
H  39.68500 9.52400 48.92300

