158

Mg -8.42900 40.11000 42.90800
C  -7.40500 36.86900 42.06400
C  -5.61400 41.26100 41.24700
C  -9.71500 43.23800 43.12000
C  -11.38800 38.79500 44.12200
N  -6.75800 39.15000 41.67500
C  -6.52300 37.80500 41.54100
C  -5.26000 37.58800 40.73300
C  -4.48500 38.93200 40.84700
C  -5.69400 39.83400 41.26000
C  -3.26000 38.82500 41.87700
C  -5.57600 37.15500 39.26900
C  -5.28700 35.74700 38.72000
H  -4.19400 35.55600 37.64600
N  -7.74900 41.98100 42.39600
C  -6.53300 42.25800 41.66300
C  -6.38300 43.67100 41.45100
C  -7.45900 44.24500 42.08500
C  -8.41700 43.13200 42.57800
C  -5.17900 44.29500 40.73300
C  -7.68300 45.71600 42.12500
O  -7.01100 46.47500 41.51600
C  -8.76400 46.34700 42.96600
N  -10.36900 40.88900 43.45900
C  -10.59800 42.23200 43.55100
C  -12.03800 42.48300 44.06100
C  -12.48000 41.02700 44.49000
C  -11.39500 40.18700 43.97600
C  -12.15600 43.54800 45.23500
C  -13.93000 40.61900 44.08500
C  -14.02900 40.28200 42.57900
N  -9.25900 38.20900 43.09300
C  -10.45600 37.81500 43.73000
C  -10.55100 36.38200 43.66500
C  -9.38200 36.00700 43.04700
C  -8.61100 37.11300 42.69900
C  -11.77500 35.67000 44.17800
C  -8.50800 34.82200 42.71300
O  -8.73400 33.63700 42.91700
C  -7.28300 35.36100 41.89200
C  -6.02600 34.85300 42.47600
O  -5.37800 35.30600 43.44200
O  -5.66100 33.73300 41.83800
C  -4.41000 33.04900 42.19500
H  -4.67200 41.62000 40.82700
H  -10.09600 44.25300 43.25200
H  -12.30400 38.37400 44.54200
H  -4.68900 36.80500 41.23300
H  -4.11400 39.26900 39.88000
H  -3.12900 39.68400 42.53400
H  -2.41800 38.71000 41.19400
H  -3.29300 37.92600 42.49300
H  -5.09700 37.82700 38.55700
H  -6.66000 37.23500 39.18800
H  -6.17400 35.23700 38.34300
H  -4.92700 35.33300 39.66300
H  -5.39700 45.24500 40.24500
H  -4.74100 43.67500 39.95100
H  -4.39100 44.36400 41.48300
H  -8.51800 47.39800 43.12200
H  -8.90500 45.91600 43.95800
H  -9.66000 46.20100 42.36200
H  -12.61800 42.80000 43.19400
H  -12.33800 40.85600 45.55700
H  -11.28000 44.19500 45.19200
H  -12.17900 43.03400 46.19600
H  -12.98300 44.25000 45.13600
H  -14.60300 41.44800 44.30200
H  -14.17600 39.70600 44.62900
H  -13.87300 39.21600 42.41500
H  -13.49200 40.98400 41.94100
H  -15.09500 40.37300 42.37000
H  -11.32600 34.68300 44.28600
H  -12.61000 35.77700 43.48600
H  -12.05000 36.07200 45.15400
H  -7.23400 35.08000 40.84000
H  -3.56600 33.69700 42.43000
H  -4.13200 32.30500 41.44900
H  -4.56300 32.38900 43.04900
Mg -1.96300 33.63600 27.20900
C  -3.43100 31.86900 29.91800
C  -0.50400 35.63100 29.50700
C  -1.02700 35.56100 24.65900
C  -3.86100 31.68800 25.08900
N  -2.20000 33.83800 29.48800
C  -2.57800 32.82800 30.35400
C  -2.12300 33.06700 31.81200
C  -1.12700 34.33000 31.58900
C  -1.28500 34.62600 30.10200
C  -1.32100 35.55700 32.45400
C  -1.46400 31.77600 32.44200
C  -2.11000 31.21900 33.82000
H  -1.19500 31.06800 34.99900
N  -0.94500 35.41100 27.13500
C  -0.37000 35.99200 28.18400
C  0.56000 36.97100 27.62900
C  0.37600 37.04700 26.22500
C  -0.60500 36.03900 25.97500
C  1.47000 37.81400 28.53000
C  1.13200 37.92300 25.15900
O  0.87800 37.82000 23.92300
C  2.15300 38.88800 25.57700
N  -2.43200 33.62500 25.18100
C  -1.91200 34.57700 24.29500
C  -2.27600 34.17300 22.79800
C  -2.89000 32.74700 22.97400
C  -3.04000 32.63500 24.49000
C  -3.17100 35.16900 22.06700
C  -2.12000 31.55400 22.30000
C  -0.97400 31.01800 23.24000
N  -3.30800 32.02700 27.33100
C  -4.06500 31.42300 26.43800
C  -4.88400 30.38500 27.06200
C  -4.62700 30.44600 28.41800
C  -3.68500 31.49400 28.58700
C  -5.84100 29.58500 26.34000
C  -4.97400 29.91500 29.68800
O  -5.65900 28.98400 29.98000
C  -4.21600 30.83200 30.69000
C  -5.18000 31.43300 31.69500
O  -5.97700 32.36900 31.53200
O  -5.04500 30.78500 32.92600
C  -5.96600 31.17700 33.98300
H  0.18800 36.15700 30.16800
H  -0.62300 36.08700 23.79100
H  -4.46700 31.10200 24.39500
H  -2.95000 33.46400 32.40000
H  -0.11300 33.97600 31.77900
H  -1.83500 36.33800 31.89300
H  -0.33100 35.89900 32.75600
H  -1.86600 35.38200 33.38100
H  -0.41300 31.92900 32.69000
H  -1.55100 30.92000 31.77300
H  -2.44000 30.23000 33.50100
H  -3.04100 31.70700 34.10700
H  1.03800 38.81100 28.62100
H  2.44600 37.81000 28.04400
H  1.75100 37.46900 29.52500
H  2.42800 39.52400 24.73600
H  3.14400 38.47900 25.77200
H  1.79600 39.56900 26.35100
H  -1.37700 34.00200 22.20600
H  -3.89800 32.83600 22.57100
H  -3.05600 36.21000 22.37200
H  -4.23200 34.96000 22.20500
H  -2.83200 35.19900 21.03200
H  -1.68400 31.80500 21.33300
H  -2.85700 30.75900 22.19200
H  -1.33200 30.10300 23.71200
H  -0.66900 31.75900 23.97900
H  -0.11700 30.73200 22.63000
H  -5.29700 28.64800 26.21700
H  -6.13600 29.92300 25.34700
H  -6.72000 29.47000 26.97400
H  -3.55200 30.21500 31.29500
H  -6.72600 31.82700 33.55100
H  -5.43400 31.75200 34.74100
H  -6.32400 30.36000 34.61000

