158

Mg 9.38300 5.10500 27.73500
C  10.33600 3.13100 30.58200
C  7.10200 6.72400 29.73900
C  7.94100 6.39800 24.88600
C  11.10500 2.66000 25.83700
N  8.83600 4.97400 29.83900
C  9.51600 4.24600 30.87700
C  9.07500 4.82000 32.23800
C  7.83500 5.68200 31.92700
C  7.97000 5.84700 30.41600
C  6.41000 5.16000 32.37000
C  10.28000 5.52300 32.91200
C  10.73500 4.74300 34.24900
H  10.97400 5.64100 35.42200
N  7.85100 6.54300 27.37000
C  6.99100 7.01800 28.35100
C  6.16900 8.05900 27.76400
C  6.49000 8.05400 26.30000
C  7.41900 6.93900 26.11200
C  5.25300 8.83700 28.59800
C  5.98800 8.96400 25.18600
O  6.23500 8.75400 23.97900
C  5.09900 10.14900 25.40000
N  9.44000 4.47300 25.73800
C  8.78200 5.25600 24.75300
C  9.18700 4.78500 23.31200
C  10.32000 3.76100 23.59200
C  10.32500 3.59800 25.12300
C  8.05200 4.19300 22.55700
C  11.71400 4.09800 23.06100
C  12.04500 3.60600 21.71800
N  10.67000 3.45000 28.11100
C  11.19300 2.54200 27.22300
C  11.90100 1.46600 27.87300
C  11.68200 1.78600 29.21300
C  10.85300 2.88700 29.30100
C  12.38500 0.26100 27.21500
C  11.88500 1.28000 30.62700
O  12.55600 0.34600 31.03500
C  11.20400 2.24800 31.57200
C  10.33700 1.48000 32.48900
O  9.16700 1.17900 32.34600
O  11.06800 1.25700 33.60900
C  10.36100 0.65400 34.76900
H  6.54700 7.30800 30.47600
H  7.63900 6.94100 23.98800
H  11.46700 1.84100 25.21200
H  8.77500 3.90600 32.75000
H  7.89600 6.70700 32.29400
H  5.82400 5.88500 32.93500
H  6.45800 4.23000 32.93600
H  5.78500 4.97500 31.49600
H  10.04100 6.56300 33.13100
H  11.04900 5.56600 32.14000
H  11.56700 4.07100 34.03800
H  9.81800 4.26500 34.59300
H  5.84300 9.06500 29.48600
H  4.47000 8.16900 28.95800
H  4.71800 9.62400 28.06800
H  5.54700 10.70200 26.22500
H  4.11700 9.85500 25.77000
H  4.93600 10.81600 24.55400
H  9.60000 5.65000 22.79300
H  10.10700 2.75200 23.24000
H  7.15300 4.77400 22.76100
H  7.82600 3.17300 22.87100
H  8.12500 4.27600 21.47300
H  12.49600 3.86900 23.78400
H  11.66300 5.17600 22.90700
H  12.88900 2.93800 21.89100
H  12.27900 4.39600 21.00500
H  11.25100 3.02800 21.24400
H  11.55000 -0.15700 26.65300
H  12.69000 -0.52800 27.90300
H  13.19700 0.66600 26.61100
H  11.80200 2.93300 32.17300
H  11.06800 -0.08600 35.14200
H  9.35600 0.29600 34.54600
H  10.11700 1.42300 35.50200
Mg -10.38500 41.05100 40.57500
C  -9.18700 37.76700 39.75400
C  -7.24200 42.19100 39.33200
C  -11.71600 43.95800 39.98500
C  -13.44900 39.60800 41.18200
N  -8.40700 40.03300 39.73200
C  -8.17800 38.72900 39.48800
C  -6.80400 38.45100 38.92900
C  -6.14200 39.86800 39.07900
C  -7.32400 40.76200 39.47400
C  -5.01700 39.96000 40.08600
C  -6.90100 37.95500 37.46300
C  -5.49600 37.61300 36.91600
H  -5.46200 36.63600 35.73800
N  -9.57000 42.88100 39.91700
C  -8.29600 43.14200 39.50500
C  -8.16600 44.54100 39.44800
C  -9.40300 45.07800 39.57300
C  -10.31700 43.97800 39.70500
C  -6.79100 45.13800 39.11100
C  -9.61300 46.58900 39.63900
O  -8.65100 47.32100 39.49500
C  -10.89300 47.29500 39.88200
N  -12.28600 41.71200 40.62800
C  -12.62400 42.98500 40.43000
C  -14.08500 43.28300 40.73300
C  -14.59500 41.88300 41.15900
C  -13.39100 41.01200 40.97600
C  -14.35700 44.54300 41.58800
C  -15.84400 41.50500 40.37400
C  -16.85400 40.72700 41.13000
N  -11.12500 39.03500 40.63700
C  -12.41100 38.63900 40.94000
C  -12.42800 37.23100 40.95400
C  -11.18600 36.76200 40.47900
C  -10.45400 37.95600 40.21700
C  -13.55200 36.28600 41.21400
C  -10.35700 35.63800 40.16300
O  -10.55100 34.44400 40.25400
C  -9.02700 36.28200 39.55600
C  -7.94300 35.82400 40.36900
O  -7.92900 35.92300 41.56700
O  -7.14000 34.96900 39.61800
C  -6.26500 34.08900 40.41800
H  -6.24000 42.54900 39.08400
H  -12.18400 44.93800 39.87200
H  -14.39300 39.08800 41.36200
H  -6.21700 37.65100 39.37900
H  -5.74800 40.21500 38.12400
H  -4.02800 40.04600 39.63500
H  -5.00300 39.10800 40.76600
H  -5.12200 40.77000 40.80800
H  -7.28000 38.69000 36.75200
H  -7.64800 37.18800 37.25600
H  -4.93800 37.24600 37.77700
H  -5.10100 38.61000 36.72100
H  -6.88800 46.07500 38.56200
H  -6.16400 44.52900 38.46000
H  -6.29000 45.33800 40.05800
H  -10.51700 48.29300 40.10500
H  -11.25900 46.80000 40.78200
H  -11.56500 47.19100 39.03000
H  -14.49100 43.46100 39.73700
H  -14.77400 41.93400 42.23300
H  -15.23000 44.36100 42.21400
H  -14.61000 45.34300 40.89300
H  -13.45500 44.84000 42.12500
H  -15.51300 40.97000 39.48400
H  -16.32800 42.40600 39.99600
H  -16.80600 39.71400 40.73100
H  -17.85200 41.16400 41.09000
H  -16.59500 40.72000 42.18800
H  -13.80000 35.58400 40.41900
H  -14.49200 36.74200 41.52800
H  -13.28900 35.68700 42.08600
H  -8.88600 36.07400 38.49600
H  -5.67100 33.48600 39.73100
H  -6.96900 33.46300 40.96600
H  -5.64600 34.70700 41.06800

