158

Mg 25.92300 -0.15400 29.37800
C  27.69900 -0.15400 32.29700
C  23.05600 0.17300 31.19900
C  24.29300 -0.55000 26.44900
C  28.86400 -0.63700 27.56100
N  25.45600 0.15100 31.48500
C  26.37400 0.06700 32.53500
C  25.67500 0.25800 33.90500
C  24.15600 0.24000 33.57200
C  24.19300 0.20100 31.99200
C  23.37100 -0.92800 34.27600
C  26.24400 1.58600 34.54400
C  26.94700 1.50500 35.97700
H  26.69300 2.50900 37.12800
N  23.95200 -0.19200 28.92700
C  22.89900 -0.04500 29.77900
C  21.67300 -0.04000 29.00200
C  22.02000 -0.12300 27.60800
C  23.52100 -0.29800 27.63900
C  20.26500 0.07800 29.62900
C  21.04700 -0.16300 26.43600
O  21.41000 -0.37400 25.29000
C  19.59000 0.08100 26.69100
N  26.45900 -0.51800 27.20200
C  25.59200 -0.59000 26.21300
C  26.22200 -0.67700 24.78100
C  27.73300 -0.74300 25.18200
C  27.70300 -0.65700 26.74600
C  25.69200 -1.85900 23.89600
C  28.72900 0.26000 24.52200
C  28.40300 1.71400 24.71900
N  27.83400 -0.51500 29.84100
C  28.99600 -0.66000 28.99600
C  30.22200 -0.66500 29.79300
C  29.74300 -0.47400 31.09700
C  28.30400 -0.39100 31.06900
C  31.67100 -0.85000 29.22000
C  30.15200 -0.35600 32.48000
O  31.29000 -0.31400 32.94400
C  28.88100 -0.07200 33.26100
C  28.82500 -1.18600 34.25000
O  28.33200 -2.30100 34.03000
O  29.38400 -0.79400 35.44100
C  29.44800 -1.80300 36.48700
H  22.12100 0.36800 31.72900
H  23.64100 -0.84700 25.62500
H  29.79900 -0.74200 27.00700
H  26.00600 -0.62000 34.45900
H  23.69900 1.17800 33.88700
H  22.98100 -1.70800 33.62200
H  22.47700 -0.48100 34.71100
H  23.94000 -1.44400 35.04900
H  25.44000 2.31100 34.67500
H  26.97300 2.02900 33.86600
H  27.96500 1.72500 35.65800
H  26.92700 0.44400 36.22600
H  19.74800 -0.83600 29.33800
H  19.79100 1.04000 29.43100
H  20.29200 -0.08900 30.70600
H  19.06700 0.34800 25.77200
H  19.47600 1.02400 27.22600
H  19.09500 -0.68100 27.29300
H  26.10400 0.22000 24.17300
H  28.06300 -1.75500 24.94500
H  26.54200 -2.49500 23.64700
H  25.19500 -1.59300 22.96300
H  24.98100 -2.37800 24.53800
H  28.64000 0.06000 23.45400
H  29.75900 0.07400 24.82600
H  27.34100 1.93500 24.61600
H  29.05600 2.23400 24.01800
H  28.78700 2.15500 25.63900
H  32.38000 -0.34400 29.87500
H  31.77400 -0.39500 28.23500
H  31.91600 -1.90500 29.10700
H  29.02700 0.88100 33.77200
H  28.96900 -1.43400 37.39300
H  30.50200 -1.93900 36.73200
H  29.00300 -2.76900 36.24900
Mg -6.01900 25.33300 26.46600
C  -4.29000 26.74200 29.15900
C  -7.49100 23.16600 28.54100
C  -7.26200 23.96000 23.77000
C  -4.01200 27.51200 24.28700
N  -5.80100 24.92000 28.60900
C  -5.15400 25.67400 29.54200
C  -5.61800 25.36400 31.03100
C  -6.39400 24.02500 30.77800
C  -6.63700 24.01500 29.20500
C  -5.62200 22.74000 31.26700
C  -6.51500 26.50200 31.62600
C  -6.27100 27.00000 33.10500
H  -5.69900 25.90600 34.04400
N  -7.28600 23.74600 26.19500
C  -7.86300 23.00400 27.16900
C  -8.64600 21.97900 26.66000
C  -8.54400 22.20300 25.21700
C  -7.65000 23.35000 24.97400
C  -9.35700 20.88400 27.40500
C  -9.24800 21.49400 24.10600
O  -9.05900 21.78600 22.95600
C  -10.38800 20.46800 24.36500
N  -5.59800 25.61800 24.29200
C  -6.35200 24.97600 23.42000
C  -6.10000 25.42400 21.96000
C  -5.02400 26.55300 22.10300
C  -4.78700 26.60300 23.62100
C  -5.51600 24.32300 21.02400
C  -5.53800 28.02500 21.64000
C  -4.62600 28.85000 20.73300
N  -4.55900 26.85000 26.66100
C  -3.87500 27.63600 25.66400
C  -2.98700 28.62700 26.40800
C  -3.14400 28.27000 27.77900
C  -4.08000 27.23600 27.84300
C  -1.89900 29.58000 25.79300
C  -2.56100 28.57700 29.08900
O  -1.77000 29.44600 29.46500
C  -3.37800 27.52900 30.11700
C  -2.43600 26.69500 30.79700
O  -1.85400 25.77000 30.22300
O  -2.32300 27.17300 32.10600
C  -1.28200 26.57100 33.00300
H  -8.07900 22.52600 29.20200
H  -7.68800 23.44400 22.90700
H  -3.47000 28.24000 23.68000
H  -4.75800 25.13700 31.66200
H  -7.33500 23.91500 31.31600
H  -6.34300 21.92900 31.37600
H  -4.99900 22.79300 32.16000
H  -4.90100 22.51700 30.48100
H  -7.57700 26.27700 31.53600
H  -6.30600 27.35300 30.97800
H  -7.20900 27.28600 33.58000
H  -5.47800 27.74200 33.20500
H  -9.20100 19.86700 27.04500
H  -10.43000 21.03300 27.28400
H  -9.09800 20.87400 28.46400
H  -10.78700 20.07100 23.43300
H  -11.08000 20.92900 25.06900
H  -9.81100 19.65000 24.79700
H  -7.07000 25.85100 21.70400
H  -4.02900 26.35900 21.70300
H  -6.22700 24.25100 20.20200
H  -5.54700 23.31600 21.44000
H  -4.48700 24.48000 20.69900
H  -5.75700 28.66500 22.49400
H  -6.42100 27.80900 21.03800
H  -3.59500 28.52100 20.60500
H  -4.54700 29.73800 21.36000
H  -5.06600 29.03100 19.75200
H  -2.22800 30.61800 25.74700
H  -1.74600 29.27800 24.75700
H  -0.99600 29.53600 26.40200
H  -3.87000 28.08400 30.91600
H  -0.67600 27.31100 33.52500
H  -0.64700 25.88600 32.43900
H  -1.67300 26.06600 33.88600

