158

Mg 30.37200 58.72000 40.11100
C  27.45800 57.05000 39.07900
C  32.19200 56.08300 38.98500
C  33.04200 60.80600 40.32700
C  28.28500 61.43600 41.02600
N  29.82400 56.84800 38.97000
C  28.61400 56.36300 38.78700
C  28.64500 54.93300 38.28200
C  30.12800 54.46100 38.60100
C  30.81000 55.87800 38.87400
C  30.34100 53.40900 39.77300
C  28.25400 54.94300 36.77800
C  26.91900 54.28500 36.24600
H  26.00500 55.06100 35.29200
N  32.38700 58.48600 39.72500
C  32.90800 57.29600 39.33700
C  34.35700 57.44700 39.35500
C  34.68700 58.80100 39.68800
C  33.35000 59.42500 40.01700
C  35.39900 56.35900 39.13500
C  36.04600 59.38500 39.71200
O  37.03700 58.76700 39.28900
C  36.37400 60.68300 40.34100
N  30.63900 60.78700 40.53300
C  31.82900 61.39000 40.66100
C  31.64900 62.91800 40.96400
C  30.16400 63.04200 41.48500
C  29.62700 61.66600 40.98700
C  32.69200 63.77900 41.78100
C  29.47000 64.25400 41.00000
C  28.73100 64.96500 42.11900
N  28.27600 59.13900 40.11700
C  27.58600 60.25500 40.63800
C  26.13800 60.00400 40.52900
C  26.05700 58.77300 39.87500
C  27.39600 58.35400 39.63900
C  25.09000 60.90100 40.98900
C  25.14100 57.78900 39.43000
O  23.90300 57.75900 39.37500
C  26.02200 56.63000 39.02800
C  25.60800 55.52300 39.94400
O  25.94600 55.50100 41.11400
O  25.05700 54.53300 39.22800
C  25.13300 53.13600 39.64400
H  32.73900 55.18800 38.67900
H  33.90200 61.47700 40.35200
H  27.64300 62.16200 41.53000
H  28.02800 54.32200 38.94100
H  30.64300 54.09400 37.71300
H  29.36100 53.05600 40.09600
H  30.97000 53.82500 40.56000
H  30.93600 52.52900 39.52900
H  29.04800 54.50200 36.17500
H  28.11600 55.98300 36.48200
H  26.23000 54.03200 37.05200
H  27.16800 53.37900 35.69400
H  36.23700 56.41000 39.83100
H  35.86200 56.46400 38.15400
H  35.10500 55.32000 38.98500
H  36.02100 61.47000 39.67500
H  37.46400 60.70200 40.33400
H  35.98500 60.70800 41.35800
H  31.64400 63.30600 39.94500
H  30.09900 62.88800 42.56200
H  33.09200 64.59900 41.18400
H  33.51800 63.13400 42.08300
H  32.40500 64.21200 42.73900
H  28.82000 63.94600 40.18100
H  30.15400 64.89000 40.43700
H  27.66700 64.73500 42.17300
H  28.69600 66.05000 42.02400
H  29.20500 64.74000 43.07400
H  24.19100 60.29500 41.09600
H  25.02500 61.68700 40.23600
H  25.38400 61.22900 41.98600
H  25.75900 56.20900 38.05700
H  26.08100 52.97100 40.15700
H  25.04400 52.64500 38.67500
H  24.42600 52.85900 40.42500
Mg -11.90100 37.60800 42.21800
C  -9.76500 35.20000 40.92000
C  -9.96900 40.08600 40.82000
C  -14.45300 39.84400 42.64200
C  -14.12900 34.91100 43.10400
N  -10.07200 37.59800 40.94800
C  -9.43100 36.47100 40.55800
C  -8.15400 36.91100 39.77200
C  -8.19600 38.50800 39.75200
C  -9.45200 38.78000 40.58500
C  -6.92100 39.21600 40.36300
C  -7.98100 36.24400 38.34500
C  -6.67500 35.42400 38.11300
H  -5.81000 35.74400 36.90100
N  -12.10600 39.70700 41.91500
C  -11.19000 40.55400 41.36600
C  -11.64200 41.86200 41.33800
C  -12.96600 41.84200 41.92700
C  -13.24700 40.39100 42.20700
C  -10.84100 43.04400 40.83100
C  -13.79100 43.04500 42.16900
O  -13.32100 44.17100 42.01100
C  -15.13900 42.93000 42.69400
N  -13.91100 37.46400 42.72000
C  -14.75700 38.52300 42.92500
C  -16.10400 38.04600 43.49900
C  -15.95700 36.56000 43.71300
C  -14.59700 36.23200 43.10500
C  -16.76000 38.82100 44.71100
C  -17.12200 35.61200 43.10300
C  -17.47000 34.45000 44.05600
N  -11.91600 35.45700 42.18700
C  -12.83900 34.58600 42.67400
C  -12.30500 33.25100 42.53500
C  -11.09900 33.42400 41.79400
C  -10.93400 34.81600 41.62400
C  -13.00000 32.04100 42.92600
C  -9.93200 32.74700 41.15000
O  -9.63200 31.59100 41.03600
C  -8.99200 33.95000 40.60100
C  -7.70100 33.86500 41.24500
O  -6.59900 33.67100 40.63800
O  -7.88800 33.85800 42.61800
C  -6.66000 34.07800 43.35500
H  -9.31400 40.87300 40.44100
H  -15.36100 40.44300 42.73400
H  -14.74700 34.13000 43.55000
H  -7.22100 36.65300 40.27300
H  -8.22900 38.93800 38.75100
H  -6.69800 40.05400 39.70200
H  -6.10800 38.49000 40.37600
H  -7.12300 39.57800 41.37100
H  -8.01800 36.91000 37.48300
H  -8.84000 35.59000 38.19700
H  -6.92000 34.37900 37.92300
H  -5.96300 35.41100 38.93800
H  -10.13200 43.37700 41.58900
H  -11.42500 43.91300 40.53000
H  -10.24200 42.87100 39.93600
H  -15.50600 43.95600 42.71600
H  -15.15600 42.49800 43.69500
H  -15.75000 42.28600 42.06100
H  -16.80600 38.12800 42.66900
H  -15.80800 36.27400 44.75500
H  -16.16000 39.65300 45.08100
H  -17.23900 38.25400 45.51000
H  -17.55500 39.36200 44.19800
H  -16.78600 35.23000 42.13900
H  -17.96100 36.29700 42.98700
H  -16.67600 34.17600 44.75100
H  -17.67200 33.50600 43.55000
H  -18.40500 34.60400 44.59400
H  -13.25100 31.47500 42.02900
H  -13.82000 32.29900 43.59600
H  -12.29400 31.49900 43.55500
H  -8.86200 33.72800 39.54200
H  -6.83700 34.98300 43.93600
H  -5.74200 34.13200 42.77000
H  -6.55600 33.23000 44.03200

