158

Mg 44.66400 3.84400 46.59300
C  42.49800 6.75200 46.63800
C  41.85900 1.91100 46.03200
C  46.81700 1.37500 45.62000
C  47.31100 6.17500 46.59300
N  42.39800 4.38000 46.15500
C  41.75300 5.58300 46.37000
C  40.25400 5.35600 46.23500
C  40.07300 3.74700 46.40700
C  41.52900 3.27800 46.28200
C  39.47100 3.25500 47.81100
C  39.44700 6.00100 45.08900
C  39.98300 5.70500 43.68700
H  39.86600 6.79100 42.56000
N  44.35900 1.86000 45.94400
C  43.12400 1.25900 45.85700
C  43.37000 -0.14400 45.55800
C  44.81700 -0.33000 45.27900
C  45.43900 0.97600 45.60200
C  42.21000 -1.10300 45.35800
C  45.43800 -1.64200 44.65000
O  44.77600 -2.66000 44.34200
C  46.91200 -1.74300 44.39200
N  46.63300 3.82500 46.05600
C  47.31300 2.61700 45.86800
C  48.81500 2.93200 45.80000
C  48.94200 4.45100 45.97000
C  47.49700 4.84400 46.24800
C  49.63800 1.99500 46.73600
C  49.81100 5.16500 44.82100
C  51.22100 5.51000 45.30500
N  44.93300 6.05800 46.81200
C  46.09500 6.84800 46.73800
C  45.76600 8.26600 46.86500
C  44.34700 8.29000 46.75700
C  43.91600 6.94200 46.71900
C  46.83000 9.32500 46.90800
C  43.18500 9.20800 46.65000
O  43.14900 10.42200 46.58900
C  41.94500 8.21300 46.67500
C  41.16300 8.45200 47.94500
O  41.60700 8.09500 49.02700
O  39.91000 9.02800 47.77600
C  39.11300 8.91300 48.99000
H  41.07900 1.14800 46.08100
H  47.62100 0.65200 45.46600
H  48.15400 6.86500 46.66200
H  39.82900 5.74100 47.16200
H  39.46700 3.42300 45.56100
H  38.73000 3.94500 48.21400
H  40.21800 2.99600 48.56100
H  38.86900 2.37900 47.56900
H  39.48600 7.07600 45.26300
H  38.43500 5.61700 45.21800
H  39.23900 4.94600 43.44400
H  40.95500 5.21100 43.67300
H  42.53200 -2.14200 45.43200
H  41.93300 -0.79900 44.34900
H  41.45300 -0.95800 46.12900
H  47.51700 -1.63600 45.29200
H  47.22200 -0.98800 43.66900
H  47.11800 -2.70400 43.92000
H  49.08600 2.67300 44.77700
H  49.43100 4.66400 46.92000
H  49.95000 1.19000 46.07100
H  49.05500 1.60300 47.56900
H  50.41500 2.66500 47.10300
H  49.21700 6.05500 44.61100
H  49.94200 4.45100 44.00800
H  51.39900 6.57400 45.14700
H  51.92900 4.91100 44.73300
H  51.30500 5.19700 46.34500
H  46.60800 9.82000 47.85400
H  46.65300 10.12100 46.18500
H  47.86600 8.98900 46.92000
H  41.31200 8.41200 45.81100
H  38.94200 7.91800 49.40100
H  38.10300 9.10200 48.62600
H  39.20600 9.57400 49.85200
Mg -11.38100 37.69700 42.31700
C  -9.15700 35.05000 41.45000
C  -9.27700 39.92700 40.86400
C  -13.98000 39.99500 42.05700
C  -13.71300 35.14600 43.02500
N  -9.62500 37.43500 41.21000
C  -8.87000 36.29500 40.92800
C  -7.68000 36.53600 40.06600
C  -7.53000 38.09600 40.18400
C  -8.89300 38.55100 40.81600
C  -6.25000 38.52600 40.96500
C  -7.93900 36.08500 38.59900
C  -6.85600 35.17400 38.02400
H  -6.13300 35.68500 36.72500
N  -11.47500 39.86400 41.90100
C  -10.51900 40.54800 41.24400
C  -10.92700 41.90800 41.27800
C  -12.34200 41.87600 41.38500
C  -12.69800 40.55500 41.81500
C  -10.00700 43.02900 40.94500
C  -13.25700 43.02400 41.09600
O  -12.77000 44.14200 40.93200
C  -14.66000 42.93700 41.07300
N  -13.45600 37.60600 42.59600
C  -14.29600 38.72600 42.58700
C  -15.66600 38.33500 43.15600
C  -15.64700 36.80100 43.41600
C  -14.17600 36.48000 43.01000
C  -16.28400 39.14500 44.33300
C  -16.69600 35.95600 42.61200
C  -17.35200 34.82100 43.37400
N  -11.43600 35.50600 42.33300
C  -12.41800 34.68400 42.67400
C  -11.95100 33.34000 42.75900
C  -10.62500 33.40800 42.28400
C  -10.38900 34.76400 41.99600
C  -12.70100 32.16600 43.39600
C  -9.39100 32.69200 41.97100
O  -9.16300 31.49000 42.11300
C  -8.40900 33.72800 41.38900
C  -7.24300 33.77200 42.32600
O  -6.07500 33.80300 42.02700
O  -7.69800 33.90000 43.62500
C  -6.74200 34.09600 44.69800
H  -8.53800 40.65100 40.51600
H  -14.92600 40.53100 41.95700
H  -14.43900 34.36500 43.26100
H  -6.81200 36.02400 40.48100
H  -7.42600 38.56000 39.20300
H  -5.40300 37.87000 40.76000
H  -6.38300 38.55300 42.04600
H  -5.88600 39.50100 40.64200
H  -8.01700 36.98000 37.98200
H  -8.94000 35.65500 38.60200
H  -7.23400 34.23000 37.63100
H  -5.98200 35.05800 38.66500
H  -10.33100 43.61400 40.08400
H  -8.98300 42.70000 40.76800
H  -9.82200 43.76000 41.73200
H  -15.07300 43.89200 40.74900
H  -14.84400 42.80000 42.13800
H  -15.01000 42.06700 40.51700
H  -16.39200 38.55200 42.37200
H  -15.63400 36.65300 44.49600
H  -16.97200 38.50800 44.88900
H  -16.96500 39.88600 43.91600
H  -15.55400 39.57700 45.01700
H  -16.17700 35.58800 41.72700
H  -17.52800 36.60400 42.33500
H  -18.43800 34.90800 43.39200
H  -16.99700 34.86700 44.40400
H  -17.08000 33.87000 42.91600
H  -12.95300 31.37700 42.68700
H  -13.59700 32.54400 43.88700
H  -12.02800 31.63800 44.07200
H  -7.96900 33.45800 40.42900
H  -7.01200 34.89200 45.39300
H  -5.77400 34.40600 44.30500
H  -6.72000 33.12000 45.18200

