158

Mg 17.26400 -2.35900 27.76700
C  15.94900 -0.29100 30.54700
C  19.05100 -4.03000 30.23400
C  18.79100 -3.76400 25.32200
C  15.85000 0.03200 25.60500
N  17.34500 -2.20900 30.10000
C  16.71500 -1.39000 30.96300
C  17.12800 -1.64500 32.42600
C  18.17700 -2.76600 32.31500
C  18.28500 -2.98600 30.77300
C  19.52700 -2.57500 32.98900
C  15.87200 -2.11100 33.26500
C  15.92400 -1.84900 34.79900
H  17.13300 -1.22700 35.56200
N  18.52700 -3.86200 27.74100
C  19.14600 -4.47200 28.84200
C  19.89300 -5.62400 28.33300
C  19.83800 -5.56400 26.91600
C  18.97600 -4.40100 26.57900
C  20.56200 -6.70700 29.17800
C  20.58900 -6.43100 25.92600
O  20.39800 -6.10000 24.77900
C  21.42300 -7.64300 26.26000
N  17.20500 -1.95700 25.70800
C  18.05100 -2.66600 24.92700
C  17.98700 -2.07700 23.37500
C  17.07500 -0.82800 23.53100
C  16.68200 -0.93900 24.98900
C  19.47000 -1.65800 22.85400
C  15.81200 -0.72800 22.50400
C  16.27400 -0.42000 21.11000
N  16.02500 -0.61800 27.93300
C  15.48600 0.24300 27.01700
C  14.64200 1.21200 27.58900
C  14.83800 1.07300 29.00100
C  15.65400 -0.08500 29.19300
C  13.88900 2.25200 26.92100
C  14.56300 1.69400 30.29700
O  13.89900 2.62800 30.52900
C  15.30300 0.77900 31.38800
C  16.19600 1.63300 32.15800
O  17.43600 1.65000 32.08500
O  15.48700 2.30100 33.15900
C  16.26400 2.94500 34.16900
H  19.71100 -4.60900 30.88300
H  19.20600 -4.19900 24.41000
H  15.42300 0.77400 24.92600
H  17.40900 -0.67400 32.83300
H  17.82100 -3.72500 32.69000
H  20.29100 -2.78900 32.24000
H  19.65100 -3.19900 33.87400
H  19.46400 -1.56500 33.39100
H  15.67100 -3.15100 33.00800
H  14.96800 -1.62300 32.90100
H  15.68300 -2.84600 35.16800
H  15.04500 -1.23800 35.00400
H  21.63300 -6.72000 28.97600
H  19.96400 -7.55200 28.83600
H  20.28500 -6.52200 30.21600
H  21.67400 -8.15600 25.33200
H  20.97200 -8.28500 27.01600
H  22.32400 -7.27000 26.74700
H  17.54300 -2.81700 22.70900
H  17.59200 0.12400 23.41100
H  20.21000 -1.89900 23.61700
H  19.55100 -0.63200 22.49600
H  19.69300 -2.28200 21.98800
H  15.13200 0.08800 22.74800
H  15.27100 -1.67300 22.56500
H  17.26900 0.01300 21.21800
H  15.59100 0.12600 20.45900
H  16.50100 -1.38400 20.65600
H  12.82700 2.00500 26.89400
H  14.15600 2.64400 25.93900
H  14.04700 3.07800 27.61300
H  14.42700 0.45800 31.95100
H  16.40200 3.98100 33.86000
H  17.22700 2.50800 34.43200
H  15.60000 2.98400 35.03300
Mg -11.02600 16.95300 43.26800
C  -7.68700 17.53600 43.17500
C  -11.61600 20.30200 42.64500
C  -14.29800 16.27300 42.88000
C  -10.38700 13.48700 43.44300
N  -9.80600 18.62700 42.69600
C  -8.45700 18.66500 42.83200
C  -7.93100 20.05300 42.68900
C  -9.16500 20.89900 42.98800
C  -10.28500 19.91000 42.74400
C  -9.22500 21.49000 44.45300
C  -7.22500 20.19200 41.29500
C  -5.79800 20.68300 41.38400
H  -4.81500 19.83000 40.52800
N  -12.71100 18.12200 42.76500
C  -12.76100 19.50300 42.61500
C  -14.08900 19.93400 42.40700
C  -14.91600 18.76300 42.48700
C  -14.01000 17.68700 42.73900
C  -14.48100 21.34000 42.12900
C  -16.43700 18.86100 42.27500
O  -16.88800 19.94000 41.95600
C  -17.38900 17.76300 42.46300
N  -12.17800 15.09600 43.12600
C  -13.48900 15.14500 43.06900
C  -14.13500 13.72800 43.10100
C  -12.84100 12.89000 42.97700
C  -11.72100 13.84000 43.13500
C  -14.98900 13.48000 44.35600
C  -12.72000 12.07900 41.67700
C  -13.36300 10.66500 41.75700
N  -9.37500 15.74400 43.30200
C  -9.25900 14.34000 43.46500
C  -7.89300 14.06200 43.62200
C  -7.25300 15.26100 43.66000
C  -8.18100 16.25700 43.37100
C  -7.27400 12.68000 43.91900
C  -5.96300 15.91100 43.76400
O  -4.87100 15.41500 43.84500
C  -6.21500 17.46700 43.48600
C  -5.88600 18.30900 44.76000
O  -6.53100 18.29300 45.80500
O  -4.84300 19.17900 44.53100
C  -4.41900 20.08400 45.54900
H  -11.84800 21.36800 42.68600
H  -15.37900 16.13600 42.82000
H  -10.18800 12.41300 43.44200
H  -7.06900 20.08800 43.35500
H  -9.30400 21.66600 42.22600
H  -8.21600 21.59100 44.85300
H  -9.79500 20.87300 45.14900
H  -9.67200 22.46800 44.27800
H  -7.69400 20.87700 40.58900
H  -7.32600 19.21500 40.82300
H  -5.45200 20.77100 42.41400
H  -5.73300 21.72500 41.06900
H  -15.22100 21.70700 42.84100
H  -14.83300 21.42700 41.10100
H  -13.69200 22.08700 42.04100
H  -18.39600 18.17400 42.40300
H  -17.20700 17.28000 43.42300
H  -17.33400 17.04900 41.64100
H  -14.83000 13.63900 42.26700
H  -12.76200 12.27500 43.87300
H  -14.88300 14.32800 45.03300
H  -14.46300 12.65100 44.83000
H  -16.01800 13.14300 44.23400
H  -11.65000 11.93200 41.52500
H  -13.22400 12.55800 40.83700
H  -12.50100 9.99900 41.80400
H  -13.93800 10.44300 40.85700
H  -14.00200 10.67700 42.64000
H  -7.68000 12.50200 44.91500
H  -6.18700 12.74000 43.95900
H  -7.57100 11.93700 43.17900
H  -5.51000 17.60600 42.66600
H  -4.55600 19.87100 46.60900
H  -4.80200 21.08900 45.37200
H  -3.35100 20.25300 45.40500

