158

Mg 2.02200 -1.75400 44.66800
C  5.38900 -0.98200 44.11900
C  1.15900 0.70300 42.37100
C  -1.00200 -3.17900 44.61300
C  3.25500 -4.85300 46.13600
N  3.20600 -0.29700 43.35500
C  4.57500 -0.22200 43.27900
C  4.88100 0.99100 42.27200
C  3.51500 1.64500 42.00400
C  2.57800 0.64000 42.65100
C  3.35300 3.11900 42.40500
C  5.66300 0.43200 41.05100
C  7.07500 1.02200 40.89000
H  7.58400 1.33300 39.41400
N  0.32000 -1.24300 43.71700
C  0.12700 -0.16600 42.87500
C  -1.30100 -0.06900 42.65000
C  -1.97800 -1.20800 43.33500
C  -0.87100 -1.88700 43.96100
C  -1.82600 1.08200 41.78500
C  -3.40700 -1.41400 43.39100
O  -4.21100 -0.70700 42.73900
C  -4.13200 -2.40400 44.34500
N  1.28400 -3.66800 45.38700
C  -0.03600 -3.99100 45.20500
C  -0.40300 -5.41300 45.69000
C  0.99400 -6.01600 46.06500
C  1.91700 -4.78900 45.91100
C  -1.41600 -5.50100 46.91900
C  1.37600 -7.19500 45.14100
C  2.19000 -8.43700 45.76500
N  3.90000 -2.61400 45.35200
C  4.21800 -3.84200 45.92500
C  5.58300 -3.84800 46.20400
C  6.13500 -2.71100 45.57200
C  5.02300 -2.04700 44.99000
C  6.42500 -4.88000 46.89000
C  7.35900 -2.04700 45.25500
O  8.46200 -2.34300 45.56600
C  6.86700 -0.86800 44.26100
C  7.26100 0.43400 44.98400
O  6.92000 0.76100 46.14200
O  8.05600 1.17600 44.14900
C  8.19500 2.53600 44.60900
H  0.84600 1.51600 41.71300
H  -1.95600 -3.67300 44.41600
H  3.63900 -5.78900 46.54600
H  5.52300 1.49900 42.99200
H  3.32400 1.61100 40.93200
H  3.12000 3.70800 41.51800
H  4.32900 3.38900 42.80800
H  2.57700 3.19800 43.16700
H  5.09000 0.74100 40.17700
H  5.65500 -0.65100 41.17200
H  7.71300 0.23300 41.28900
H  7.23800 1.94800 41.44100
H  -1.19800 1.46200 40.98000
H  -2.11000 1.96700 42.35600
H  -2.75500 0.87700 41.25300
H  -4.19000 -3.33000 43.77300
H  -5.07000 -1.88900 44.55300
H  -3.59600 -2.56800 45.28000
H  -0.93800 -5.87400 44.86000
H  1.07700 -6.27300 47.12100
H  -1.01000 -5.68100 47.91500
H  -2.17600 -6.26700 46.76600
H  -2.00600 -4.59200 47.03100
H  1.81900 -6.81300 44.22200
H  0.37700 -7.57700 44.92700
H  2.52200 -8.21400 46.77900
H  3.09100 -8.69300 45.20800
H  1.47100 -9.25700 45.76700
H  6.50400 -5.66500 46.13800
H  5.81700 -5.25900 47.71100
H  7.39500 -4.49200 47.20100
H  7.36600 -0.98300 43.29900
H  7.21900 3.02200 44.58600
H  8.74500 3.16400 43.90700
H  8.75500 2.69500 45.53000
Mg -5.76400 25.20000 26.00100
C  -4.58600 26.79000 28.91600
C  -7.50900 23.14400 28.06000
C  -6.77100 23.58900 23.30500
C  -3.34100 26.87000 24.15100
N  -5.94200 24.97100 28.22100
C  -5.48300 25.78100 29.22000
C  -5.91100 25.36700 30.60600
C  -6.56400 24.00400 30.33800
C  -6.64400 23.95300 28.74300
C  -5.81600 22.70900 30.87600
C  -6.87600 26.34100 31.27400
C  -6.89100 26.57200 32.71100
H  -6.16100 25.51400 33.63300
N  -7.06900 23.72200 25.70200
C  -7.74300 23.06000 26.65400
C  -8.83300 22.21200 26.04000
C  -8.50300 22.22600 24.67400
C  -7.39300 23.18300 24.50100
C  -9.71000 21.45700 27.00200
C  -9.05900 21.38200 23.58400
O  -8.61700 21.29600 22.43600
C  -10.31100 20.63000 23.88500
N  -5.12000 25.22300 24.05200
C  -5.66500 24.45100 23.10100
C  -4.94600 24.51700 21.76300
C  -3.94500 25.61000 22.03700
C  -4.10800 25.92200 23.53000
C  -4.14200 23.21600 21.35900
C  -4.26400 26.91600 21.14300
C  -3.51200 27.04300 19.79600
N  -4.35100 26.70400 26.40500
C  -3.46700 27.29500 25.52100
C  -2.56600 28.19900 26.30700
C  -3.00200 28.03600 27.60200
C  -4.08100 27.12800 27.63500
C  -1.51700 28.93800 25.73100
C  -2.80800 28.48900 28.95100
O  -1.99200 29.31400 29.43500
C  -3.83100 27.74200 29.83700
C  -3.16200 27.02600 30.90500
O  -2.39400 26.09300 30.70000
O  -3.24400 27.67000 32.06600
C  -2.21200 27.41300 33.16100
H  -7.99900 22.47900 28.77500
H  -7.06100 23.11100 22.36700
H  -2.48900 27.24100 23.57600
H  -5.05200 25.27400 31.27100
H  -7.55700 23.92300 30.77900
H  -5.45500 22.06400 30.07500
H  -6.47500 22.11600 31.51000
H  -4.91700 23.04000 31.39600
H  -7.84300 25.97500 30.92800
H  -6.71800 27.25500 30.70100
H  -7.91300 26.54100 33.08900
H  -6.47000 27.53700 32.99200
H  -9.44700 20.54000 27.52800
H  -10.68100 21.10500 26.65500
H  -10.16600 22.14800 27.71100
H  -10.20600 19.55800 24.05700
H  -10.82600 20.72200 22.92900
H  -10.96800 21.12100 24.60200
H  -5.70100 24.72200 21.00400
H  -2.89600 25.38300 21.84600
H  -4.71700 22.61300 20.65600
H  -4.07700 22.61000 22.26200
H  -3.12400 23.43000 21.03200
H  -4.10900 27.87600 21.63500
H  -5.33500 26.85500 20.94600
H  -2.79600 27.86400 19.84500
H  -4.17300 27.03500 18.92900
H  -2.82100 26.21300 19.65400
H  -1.91800 29.92100 25.48300
H  -1.12200 28.57200 24.78300
H  -0.70100 29.22900 26.39200
H  -4.50300 28.44700 30.32500
H  -2.36900 26.46500 33.67500
H  -2.22900 28.33000 33.75100
H  -1.18200 27.44100 32.80600

