158

Mg 17.79300 52.99900 25.76100
C  19.64600 51.59100 28.43700
C  15.19400 53.42500 27.93200
C  15.82800 53.83100 23.27000
C  20.32100 51.89700 23.52200
N  17.47000 52.73000 27.94500
C  18.37900 52.08100 28.80100
C  17.82200 52.06100 30.18400
C  16.26400 52.45500 30.00300
C  16.33400 52.93600 28.55800
C  15.20400 51.45400 30.44300
C  18.57900 53.14100 31.07500
C  18.45100 53.09300 32.61200
H  17.40600 52.21800 33.23200
N  15.98400 53.87700 25.72500
C  15.05800 53.94900 26.64500
C  13.91600 54.71900 26.18400
C  14.12000 54.91700 24.79600
C  15.33900 54.18600 24.51900
C  12.73900 55.07700 27.04200
C  13.30600 55.68000 23.74100
O  13.67800 55.94300 22.58100
C  11.91600 56.16800 24.06300
N  18.11900 52.88000 23.72900
C  17.08300 53.28200 22.87600
C  17.47900 53.18300 21.41700
C  19.02400 52.69800 21.57300
C  19.15000 52.41100 23.03500
C  16.58200 52.14300 20.69300
C  20.14100 53.70400 21.10500
C  20.36900 55.03600 21.94100
N  19.63200 51.89800 25.90900
C  20.58800 51.61500 24.89900
C  21.71800 51.05100 25.57300
C  21.43400 51.08600 26.99300
C  20.09200 51.51800 27.10500
C  22.98100 50.63300 25.03000
C  21.95900 50.73800 28.34300
O  23.00600 50.29400 28.65000
C  20.79000 51.08200 29.21800
C  20.45900 49.95300 30.12800
O  19.94300 48.91800 29.75200
O  20.73800 50.26800 31.43500
C  20.29700 49.20800 32.38300
H  14.35200 53.64800 28.59100
H  15.16100 53.98600 22.41900
H  21.12200 51.51300 22.88900
H  17.99300 51.09400 30.65700
H  16.21500 53.40000 30.54400
H  14.39800 51.92700 31.00500
H  15.55800 50.57400 30.98000
H  14.67600 51.06300 29.57400
H  18.23200 54.13900 30.80400
H  19.63600 53.06600 30.81900
H  18.30700 54.11800 32.95300
H  19.43800 52.86400 33.01400
H  12.08400 54.21600 27.17400
H  12.14500 55.91200 26.66900
H  12.97300 55.39100 28.05900
H  11.45000 56.48500 23.13000
H  12.08600 57.02400 24.71500
H  11.24300 55.46500 24.55400
H  17.42900 54.19400 21.01100
H  19.14600 51.77300 21.00900
H  15.76000 51.86000 21.35000
H  17.08200 51.26600 20.28100
H  16.00400 52.59900 19.88900
H  19.87300 53.81500 20.05400
H  21.07500 53.15400 20.99200
H  20.02100 54.81800 22.95000
H  19.81500 55.81200 21.41400
H  21.40100 55.38700 21.93400
H  23.28900 51.36900 24.28800
H  22.86300 49.62200 24.63800
H  23.71700 50.79000 25.81800
H  21.21500 51.98000 29.66700
H  20.97900 48.35800 32.37900
H  19.27000 48.84900 32.31100
H  20.21200 49.67100 33.36600
Mg 10.67900 47.86800 25.37800
C  8.78500 47.91100 28.37600
C  13.16400 49.61500 27.03900
C  12.46100 47.56700 22.75000
C  7.68900 46.59000 23.75400
N  10.93300 48.58400 27.54000
C  10.08500 48.46900 28.59200
C  10.67900 49.05300 29.85700
C  11.85000 49.98900 29.26100
C  12.01100 49.34300 27.86300
C  11.35700 51.45500 29.09400
C  11.38200 47.97400 30.76200
C  11.16500 48.26200 32.27600
H  10.96700 47.07500 33.26500
N  12.58800 48.47100 24.93600
C  13.46300 49.19200 25.76700
C  14.76800 49.34300 25.12800
C  14.58100 48.78900 23.82100
C  13.16100 48.22400 23.79300
C  16.00500 49.84200 25.81100
C  15.70400 48.65500 22.68100
O  15.35100 48.39500 21.49400
C  17.13300 48.98900 22.91100
N  10.00000 47.39800 23.49800
C  11.08400 47.21800 22.60900
C  10.65500 46.62900 21.27500
C  9.14400 46.24900 21.57000
C  8.88500 46.71200 23.04200
C  10.72300 47.59100 20.00000
C  8.93600 44.68000 21.33700
C  9.82600 43.69900 22.15500
N  8.61100 47.43300 25.89100
C  7.59200 46.93100 25.10900
C  6.44300 46.74100 25.97400
C  6.83800 47.14800 27.31500
C  8.16000 47.57500 27.12600
C  5.06000 46.29000 25.50400
C  6.47800 47.32100 28.72800
O  5.38700 47.03400 29.25000
C  7.75300 47.72300 29.49100
C  8.06600 46.59200 30.38700
O  8.80000 45.63300 30.12500
O  7.42600 46.75000 31.59700
C  7.62200 45.81900 32.69700
H  13.75500 50.36500 27.56900
H  13.14300 47.41700 21.91100
H  6.94500 46.12500 23.10500
H  9.96500 49.68100 30.38900
H  12.83200 49.85800 29.71500
H  11.96200 52.09400 29.73700
H  10.28500 51.51400 29.27900
H  11.43000 51.81700 28.06800
H  12.46900 47.96500 30.69400
H  11.01600 46.96200 30.59000
H  10.27000 48.87200 32.40100
H  12.11600 48.63500 32.65600
H  16.84700 49.15900 25.69500
H  15.84900 50.04400 26.87100
H  16.19900 50.80600 25.34100
H  17.15400 49.83000 23.60500
H  17.56800 49.15400 21.92500
H  17.58500 48.13900 23.42200
H  11.31500 45.79000 21.05300
H  8.45300 46.89100 21.02400
H  11.10900 48.56700 20.29400
H  9.75600 47.86300 19.57900
H  11.36200 47.05300 19.30000
H  9.18000 44.48600 20.29200
H  7.92000 44.35500 21.55900
H  10.09400 44.24100 23.06200
H  10.64800 43.23400 21.61000
H  9.11800 42.91800 22.43200
H  5.11200 45.82200 24.52000
H  4.48400 47.21600 25.52300
H  4.59800 45.61900 26.22700
H  7.73200 48.63400 30.08900
H  7.24800 44.84800 32.37200
H  7.17300 46.19100 33.61800
H  8.68800 45.68900 32.88200

