158

Mg 46.57500 15.56900 28.14100
C  44.56200 15.66900 31.04600
C  48.81000 17.67800 29.90300
C  48.47500 15.89400 25.43900
C  44.08300 14.03000 26.41100
N  46.60600 16.68000 30.20000
C  45.68500 16.46700 31.26100
C  46.22100 17.03500 32.63200
C  47.47100 17.85000 32.08000
C  47.66400 17.30100 30.62500
C  47.42800 19.34500 32.31600
C  46.52700 15.97900 33.73800
C  45.74500 16.24800 35.01000
H  45.85300 17.58400 35.68400
N  48.49200 16.46600 27.77300
C  49.24800 17.28900 28.56600
C  50.44800 17.70800 27.92400
C  50.42400 17.08300 26.65100
C  49.08700 16.43000 26.57300
C  51.62500 18.34500 28.64300
C  51.56300 17.00400 25.60900
O  51.50600 16.24700 24.64500
C  52.76200 17.76900 25.80500
N  46.30300 15.06400 26.30000
C  47.23100 15.23300 25.31600
C  46.78800 14.62400 23.96600
C  45.41700 13.98000 24.32900
C  45.21000 14.47700 25.79500
C  46.81500 15.63200 22.79000
C  45.39200 12.40000 24.00500
C  46.02600 11.44500 25.00100
N  44.71500 14.88300 28.57800
C  43.77000 14.28300 27.76600
C  42.56200 14.07100 28.50100
C  42.87400 14.53300 29.85800
C  44.15100 15.04800 29.83300
C  41.33700 13.43900 27.77600
C  42.33300 14.73500 31.22100
O  41.22100 14.31300 31.73900
C  43.47400 15.40400 32.03500
C  42.90400 16.62400 32.75200
O  43.00100 17.79800 32.42500
O  42.29600 16.23900 33.92300
C  41.62900 17.36300 34.61700
H  49.54700 18.32800 30.37800
H  49.03800 16.04400 24.51500
H  43.28300 13.65400 25.77000
H  45.48500 17.77500 32.94600
H  48.36900 17.55200 32.62200
H  46.70500 19.62600 33.08200
H  47.25000 19.85900 31.37100
H  48.39400 19.71000 32.66300
H  47.57800 16.12400 33.98700
H  46.30600 14.94300 33.47900
H  46.10000 15.46800 35.68400
H  44.72500 16.02600 34.69500
H  52.40800 17.59100 28.56400
H  51.48800 18.55900 29.70300
H  51.91000 19.24900 28.10400
H  52.27900 18.66500 26.19400
H  53.28000 18.11700 24.91100
H  53.27200 17.07900 26.47600
H  47.42600 13.78000 23.70400
H  44.61500 14.47500 23.78100
H  47.40800 16.51000 23.04700
H  45.89100 15.98200 22.33100
H  47.49300 15.19100 22.06000
H  45.87200 12.21400 23.04400
H  44.32400 12.22500 23.87100
H  46.31900 11.95200 25.92100
H  46.85500 10.92400 24.52200
H  45.28600 10.67500 25.21600
H  41.73100 12.59000 27.21800
H  40.83300 14.19200 27.17000
H  40.60700 13.00000 28.45600
H  43.76500 14.70400 32.81800
H  42.31400 18.04600 35.11900
H  40.97300 16.95200 35.38400
H  41.01300 17.79000 33.82600
Mg 17.01700 52.24100 25.23100
C  18.87600 51.03300 28.08200
C  14.66600 53.26000 27.40900
C  15.29100 53.06600 22.58800
C  19.57300 50.90200 23.20700
N  16.94500 52.29900 27.47300
C  17.81500 51.85600 28.42300
C  17.33600 52.11400 29.84400
C  15.87600 52.71700 29.65000
C  15.81100 52.69800 28.12300
C  14.83800 51.88600 30.38400
C  18.34800 53.06900 30.64300
C  18.79700 52.62100 32.12200
H  17.85500 51.78100 32.95100
N  15.25100 53.06300 25.00500
C  14.40900 53.38100 26.03400
C  13.19600 53.96900 25.46800
C  13.27600 53.79700 24.06400
C  14.67300 53.29600 23.81500
C  12.06200 54.57400 26.27400
C  12.20100 54.08800 23.03000
O  12.38000 53.77700 21.81400
C  10.80800 54.58300 23.43600
N  17.29500 51.78500 23.21500
C  16.47100 52.33700 22.26900
C  16.87400 52.03100 20.79900
C  18.25500 51.44200 21.07700
C  18.38700 51.42400 22.58900
C  15.95500 50.99600 20.17100
C  19.31500 52.27500 20.42200
C  20.60200 51.65800 20.06500
N  18.74600 51.09100 25.49300
C  19.68300 50.59000 24.56700
C  20.72500 49.92800 25.27400
C  20.47300 50.07500 26.64900
C  19.23000 50.72500 26.73000
C  21.95500 49.45100 24.55600
C  21.00900 49.71200 27.97400
O  22.05900 49.11300 28.32400
C  19.91600 50.29400 28.96200
C  19.31400 49.12200 29.60200
O  19.01900 48.11400 29.06400
O  19.22800 49.25400 30.97800
C  18.77900 48.13400 31.77200
H  13.83500 53.54500 28.05800
H  14.71300 53.20400 21.67100
H  20.33400 50.40000 22.60700
H  17.26900 51.16500 30.37700
H  15.73600 53.70600 30.08500
H  14.07300 52.51900 30.83500
H  15.16600 51.27000 31.22100
H  14.20100 51.27300 29.74600
H  17.82000 54.02100 30.70400
H  19.28100 53.02700 30.08200
H  19.01000 53.46900 32.77400
H  19.59600 51.89600 31.96800
H  12.12400 55.62700 25.99900
H  12.16400 54.45000 27.35200
H  11.13800 54.04600 26.03700
H  10.93700 55.45200 24.08300
H  10.31800 53.79800 24.01300
H  10.28800 54.76700 22.49600
H  16.79900 52.87900 20.11700
H  18.28700 50.40000 20.75800
H  15.38900 50.46200 20.93400
H  16.44200 50.26900 19.52200
H  15.18600 51.47700 19.56700
H  19.46000 53.04800 21.17600
H  18.87700 52.75900 19.54900
H  20.62800 51.48500 18.99000
H  20.60500 50.63200 20.43500
H  21.43600 52.24800 20.44600
H  22.79300 49.25600 25.22500
H  22.36600 50.13200 23.81100
H  21.83700 48.48800 24.05900
H  20.26000 50.87100 29.82100
H  17.81600 47.69500 31.51400
H  18.79200 48.40700 32.82700
H  19.45100 47.27500 31.79900

