158

Mg 35.20900 3.00600 29.19000
C  33.26800 4.01200 32.06900
C  37.95700 3.14100 31.36700
C  37.31400 2.65700 26.65200
C  32.52300 3.68900 27.21500
N  35.54200 3.53100 31.48600
C  34.58100 3.84400 32.42400
C  35.13700 3.93400 33.79300
C  36.68200 3.91500 33.50700
C  36.76200 3.54200 31.97600
C  37.54600 5.19700 33.76700
C  34.76700 2.61600 34.60600
C  34.51500 2.82800 36.10100
H  35.38500 3.68700 37.05500
N  37.30200 2.69000 29.02600
C  38.19900 2.68200 30.07100
C  39.51700 2.21200 29.55200
C  39.41400 2.07300 28.17100
C  37.95800 2.43900 27.87900
C  40.66900 1.80700 30.39400
C  40.29900 1.64100 27.11500
O  39.98700 1.62600 25.88400
C  41.73500 1.26600 27.47500
N  34.97200 3.26600 27.30400
C  35.96200 3.01200 26.35000
C  35.48400 3.15200 24.97800
C  33.93000 3.18200 25.09100
C  33.78100 3.37200 26.65800
C  36.10700 4.28900 24.14500
C  33.20900 1.92600 24.43200
C  32.72900 0.87800 25.40400
N  33.30200 3.76800 29.54200
C  32.19600 3.87100 28.60300
C  30.97000 4.10400 29.29500
C  31.35800 4.18500 30.68200
C  32.78200 3.99500 30.74200
C  29.65200 4.26300 28.48300
C  30.84400 4.33300 32.01600
O  29.74200 4.67600 32.42000
C  32.06000 4.19800 33.00300
C  32.28400 5.39400 33.79600
O  32.54500 6.50600 33.34200
O  32.01400 4.99700 35.09200
C  32.13900 6.00400 36.11500
H  38.82200 3.11900 32.03300
H  37.82700 2.53100 25.69700
H  31.69300 3.57500 26.51500
H  34.89000 4.86600 34.30100
H  37.28600 3.12300 33.94900
H  38.47700 4.91600 34.26000
H  37.05100 5.99000 34.32800
H  37.75200 5.58900 32.77100
H  35.68600 2.03100 34.63600
H  33.96500 1.94800 34.29300
H  34.47200 1.83500 36.54900
H  33.54100 3.27200 36.30700
H  40.75100 0.72600 30.28500
H  40.49000 2.13400 31.41900
H  41.52600 2.35700 30.00400
H  42.34100 2.07100 27.89100
H  42.19800 0.92700 26.54800
H  41.74400 0.38700 28.11900
H  35.84900 2.23900 24.50800
H  33.52200 4.02400 24.53300
H  35.41400 5.11500 23.98500
H  36.47100 3.88100 23.20300
H  36.92200 4.67400 24.75800
H  33.85600 1.49300 23.66900
H  32.39300 2.39300 23.88100
H  32.58600 -0.01800 24.80100
H  31.72200 1.02600 25.79400
H  33.38600 0.75000 26.26500
H  29.50300 5.34200 28.54200
H  28.94000 3.73900 29.12100
H  29.65500 3.97400 27.43200
H  31.95800 3.31000 33.62700
H  32.68000 5.58700 36.96400
H  31.15000 6.30700 36.46000
H  32.59100 6.93000 35.75900
Mg 48.00700 25.39400 28.15700
C  48.62600 27.73700 30.66000
C  47.12300 23.12500 30.41800
C  47.48100 23.35900 25.53500
C  49.58400 27.66300 25.98200
N  47.81100 25.46800 30.33400
C  48.00100 26.53400 31.18100
C  47.71800 26.06000 32.61400
C  47.43000 24.51700 32.50900
C  47.53700 24.29600 30.98100
C  48.39800 23.55400 33.37300
C  46.64700 26.91600 33.39300
C  47.12500 27.28000 34.83200
H  45.99800 27.60500 35.77300
N  47.32500 23.49400 28.03000
C  46.98000 22.69900 29.07900
C  46.47900 21.45800 28.55500
C  46.49600 21.52300 27.11600
C  47.15100 22.79400 26.78100
C  46.02300 20.33900 29.38200
C  45.99800 20.48600 26.04500
O  46.23900 20.58700 24.84300
C  45.03800 19.29000 26.40800
N  48.50700 25.43000 26.11000
C  48.18300 24.48700 25.20800
C  48.41300 24.89400 23.70800
C  48.99500 26.34900 23.88500
C  48.95800 26.53500 25.37300
C  49.34100 23.93000 22.88500
C  48.26700 27.44900 23.07100
C  49.11900 28.67600 22.67100
N  49.00000 27.30000 28.24000
C  49.73400 28.07200 27.29800
C  50.11900 29.34500 27.88900
C  49.76400 29.27800 29.19700
C  49.10000 28.05600 29.35200
C  50.83900 30.45500 27.14000
C  49.83600 29.99100 30.48500
O  50.27400 31.03500 30.88700
C  49.04100 29.00700 31.48400
C  50.07600 28.50300 32.47300
O  50.89500 27.64600 32.26000
O  50.11100 29.31900 33.63000
C  50.91300 28.71600 34.69600
H  47.03000 22.22500 31.02900
H  47.19700 22.86000 24.60600
H  50.09200 28.28300 25.24000
H  48.65900 26.16600 33.15500
H  46.39600 24.28400 32.76500
H  48.71700 23.97000 34.32900
H  49.29600 23.39400 32.77600
H  47.84000 22.62500 33.49000
H  45.66400 26.44800 33.33300
H  46.48500 27.86200 32.87700
H  47.67900 28.21700 34.79300
H  47.69600 26.51000 35.35200
H  46.40300 20.34900 30.40300
H  46.40100 19.41200 28.95100
H  44.93300 20.36500 29.39000
H  44.37600 19.65100 27.19500
H  45.70500 18.49500 26.74400
H  44.51000 18.93900 25.52100
H  47.45400 24.90600 23.18900
H  50.03700 26.38500 23.56700
H  49.71000 23.09200 23.47400
H  50.13200 24.46800 22.36200
H  48.72000 23.49800 22.10000
H  47.30100 27.77700 23.45500
H  47.90000 26.98600 22.15500
H  49.03700 28.77800 21.58900
H  50.17200 28.59800 22.94200
H  48.74200 29.51900 23.25100
H  51.41700 30.08600 26.29300
H  51.56100 30.86700 27.84500
H  50.20600 31.24800 26.74300
H  48.23600 29.61400 31.89700
H  50.38700 27.87000 35.13900
H  51.21700 29.45100 35.44100
H  51.86800 28.31800 34.35400

