158

Mg 2.35800 -2.05700 44.86700
C  5.80800 -1.70300 44.42300
C  1.91600 0.68700 42.70800
C  -0.92300 -2.97000 44.46100
C  3.07900 -5.27900 46.28900
N  3.66800 -0.84800 43.50800
C  5.07400 -0.84500 43.57400
C  5.64100 0.35200 42.75000
C  4.34300 1.27100 42.51200
C  3.23600 0.32800 42.95300
C  4.29100 2.55600 43.38200
C  6.39800 -0.19000 41.39300
C  7.93700 0.16000 41.31900
H  8.47600 0.60100 39.95900
N  0.62600 -1.18100 43.93700
C  0.69400 -0.03800 43.10700
C  -0.61600 0.41900 42.91300
C  -1.49100 -0.58300 43.43000
C  -0.60700 -1.63500 44.00800
C  -0.86400 1.77700 42.20200
C  -3.03100 -0.50200 43.46300
O  -3.67400 0.49900 43.05800
C  -3.97300 -1.64600 44.02100
N  1.23300 -3.86200 45.38400
C  -0.13200 -3.94200 45.12900
C  -0.65900 -5.33200 45.57400
C  0.59500 -6.05300 46.27600
C  1.69500 -5.03100 45.99900
C  -2.00000 -5.46200 46.31300
C  0.88700 -7.50500 45.84700
C  1.22900 -8.52400 46.99100
N  4.00000 -3.20600 45.57100
C  4.12100 -4.45100 46.14700
C  5.49100 -4.71700 46.46100
C  6.18000 -3.62500 45.89900
C  5.30800 -2.75100 45.28200
C  5.93900 -5.90700 47.15400
C  7.44200 -2.96200 45.66500
O  8.56400 -3.19000 46.10700
C  7.30400 -1.74900 44.73100
C  7.82000 -0.48700 45.37100
O  7.46900 0.06500 46.40800
O  8.82100 0.03300 44.50000
C  9.21900 1.40900 44.83300
H  1.90900 1.57100 42.06700
H  -1.94100 -3.28700 44.22600
H  3.20500 -6.22400 46.82100
H  6.37400 0.99100 43.24300
H  4.34800 1.61700 41.47800
H  3.41800 2.63300 44.02900
H  4.32900 3.51300 42.86200
H  5.14200 2.72400 44.04200
H  5.88700 0.23300 40.52900
H  6.25300 -1.26300 41.26900
H  8.55200 -0.71600 41.52600
H  8.22700 0.91600 42.04900
H  -0.44700 2.44900 42.95200
H  -1.89900 2.02600 41.96800
H  -0.30200 1.87000 41.27300
H  -5.01200 -1.31700 44.04700
H  -3.65600 -1.88800 45.03600
H  -3.96200 -2.53900 43.39700
H  -0.82800 -5.87200 44.64300
H  0.41500 -6.05900 47.35100
H  -2.63100 -5.99100 45.60000
H  -2.34700 -4.44100 46.47300
H  -1.97900 -6.11100 47.18900
H  1.74900 -7.48100 45.18000
H  0.10200 -7.94000 45.23000
H  1.53200 -8.01200 47.90400
H  2.10000 -9.10500 46.68500
H  0.34800 -9.16500 47.03000
H  5.57800 -6.80100 46.64600
H  5.58100 -5.91900 48.18400
H  7.02900 -5.91300 47.14200
H  7.73000 -1.85800 43.73300
H  8.39500 2.06400 44.54900
H  10.19400 1.58700 44.37900
H  9.37100 1.59100 45.89700
Mg 47.01400 34.85900 26.14900
C  45.73700 33.29600 29.08900
C  47.28300 37.71800 28.11900
C  48.00900 36.44900 23.44600
C  46.51700 31.90000 24.43900
N  46.62100 35.40300 28.34200
C  46.25200 34.59900 29.39300
C  46.31200 35.29000 30.72700
C  46.66000 36.76200 30.40900
C  46.97700 36.60400 28.88100
C  45.71000 37.77400 30.96100
C  47.51200 34.56400 31.54000
C  47.52000 34.52000 33.06700
H  46.33600 35.23700 33.70200
N  47.48800 36.81100 25.78900
C  47.50800 37.85100 26.73100
C  47.93000 39.12600 26.05700
C  48.34900 38.62700 24.71400
C  47.86500 37.26500 24.57200
C  48.18200 40.38600 26.83400
C  49.09200 39.47100 23.68200
O  49.44500 39.02800 22.57800
C  49.51600 40.85900 24.05200
N  47.01400 34.29100 24.22800
C  47.66600 35.09600 23.28200
C  48.14500 34.34900 22.04900
C  47.67100 32.85500 22.32200
C  47.03100 33.04000 23.69400
C  47.70900 34.89200 20.66100
C  48.87000 31.76300 22.37000
C  49.25200 30.99000 21.10100
N  46.25100 33.00500 26.57500
C  46.13400 31.86400 25.77000
C  45.51600 30.79800 26.53000
C  45.23400 31.32300 27.81600
C  45.75200 32.67000 27.82500
C  45.16900 29.39500 25.93900
C  44.67000 31.11800 29.06100
O  43.98000 30.16700 29.35700
C  44.91200 32.43000 29.94100
C  45.44300 31.80900 31.18200
O  46.36900 31.01400 31.30600
O  44.50700 31.99900 32.17800
C  44.72400 31.44800 33.56900
H  47.26700 38.66400 28.66400
H  48.35000 36.91800 22.52100
H  46.37700 30.98700 23.85600
H  45.37500 35.13300 31.26000
H  47.56200 37.13100 30.89700
H  45.20400 38.17000 30.08000
H  46.22800 38.63300 31.38800
H  45.07100 37.28400 31.69500
H  48.35300 35.16600 31.19700
H  47.71000 33.53300 31.24800
H  48.45000 34.70200 33.60500
H  47.32000 33.45400 33.17200
H  47.91700 41.23000 26.19600
H  49.23100 40.28800 27.11400
H  47.68500 40.51800 27.79500
H  48.67800 41.55500 24.10700
H  50.12700 41.22600 23.22700
H  50.22700 40.89000 24.87700
H  49.23400 34.36300 22.10000
H  46.88500 32.49200 21.66100
H  46.72500 35.36000 20.67700
H  47.76300 34.14700 19.86700
H  48.43800 35.67100 20.43900
H  48.77600 31.12700 23.24900
H  49.81800 32.29600 22.45200
H  50.26100 31.18000 20.73600
H  48.57900 31.35200 20.32300
H  49.18400 29.91300 21.25500
H  45.02000 28.64300 26.71300
H  46.10000 29.07800 25.46900
H  44.30000 29.38800 25.28000
H  43.96000 32.89600 30.19200
H  43.80300 31.17000 34.08000
H  45.17300 32.25200 34.15300
H  45.49900 30.68600 33.65400

