158

Mg 46.93500 17.30600 28.17300
C  45.20400 17.06800 31.18000
C  49.19900 19.47600 29.71300
C  48.18600 18.12200 25.22200
C  44.18700 15.69300 26.62200
N  47.09500 18.32700 30.21600
C  46.40700 17.79400 31.32200
C  47.13300 18.28700 32.66000
C  48.38400 19.05500 32.09100
C  48.22100 18.96100 30.56500
C  48.62500 20.39600 32.70500
C  47.47900 17.15600 33.69000
C  46.90200 17.26400 35.06500
H  46.60400 18.64500 35.56500
N  48.54500 18.51100 27.54800
C  49.45100 19.24000 28.37200
C  50.52600 19.77000 27.53800
C  50.15000 19.56800 26.19600
C  48.92400 18.71800 26.23400
C  51.71600 20.36600 28.10200
C  50.91800 19.91000 24.92700
O  50.49500 19.71700 23.81600
C  52.33200 20.49500 25.06400
N  46.24000 16.95200 26.18000
C  47.06500 17.35000 25.11500
C  46.58200 16.62800 23.78600
C  45.28200 15.89100 24.27200
C  45.21100 16.18500 25.76700
C  46.52600 17.60600 22.61100
C  45.29400 14.32500 23.95400
C  46.30200 13.42700 24.82200
N  45.08700 16.57400 28.69500
C  44.09000 15.96000 27.97800
C  42.99200 15.51900 28.86500
C  43.43000 15.94000 30.11800
C  44.67000 16.59900 29.96400
C  41.67000 14.92100 28.42200
C  43.10900 15.88500 31.61500
O  42.09000 15.53500 32.21800
C  44.23600 16.72200 32.29700
C  43.64700 17.96400 32.92000
O  43.40400 19.04300 32.40700
O  43.18300 17.59900 34.17400
C  42.36500 18.59600 34.87100
H  50.12100 19.83700 30.17400
H  48.75100 18.23100 24.29400
H  43.35900 15.15400 26.15700
H  46.45500 18.98000 33.15700
H  49.22700 18.41600 32.35400
H  47.77200 20.67900 33.32200
H  48.74500 21.03400 31.83000
H  49.45500 20.40100 33.41200
H  48.53500 16.88700 33.65000
H  47.06200 16.25200 33.24700
H  47.59600 16.77100 35.74600
H  45.92400 16.80700 34.92200
H  52.60500 19.75800 27.93600
H  51.72100 20.45700 29.18900
H  51.86700 21.31200 27.58100
H  52.94300 19.88600 25.73000
H  52.24700 21.55700 25.29500
H  52.81300 20.42100 24.08800
H  47.32200 15.85800 23.56700
H  44.39100 16.24600 23.75300
H  46.61100 18.58700 23.07700
H  45.55400 17.42600 22.15100
H  47.40400 17.37500 22.00800
H  45.83600 14.30900 23.00800
H  44.32100 13.84400 23.85400
H  46.80700 12.68500 24.20300
H  45.70700 12.88400 25.55600
H  47.14900 13.93900 25.27800
H  40.96100 14.99800 29.24600
H  41.81200 13.89600 28.07700
H  41.30500 15.38000 27.50200
H  44.70600 16.15500 33.10000
H  41.47700 18.02600 35.14200
H  42.05300 19.48200 34.31800
H  42.93900 18.87600 35.75500
Mg 27.66800 58.65100 42.21700
C  25.74500 56.15900 40.54200
C  30.42200 57.42300 40.65000
C  29.23900 61.17200 43.55000
C  24.48400 60.07200 43.22600
N  27.97100 57.05500 40.64200
C  27.10400 56.09500 40.18300
C  27.87300 54.94000 39.45000
C  29.33600 55.28400 39.76300
C  29.24900 56.70000 40.44800
C  30.21500 54.17100 40.43900
C  27.54300 54.85200 37.90800
C  27.14600 53.55800 37.17400
H  26.82600 53.55800 35.65100
N  29.63600 59.26900 42.12000
C  30.62900 58.63700 41.41000
C  31.83700 59.31600 41.64200
C  31.60900 60.41000 42.57600
C  30.15700 60.39800 42.80100
C  33.21100 58.89300 41.04500
C  32.60600 61.35400 43.15200
O  33.81900 61.18300 43.05600
C  32.14800 62.61400 43.86800
N  26.94100 60.33600 43.29500
C  27.87300 61.27000 43.58900
C  27.09800 62.50300 44.24700
C  25.58200 62.15900 44.19600
C  25.64700 60.77200 43.50200
C  27.49900 62.90600 45.70300
C  24.63000 63.18500 43.54500
C  23.96100 64.12100 44.51600
N  25.51000 58.21700 42.03600
C  24.38200 58.84900 42.53500
C  23.18700 58.11600 42.15800
C  23.69500 57.11700 41.34800
C  25.09500 57.21900 41.31600
C  21.80300 58.24200 42.66900
C  23.30400 55.90500 40.66000
O  22.17000 55.41300 40.48200
C  24.60200 55.20200 40.17700
C  24.75700 53.87800 40.86900
O  24.98900 53.66300 42.04300
O  24.54800 52.76200 40.00300
C  24.35700 51.43900 40.49400
H  31.37200 57.00600 40.31000
H  29.75500 61.96700 44.09100
H  23.49700 60.49100 43.43100
H  27.54700 54.08600 40.04400
H  29.82400 55.47400 38.80700
H  31.26800 54.30900 40.19400
H  29.89500 53.16300 40.17300
H  30.14900 54.18600 41.52700
H  28.32700 55.34400 37.33200
H  26.62100 55.41500 37.76300
H  26.33300 53.09600 37.73400
H  27.85300 52.73000 37.22600
H  33.78100 58.15400 41.60700
H  33.86000 59.75300 40.88200
H  32.91200 58.49600 40.07500
H  31.49500 63.16500 43.19100
H  32.89200 63.35700 44.15400
H  31.60700 62.35400 44.77800
H  27.35600 63.34200 43.60100
H  25.24900 62.01600 45.22400
H  28.06400 63.83700 45.74500
H  28.06700 62.16000 46.25900
H  26.66100 63.02500 46.38900
H  23.92700 62.67200 42.88900
H  25.13600 63.81500 42.81300
H  24.05500 65.14600 44.16000
H  24.50100 64.03100 45.45900
H  22.97000 63.70100 44.69100
H  21.13300 58.75500 41.97900
H  21.71100 58.79600 43.60300
H  21.37500 57.25100 42.82600
H  24.66700 55.00800 39.10700
H  24.13200 50.73800 39.69000
H  23.49600 51.35700 41.15700
H  25.23100 50.96800 40.94400

