158

Mg 42.77100 42.24900 26.09400
C  41.60400 44.28400 28.63400
C  44.24000 40.14200 28.33700
C  43.84000 40.26500 23.58700
C  41.83400 44.67600 23.72200
N  43.01100 42.31300 28.32700
C  42.26700 43.12700 29.12900
C  42.44700 42.62000 30.52200
C  43.53600 41.47600 30.51500
C  43.59400 41.22500 28.98300
C  44.90000 41.89800 31.17400
C  41.03000 42.30100 31.17000
C  40.70900 43.15000 32.48400
H  41.57000 42.82900 33.65300
N  43.90600 40.55500 25.95800
C  44.35800 39.82800 26.99200
C  44.95500 38.58600 26.58400
C  44.69000 38.49100 25.24000
C  44.11500 39.84500 24.86200
C  45.79400 37.67200 27.44500
C  44.90500 37.29500 24.32100
O  44.56800 37.32500 23.15400
C  45.31200 35.91700 24.91700
N  42.89200 42.52300 24.02000
C  43.35100 41.55400 23.19400
C  43.33000 41.95600 21.71400
C  42.37300 43.27300 21.78700
C  42.44400 43.55700 23.23900
C  44.77200 42.21700 21.15900
C  40.87100 43.10700 21.22500
C  40.01200 42.04400 21.86400
N  41.99700 44.12000 26.07400
C  41.62000 45.07200 25.08300
C  40.98800 46.25900 25.66700
C  41.00300 45.92400 27.06800
C  41.58700 44.62800 27.25600
C  40.58900 47.52500 25.08000
C  40.61600 46.39000 28.37100
O  40.07200 47.44200 28.64500
C  40.91800 45.35400 29.41700
C  41.84800 46.04000 30.41500
O  43.02100 46.32600 30.19200
O  41.20400 46.42000 31.53900
C  42.12500 46.71900 32.65900
H  44.72900 39.41000 28.98300
H  44.22800 39.61100 22.80400
H  41.41900 45.41200 23.03000
H  42.75700 43.48700 31.10500
H  43.32000 40.55900 31.06400
H  45.54500 42.36800 30.43300
H  45.43300 41.00500 31.50300
H  44.65500 42.45300 32.07900
H  40.92600 41.26800 31.50000
H  40.23400 42.54600 30.46600
H  39.71400 42.90100 32.85200
H  40.70200 44.22400 32.29600
H  46.45500 38.10500 28.19600
H  46.52300 37.08500 26.88700
H  45.15600 36.95600 27.96400
H  44.64000 35.82100 25.76900
H  46.35400 35.88900 25.23600
H  45.10100 35.15500 24.16700
H  42.75700 41.24800 21.11500
H  42.73200 44.17300 21.28700
H  45.09200 41.52500 20.38100
H  45.44300 41.97000 21.98200
H  44.94500 43.26300 20.90700
H  41.07200 42.97000 20.16200
H  40.29700 44.03200 21.27200
H  40.33700 41.47000 22.73200
H  39.82700 41.22000 21.17500
H  39.06200 42.50400 22.13400
H  39.52900 47.48100 25.33100
H  40.79300 47.53700 24.00900
H  40.96900 48.43700 25.54000
H  40.02000 44.96700 29.89900
H  42.41700 47.75800 32.50900
H  43.00300 46.07500 32.66200
H  41.52100 46.69400 33.56600
Mg 6.16900 53.42300 40.64600
C  5.43900 49.92600 40.40700
C  9.33800 52.64600 39.48500
C  6.69200 56.61100 40.09500
C  2.73300 53.96500 41.10700
N  7.22000 51.49200 40.18900
C  6.70200 50.23100 39.98100
C  7.81700 49.21900 39.55300
C  9.15900 50.12600 39.82400
C  8.55200 51.52300 39.75400
C  9.88200 49.83900 41.20700
C  7.66800 48.73400 37.97600
C  6.93300 49.73600 37.01700
H  6.16600 49.24800 35.63900
N  7.83700 54.51000 39.95300
C  9.08400 53.99200 39.54900
C  9.99400 55.02500 39.44800
C  9.21500 56.23200 39.65000
C  7.86600 55.86100 39.91400
C  11.42400 54.83400 39.11100
C  9.88000 57.58000 39.73700
O  11.06000 57.66400 39.63300
C  9.20400 58.80500 39.98600
N  4.85600 55.08800 40.58400
C  5.32400 56.34600 40.37800
C  4.17600 57.41300 40.52700
C  2.96700 56.55000 40.86000
C  3.50500 55.12900 40.86600
C  4.52100 58.52100 41.56500
C  1.70500 56.54500 39.90900
C  0.27400 56.45700 40.51300
N  4.42200 52.24900 40.83400
C  3.09000 52.59400 41.10300
C  2.31000 51.44900 41.36400
C  3.21100 50.40200 41.07800
C  4.45600 50.90400 40.79100
C  0.91400 51.39100 41.80300
C  3.31000 48.94000 40.97600
O  2.49300 48.05700 41.20000
C  4.71800 48.59800 40.43700
C  4.60100 48.01700 39.09700
O  4.24800 48.53500 38.05300
O  4.80100 46.68400 39.29900
C  4.66800 45.77400 38.13600
H  10.39400 52.46500 39.27400
H  6.81400 57.66600 39.84000
H  1.71500 54.27900 41.34700
H  7.66900 48.35900 40.20600
H  9.87100 50.05500 39.00200
H  9.32000 49.19000 41.87800
H  9.99300 50.76300 41.77500
H  10.83700 49.39900 40.92000
H  7.22200 47.74100 37.91500
H  8.71300 48.67400 37.67300
H  7.72900 50.36000 36.61000
H  6.21500 50.35000 37.56100
H  11.77800 53.84300 39.39600
H  12.00000 55.47300 39.78000
H  11.56600 54.98400 38.04100
H  8.51200 58.74200 40.82600
H  8.55000 59.00600 39.13700
H  9.90500 59.63000 40.11600
H  3.87200 57.91800 39.61000
H  2.63700 56.66700 41.89200
H  5.34800 58.18800 42.19200
H  3.68700 58.71200 42.24000
H  4.71500 59.44900 41.02700
H  1.79700 55.73900 39.18100
H  1.66200 57.48400 39.35700
H  0.29600 56.04000 41.52000
H  -0.49600 55.97400 39.91200
H  -0.14100 57.46400 40.55300
H  0.52100 52.38400 42.02300
H  0.94000 50.85800 42.75300
H  0.29300 50.99600 40.99900
H  5.33300 47.99000 41.10000
H  5.47000 45.03600 38.14600
H  4.52100 46.22100 37.15300
H  3.76600 45.20700 38.36600

