158

Mg 47.09000 16.31800 28.48500
C  45.22700 15.47500 31.26200
C  48.74500 18.61600 30.27700
C  48.86300 17.19500 25.69000
C  45.05700 14.31900 26.53700
N  46.91700 16.96600 30.52700
C  46.22900 16.39000 31.52800
C  46.68900 16.90300 32.92400
C  47.63200 18.08000 32.55300
C  47.81300 17.82100 31.04100
C  47.13100 19.51900 32.92500
C  47.37800 15.83100 33.77600
C  47.12600 15.80100 35.31900
H  48.38200 15.81900 36.26400
N  48.67400 17.59700 28.07200
C  49.28200 18.39900 28.99400
C  50.44500 19.02800 28.41100
C  50.49700 18.66100 27.09700
C  49.34100 17.73600 26.87600
C  51.53100 19.64700 29.35000
C  51.47300 19.09300 25.93600
O  51.43200 18.69600 24.77300
C  52.63900 19.88400 26.36400
N  47.06300 15.69400 26.41600
C  47.90500 16.15400 25.45700
C  47.41600 15.71300 24.03400
C  46.42100 14.58900 24.44200
C  46.14500 14.84800 25.86300
C  46.67400 16.80000 23.26300
C  47.01800 13.19100 24.40700
C  47.03700 12.39600 23.07000
N  45.38700 15.24000 28.74400
C  44.68000 14.44900 27.88400
C  43.57500 13.73700 28.49600
C  43.79700 14.09600 29.86800
C  44.87700 14.99900 29.92900
C  42.46300 12.88100 27.93900
C  43.33500 13.95000 31.30500
O  42.40200 13.27800 31.72500
C  44.28200 14.74900 32.27700
C  43.46600 15.82900 32.97600
O  42.79100 16.69900 32.46400
O  43.41600 15.57300 34.36500
C  42.50300 16.27600 35.19300
H  49.39200 19.29000 30.84200
H  49.44800 17.51600 24.82600
H  44.31500 13.80900 25.92000
H  45.79300 17.28800 33.41300
H  48.63800 17.90400 32.93400
H  46.27700 19.80300 32.31000
H  47.96600 20.21000 32.81500
H  46.74100 19.47900 33.94200
H  48.46100 15.94800 33.74500
H  47.12300 14.83000 33.42700
H  46.46000 14.99400 35.62400
H  46.58400 16.74300 35.40100
H  51.35800 20.72300 29.36000
H  52.55400 19.42600 29.04600
H  51.41400 19.34400 30.39100
H  52.28800 20.78100 26.87400
H  53.23700 20.18700 25.50500
H  53.25400 19.26700 27.02000
H  48.25500 15.38500 23.42000
H  45.47200 14.55300 23.90900
H  45.65800 16.59300 22.92900
H  47.34400 16.91500 22.41100
H  46.59400 17.78200 23.72800
H  46.38800 12.57000 25.04300
H  47.99700 13.25100 24.88300
H  46.61700 11.43500 23.36900
H  48.09300 12.30100 22.81700
H  46.56400 12.86200 22.20600
H  41.86200 13.47300 27.25000
H  41.73600 12.64900 28.71700
H  42.86400 12.00000 27.43600
H  44.65300 14.03700 33.01500
H  41.67400 16.65400 34.59500
H  43.05300 17.13300 35.58200
H  42.19900 15.59600 35.98800
Mg 5.57000 56.72500 42.98700
C  5.03100 53.16300 42.83200
C  8.50600 56.17500 41.38400
C  5.77300 60.05100 42.46400
C  2.30000 57.02100 44.10500
N  6.45400 54.86200 42.00800
C  6.15400 53.52600 42.15300
C  7.10800 52.62300 41.38400
C  8.42600 53.57500 41.47200
C  7.77300 54.96600 41.55300
C  9.33500 53.35900 42.81000
C  6.66100 52.33800 39.81700
C  7.08600 51.04100 39.24800
H  6.12000 50.33400 38.29800
N  7.02800 57.93100 42.13400
C  8.19100 57.53000 41.55900
C  8.91400 58.62300 40.94100
C  8.08900 59.79200 41.16100
C  6.86900 59.28800 41.90900
C  10.36000 58.49200 40.31900
C  8.40800 61.21700 40.69600
O  9.52000 61.41200 40.17000
C  7.45700 62.33600 40.81300
N  4.20500 58.23000 43.08200
C  4.57600 59.57200 42.99700
C  3.57600 60.45000 43.73200
C  2.37600 59.49600 44.16900
C  3.03500 58.14500 43.75100
C  4.22900 61.35300 44.77300
C  0.98100 59.84300 43.56800
C  -0.14500 60.21300 44.65300
N  3.94000 55.42900 43.41400
C  2.68700 55.70900 43.92800
C  1.97200 54.49700 44.16500
C  2.87000 53.50500 43.84000
C  4.06000 54.06700 43.35700
C  0.64300 54.33800 44.69800
C  3.13500 52.06000 43.93300
O  2.45100 51.18100 44.41000
C  4.57300 51.77000 43.32800
C  4.52200 50.70600 42.30300
O  3.77900 50.62300 41.32700
O  5.31900 49.59300 42.67900
C  5.23100 48.36200 41.92200
H  9.55400 55.99900 41.13000
H  5.96300 61.12300 42.54400
H  1.31700 57.23300 44.53000
H  7.24300 51.71000 41.96400
H  9.01700 53.44800 40.56600
H  10.38900 53.40700 42.53700
H  9.10400 52.31200 43.00800
H  9.10400 54.03300 43.63500
H  7.17200 53.08000 39.20400
H  5.58100 52.46700 39.74300
H  7.44400 50.23500 39.88800
H  8.04500 51.31400 38.80600
H  10.21200 58.85900 39.30400
H  10.60800 57.44000 40.17800
H  11.12200 58.91600 40.97300
H  6.58500 61.82200 40.41000
H  7.81000 63.16300 40.19600
H  7.24200 62.80200 41.77400
H  3.18100 61.09200 42.94500
H  2.30200 59.44100 45.25500
H  5.31800 61.36000 44.73500
H  3.82300 61.12100 45.75700
H  3.98100 62.34100 44.38500
H  0.68000 58.94500 43.02900
H  0.88700 60.73500 42.94800
H  0.21300 60.21200 45.68200
H  -0.75800 59.31400 44.71900
H  -0.78100 61.09300 44.55400
H  -0.06200 54.40000 43.86900
H  0.53900 55.09800 45.47200
H  0.68500 53.35100 45.15900
H  5.19200 51.44800 44.16500
H  4.31800 48.13600 41.37100
H  5.37400 47.53600 42.61900
H  6.03900 48.34700 41.19100

