158

Mg 16.06100 51.99100 25.90100
C  18.20400 50.75300 28.42000
C  13.62800 52.46500 28.39000
C  14.03900 52.62500 23.49000
C  18.52600 50.94900 23.60500
N  15.93500 51.60500 28.07700
C  16.96700 51.18100 28.90000
C  16.56400 51.49700 30.37000
C  15.04700 51.85000 30.36900
C  14.88600 52.03200 28.84300
C  14.09500 50.67600 30.77900
C  17.39300 52.64100 31.10700
C  17.54800 52.68800 32.66700
H  16.81000 51.53900 33.42100
N  14.12500 52.66400 25.94000
C  13.27200 52.79900 27.01900
C  11.96100 53.28200 26.57500
C  12.02800 53.29100 25.16000
C  13.41400 52.89300 24.76400
C  10.82000 53.60500 27.46400
C  10.90600 53.60000 24.12400
O  11.12400 53.67000 22.93900
C  9.42000 53.88100 24.55300
N  16.30800 51.89300 23.83300
C  15.30200 52.23900 23.06700
C  15.58000 52.20000 21.54700
C  17.14400 51.79400 21.59800
C  17.37800 51.46400 23.04700
C  14.66600 51.21800 20.80200
C  18.08800 52.90300 21.04400
C  19.24700 52.41100 20.18000
N  17.99300 51.09600 25.92800
C  18.91100 50.72200 24.95200
C  20.13000 50.13600 25.52600
C  19.82500 50.15500 26.86200
C  18.54300 50.73700 27.03800
C  21.41000 49.63300 24.87700
C  20.38000 49.83300 28.17400
O  21.45400 49.32200 28.32500
C  19.40000 50.36000 29.21500
C  19.05000 49.18600 30.17600
O  18.51300 48.13400 29.86400
O  19.42800 49.44100 31.46300
C  19.34500 48.32400 32.48600
H  12.83200 52.70000 29.10000
H  13.40900 52.91600 22.64700
H  19.29000 50.63400 22.89000
H  16.70500 50.58600 30.95100
H  14.79900 52.77500 30.88900
H  14.74900 49.80400 30.79800
H  13.24800 50.61800 30.09500
H  13.65400 50.75100 31.77300
H  16.93800 53.56400 30.74800
H  18.39800 52.78800 30.71100
H  17.25100 53.67800 33.01200
H  18.58700 52.42700 32.86900
H  10.48000 54.63700 27.38500
H  11.03000 53.54200 28.53200
H  9.96700 52.94200 27.32100
H  8.87000 52.94800 24.67800
H  8.96000 54.50800 23.79000
H  9.41000 54.55100 25.41300
H  15.56000 53.22800 21.18500
H  17.30700 50.92400 20.96100
H  14.56300 51.60800 19.78900
H  13.66100 51.20300 21.22300
H  14.96700 50.17200 20.84600
H  18.34400 53.67500 21.77000
H  17.54700 53.45800 20.27800
H  19.25100 52.59600 19.10500
H  19.42000 51.34100 20.29200
H  20.18800 52.81100 20.55600
H  21.71800 50.29200 24.06500
H  21.28100 48.65200 24.41900
H  22.22200 49.76400 25.59200
H  19.80200 51.14000 29.86200
H  18.32900 47.93100 32.47000
H  19.48100 48.84600 33.43300
H  20.22200 47.67700 32.50400
Mg -1.79600 34.34700 26.83200
C  -3.22500 32.51300 29.57300
C  -0.31400 36.34600 29.04400
C  -0.84400 36.13600 24.13400
C  -3.54500 32.14300 24.72900
N  -1.80300 34.29700 29.06700
C  -2.38700 33.55000 29.98700
C  -2.06100 33.96300 31.46600
C  -1.10700 35.22400 31.19700
C  -1.06100 35.29700 29.63600
C  -1.47000 36.59700 31.91500
C  -1.43000 32.89400 32.29300
C  -2.23000 32.51400 33.62300
H  -1.45600 32.22600 34.88700
N  -0.66900 35.98400 26.70800
C  -0.06500 36.69300 27.70000
C  0.71500 37.68300 27.14600
C  0.53800 37.69900 25.73800
C  -0.45700 36.63100 25.45300
C  1.48300 38.69000 28.05300
C  1.13100 38.63600 24.67000
O  0.74700 38.70700 23.47200
C  2.24000 39.54200 25.00800
N  -2.19200 34.20300 24.73300
C  -1.62400 35.03700 23.78700
C  -1.94800 34.59800 22.34300
C  -2.52100 33.17900 22.63300
C  -2.73200 33.10300 24.14900
C  -3.03700 35.53300 21.71900
C  -1.59200 32.06200 22.02900
C  -0.12300 32.02100 22.59600
N  -3.06900 32.71100 27.02500
C  -3.75200 31.99400 26.05300
C  -4.63300 31.03300 26.66700
C  -4.39400 31.18900 28.02000
C  -3.45000 32.20500 28.23900
C  -5.55700 30.00500 26.13900
C  -4.78000 30.68200 29.38800
O  -5.59000 29.82500 29.70900
C  -4.04600 31.51700 30.46000
C  -5.09800 32.08500 31.33000
O  -5.68000 33.12000 31.10700
O  -5.36100 31.25800 32.43800
C  -6.48600 31.72700 33.28200
H  0.24800 36.89900 29.80000
H  -0.46600 36.66700 23.25800
H  -4.02700 31.38800 24.10400
H  -3.02700 34.27300 31.86500
H  -0.08200 35.12100 31.55200
H  -2.04300 37.18200 31.19600
H  -0.64100 37.17600 32.32200
H  -2.19500 36.45600 32.71600
H  -0.51100 33.21300 32.78500
H  -1.31300 32.02400 31.64700
H  -2.58700 31.50100 33.44100
H  -3.11600 33.11800 33.81700
H  0.79100 38.72500 28.89500
H  1.74800 39.66800 27.65100
H  2.39100 38.13800 28.29800
H  1.89200 40.21800 25.78800
H  2.48200 40.19500 24.17000
H  3.06000 39.01800 25.50000
H  -0.99400 34.62200 21.81600
H  -3.48400 32.98700 22.16100
H  -3.28400 36.26100 22.49200
H  -3.90500 34.98200 21.35500
H  -2.74800 36.04400 20.80100
H  -1.49500 32.25700 20.96100
H  -2.00900 31.07200 22.21000
H  0.03200 32.70800 23.42900
H  0.66500 32.09200 21.84700
H  0.07400 31.04000 23.02800
H  -5.36400 29.00100 26.51700
H  -5.46700 30.00600 25.05200
H  -6.54500 30.34900 26.44700
H  -3.36800 30.88200 31.03100
H  -7.21800 32.23000 32.65000
H  -6.00400 32.44300 33.94800
H  -6.88000 30.98500 33.97600

