158

Mg 24.26500 -5.95900 45.88700
C  26.38300 -3.48600 44.35000
C  21.68700 -4.73300 43.92900
C  22.48400 -8.55000 46.86000
C  26.99700 -7.08300 47.72900
N  24.07400 -4.25600 44.38400
C  25.07400 -3.37800 43.89800
C  24.46700 -2.40200 42.87400
C  22.92000 -2.67200 42.98100
C  22.87300 -3.98200 43.76100
C  22.09900 -1.62000 43.73700
C  25.02200 -2.64000 41.45100
C  25.51300 -1.41200 40.66200
H  25.36400 -1.41000 39.08600
N  22.33100 -6.63500 45.31600
C  21.47900 -5.96700 44.52300
C  20.24300 -6.75800 44.59900
C  20.34700 -7.73500 45.58400
C  21.74500 -7.71300 45.95200
C  19.00600 -6.31400 43.72100
C  19.22000 -8.66200 46.09300
O  18.14300 -8.57300 45.50800
C  19.31000 -9.59500 47.29400
N  24.77700 -7.73100 46.89900
C  23.81300 -8.61800 47.24500
C  24.45500 -9.70300 48.19000
C  25.69500 -8.91600 48.83700
C  25.84400 -7.90900 47.76800
C  23.58300 -10.35900 49.26000
C  26.94100 -9.74200 49.13200
C  27.76300 -9.27300 50.33300
N  26.31500 -5.38700 46.13800
C  27.31600 -5.96900 46.86900
C  28.55200 -5.17800 46.65800
C  28.19100 -4.26600 45.70500
C  26.83500 -4.42300 45.34200
C  29.80200 -5.46400 47.39700
C  28.72500 -3.21300 44.87000
O  29.89900 -2.89300 44.76900
C  27.58000 -2.71600 43.94600
C  27.40300 -1.27600 44.18800
O  26.92600 -0.80100 45.24200
O  27.68800 -0.50100 43.07400
C  27.42900 0.95800 43.08200
H  20.87000 -4.18800 43.45100
H  21.83600 -9.33800 47.25000
H  27.81400 -7.28900 48.42400
H  24.69700 -1.42100 43.29200
H  22.41200 -2.91700 42.04800
H  22.79100 -0.80000 43.92900
H  21.63100 -1.92400 44.67300
H  21.23400 -1.28700 43.16400
H  24.18300 -2.98800 40.84700
H  25.89000 -3.29600 41.38400
H  26.52400 -1.06000 40.87100
H  24.84100 -0.70400 41.14700
H  18.58500 -7.04100 43.02600
H  19.28600 -5.45900 43.10600
H  18.20500 -5.96700 44.37400
H  19.70000 -10.52200 46.87300
H  18.30800 -9.62000 47.72200
H  19.91100 -9.10900 48.06200
H  24.83700 -10.49700 47.54800
H  25.29900 -8.37200 49.69400
H  24.06400 -10.68500 50.18200
H  23.20100 -11.33300 48.95300
H  22.83700 -9.63000 49.57500
H  27.50600 -9.93700 48.22000
H  26.45100 -10.67000 49.42900
H  28.33400 -10.12400 50.70400
H  27.03100 -8.83900 51.01300
H  28.43500 -8.47300 50.02100
H  30.57900 -4.76100 47.09800
H  30.15700 -6.48800 47.28200
H  29.72200 -5.17100 48.44400
H  27.66900 -2.87600 42.87100
H  28.04400 1.45300 42.33000
H  27.78400 1.37300 44.02600
H  26.35800 1.03000 42.89500
Mg 35.65800 2.07500 30.35400
C  33.25300 3.24800 32.64800
C  38.08300 2.17300 32.73100
C  37.90200 1.37100 27.97900
C  33.19600 2.66400 27.80200
N  35.65500 2.78700 32.36500
C  34.56500 3.16400 33.11800
C  35.01200 3.34400 34.58800
C  36.55200 3.41300 34.45400
C  36.78200 2.69200 33.10100
C  37.13100 4.84900 34.47200
C  34.55000 2.31300 35.63900
C  34.33900 2.87000 37.12800
H  35.06700 4.07700 37.69000
N  37.69000 1.70000 30.36100
C  38.50900 1.62200 31.46300
C  39.76200 0.97800 31.08000
C  39.71200 0.73100 29.65900
C  38.42000 1.32000 29.27800
C  40.84500 0.81300 32.03400
C  40.70400 0.22000 28.70900
O  40.48000 -0.09100 27.52500
C  42.17700 -0.01000 29.18100
N  35.64300 2.34500 28.14900
C  36.73800 1.87900 27.42600
C  36.39900 1.87900 25.94500
C  34.84700 2.01100 25.84900
C  34.53300 2.43600 27.33900
C  37.35400 2.79900 25.15400
C  34.25500 0.66900 25.48000
C  32.78400 0.48600 25.21900
N  33.57700 2.69100 30.17900
C  32.77200 2.89900 29.10700
C  31.45700 3.25500 29.63700
C  31.56900 3.36600 31.04300
C  32.90100 3.07600 31.32000
C  30.29800 3.60200 28.75600
C  30.88400 3.71400 32.23300
O  29.72200 4.04100 32.37300
C  31.94000 3.60000 33.36100
C  31.94000 4.96200 34.02600
O  32.29900 6.03200 33.54400
O  31.51700 4.86500 35.34700
C  31.73100 6.10200 36.09700
H  38.76200 2.14400 33.58600
H  38.55600 0.98900 27.19300
H  32.46400 2.62900 26.99300
H  34.59900 4.25500 35.02200
H  37.19500 2.83200 35.11500
H  36.82500 5.24000 35.44200
H  36.80500 5.36900 33.57100
H  38.21700 4.76200 34.48000
H  35.27500 1.50500 35.72700
H  33.58800 1.93500 35.29200
H  34.40900 1.97500 37.74600
H  33.29800 3.19300 37.13000
H  40.86400 -0.22400 32.37100
H  40.66300 1.35900 32.95900
H  41.86200 1.08500 31.75100
H  42.17500 -0.60000 30.09800
H  42.51500 1.00600 29.37900
H  42.76600 -0.39300 28.34800
H  36.65900 0.83900 25.74900
H  34.63300 2.80900 25.13900
H  37.71200 3.48200 25.92400
H  36.82100 3.31700 24.35700
H  38.12300 2.14000 24.75100
H  34.61400 -0.08100 26.18500
H  34.78100 0.30300 24.59900
H  32.34600 1.37100 24.75900
H  32.29500 0.00400 26.06600
H  32.60200 -0.19800 24.39000
H  30.61300 3.95900 27.77500
H  29.60900 4.32500 29.19400
H  29.82300 2.65200 28.51300
H  31.49400 2.92100 34.08700
H  31.18000 5.90700 37.01700
H  31.30900 6.91400 35.50500
H  32.79700 6.25800 36.26800

