158

Mg 49.08100 35.17900 27.45300
C  47.33900 33.61300 30.01200
C  49.78000 37.77700 29.88800
C  50.14700 36.97100 25.06300
C  48.03500 32.68600 25.23700
N  48.51500 35.68500 29.66100
C  47.96000 34.75000 30.49800
C  47.90000 35.19400 31.98900
C  48.55300 36.62000 31.89700
C  48.96900 36.77400 30.40800
C  47.55100 37.70400 32.28500
C  48.93200 34.32200 32.77900
C  48.61100 34.09600 34.29100
H  47.57700 35.00300 35.03300
N  49.99700 37.03400 27.48200
C  50.27500 37.92800 28.53800
C  51.07600 38.99300 28.02200
C  51.09300 38.75600 26.62400
C  50.37100 37.55300 26.35200
C  51.71000 40.03400 28.92700
C  51.71400 39.65200 25.56300
O  51.71700 39.27100 24.35600
C  52.37600 40.91800 26.01900
N  48.94200 34.92600 25.39200
C  49.53500 35.83100 24.59700
C  49.40800 35.36500 23.16900
C  48.83400 33.87100 23.27000
C  48.65300 33.85700 24.73900
C  48.64500 36.27700 22.30200
C  49.83300 32.74000 22.71300
C  49.18300 31.59400 21.78200
N  47.99500 33.44900 27.54600
C  47.64400 32.58800 26.57100
C  46.87600 31.53500 27.08700
C  46.60200 31.99800 28.39100
C  47.41100 33.12300 28.68500
C  46.39100 30.30300 26.40900
C  45.79700 31.71100 29.58700
O  44.93100 30.88000 29.84300
C  46.27400 32.68300 30.65300
C  46.70100 31.89400 31.85500
O  47.59000 31.10500 31.94300
O  45.77400 32.13100 32.83300
C  45.83900 31.28800 34.02000
H  50.03200 38.55100 30.61600
H  50.52900 37.44900 24.15800
H  47.68900 31.88000 24.58600
H  46.85100 35.20600 32.28500
H  49.49600 36.82600 32.40400
H  46.89600 37.29600 33.05400
H  47.06700 38.15000 31.41600
H  48.17100 38.53900 32.61000
H  49.92900 34.76100 32.81500
H  48.90200 33.35100 32.28500
H  49.53200 34.01900 34.86900
H  48.40400 33.02600 34.30800
H  52.79400 39.93000 28.87200
H  51.44900 39.86600 29.97200
H  51.42700 41.05900 28.68600
H  51.61300 41.49400 26.54300
H  52.85700 41.58100 25.29900
H  53.08700 40.50000 26.73200
H  50.42400 35.25500 22.78900
H  47.85500 33.78100 22.79800
H  47.62500 35.89100 22.28300
H  49.08600 36.37500 21.31000
H  48.62900 37.22800 22.83400
H  50.23400 32.24300 23.59600
H  50.71400 33.15200 22.22000
H  49.77500 31.54200 20.86900
H  48.15100 31.80900 21.50300
H  49.26700 30.67100 22.35600
H  45.62300 29.90900 27.07400
H  47.11700 29.50000 26.53400
H  46.21700 30.44300 25.34200
H  45.45500 33.39900 30.72400
H  45.26500 30.37500 33.86500
H  45.60300 31.81800 34.94300
H  46.83400 30.90900 34.25200
Mg -11.87700 16.58600 41.36400
C  -8.70100 15.34600 40.90900
C  -10.89300 19.57000 40.16700
C  -15.25900 17.50400 41.14300
C  -12.96000 13.34300 42.13800
N  -9.93600 17.33100 40.48500
C  -8.78500 16.72600 40.55200
C  -7.59700 17.57900 40.01300
C  -8.25600 19.02900 40.05300
C  -9.83100 18.66400 40.26800
C  -7.72000 20.04300 41.11900
C  -7.07000 17.18000 38.64100
C  -5.61900 17.49800 38.42000
H  -5.10200 18.35800 37.27900
N  -12.94400 18.21400 40.73200
C  -12.34200 19.41800 40.32900
C  -13.36500 20.42300 40.10400
C  -14.63400 19.82900 40.26000
C  -14.34200 18.45400 40.72500
C  -13.02900 21.75500 39.63700
C  -16.02000 20.48300 40.04500
O  -16.02300 21.69200 39.77300
C  -17.29000 19.79200 40.24400
N  -13.82700 15.60100 41.66100
C  -15.02200 16.18500 41.60700
C  -16.14600 15.27800 42.03300
C  -15.43200 13.90800 42.19900
C  -13.94800 14.27500 42.01400
C  -17.01700 15.78200 43.20600
C  -15.86300 12.78300 41.24800
C  -16.56400 11.64600 41.97900
N  -11.01600 14.69700 41.67000
C  -11.59500 13.46700 41.92000
C  -10.49900 12.51700 41.96500
C  -9.35000 13.25600 41.58500
C  -9.75400 14.51500 41.34400
C  -10.66800 11.11300 42.26500
C  -7.97700 13.05000 41.35700
O  -7.24900 12.10600 41.52600
C  -7.43500 14.46700 40.99600
C  -6.45300 14.87700 42.07100
O  -6.70300 15.52300 43.10800
O  -5.18900 14.58800 41.67800
C  -4.14600 15.22700 42.47300
H  -10.60400 20.62000 40.09300
H  -16.33500 17.65800 41.24900
H  -13.24000 12.34200 42.47200
H  -6.82800 17.62200 40.78400
H  -8.15800 19.58500 39.12100
H  -6.99600 20.59500 40.52000
H  -7.23600 19.51000 41.93700
H  -8.44600 20.78200 41.45700
H  -7.67900 17.64900 37.86800
H  -7.25900 16.11200 38.53400
H  -5.09800 16.54000 38.39900
H  -5.24300 17.86300 39.37600
H  -13.72900 22.55400 39.88300
H  -12.92000 21.82600 38.55500
H  -12.14500 22.08700 40.18100
H  -18.07500 20.48300 39.93800
H  -17.53000 19.56300 41.28200
H  -17.39700 18.99100 39.51200
H  -16.69100 15.29600 41.08900
H  -15.48100 13.53100 43.22100
H  -17.09100 16.86200 43.33600
H  -16.74100 15.36200 44.17300
H  -18.06000 15.55800 42.98200
H  -14.94300 12.43900 40.77400
H  -16.63600 13.19200 40.59700
H  -16.44900 11.54800 43.05900
H  -16.27200 10.74600 41.43800
H  -17.64600 11.65000 41.84200
H  -9.70300 10.65800 42.03800
H  -11.47800 10.84100 41.58900
H  -11.06400 10.92100 43.26200
H  -6.99500 14.28800 40.01500
H  -3.19300 15.00200 41.99400
H  -4.05500 14.86500 43.49700
H  -4.34100 16.28600 42.64600

