158

Mg 23.87200 -5.37800 47.03400
C  25.90200 -2.90000 45.55400
C  21.35400 -4.24500 44.80700
C  22.23000 -8.11600 47.57100
C  26.77000 -6.61900 48.57000
N  23.79900 -3.84800 45.29700
C  24.69400 -2.89500 44.92400
C  24.16100 -1.87100 43.98800
C  22.62000 -2.08300 44.12900
C  22.56000 -3.51700 44.82200
C  21.73300 -1.07200 44.88300
C  24.66800 -1.88300 42.52800
C  24.95200 -0.46200 42.02000
H  25.39300 -0.30500 40.59300
N  22.00800 -6.10200 46.34900
C  21.16800 -5.46600 45.46400
C  19.96100 -6.21800 45.36500
C  20.09600 -7.34100 46.15700
C  21.45300 -7.21900 46.75700
C  18.86500 -5.84700 44.44700
C  19.00800 -8.36300 46.47500
O  17.92200 -8.31700 45.94600
C  19.24900 -9.38100 47.52800
N  24.42800 -7.09200 47.87500
C  23.55700 -8.07200 48.08900
C  24.19900 -9.32700 48.81200
C  25.45200 -8.74300 49.34600
C  25.58700 -7.38300 48.51400
C  23.42900 -9.99900 49.97800
C  26.74800 -9.64600 49.18500
C  27.64700 -9.78800 50.38900
N  25.91600 -4.80600 47.22100
C  26.97800 -5.39300 47.92700
C  28.20800 -4.53800 47.83800
C  27.77100 -3.54200 46.89800
C  26.39300 -3.78200 46.51100
C  29.46100 -4.92500 48.44400
C  28.22600 -2.36500 46.18300
O  29.33000 -1.80400 46.19800
C  27.08700 -1.95400 45.23200
C  26.75000 -0.51300 45.53600
O  26.31000 -0.12300 46.59800
O  27.29600 0.33800 44.54400
C  27.13900 1.77300 44.70000
H  20.51600 -3.70600 44.36100
H  21.75800 -9.06500 47.83400
H  27.53700 -6.82700 49.31800
H  24.43100 -0.90800 44.42200
H  22.11100 -2.20600 43.17300
H  22.40200 -0.33800 45.33200
H  21.17300 -1.62700 45.63500
H  21.05100 -0.53600 44.22300
H  23.99300 -2.41700 41.85900
H  25.65100 -2.35300 42.55900
H  25.84200 -0.23800 42.60800
H  24.12500 0.22800 42.19200
H  18.44200 -6.78100 44.07800
H  19.18600 -5.17500 43.65100
H  18.07000 -5.34700 45.00000
H  18.35100 -9.97700 47.68700
H  19.61500 -8.91000 48.44000
H  20.03200 -10.01100 47.10300
H  24.45900 -10.05600 48.04500
H  25.24100 -8.30200 50.32000
H  22.76300 -9.22000 50.34900
H  24.06100 -10.31900 50.80700
H  22.82000 -10.81000 49.57900
H  27.24400 -9.21900 48.31400
H  26.48400 -10.66000 48.88600
H  28.63300 -10.14100 50.08600
H  27.27200 -10.49700 51.12700
H  27.70500 -8.84600 50.93500
H  30.28000 -4.23600 48.23800
H  29.71700 -5.93900 48.13700
H  29.30300 -4.82100 49.51700
H  27.44500 -1.95400 44.20200
H  27.64800 2.21400 43.84200
H  27.63000 2.10800 45.61300
H  26.12300 2.15300 44.58900
Mg 25.75000 1.49400 29.59600
C  27.70600 1.31700 32.69900
C  23.01200 1.75500 31.72100
C  23.93000 1.23700 26.92200
C  28.65100 0.34100 27.91700
N  25.37600 1.52200 32.06100
C  26.37000 1.59200 33.02000
C  25.68100 1.69700 34.43200
C  24.14900 1.78500 34.06200
C  24.14900 1.77200 32.49300
C  23.25400 0.71300 34.64800
C  26.15900 2.93700 35.21300
C  26.85400 2.67100 36.59100
H  26.36300 3.51300 37.76500
N  23.68100 1.49800 29.33900
C  22.69100 1.62200 30.30300
C  21.41500 1.71700 29.65900
C  21.69800 1.43300 28.27300
C  23.14100 1.39700 28.11900
C  20.12600 1.93600 30.40100
C  20.73000 1.03900 27.18200
O  21.11800 0.69300 26.05200
C  19.32300 0.98400 27.57300
N  26.21200 0.96700 27.71000
C  25.31000 1.11500 26.72100
C  25.91600 0.79700 25.32800
C  27.40900 0.59600 25.69800
C  27.40800 0.61900 27.20600
C  25.25200 -0.45800 24.65300
C  28.22100 1.76200 25.14000
C  28.11900 3.11400 25.92300
N  27.86000 1.11100 30.10700
C  28.85700 0.56100 29.27900
C  30.10100 0.44700 30.09300
C  29.70000 0.79500 31.43700
C  28.24600 1.05600 31.36400
C  31.44500 -0.06700 29.52900
C  30.15800 0.95500 32.78300
O  31.28100 0.81300 33.21700
C  28.86700 1.24600 33.69400
C  28.78000 0.19900 34.72100
O  28.15200 -0.87400 34.66500
O  29.43700 0.59500 35.85300
C  29.44000 -0.34000 36.99000
H  22.10000 1.74900 32.32200
H  23.38200 1.23200 25.97700
H  29.33800 -0.02000 27.14800
H  25.97100 0.77700 34.94000
H  23.66000 2.69800 34.40100
H  22.70000 0.20100 33.86200
H  22.50600 1.29300 35.18700
H  23.62500 -0.07200 35.30600
H  25.23200 3.46200 35.44400
H  26.89500 3.47300 34.61300
H  27.91900 2.85800 36.72700
H  26.65000 1.61400 36.75900
H  19.67500 2.85200 30.01900
H  20.30700 2.13700 31.45700
H  19.37800 1.14500 30.45000
H  19.21700 0.30200 28.41700
H  18.71400 0.54300 26.78400
H  18.96600 1.95100 27.92700
H  25.73600 1.60200 24.61600
H  27.79700 -0.38900 25.43600
H  24.50300 -0.98700 25.24200
H  25.98800 -1.20400 24.35200
H  24.74100 -0.11200 23.75400
H  27.94600 2.03700 24.12100
H  29.26700 1.45600 25.16100
H  29.14700 3.37100 26.17900
H  27.67100 3.03100 26.91300
H  27.55100 3.81700 25.31400
H  31.88700 0.61200 28.80000
H  31.25100 -1.06200 29.12900
H  32.06100 -0.24100 30.41100
H  29.04500 2.24000 34.10500
H  28.57600 -0.21900 37.64400
H  30.37400 -0.10000 37.49700
H  29.50500 -1.39100 36.70600

