158

Mg 44.39600 4.89800 46.77700
C  42.43600 7.65700 47.02700
C  41.50400 3.07800 46.09300
C  46.22500 2.09000 45.97700
C  47.23800 6.84600 46.54300
N  42.21700 5.38600 46.72500
C  41.71100 6.59200 46.79000
C  40.16400 6.60600 46.64400
C  39.87800 5.07700 46.25500
C  41.27400 4.43300 46.43800
C  38.72100 4.54400 47.17500
C  39.59000 7.56600 45.50400
C  40.37300 7.82500 44.17000
H  39.81000 7.14800 42.89600
N  43.95900 2.82500 46.30900
C  42.69000 2.30600 46.02500
C  42.74600 0.91000 45.63400
C  44.12700 0.56400 45.56800
C  44.87100 1.84500 45.99800
C  41.54100 0.05500 45.42200
C  44.67700 -0.82400 45.29400
O  43.88300 -1.69700 45.08500
C  46.10200 -1.23100 45.22500
N  46.44900 4.49000 46.33400
C  46.96000 3.28300 46.10800
C  48.49600 3.35500 46.10800
C  48.79500 4.82700 46.49700
C  47.43900 5.44200 46.51300
C  49.09700 2.27800 47.04400
C  49.78200 5.60900 45.48000
C  51.28800 5.16300 45.53700
N  44.87600 6.90500 46.84200
C  46.03800 7.56000 46.73700
C  45.85400 8.97400 46.90300
C  44.44100 9.11200 47.05800
C  43.91000 7.79700 47.03000
C  46.81300 10.03600 46.91200
C  43.31000 10.02000 47.30000
O  43.28700 11.23000 47.67800
C  42.01000 9.12400 47.25000
C  41.18500 9.24800 48.42600
O  41.11600 8.43800 49.37900
O  40.38000 10.35400 48.32300
C  39.47800 10.72600 49.42700
H  40.56200 2.61600 45.79100
H  46.83900 1.21500 45.75700
H  48.08500 7.51900 46.69100
H  39.69000 6.86300 47.59100
H  39.55000 5.04900 45.21600
H  38.12900 5.42200 47.43700
H  39.14800 4.10200 48.07500
H  38.21200 3.83100 46.52700
H  39.49700 8.58500 45.87800
H  38.59200 7.20800 45.25300
H  41.37600 7.42600 44.31900
H  40.35200 8.91400 44.15000
H  41.53400 -0.01000 44.33400
H  40.55400 0.40100 45.72800
H  41.67900 -0.94400 45.83600
H  46.25900 -2.27000 44.93400
H  46.51200 -1.14300 46.23100
H  46.62400 -0.57200 44.53100
H  48.80000 3.02900 45.11300
H  49.15300 4.86800 47.52600
H  50.17900 2.27700 46.91200
H  48.74300 1.30100 46.71600
H  48.75400 2.27800 48.07900
H  49.70900 6.67300 45.70600
H  49.43300 5.44800 44.46000
H  51.79000 5.08000 44.57300
H  51.49800 4.27600 46.13500
H  51.84300 5.93200 46.07500
H  46.82600 10.57100 47.86100
H  46.49900 10.78700 46.18700
H  47.87200 9.91100 46.68600
H  41.43300 9.56900 46.43900
H  40.17200 11.15100 50.15100
H  38.90800 9.84100 49.70900
H  38.90400 11.61200 49.15400
Mg 54.21100 24.76800 43.47700
C  51.62700 27.25700 43.39800
C  51.91900 22.46900 42.78000
C  56.76500 22.58300 43.20600
C  56.52300 27.41300 43.73500
N  51.98100 24.96200 42.94100
C  51.20200 26.00200 43.00900
C  49.73800 25.57500 42.65400
C  49.78400 24.01000 42.80200
C  51.32700 23.72300 42.76100
C  49.06200 23.40500 44.06200
C  49.14300 26.12600 41.21100
C  50.20000 26.70900 40.15200
H  50.28000 26.29000 38.63900
N  54.35200 22.81700 43.09900
C  53.27800 22.00400 42.84800
C  53.77300 20.50700 42.74900
C  55.19000 20.53500 42.95000
C  55.52000 22.02200 43.07100
C  52.89100 19.37300 42.46200
C  56.07000 19.31500 43.11100
O  55.58900 18.18800 43.02500
C  57.51900 19.38100 43.46000
N  56.38000 25.05000 43.19700
C  57.18800 23.95700 43.27900
C  58.69700 24.37200 43.44700
C  58.57200 25.87300 43.24800
C  57.07700 26.18200 43.44600
C  59.18400 23.90300 44.80100
C  59.05800 26.41900 41.87500
C  59.80800 27.79700 41.77100
N  54.18800 26.89300 43.55600
C  55.18900 27.80600 43.82500
C  54.55200 29.11600 44.20100
C  53.13600 28.92500 44.06400
C  52.95000 27.56300 43.64600
C  55.22900 30.49300 44.57300
C  51.82300 29.52100 44.24100
O  51.48800 30.58800 44.72900
C  50.82700 28.49100 43.72000
C  50.33600 29.13500 42.46900
O  50.95400 29.39900 41.48700
O  48.95500 29.50000 42.63200
C  48.30900 30.07500 41.48000
H  51.16800 21.68100 42.68800
H  57.53100 21.81800 43.35400
H  57.21300 28.23800 43.92600
H  49.21800 25.85400 43.57100
H  49.43200 23.53700 41.88600
H  48.89200 24.08800 44.89400
H  49.58800 22.57300 44.53000
H  48.12600 22.92800 43.77100
H  48.44600 26.91800 41.48400
H  48.56600 25.34300 40.71800
H  51.23300 26.70900 40.50100
H  49.89800 27.75000 40.03300
H  52.92100 18.73500 43.34500
H  53.22300 18.76300 41.62200
H  51.85100 19.68500 42.37000
H  57.91000 18.36800 43.55800
H  57.66800 19.87900 44.41800
H  57.94400 19.89400 42.59700
H  59.22600 23.94800 42.59300
H  59.08300 26.39200 44.05800
H  59.37300 22.83000 44.77700
H  58.45400 23.99400 45.60500
H  60.12300 24.41700 45.00600
H  58.24700 26.45900 41.14800
H  59.73800 25.69900 41.42000
H  60.85400 27.65800 41.49700
H  59.73200 28.42200 42.66100
H  59.51300 28.42400 40.92900
H  55.13100 30.82300 45.60700
H  54.68600 31.26500 44.02700
H  56.30500 30.49900 44.40000
H  49.99400 28.43500 44.42000
H  48.36800 29.43900 40.59600
H  48.80700 31.00300 41.19800
H  47.29300 30.26400 41.82600

