158

Mg 17.70300 -1.81600 27.56100
C  16.53200 0.27100 30.17500
C  19.53700 -3.57900 29.93200
C  19.09000 -3.40600 25.09200
C  15.78900 0.11100 25.37900
N  18.17000 -1.54300 29.66400
C  17.48600 -0.71700 30.55700
C  17.74600 -1.01100 31.97500
C  19.00400 -1.92800 31.84500
C  19.03200 -2.33800 30.37400
C  20.30200 -1.22900 32.31100
C  16.60300 -1.67900 32.84300
C  16.76200 -1.73100 34.39000
H  18.07800 -1.12400 34.99000
N  19.02000 -3.38300 27.50300
C  19.68800 -4.02000 28.62100
C  20.47200 -5.15000 28.09600
C  20.35700 -5.06700 26.61700
C  19.41900 -3.92300 26.31600
C  21.23300 -6.07300 28.99500
C  21.05700 -5.97600 25.59900
O  20.92100 -5.81900 24.38100
C  22.02700 -7.09000 26.11400
N  17.46500 -1.68200 25.54300
C  18.24700 -2.42600 24.68800
C  18.06200 -2.00900 23.17500
C  16.70900 -1.07800 23.31900
C  16.65900 -0.82900 24.81900
C  19.30700 -1.27700 22.56200
C  15.43300 -1.76700 22.79300
C  14.89300 -1.08800 21.53200
N  16.25900 -0.23000 27.70400
C  15.61700 0.43900 26.70700
C  14.98600 1.60700 27.29600
C  15.24700 1.59600 28.66700
C  16.03100 0.44000 28.87700
C  14.18900 2.62800 26.50600
C  15.16100 2.15800 30.00100
O  14.53900 3.22700 30.21900
C  15.74400 1.24600 31.07200
C  16.68200 2.10100 31.83000
O  17.84200 2.44100 31.56900
O  15.92700 2.44200 32.91000
C  16.62100 3.21300 33.94700
H  20.20600 -4.11100 30.61100
H  19.64400 -3.86200 24.26900
H  15.24500 0.61800 24.58000
H  18.01600 -0.04900 32.40900
H  18.83300 -2.84600 32.40700
H  20.69600 -1.78500 33.16200
H  20.23700 -0.19600 32.65300
H  21.05500 -1.24300 31.52300
H  16.48900 -2.71500 32.52500
H  15.68500 -1.10900 32.69800
H  16.61200 -2.78200 34.63800
H  15.95700 -1.07300 34.71800
H  22.21800 -5.64100 29.16700
H  21.27800 -7.13400 28.75000
H  20.72500 -6.00800 29.95800
H  22.40200 -7.78700 25.36400
H  21.29700 -7.60700 26.73600
H  22.85900 -6.76300 26.73800
H  17.83100 -2.88700 22.57100
H  17.00900 -0.08800 22.97400
H  19.19900 -0.20700 22.38400
H  19.43700 -1.69600 21.56400
H  20.27700 -1.48000 23.01700
H  14.71800 -1.78900 23.61600
H  15.61500 -2.80800 22.52900
H  15.12900 -1.68900 20.65400
H  15.39300 -0.14500 21.30700
H  13.83900 -0.82600 21.44200
H  14.91500 3.39600 26.24100
H  13.46600 3.19000 27.09800
H  13.82600 2.21700 25.56500
H  15.00100 0.72700 31.67700
H  16.49600 4.28900 33.82800
H  17.69600 3.03900 33.90300
H  16.09400 2.85400 34.83100
Mg 35.57400 2.24200 28.96300
C  33.55300 3.35000 31.47500
C  38.20500 2.12900 31.20700
C  37.68300 1.59700 26.43400
C  32.99700 2.86400 26.68300
N  35.81500 2.78900 31.06000
C  34.82200 3.09900 31.92600
C  35.29600 3.17300 33.37000
C  36.83900 3.19200 33.13200
C  37.03100 2.72200 31.71200
C  37.46900 4.54900 33.58300
C  34.79900 2.03300 34.23600
C  34.37400 2.34900 35.69400
H  34.78700 3.59100 36.36700
N  37.61400 1.69900 28.89600
C  38.51700 1.68500 29.94400
C  39.68900 1.03100 29.53800
C  39.61900 0.85400 28.07900
C  38.25800 1.36300 27.71800
C  40.81300 0.70900 30.45600
C  40.60000 0.20800 27.11700
O  40.33600 0.24800 25.92100
C  41.85800 -0.50100 27.59600
N  35.39200 2.34300 26.89800
C  36.43500 2.08300 26.06300
C  36.11000 2.25500 24.57900
C  34.59700 2.52400 24.68500
C  34.25900 2.52700 26.18700
C  37.00900 3.35400 23.89100
C  33.74600 1.53400 23.85100
C  32.56000 2.03500 22.98400
N  33.69200 2.97400 29.03900
C  32.73800 3.08500 28.03900
C  31.45900 3.43000 28.66200
C  31.71500 3.60300 30.01000
C  33.09300 3.29700 30.11800
C  30.17600 3.70300 27.93500
C  31.13800 3.70200 31.30700
O  29.92600 3.91800 31.47500
C  32.27100 3.64700 32.29600
C  32.22900 4.97000 33.01500
O  32.58200 6.01000 32.57700
O  31.63000 4.80000 34.24000
C  31.18000 5.99100 34.97300
H  39.00800 2.02200 31.93900
H  38.34400 1.33300 25.60500
H  32.27400 3.06000 25.88800
H  34.88600 4.05300 33.86500
H  37.37900 2.42600 33.68800
H  38.36300 4.34300 34.17100
H  36.76700 5.15000 34.16200
H  37.73000 5.09900 32.67900
H  35.43600 1.14800 34.25700
H  33.94000 1.59200 33.72900
H  34.75800 1.55400 36.33300
H  33.28600 2.28100 35.69400
H  40.97200 -0.36100 30.58500
H  40.61200 1.13700 31.43800
H  41.65400 1.24200 30.01200
H  42.56600 0.07300 28.19300
H  42.18800 -1.02900 26.70100
H  41.57200 -1.35000 28.21700
H  36.27200 1.26500 24.15200
H  34.36200 3.55400 24.41700
H  37.63100 2.94900 23.09200
H  37.81600 3.79000 24.48000
H  36.37200 4.20800 23.66300
H  33.34300 0.76200 24.50600
H  34.30400 1.00500 23.07700
H  31.60800 1.99700 23.51300
H  32.44700 1.23700 22.25000
H  32.78700 2.97600 22.48300
H  30.25600 3.15300 26.99700
H  29.99700 4.76900 27.79300
H  29.33100 3.36400 28.53500
H  31.97500 2.84800 32.97600
H  30.96100 6.81600 34.29600
H  31.99800 6.27900 35.63300
H  30.26000 5.71900 35.49100

