158

Mg 17.08400 -1.76400 27.82300
C  15.88000 0.20800 30.47500
C  19.14000 -3.39800 29.91400
C  18.56600 -3.16400 25.09000
C  15.28300 0.38000 25.57100
N  17.63400 -1.48000 29.90400
C  16.90100 -0.66200 30.83200
C  17.30300 -1.01200 32.20900
C  18.50700 -2.04400 32.00000
C  18.48000 -2.28700 30.50800
C  19.89900 -1.55900 32.55400
C  16.17400 -1.60700 33.10500
C  15.91700 -0.87300 34.45100
H  17.14400 -0.18400 35.14900
N  18.48000 -3.22500 27.53700
C  19.22600 -3.78700 28.53900
C  20.00100 -4.87700 27.96300
C  19.82000 -4.90100 26.57500
C  18.96300 -3.68200 26.34800
C  20.91700 -5.68900 28.73100
C  20.40600 -5.81500 25.47700
O  20.28200 -5.57300 24.23300
C  21.26800 -6.96000 25.84100
N  17.11900 -1.25500 25.67100
C  17.74900 -2.07600 24.78800
C  17.40600 -1.67900 23.33900
C  16.31800 -0.59800 23.55000
C  16.20600 -0.50000 25.03900
C  18.67900 -1.23100 22.58700
C  14.99200 -0.95000 22.78100
C  13.92700 -1.90000 23.50700
N  15.80700 -0.12900 27.94500
C  15.01800 0.60400 26.95300
C  14.19100 1.53400 27.71400
C  14.47400 1.38800 29.01300
C  15.46500 0.38200 29.13400
C  13.21100 2.41200 27.04800
C  13.98800 1.88400 30.25600
O  13.17900 2.73100 30.54200
C  14.87600 1.12600 31.32700
C  15.59200 2.14800 32.17400
O  16.75700 2.37200 31.99500
O  14.80300 2.60700 33.18000
C  15.32600 3.50000 34.17600
H  19.47500 -4.12400 30.65800
H  18.96700 -3.70000 24.22700
H  14.80300 0.95400 24.77500
H  17.66700 -0.11200 32.70400
H  18.22500 -2.96400 32.51300
H  19.93300 -0.52400 32.21400
H  20.76000 -2.00100 32.05100
H  19.98400 -1.69600 33.63200
H  16.33000 -2.64900 33.38400
H  15.30600 -1.57400 32.44700
H  15.55200 -1.65300 35.12000
H  15.18300 -0.07800 34.31800
H  21.06500 -5.33300 29.75100
H  21.91400 -5.70600 28.29200
H  20.60800 -6.73300 28.78300
H  21.49700 -7.47200 24.90700
H  20.68600 -7.58200 26.52100
H  22.18400 -6.53900 26.25500
H  16.91300 -2.51400 22.84000
H  16.54900 0.30600 22.98600
H  19.28500 -0.61400 23.25100
H  18.37200 -0.61700 21.74100
H  19.34800 -2.06000 22.35600
H  15.21700 -1.37100 21.80000
H  14.52300 -0.04100 22.40500
H  13.09200 -1.35500 23.94800
H  14.37400 -2.60900 24.20400
H  13.59300 -2.38800 22.59100
H  12.70000 1.91900 26.22100
H  13.83700 3.22500 26.68000
H  12.51900 2.76300 27.81400
H  14.22600 0.48000 31.91800
H  16.35800 3.23800 34.40800
H  14.70200 3.33400 35.05500
H  15.34200 4.52100 33.79500
Mg 48.60500 36.02600 28.26500
C  46.73400 34.29600 30.60100
C  48.64400 38.73900 30.25300
C  49.94600 37.78700 25.77000
C  48.29500 33.30200 26.07100
N  47.67300 36.44800 30.17700
C  47.12500 35.54300 31.07200
C  46.88100 36.19200 32.45600
C  47.25200 37.69000 32.24300
C  47.86900 37.61900 30.80100
C  46.15300 38.83000 32.38500
C  47.78500 35.47900 33.62000
C  49.08800 36.01200 34.17400
H  49.11500 36.73200 35.54700
N  49.33900 37.95100 28.08200
C  49.29100 38.90900 29.00400
C  50.04400 40.14500 28.61100
C  50.47400 39.85500 27.26400
C  49.91800 38.52500 26.96200
C  50.25700 41.34000 29.41600
C  51.29800 40.65100 26.27000
O  51.71900 40.19300 25.25600
C  51.67400 42.03800 26.65600
N  48.93600 35.59900 26.25400
C  49.44600 36.55000 25.46800
C  49.65100 36.03100 24.02000
C  49.42900 34.44900 24.11100
C  48.81700 34.45600 25.51600
C  48.67600 36.68400 22.99800
C  50.81800 33.73600 23.96500
C  51.50500 33.82500 22.61600
N  47.72400 34.13800 28.25900
C  47.71800 33.14700 27.30900
C  46.98700 32.00200 27.82100
C  46.57500 32.42800 29.09100
C  46.97000 33.75600 29.27600
C  46.84300 30.71000 27.17700
C  45.81800 32.07900 30.26200
O  45.23200 31.01300 30.50000
C  45.77400 33.27500 31.25400
C  46.16500 32.75800 32.58800
O  47.08300 31.98100 32.80100
O  45.19300 33.16900 33.44400
C  45.25200 32.51000 34.79200
H  48.68600 39.58500 30.94200
H  50.41900 38.34400 24.95800
H  48.23600 32.46000 25.37900
H  45.87300 36.06000 32.84800
H  48.06300 37.95400 32.92200
H  46.54200 39.84800 32.34700
H  45.56600 38.66900 33.28900
H  45.50000 38.74000 31.51700
H  48.06600 34.50900 33.21000
H  47.02200 35.25900 34.36700
H  49.55000 36.64900 33.41800
H  49.78000 35.17400 34.09600
H  49.39500 41.99100 29.27200
H  51.22800 41.81600 29.28000
H  50.22200 41.05000 30.46700
H  52.00600 42.45800 25.70700
H  52.38400 42.05400 27.48300
H  50.75200 42.54500 26.94200
H  50.67700 36.29200 23.76000
H  48.62100 34.00100 23.53200
H  49.17900 37.50600 22.48800
H  47.86300 37.07900 23.60600
H  48.30500 35.92900 22.30500
H  50.57300 32.67900 23.85600
H  51.56100 33.73700 24.76300
H  51.66600 34.79700 22.15000
H  50.89600 33.25100 21.91700
H  52.47200 33.32400 22.64300
H  47.59700 30.11200 27.68900
H  47.00300 30.73100 26.09900
H  45.83900 30.36000 27.41700
H  44.71000 33.50600 31.30400
H  45.54700 31.48500 34.56600
H  44.23700 32.45000 35.18400
H  45.92100 32.86800 35.57500

