158

Mg 25.55600 0.55800 29.61700
C  27.48000 0.26200 32.43900
C  22.84500 1.47300 31.51700
C  23.62300 0.52200 26.81200
C  28.24600 -0.75000 27.72400
N  25.17800 0.56400 31.76900
C  26.15000 0.60800 32.72900
C  25.54500 1.13700 34.06900
C  24.02900 1.24100 33.78300
C  24.00300 1.02700 32.29200
C  23.10200 0.34300 34.61400
C  26.17600 2.45900 34.62600
C  26.87300 2.27600 35.94700
H  26.58100 3.20200 37.15800
N  23.46500 0.96700 29.20300
C  22.62500 1.40800 30.09400
C  21.29400 1.64200 29.47400
C  21.48800 1.29600 28.11800
C  22.88600 0.92800 27.94500
C  20.01900 1.99200 30.21000
C  20.44700 1.18000 26.94400
O  20.67700 0.52700 25.92700
C  19.11900 1.75200 27.13000
N  25.87700 -0.01700 27.53700
C  24.95000 0.15200 26.59100
C  25.53400 -0.16500 25.22200
C  27.03600 -0.45000 25.46300
C  27.06700 -0.39900 26.96500
C  24.81900 -1.19600 24.29500
C  28.05200 0.53900 24.73200
C  28.31400 1.93800 25.39600
N  27.46500 -0.06000 29.93200
C  28.44500 -0.54000 29.06600
C  29.68100 -0.64000 29.84500
C  29.34100 -0.29200 31.19700
C  27.99000 -0.02700 31.20400
C  31.07500 -1.01000 29.38600
C  29.84700 -0.13000 32.55700
O  30.90600 -0.27800 32.99100
C  28.66900 0.33500 33.45800
C  28.48200 -0.67000 34.52100
O  28.18600 -1.80300 34.36000
O  28.86200 -0.05400 35.76800
C  28.49300 -0.76600 36.95300
H  21.97600 1.81000 32.08600
H  23.03100 0.44300 25.89800
H  29.12100 -1.02200 27.12900
H  25.64500 0.34000 34.80500
H  23.62400 2.25200 33.83300
H  23.57700 -0.07400 35.50200
H  22.69900 -0.43900 33.97000
H  22.25900 0.95900 34.92800
H  25.36100 3.15900 34.80700
H  26.86700 2.94300 33.93600
H  27.91700 2.46500 35.69700
H  26.72800 1.28400 36.37400
H  19.31700 1.15900 30.18500
H  19.40900 2.77300 29.75500
H  20.24100 2.31800 31.22600
H  18.60800 2.03700 26.21000
H  19.30900 2.67700 27.67400
H  18.46000 1.17700 27.78000
H  25.58400 0.75700 24.64300
H  27.27500 -1.46400 25.14100
H  23.89300 -1.60700 24.69700
H  25.49100 -2.02900 24.08600
H  24.50300 -0.69300 23.38200
H  27.73200 0.63200 23.69400
H  29.02600 0.05500 24.80400
H  27.67700 2.10400 26.26500
H  28.09600 2.85100 24.84100
H  29.35600 1.98300 25.71100
H  31.91900 -0.67100 29.98600
H  31.25300 -0.67800 28.36300
H  31.14300 -2.09800 29.42000
H  28.87500 1.31100 33.89700
H  28.16700 -0.05400 37.71100
H  29.43400 -1.26400 37.18800
H  27.79700 -1.60100 36.86600
Mg 6.41500 53.62600 41.19500
C  5.74700 50.12200 40.99000
C  9.57800 53.02000 40.17800
C  6.76100 56.95000 40.62900
C  2.98300 54.02800 41.86400
N  7.41300 51.65200 40.25600
C  7.08000 50.37100 40.49500
C  8.25200 49.41000 40.09800
C  9.49800 50.38400 40.25900
C  8.81200 51.78600 40.25800
C  10.42700 50.11400 41.45000
C  8.10300 48.78300 38.71900
C  7.98700 49.74900 37.45000
H  6.78900 49.63900 36.54300
N  7.90400 54.79500 40.23800
C  9.17200 54.35500 39.95900
C  10.03900 55.47400 39.68700
C  9.27500 56.64900 39.88200
C  7.91400 56.18800 40.19400
C  11.51200 55.23900 39.45000
C  9.77300 58.05500 39.80600
O  10.95200 58.35800 39.58300
C  8.87900 59.34900 40.07300
N  5.02300 55.24500 41.03400
C  5.53000 56.52300 41.07400
C  4.38300 57.51500 41.30100
C  3.16600 56.58900 41.52900
C  3.75000 55.18000 41.53400
C  4.72600 58.66000 42.30100
C  2.01500 56.79100 40.53100
C  1.21700 58.11300 40.81600
N  4.71100 52.42600 41.50300
C  3.40700 52.71800 41.84300
C  2.72000 51.54300 42.14800
C  3.61600 50.48900 42.00400
C  4.78600 51.10500 41.38300
C  1.32200 51.49000 42.57500
C  3.75700 49.09300 42.07000
O  3.01700 48.17800 42.40400
C  5.07800 48.80700 41.30500
C  4.72100 48.15000 40.04300
O  4.01600 48.67300 39.13500
O  5.42700 46.96300 39.91000
C  5.20300 46.10300 38.68200
H  10.63200 52.81300 39.98100
H  6.84700 58.03800 40.66500
H  1.93900 54.21600 42.12200
H  8.39900 48.64900 40.86400
H  10.06600 50.35400 39.32900
H  11.46000 49.85800 41.21300
H  10.10100 49.23100 42.00100
H  10.48600 50.96400 42.12900
H  7.17900 48.20600 38.73200
H  8.92900 48.09700 38.52900
H  8.78000 49.63400 36.71100
H  8.00500 50.74400 37.89500
H  11.75400 54.93300 38.43200
H  11.88600 54.40000 40.03600
H  12.10200 56.10800 39.73800
H  8.08400 59.35600 39.32700
H  9.47600 60.24900 39.92300
H  8.43300 59.26500 41.06400
H  4.13000 58.01300 40.36500
H  2.78400 56.63100 42.54900
H  4.06700 58.55000 43.16200
H  4.55400 59.67100 41.93300
H  5.78000 58.68100 42.58000
H  1.35800 55.92200 40.54800
H  2.38200 56.84200 39.50500
H  1.45500 58.86400 40.06300
H  1.54500 58.42700 41.80700
H  0.13700 57.98300 40.74300
H  1.36700 51.31900 43.65100
H  0.97600 50.60300 42.04500
H  0.84900 52.45700 42.40100
H  5.77600 48.12900 41.79700
H  6.20900 46.02000 38.27100
H  4.43800 46.45100 37.98700
H  4.99700 45.12500 39.11600

