158

Mg 52.89200 24.73100 44.27900
C  50.05100 26.98100 43.73100
C  50.85500 22.30600 42.94500
C  55.62800 22.97000 44.00400
C  54.68400 27.63300 45.26800
N  50.78700 24.72400 43.24500
C  49.83400 25.72500 43.13300
C  48.43800 25.19600 42.75900
C  48.58200 23.66300 42.98400
C  50.15300 23.52500 43.07700
C  47.80800 23.19000 44.22400
C  47.90500 25.67800 41.32400
C  49.02500 26.02200 40.21700
H  48.90000 25.37300 38.78300
N  53.23900 22.91900 43.61100
C  52.30800 22.05600 43.09800
C  52.91500 20.74400 42.83000
C  54.31800 20.94500 43.09000
C  54.42300 22.32000 43.61200
C  52.26200 19.52200 42.33200
C  55.46100 19.96300 42.70700
O  55.15400 18.82300 42.31500
C  56.96100 20.34100 42.70600
N  54.92000 25.29600 44.51900
C  55.85000 24.32600 44.39100
C  57.23000 24.81200 44.92500
C  56.85600 26.39400 45.27100
C  55.38300 26.47600 44.99500
C  57.98700 24.04800 46.07900
C  57.63500 27.45800 44.42100
C  58.46700 28.62200 45.20200
N  52.47100 26.79700 44.66400
C  53.27900 27.83300 45.10100
C  52.49600 28.97300 45.40000
C  51.20000 28.70900 44.86400
C  51.21700 27.40400 44.37000
C  52.98200 30.22700 46.09000
C  49.88700 29.28800 44.59800
O  49.42200 30.42800 44.78000
C  49.20100 28.21400 43.69300
C  49.00500 28.78100 42.32200
O  49.87400 28.94100 41.40600
O  47.72300 29.22300 42.24500
C  47.31000 29.97400 41.10200
H  50.14000 21.48900 42.82700
H  56.58400 22.44500 44.03900
H  55.31700 28.42900 45.66700
H  47.82300 25.54900 43.58700
H  48.38200 23.01700 42.13000
H  48.49100 22.99600 45.05100
H  47.15200 22.33200 44.07400
H  47.12000 23.95500 44.58500
H  47.34200 26.61000 41.37200
H  47.20900 24.92800 40.94900
H  49.99500 25.75900 40.64000
H  48.90000 27.09200 40.05000
H  52.52900 19.13700 41.34800
H  51.19500 19.74300 42.35100
H  52.45500 18.68300 43.00000
H  57.51200 19.65700 42.06000
H  57.10700 20.26500 43.78300
H  57.07300 21.37500 42.37800
H  57.93600 24.89100 44.09900
H  57.01100 26.56600 46.33600
H  57.50500 23.10500 46.33400
H  58.00900 24.74900 46.91400
H  58.96600 23.81700 45.65800
H  56.81600 28.05300 44.01800
H  58.09900 27.02800 43.53300
H  59.53400 28.46500 45.04800
H  58.23600 28.48500 46.25800
H  58.03300 29.51900 44.75900
H  53.74300 30.07800 46.85600
H  52.14300 30.77600 46.52000
H  53.35900 30.99400 45.41300
H  48.23000 28.03600 44.15500
H  46.29200 30.32800 41.26600
H  47.32300 29.23300 40.30300
H  48.05100 30.72900 40.84100
Mg 9.48000 47.40000 26.77300
C  7.64700 47.32300 29.81900
C  12.20700 48.68900 28.55500
C  10.99400 47.44800 23.92900
C  6.45200 46.42700 25.13800
N  9.90400 47.83100 28.84900
C  8.99500 47.69300 29.92000
C  9.63600 48.10700 31.24400
C  10.77900 48.99400 30.70100
C  11.01600 48.49300 29.30500
C  10.43800 50.49900 30.68900
C  10.04100 46.92700 32.10100
C  9.56500 47.07100 33.60700
H  9.32300 45.83000 34.49000
N  11.39000 47.99500 26.32600
C  12.37400 48.44100 27.12600
C  13.53500 48.50100 26.27300
C  13.24800 48.09700 24.95700
C  11.81000 47.89200 25.01600
C  14.85200 49.08500 26.85500
C  14.19900 47.92800 23.65200
O  13.86600 47.57500 22.50900
C  15.64000 48.21500 23.78000
N  8.75500 46.92800 24.77800
C  9.63600 47.02100 23.78500
C  9.01700 46.62100 22.40100
C  7.57600 46.09600 22.90200
C  7.55100 46.56700 24.31500
C  9.12400 47.83400 21.43600
C  7.33700 44.59200 22.78500
C  8.24900 43.52000 23.40900
N  7.37700 47.09900 27.30400
C  6.26900 46.70900 26.52100
C  5.07300 46.74900 27.29500
C  5.58300 46.94900 28.65900
C  6.99700 47.12600 28.54300
C  3.69200 46.45500 26.76700
C  5.22900 46.99200 30.00900
O  4.12300 46.92800 30.62100
C  6.61500 47.11100 30.83600
C  6.61800 45.77200 31.59800
O  7.06600 44.69000 31.15100
O  5.97900 45.97600 32.73900
C  5.61200 44.75100 33.46100
H  13.09400 48.93000 29.14500
H  11.50500 47.43700 22.96400
H  5.51900 46.18000 24.62800
H  8.99100 48.80500 31.77900
H  11.71800 48.82800 31.22900
H  11.15400 51.19500 31.12500
H  9.52300 50.66900 31.25700
H  10.23800 50.83400 29.67100
H  11.12500 46.81400 32.06200
H  9.67300 46.01400 31.63500
H  8.68500 47.70500 33.71100
H  10.47600 47.48100 34.04300
H  14.83400 49.35200 27.91200
H  15.14300 49.94800 26.25700
H  15.64300 48.33900 26.78100
H  15.94900 47.88500 24.77300
H  15.81600 49.29000 23.76300
H  16.15900 47.60800 23.03800
H  9.53700 45.83900 21.84800
H  6.78000 46.61400 22.36800
H  9.39500 48.72600 22.00100
H  8.19500 48.04100 20.90500
H  9.90700 47.66100 20.69800
H  7.27900 44.36100 21.72200
H  6.32900 44.26900 23.04400
H  8.69100 44.00500 24.27900
H  8.91100 43.15700 22.62300
H  7.72400 42.65500 23.81400
H  3.27700 47.17400 26.06100
H  2.98600 46.22200 27.56400
H  3.68400 45.52100 26.20500
H  6.56600 47.96600 31.50900
H  5.59600 44.95400 34.53200
H  6.33300 43.95900 33.25500
H  4.62000 44.43000 33.14400

