158

Mg -1.12800 18.39400 27.43500
C  -1.69900 16.31000 30.27500
C  -1.33000 21.18200 29.61500
C  -1.19700 20.64200 24.80500
C  -1.48300 15.77200 25.39200
N  -1.55600 18.66600 29.70200
C  -1.50300 17.65300 30.64000
C  -1.75200 18.20100 32.08500
C  -2.02400 19.74700 31.78400
C  -1.57100 19.92200 30.26800
C  -3.43900 20.20400 31.96900
C  -0.60300 17.92700 33.04400
C  -1.07200 17.28800 34.35100
H  -0.05800 17.21600 35.48700
N  -1.12300 20.57500 27.23000
C  -1.19000 21.51500 28.22600
C  -1.06100 22.82500 27.71900
C  -0.90600 22.67600 26.27000
C  -1.04700 21.28300 26.06100
C  -1.16600 24.12100 28.47700
C  -0.69300 23.75200 25.08300
O  -0.64900 23.54600 23.88300
C  -0.49600 25.15900 25.55200
N  -1.47400 18.23500 25.43100
C  -1.25300 19.24800 24.48900
C  -1.25800 18.70600 23.04100
C  -1.00600 17.19300 23.36000
C  -1.36100 17.02400 24.86300
C  -2.59200 19.03400 22.41200
C  0.45000 16.69900 22.95300
C  1.63900 17.51800 23.53200
N  -1.68100 16.43200 27.70300
C  -1.63700 15.44200 26.72100
C  -1.77000 14.16100 27.42800
C  -1.74300 14.44600 28.78700
C  -1.63600 15.84500 28.93900
C  -1.98600 12.84600 26.73600
C  -1.90700 13.90400 30.09500
O  -2.04400 12.74900 30.45600
C  -1.69200 15.06300 31.08700
C  -0.40500 14.78600 31.79400
O  0.72300 14.95400 31.33800
O  -0.70800 14.20100 32.98600
C  0.39500 13.66200 33.78200
H  -1.46900 22.00600 30.31700
H  -1.11400 21.20800 23.87500
H  -1.40500 14.91500 24.71900
H  -2.66300 17.70800 32.42200
H  -1.39500 20.41900 32.36800
H  -4.13700 19.52400 32.45800
H  -3.88000 20.73300 31.12400
H  -3.38200 20.99300 32.72000
H  0.01400 18.81100 33.20700
H  0.00000 17.24300 32.44800
H  -1.39500 16.26400 34.16300
H  -1.94600 17.87600 34.63100
H  -1.55700 24.20000 29.49200
H  -1.99200 24.66700 28.02100
H  -0.31300 24.79300 28.39000
H  -1.36700 25.48400 26.12200
H  -0.44400 25.90000 24.75500
H  0.37900 25.12700 26.20100
H  -0.45500 19.06700 22.39800
H  -1.68600 16.54700 22.80300
H  -3.31800 18.22100 22.38800
H  -2.56700 19.31500 21.35900
H  -3.09100 19.81200 22.99000
H  0.55200 16.63900 21.86900
H  0.64000 15.64600 23.16100
H  2.09700 16.89800 24.30200
H  1.38500 18.53100 23.84400
H  2.33000 17.60200 22.69400
H  -3.02600 12.57800 26.54900
H  -1.57800 12.02600 27.32600
H  -1.40400 12.76000 25.81800
H  -2.49200 14.99400 31.82400
H  0.09100 13.85200 34.81100
H  1.29500 14.27400 33.73600
H  0.64700 12.61000 33.64400
Mg 17.49700 -1.33200 28.47300
C  16.59400 0.81800 31.24800
C  19.81700 -2.86200 30.52100
C  18.83800 -2.87400 25.81600
C  16.03800 1.11300 26.45300
N  18.16000 -1.01600 30.60100
C  17.44400 -0.27600 31.56600
C  18.00600 -0.60700 32.96900
C  19.13800 -1.62300 32.66500
C  19.04800 -1.93700 31.20600
C  20.54800 -1.15800 33.19600
C  16.94200 -1.19600 33.94000
C  16.82700 -0.55300 35.29200
H  17.94700 0.07100 36.00600
N  18.91900 -2.82400 28.23900
C  19.71400 -3.31800 29.21000
C  20.51000 -4.35200 28.61600
C  20.21200 -4.47200 27.25800
C  19.28700 -3.36600 27.06700
C  21.58600 -5.06900 29.42100
C  20.65000 -5.46000 26.26500
O  20.32900 -5.36300 25.12800
C  21.55900 -6.66300 26.59700
N  17.35900 -0.93900 26.39900
C  17.97200 -1.79400 25.48100
C  17.66600 -1.25200 24.02700
C  16.67300 -0.06100 24.32300
C  16.66300 0.06900 25.81300
C  18.99100 -0.70300 23.34000
C  15.26100 -0.16100 23.58000
C  14.16900 -1.05000 24.22200
N  16.43900 0.63600 28.73900
C  15.90200 1.42500 27.79500
C  15.16600 2.52800 28.46700
C  15.35800 2.22300 29.81500
C  16.22800 1.15800 29.88700
C  14.20400 3.43700 27.75900
C  14.92900 2.50200 31.22000
O  13.97800 3.18400 31.59600
C  15.85400 1.71900 32.16400
C  16.68000 2.70700 32.75500
O  17.48700 3.36600 32.17200
O  16.33700 2.82400 34.11000
C  16.99400 3.88900 34.88900
H  20.49500 -3.45300 31.14100
H  19.33000 -3.36000 24.97100
H  15.40400 1.65200 25.74600
H  18.52100 0.21600 33.46600
H  19.05500 -2.53400 33.25800
H  20.43000 -0.25800 33.80000
H  21.15400 -0.99700 32.30400
H  20.90900 -1.96800 33.82800
H  17.20200 -2.25100 34.03000
H  15.95300 -1.25000 33.48500
H  16.38000 -1.21900 36.03000
H  16.05900 0.21400 35.19800
H  22.32500 -5.60200 28.82200
H  21.22300 -5.82700 30.11600
H  22.10400 -4.31400 30.01200
H  21.16200 -7.46300 25.97200
H  21.33100 -7.00300 27.60700
H  22.63600 -6.50300 26.55100
H  17.23800 -1.95500 23.31200
H  17.17200 0.77700 23.83700
H  19.71400 -0.48600 24.12600
H  18.91900 0.35700 23.10000
H  19.27400 -1.36000 22.51700
H  15.48900 -0.51500 22.57400
H  14.86600 0.84700 23.45600
H  13.36500 -0.48800 24.69700
H  14.62100 -1.70700 24.96500
H  13.69600 -1.65300 23.44700
H  13.95000 3.19400 26.72800
H  14.68300 4.40700 27.62300
H  13.33300 3.58900 28.39700
H  15.32100 1.11200 32.89600
H  18.02400 3.65500 35.15900
H  16.35200 4.13200 35.73600
H  17.25100 4.75200 34.27400

