158

Mg 2.10500 -1.84600 44.69800
C  5.38100 -0.66600 44.38500
C  0.99000 0.92100 43.03000
C  -0.82300 -3.45600 44.16300
C  3.48200 -4.94400 45.79400
N  3.10500 -0.22500 43.72500
C  4.39400 0.15600 43.80000
C  4.54900 1.59900 43.31800
C  3.15900 2.12000 43.35100
C  2.37400 0.84500 43.31600
C  2.65400 2.91400 44.55800
C  5.35500 1.71400 41.96200
C  6.88800 2.06900 41.99100
H  7.82300 1.40500 41.08200
N  0.32200 -1.38000 43.69800
C  0.05300 -0.10600 43.11600
C  -1.23900 -0.11200 42.54700
C  -1.78700 -1.41200 42.87100
C  -0.74200 -2.15100 43.58500
C  -1.74600 1.09500 41.77600
C  -3.25200 -1.81000 42.59200
O  -3.98300 -1.14900 41.86300
C  -3.92000 -2.96400 43.27000
N  1.39300 -4.05800 44.72400
C  0.12300 -4.37400 44.65200
C  -0.09200 -5.87100 45.03200
C  1.32000 -6.36300 45.53100
C  2.11000 -5.01400 45.35300
C  -1.09500 -6.11300 46.14100
C  1.86600 -7.54100 44.73800
C  2.53700 -8.75600 45.41600
N  4.03500 -2.60400 45.26700
C  4.41800 -3.86000 45.65400
C  5.89500 -3.90300 45.86800
C  6.30700 -2.57800 45.46900
C  5.15100 -1.93500 44.98000
C  6.70500 -5.03700 46.21400
C  7.44400 -1.63800 45.28200
O  8.63800 -1.80100 45.48200
C  6.81300 -0.37400 44.72200
C  7.01000 0.74000 45.85300
O  6.15600 1.09800 46.66700
O  8.08500 1.40900 45.47500
C  8.16200 2.78500 46.05500
H  0.60900 1.86400 42.63300
H  -1.76100 -3.99700 44.02100
H  3.86900 -5.92000 46.09700
H  5.11500 2.05600 44.13000
H  3.05000 2.65100 42.40500
H  1.79400 3.51700 44.26600
H  3.43300 3.56400 44.95500
H  2.33400 2.23600 45.34900
H  4.88600 2.57300 41.48200
H  5.21500 0.74700 41.47700
H  7.30100 1.96400 42.99400
H  7.02600 3.12400 41.75200
H  -1.35400 1.01300 40.76200
H  -1.50400 2.03400 42.27400
H  -2.83200 1.07900 41.68700
H  -3.62100 -3.87000 42.74200
H  -5.00500 -2.87300 43.22700
H  -3.61100 -2.93400 44.31500
H  -0.39600 -6.39500 44.12600
H  1.29100 -6.59600 46.59500
H  -0.74800 -6.93700 46.76300
H  -2.02500 -6.47000 45.69900
H  -1.22600 -5.15600 46.64600
H  2.61100 -7.17200 44.03300
H  1.06000 -7.92700 44.11400
H  2.08400 -8.83000 46.40400
H  3.62700 -8.73300 45.43800
H  2.25600 -9.66400 44.88100
H  6.57900 -5.72100 45.37400
H  6.25500 -5.35200 47.15500
H  7.77600 -4.85600 46.30700
H  7.36000 0.02600 43.86700
H  9.20800 3.01700 45.85400
H  7.82000 3.00900 47.06600
H  7.53000 3.32800 45.35300
Mg 44.77500 5.59100 47.56600
C  42.51600 8.34700 47.08100
C  42.02600 3.48700 47.33100
C  46.80100 3.10800 47.51900
C  47.38300 7.91600 46.99100
N  42.51800 5.93700 47.11800
C  41.84000 7.11300 46.82900
C  40.39000 6.86500 46.38100
C  40.20100 5.38300 46.83600
C  41.63700 4.88300 47.04500
C  39.42200 5.13500 48.14900
C  40.17500 7.02500 44.86100
C  39.50400 8.29900 44.39300
H  40.22400 9.12000 43.27300
N  44.43200 3.52300 47.43800
C  43.24300 2.84200 47.51700
C  43.47700 1.44100 47.64800
C  44.91600 1.30200 47.56700
C  45.48000 2.63700 47.45500
C  42.38600 0.30600 47.65500
C  45.68600 0.04100 47.64600
O  45.14800 -1.04400 47.94600
C  47.20800 -0.08100 47.37500
N  46.91300 5.52100 47.08900
C  47.43800 4.32500 47.43000
C  48.95400 4.53000 47.48700
C  49.15700 6.03100 47.23200
C  47.74900 6.55700 47.06000
C  49.52700 4.01700 48.90400
C  50.00000 6.45800 46.01300
C  51.08100 5.53200 45.51800
N  44.96500 7.71100 47.16500
C  46.11400 8.48400 47.08300
C  45.72100 9.89900 47.16500
C  44.25400 9.88200 47.22300
C  43.90500 8.51500 47.11000
C  46.61100 11.12800 47.26900
C  43.05700 10.65100 47.33300
O  42.98300 11.86400 47.60800
C  41.89100 9.71100 47.00100
C  40.80400 9.78200 48.08700
O  40.78900 9.09300 49.11400
O  39.87600 10.81000 47.71400
C  38.75000 10.95800 48.63000
H  41.27700 2.69300 47.35600
H  47.69000 2.49100 47.66800
H  48.22200 8.61300 47.05600
H  39.67100 7.46800 46.93600
H  39.63100 4.81500 46.10000
H  38.66600 4.36300 48.00800
H  38.75800 5.99200 48.25800
H  40.07100 5.10400 49.02400
H  39.54800 6.20300 44.51500
H  41.15100 6.98600 44.37800
H  39.32200 9.06200 45.15000
H  38.51100 8.05100 44.02100
H  42.47600 -0.01800 48.69200
H  42.58800 -0.46200 46.90800
H  41.34900 0.62000 47.54300
H  47.42500 -1.15000 47.38100
H  47.73900 0.50500 48.12500
H  47.41400 0.33600 46.38900
H  49.40400 3.90100 46.72000
H  49.66100 6.46600 48.09500
H  48.82100 3.34900 49.39600
H  49.83300 4.78200 49.61800
H  50.36200 3.33900 48.72700
H  50.48800 7.40800 46.23100
H  49.41600 6.57000 45.09900
H  51.46500 4.96100 46.36300
H  51.94200 6.05800 45.10600
H  50.77400 4.82200 44.75000
H  47.42200 10.91700 46.57300
H  46.86600 11.33100 48.30900
H  46.09800 12.03700 46.95300
H  41.59500 9.95000 45.98000
H  38.09700 11.79100 48.37000
H  39.19700 11.13200 49.60800
H  38.12600 10.06700 48.70100

