158

Mg -2.11600 17.36400 25.73300
C  -2.48900 14.90000 28.35400
C  -2.98000 19.73500 27.90000
C  -2.10900 19.35700 23.14400
C  -2.54900 14.57700 23.50700
N  -2.32500 17.35400 27.96100
C  -2.41100 16.24100 28.79600
C  -2.44900 16.73400 30.29300
C  -2.86400 18.28100 30.12600
C  -2.74800 18.49800 28.57800
C  -4.06700 18.81100 30.83200
C  -1.14300 16.43500 31.13200
C  -0.72000 17.29100 32.31100
H  -0.35800 16.68000 33.66900
N  -2.24500 19.30100 25.57700
C  -2.60500 20.14100 26.63800
C  -2.68000 21.47800 26.14600
C  -2.50600 21.46300 24.73100
C  -2.25800 19.96500 24.39300
C  -2.91400 22.65200 27.13200
C  -2.68700 22.59300 23.73500
O  -2.61100 22.39900 22.50400
C  -3.03600 23.95500 24.28100
N  -2.10300 16.95100 23.60300
C  -2.14300 18.02600 22.76300
C  -2.07600 17.59200 21.29300
C  -2.43000 16.10700 21.41200
C  -2.26300 15.83700 22.96800
C  -2.81400 18.50100 20.30100
C  -1.58100 15.15300 20.47900
C  -2.48900 14.12000 19.73600
N  -2.36200 15.16500 25.79100
C  -2.51500 14.16600 24.83100
C  -2.69700 12.86600 25.43600
C  -2.65100 13.12100 26.80900
C  -2.42400 14.51900 26.98300
C  -2.83200 11.59900 24.73000
C  -2.78200 12.57400 28.10400
O  -3.05700 11.42100 28.45100
C  -2.63600 13.68600 29.16000
C  -1.41600 13.33900 30.05400
O  -0.28400 13.75600 29.91900
O  -1.68000 12.49500 31.11900
C  -0.56700 12.11000 32.00200
H  -3.20900 20.45700 28.68700
H  -1.91800 20.11500 22.38200
H  -2.75800 13.81300 22.75500
H  -3.23900 16.09400 30.68600
H  -2.08300 18.87400 30.60300
H  -4.74700 19.12600 30.04100
H  -3.67600 19.57200 31.50700
H  -4.38200 17.97100 31.45100
H  -0.31800 16.59100 30.43700
H  -1.26200 15.41700 31.50400
H  -1.63000 17.85200 32.52600
H  0.11700 17.90500 31.97900
H  -2.97900 22.50300 28.21000
H  -3.70200 23.34600 26.83900
H  -2.03900 23.29900 27.06600
H  -4.06900 23.99300 24.62600
H  -2.83200 24.66200 23.47700
H  -2.38400 24.21600 25.11500
H  -1.01800 17.51500 21.04300
H  -3.49800 15.91300 21.30800
H  -3.36400 19.28200 20.82500
H  -3.49700 17.82200 19.79100
H  -2.01100 18.84500 19.64800
H  -0.74800 14.74400 21.05200
H  -1.13300 15.75700 19.69100
H  -2.19500 13.92100 18.70600
H  -3.55200 14.32800 19.62000
H  -2.49200 13.13100 20.19500
H  -2.93900 10.82500 25.49000
H  -1.96200 11.34600 24.12300
H  -3.80900 11.59400 24.24600
H  -3.54000 13.63300 29.76600
H  -0.33000 13.01300 32.56300
H  0.32400 11.84400 31.43300
H  -0.91800 11.45000 32.79600
Mg 36.78000 49.16000 25.28100
C  37.02200 47.09000 28.21800
C  35.47900 51.57600 27.27000
C  36.41200 50.90500 22.51200
C  37.79100 46.34100 23.51800
N  36.40700 49.31300 27.48700
C  36.53700 48.38300 28.49800
C  36.36400 49.03000 29.84800
C  35.73900 50.43600 29.45100
C  35.86900 50.46000 27.94200
C  34.29300 50.69600 29.96800
C  37.69700 49.14100 30.61900
C  37.59700 48.44600 32.05300
H  36.29200 48.60700 32.82000
N  36.04700 51.00800 24.94900
C  35.57200 51.89600 25.90200
C  35.18100 53.15300 25.22500
C  35.38300 52.90700 23.77700
C  35.89600 51.58800 23.68600
C  34.50900 54.27900 26.00700
C  35.06100 53.76700 22.62100
O  35.19400 53.45400 21.42700
C  34.72900 55.22800 22.85900
N  37.08800 48.73300 23.31100
C  36.85100 49.59800 22.31000
C  37.09200 48.88600 20.95400
C  37.70000 47.50400 21.28600
C  37.60200 47.56600 22.83100
C  35.75000 48.76500 20.15600
C  39.18900 47.40800 20.83500
C  40.27900 48.34100 21.32800
N  37.29200 47.10700 25.71500
C  37.68000 46.06900 24.89100
C  37.92900 44.84000 25.59000
C  37.61800 45.25500 26.89200
C  37.28600 46.64800 26.93200
C  38.44100 43.46900 25.18300
C  37.63900 44.74800 28.26200
O  37.94100 43.69300 28.68100
C  37.25400 45.91400 29.19300
C  36.00100 45.59600 29.90800
O  34.89600 45.84000 29.53400
O  36.28200 44.98500 31.13300
C  35.14500 44.56000 31.96300
H  35.02400 52.41400 27.80300
H  36.36500 51.39100 21.53500
H  38.04000 45.39500 23.03300
H  35.63000 48.33300 30.25400
H  36.30500 51.28700 29.83100
H  33.87200 49.83400 30.48500
H  33.56400 50.98200 29.20900
H  34.34400 51.61600 30.55100
H  37.99900 50.17000 30.81300
H  38.37800 48.58000 29.97800
H  38.34500 48.92200 32.68600
H  37.81800 47.38000 31.98400
H  34.59200 55.29900 25.63100
H  34.95600 54.41300 26.99200
H  33.52300 53.88000 26.24600
H  35.42700 55.67500 23.56700
H  33.73900 55.32000 23.30600
H  34.72300 55.68900 21.87200
H  37.76200 49.53400 20.39000
H  37.09300 46.66600 20.94300
H  34.99600 49.42900 20.57900
H  35.39500 47.74000 20.04700
H  35.86900 49.22200 19.17400
H  39.10500 47.41400 19.74800
H  39.63800 46.44800 21.08600
H  39.78600 49.23600 21.70600
H  40.97600 48.43000 20.49500
H  40.91700 47.89200 22.09000
H  38.80700 43.50000 24.15600
H  37.48100 42.95800 25.27000
H  39.17900 43.02600 25.85200
H  38.00000 46.05300 29.97600
H  34.18300 45.05200 31.82300
H  35.44200 44.86500 32.96600
H  35.12100 43.47100 31.92400

