158

Mg 47.94100 15.30100 28.53100
C  45.91900 14.94800 31.31200
C  49.88400 17.49700 30.35200
C  49.66500 16.06600 25.74400
C  45.67100 13.31400 26.75600
N  47.86400 16.10500 30.66200
C  46.98200 15.74300 31.61000
C  47.26500 16.54300 32.92700
C  48.54000 17.39200 32.56700
C  48.76200 17.00100 31.05200
C  48.46700 18.81100 32.90000
C  47.36300 15.61800 34.18200
C  46.87800 16.24500 35.49300
H  47.87500 16.15500 36.69200
N  49.57600 16.59600 28.10900
C  50.23300 17.38700 29.01700
C  51.35400 17.93200 28.37500
C  51.43600 17.48900 27.04000
C  50.20900 16.65700 26.89700
C  52.46500 18.70300 29.15800
C  52.52500 17.54400 25.98200
O  52.38500 16.95400 24.89300
C  53.88000 18.14100 26.22900
N  47.63100 14.84900 26.51500
C  48.57000 15.12600 25.56700
C  48.33800 14.30500 24.26800
C  47.19000 13.35700 24.71300
C  46.77300 13.86200 26.07400
C  48.00100 15.25800 23.09300
C  47.62600 11.83500 24.48900
C  48.11700 11.05900 25.72300
N  46.20000 14.21800 28.89700
C  45.30700 13.52500 28.10600
C  44.06000 13.17100 28.84800
C  44.29700 13.70000 30.10600
C  45.59300 14.31000 30.06200
C  42.89700 12.42200 28.32100
C  43.80200 13.71900 31.43500
O  42.83200 13.15300 31.85600
C  44.73500 14.53500 32.26300
C  43.92200 15.71000 32.66300
O  43.74500 16.77600 32.11200
O  43.47300 15.44400 33.91700
C  42.47600 16.39700 34.43100
H  50.51600 18.01500 31.07600
H  50.17800 16.28000 24.80400
H  44.98800 12.72400 26.14000
H  46.46800 17.26400 33.11400
H  49.40000 16.93900 33.06100
H  47.62200 18.86600 33.58600
H  48.17700 19.44300 32.06100
H  49.43200 19.13500 33.29000
H  48.42400 15.40100 34.30000
H  46.84100 14.69100 33.94700
H  45.95000 15.70900 35.69200
H  46.57400 17.29100 35.44200
H  52.41200 18.69500 30.24700
H  52.50600 19.75200 28.86200
H  53.39200 18.18600 28.91300
H  54.29800 17.47100 26.98000
H  53.60600 19.12800 26.60400
H  54.48600 18.15400 25.32300
H  49.27500 13.80300 24.02500
H  46.30700 13.50200 24.08900
H  47.39600 14.76100 22.33500
H  48.90900 15.50500 22.54400
H  47.42400 16.12000 23.42700
H  48.45000 11.77800 23.77800
H  46.87800 11.25100 23.95200
H  47.80300 11.67700 26.56400
H  49.18800 10.87600 25.64600
H  47.55600 10.15100 25.94800
H  42.92000 11.46400 28.84100
H  42.89200 12.27500 27.24100
H  41.99900 12.97900 28.58600
H  44.96900 13.87500 33.09800
H  43.02900 17.12900 35.01900
H  41.91400 15.72100 35.07600
H  41.70400 16.79300 33.77000
Mg 47.24900 34.81600 28.42400
C  45.78000 33.02000 30.79500
C  47.52500 37.62000 30.56600
C  47.95200 37.01500 25.80100
C  46.68000 32.27900 26.15000
N  46.71900 35.20900 30.41100
C  46.23400 34.28600 31.27900
C  46.10600 34.74800 32.73800
C  46.20700 36.29900 32.56700
C  46.86000 36.40100 31.08600
C  44.98200 37.13500 32.82400
C  47.24000 34.14700 33.67200
C  46.84000 33.76300 35.11400
H  47.52700 34.74200 36.09100
N  47.67800 36.94300 28.18600
C  47.86900 37.84900 29.21900
C  48.53300 39.10400 28.74600
C  48.62800 38.93900 27.34600
C  48.04300 37.61600 27.07600
C  49.14400 40.09800 29.63200
C  49.20000 39.90500 26.32200
O  49.35800 39.68100 25.10700
C  49.67500 41.31000 26.76200
N  47.31000 34.64800 26.34400
C  47.63300 35.70700 25.49900
C  47.76600 35.16600 24.00600
C  47.34300 33.65700 24.12000
C  47.14300 33.42600 25.60900
C  47.04700 35.96400 22.93300
C  48.29000 32.57500 23.44600
C  49.68100 32.48500 24.01500
N  46.52000 32.87300 28.46300
C  46.28800 31.97900 27.45300
C  45.72800 30.79800 27.93800
C  45.36800 31.17000 29.22700
C  45.87100 32.44500 29.49700
C  45.41000 29.53000 27.19300
C  44.70900 30.81100 30.44800
O  44.16500 29.75500 30.65900
C  44.88800 31.94800 31.52000
C  45.53100 31.29200 32.72000
O  46.68900 30.94500 32.81900
O  44.60900 31.07400 33.77600
C  45.17100 30.33600 34.93100
H  47.41200 38.53600 31.14900
H  48.39000 37.52000 24.93600
H  46.70000 31.48500 25.40000
H  45.11300 34.49700 33.11300
H  46.93500 36.77100 33.22700
H  44.99500 37.47500 33.86000
H  44.03900 36.59900 32.71700
H  45.00500 38.04000 32.21800
H  47.88300 35.02300 33.75900
H  47.83200 33.36900 33.19100
H  47.03000 32.73100 35.40800
H  45.77600 33.91100 35.29700
H  49.29100 39.67000 30.62300
H  48.48600 40.96700 29.60400
H  50.13300 40.34800 29.24800
H  49.68400 42.08000 25.99100
H  50.69700 41.14900 27.10500
H  49.09200 41.63200 27.62600
H  48.83300 35.18200 23.78500
H  46.34300 33.60900 23.68900
H  46.74300 36.98300 23.17200
H  46.14800 35.42700 22.63400
H  47.70200 36.00900 22.06200
H  48.41900 32.83300 22.39500
H  47.70800 31.65800 23.35300
H  49.90700 31.55500 24.53700
H  49.89800 33.30100 24.70400
H  50.45300 32.56500 23.25000
H  45.71100 29.74400 26.16800
H  44.33300 29.37000 27.14500
H  46.00000 28.69200 27.56400
H  43.90100 32.37700 31.69600
H  44.42300 30.50400 35.70600
H  46.18500 30.66700 35.15700
H  45.29600 29.28100 34.68700

