158

Mg 47.75100 15.83800 28.55300
C  45.66200 16.04100 31.47500
C  49.97400 17.58800 30.38400
C  49.44200 16.27400 25.68800
C  45.04900 14.41700 26.88000
N  47.85600 16.64300 30.76800
C  46.92800 16.51700 31.74800
C  47.48000 17.00800 33.12500
C  48.87700 17.64800 32.67800
C  48.88600 17.36300 31.12600
C  48.85500 19.22800 32.87800
C  47.47200 15.89200 34.21000
C  47.48300 16.38400 35.73400
H  47.28300 17.86700 36.05700
N  49.47300 16.64800 28.19400
C  50.31800 17.22500 29.04400
C  51.57200 17.61900 28.45100
C  51.43600 17.26200 27.06200
C  50.09800 16.68200 26.91500
C  52.77800 18.23600 29.14100
C  52.41800 17.49000 25.96200
O  52.30500 17.00400 24.83900
C  53.69100 18.23700 26.27500
N  47.25300 15.32200 26.61200
C  48.14100 15.66500 25.60500
C  47.64300 15.29500 24.23000
C  46.21100 14.62600 24.59500
C  46.19000 14.68200 26.10400
C  47.47100 16.59100 23.38600
C  45.96300 13.14900 24.00800
C  45.39800 12.96800 22.58600
N  45.72300 15.43500 28.95600
C  44.76700 14.72500 28.23200
C  43.60100 14.40000 29.00300
C  43.87500 14.88200 30.23900
C  45.19300 15.57500 30.20500
C  42.40400 13.73100 28.48000
C  43.41900 15.00400 31.63300
O  42.45500 14.47500 32.14300
C  44.54900 15.79900 32.41600
C  44.00800 16.93700 33.16900
O  43.99100 18.10900 32.77400
O  43.54700 16.49900 34.39300
C  42.91300 17.51400 35.26700
H  50.65600 18.20600 30.97200
H  49.95500 16.31400 24.72500
H  44.25100 13.89500 26.34800
H  46.87700 17.83400 33.50400
H  49.65300 17.04100 33.14500
H  49.85700 19.48700 33.22200
H  48.12400 19.57100 33.61000
H  48.79200 19.75000 31.92300
H  48.43400 15.42600 33.99400
H  46.71900 15.12400 34.03400
H  48.40300 15.98500 36.16000
H  46.61300 15.80800 36.04900
H  52.65600 18.23400 30.22400
H  53.07900 19.27400 28.99500
H  53.57500 17.53500 28.89500
H  53.41900 19.13400 26.83200
H  54.09100 18.48300 25.29100
H  54.40900 17.59100 26.77800
H  48.31900 14.54400 23.82000
H  45.42200 15.30800 24.28000
H  46.52400 16.49000 22.85600
H  48.27500 16.65800 22.65400
H  47.59400 17.44500 24.05200
H  45.16900 12.71100 24.61200
H  46.86500 12.53800 24.05100
H  45.45400 13.91700 22.05400
H  44.33200 12.74700 22.63800
H  45.90600 12.12200 22.12300
H  42.09800 14.05600 27.48500
H  41.51500 13.95000 29.07000
H  42.51800 12.64700 28.46100
H  44.82400 15.15600 33.25300
H  43.11300 18.58200 35.18000
H  43.15900 17.11800 36.25200
H  41.84100 17.40000 35.10900
Mg 47.25700 25.22300 29.41500
C  47.74500 27.73400 31.92000
C  46.51200 23.04000 31.83300
C  47.24900 22.84900 27.00400
C  48.80300 27.49000 27.23700
N  47.19800 25.45100 31.56700
C  47.26200 26.54400 32.41200
C  46.97000 26.20400 33.90700
C  46.89100 24.65900 33.79100
C  46.80600 24.33700 32.28200
C  47.98900 23.79800 34.46000
C  45.72300 26.91500 34.51500
C  46.08600 27.84800 35.61700
H  45.17300 28.05200 36.78000
N  46.85800 23.29100 29.41700
C  46.55000 22.53800 30.52400
C  46.06000 21.28700 30.09600
C  46.19100 21.20700 28.65500
C  46.78500 22.54400 28.28800
C  45.64000 20.21900 31.02000
C  45.98300 20.01900 27.69000
O  46.23500 20.07700 26.52900
C  45.50700 18.68300 28.20000
N  47.95100 25.18500 27.48500
C  47.82600 24.11900 26.68200
C  48.30500 24.35200 25.27000
C  48.73600 25.85900 25.28800
C  48.43700 26.22000 26.75800
C  49.62100 23.49900 25.06100
C  47.84700 26.61100 24.28100
C  48.07200 26.26000 22.79900
N  48.04700 27.23300 29.47900
C  48.67700 28.01300 28.52500
C  48.98700 29.32800 29.07000
C  48.58300 29.23500 30.41000
C  48.07900 27.95000 30.62100
C  49.77100 30.40100 28.28200
C  48.59700 29.97300 31.67400
O  48.92800 31.12800 31.94500
C  48.06200 28.96400 32.73400
C  49.21100 28.70700 33.66000
O  50.28100 28.20300 33.28500
O  48.90700 29.08300 34.93200
C  49.92000 28.75900 35.96800
H  46.02500 22.38200 32.55600
H  47.10300 22.10700 26.21700
H  49.20400 28.14000 26.45600
H  47.91300 26.33700 34.43700
H  45.99700 24.17500 34.18300
H  48.52100 23.16200 33.75300
H  47.48900 23.23100 35.24600
H  48.81200 24.35900 34.90200
H  44.94200 26.22500 34.83400
H  45.28700 27.57300 33.76300
H  46.33100 28.81800 35.18400
H  47.02700 27.56400 36.08800
H  44.55000 20.22600 31.01100
H  45.97800 20.33400 32.05000
H  46.01200 19.26400 30.65000
H  46.29700 18.18900 28.76500
H  45.13500 18.14100 27.33000
H  44.62900 18.78500 28.83800
H  47.52800 24.16300 24.52900
H  49.73400 26.19500 25.00600
H  50.02400 23.04500 25.96600
H  50.39500 24.02200 24.50100
H  49.34400 22.68100 24.39600
H  47.82700 27.68900 24.43800
H  46.81800 26.26100 24.36500
H  48.80700 25.45900 22.72000
H  48.44000 27.20200 22.39000
H  47.19900 25.98400 22.20700
H  49.41400 30.38200 27.25200
H  50.78700 30.02100 28.17300
H  49.71000 31.36100 28.79500
H  47.23800 29.46700 33.24100
H  50.49800 29.66400 36.15500
H  50.60600 27.95200 35.70800
H  49.46200 28.42900 36.90000

