158

Mg 25.37400 1.07700 29.53700
C  27.33800 0.90500 32.46300
C  22.64700 1.63600 31.45500
C  23.75900 1.28400 26.60300
C  28.20900 0.11400 27.84700
N  25.09300 1.22400 31.74400
C  26.02600 1.29900 32.74800
C  25.40400 1.58200 34.19800
C  23.87400 1.46400 33.86200
C  23.78500 1.32700 32.26200
C  23.13900 0.32200 34.59200
C  25.92700 2.88600 34.77700
C  26.41600 2.72400 36.33200
H  25.85900 3.73700 37.31700
N  23.43300 1.22000 29.09100
C  22.49300 1.59700 30.00400
C  21.23600 1.86900 29.22800
C  21.50200 1.61600 27.89300
C  22.95100 1.33300 27.79600
C  19.96200 2.43100 29.88300
C  20.56200 1.68500 26.66600
O  20.83900 1.20400 25.52500
C  19.24000 2.14300 26.88200
N  25.91900 0.61900 27.45400
C  25.12900 1.03500 26.48400
C  25.81300 0.83700 25.12300
C  27.27000 0.59700 25.54400
C  27.16000 0.34400 27.04200
C  25.24200 -0.33900 24.29400
C  28.26300 1.72700 25.14700
C  29.23900 1.34900 23.94800
N  27.33600 0.37200 30.03600
C  28.34400 0.14600 29.22600
C  29.59600 -0.04700 29.99200
C  29.20300 0.18500 31.33800
C  27.83500 0.51300 31.27800
C  30.90400 -0.47900 29.45400
C  29.67900 0.25100 32.71900
O  30.77300 0.01500 33.17400
C  28.45500 0.76300 33.50500
C  28.25200 -0.20500 34.56900
O  27.67500 -1.27400 34.42700
O  28.90900 0.20400 35.71700
C  28.79300 -0.78000 36.87000
H  21.72600 1.68800 32.04000
H  23.19700 1.29200 25.66700
H  29.03000 -0.11900 27.16600
H  25.66200 0.85300 34.96700
H  23.39500 2.38200 34.20400
H  22.34800 0.64100 35.27000
H  23.81500 -0.30600 35.17300
H  22.67300 -0.33300 33.85500
H  25.38300 3.78200 34.47600
H  26.82000 2.93600 34.15400
H  27.48600 2.92000 36.26000
H  26.26900 1.71900 36.72600
H  19.78300 3.29200 29.23900
H  20.13600 2.87600 30.86300
H  19.13300 1.72600 29.93100
H  19.31400 3.20200 27.13200
H  18.62700 1.56800 27.57600
H  18.64500 2.07400 25.97200
H  25.77100 1.71200 24.47500
H  27.54800 -0.30000 24.99100
H  25.17800 -1.19200 24.96800
H  25.99600 -0.50100 23.52300
H  24.22800 -0.10200 23.97200
H  28.81900 2.05700 26.02500
H  27.69200 2.55600 24.72900
H  28.87300 0.53800 23.31800
H  30.20700 1.02100 24.32700
H  29.33000 2.29600 23.41600
H  31.38200 -1.08600 30.22300
H  31.60900 0.34800 29.37000
H  30.84700 -1.02800 28.51400
H  28.68000 1.74100 33.93200
H  28.95800 -1.82000 36.58900
H  27.85900 -0.64200 37.41500
H  29.65700 -0.46800 37.45600
Mg 35.36600 2.12700 30.22600
C  33.12400 3.25500 32.64500
C  37.91900 2.15900 32.44600
C  37.51000 1.21100 27.69200
C  32.99700 2.71400 27.84700
N  35.47000 2.73300 32.24500
C  34.43200 3.05900 33.11600
C  34.83300 2.84000 34.55400
C  36.38200 2.91900 34.41400
C  36.66600 2.62400 32.90100
C  37.04100 4.30900 34.82400
C  34.23100 1.48600 35.10700
C  33.81700 1.55800 36.58400
H  34.61300 2.48400 37.57300
N  37.38600 1.61500 30.08100
C  38.24500 1.67600 31.12100
C  39.56600 1.20700 30.81600
C  39.49400 1.00000 29.41600
C  38.10100 1.23600 28.99700
C  40.69900 1.05200 31.83800
C  40.61500 0.68700 28.44000
O  40.41700 0.54900 27.24200
C  42.01300 0.45400 29.00900
N  35.35400 1.98100 28.06900
C  36.32700 1.61400 27.19600
C  35.84900 1.49000 25.72500
C  34.36700 1.97500 25.81600
C  34.22000 2.29100 27.32400
C  36.63300 2.43100 24.78500
C  33.33500 0.85600 25.34100
C  33.16700 0.54700 23.81600
N  33.48800 2.78400 30.14800
C  32.66800 3.03500 29.11200
C  31.32400 3.26600 29.61000
C  31.42500 3.39400 31.01500
C  32.80900 3.12400 31.28400
C  30.11000 3.49500 28.79200
C  30.67200 3.70200 32.27000
O  29.52600 4.07300 32.51600
C  31.85100 3.66200 33.36200
C  31.89100 4.92800 34.09200
O  32.23300 6.04300 33.74700
O  31.56500 4.48300 35.39300
C  32.04700 5.47800 36.36900
H  38.67300 2.33800 33.21500
H  38.06700 0.96400 26.78600
H  32.19300 2.79400 27.11200
H  34.54300 3.72900 35.11400
H  36.83000 2.17400 35.07200
H  36.33200 5.03200 35.22600
H  37.55800 4.76600 33.98000
H  37.66700 3.99500 35.65900
H  34.88900 0.61700 35.08400
H  33.39000 1.21900 34.46800
H  33.77900 0.57200 37.04700
H  32.75400 1.79500 36.54900
H  40.78400 -0.02400 31.98900
H  40.43000 1.61000 32.73400
H  41.48800 1.51200 31.24300
H  42.11500 -0.11900 29.93100
H  42.53400 1.40300 29.13700
H  42.51500 -0.11800 28.22800
H  35.79200 0.43800 25.44800
H  34.18300 2.89300 25.25700
H  37.34300 3.04200 25.34200
H  35.97500 3.00000 24.12800
H  37.23800 1.86200 24.07900
H  32.35300 0.97800 25.79800
H  33.67100 -0.12800 25.66600
H  33.76700 -0.33400 23.58800
H  33.61300 1.37700 23.26700
H  32.11800 0.32700 23.62100
H  29.39000 3.92100 29.49100
H  29.73100 2.57400 28.34900
H  30.37600 4.11700 27.93800
H  31.56100 2.80500 33.96900
H  32.03300 4.96200 37.32900
H  31.39900 6.35400 36.34600
H  33.08900 5.76500 36.22900

