158

Mg -2.71400 17.03900 26.91800
C  -3.07600 14.74100 29.50500
C  -3.08600 19.59900 29.36900
C  -2.61800 19.36100 24.47800
C  -3.10900 14.59700 24.48700
N  -2.80600 17.16200 29.24000
C  -3.02400 16.05900 29.99800
C  -3.25500 16.47300 31.45900
C  -3.35000 18.08400 31.35000
C  -3.10700 18.33000 29.85700
C  -4.81700 18.61800 31.80700
C  -2.19000 15.93400 32.44600
C  -1.66900 16.84200 33.61100
H  -1.31600 16.10500 34.92300
N  -2.80100 19.21300 26.99200
C  -2.99400 20.05200 28.03600
C  -2.87000 21.36900 27.57300
C  -2.56800 21.32400 26.16000
C  -2.65100 19.89100 25.79700
C  -2.93400 22.62200 28.47600
C  -2.22700 22.48200 25.21400
O  -1.83200 22.26000 24.07100
C  -2.28500 23.86200 25.63400
N  -2.75700 16.95700 24.75000
C  -2.68700 18.07100 24.02600
C  -2.91400 17.79100 22.54600
C  -3.11500 16.18200 22.50800
C  -2.92900 15.88100 23.99100
C  -4.19400 18.51900 21.91600
C  -2.21100 15.48000 21.53300
C  -1.00700 14.66600 22.07600
N  -2.97700 15.09400 26.90000
C  -3.06600 14.14600 25.86700
C  -3.06600 12.75900 26.43300
C  -3.14700 13.02300 27.80600
C  -3.01400 14.42000 28.06500
C  -3.09900 11.41800 25.72700
C  -3.32200 12.33100 29.05100
O  -3.46300 11.13200 29.33800
C  -3.39400 13.45800 30.21600
C  -2.41200 12.99800 31.28100
O  -1.22800 13.19200 31.36300
O  -3.08900 12.31900 32.25000
C  -2.34200 12.07500 33.46200
H  -3.10300 20.33500 30.17500
H  -2.51200 20.06200 23.64700
H  -3.17500 13.84700 23.69600
H  -4.23600 16.05100 31.67800
H  -2.62200 18.58500 31.98800
H  -5.05500 19.41900 31.10700
H  -4.67400 18.93400 32.84000
H  -5.71300 18.00300 31.89200
H  -1.30800 15.72800 31.83900
H  -2.64100 15.01800 32.82600
H  -2.50700 17.51600 33.78500
H  -0.80600 17.43700 33.31200
H  -3.03800 22.43500 29.54500
H  -3.70900 23.31500 28.14600
H  -2.02100 23.21100 28.39600
H  -3.22000 24.13900 26.12000
H  -2.15300 24.50600 24.76500
H  -1.41200 24.12400 26.23200
H  -1.97900 18.13100 22.09900
H  -4.11300 15.87300 22.19500
H  -3.91700 19.07200 21.01800
H  -4.59600 19.27900 22.58600
H  -5.01900 17.90800 21.55000
H  -1.69900 16.34300 21.10700
H  -2.75100 14.83300 20.84200
H  -0.62300 15.20000 22.94600
H  -0.20100 14.57600 21.34800
H  -1.33200 13.66700 22.36500
H  -3.03900 11.64300 24.66200
H  -4.01100 10.83800 25.86900
H  -2.26200 10.77700 26.00400
H  -4.32900 13.51700 30.77400
H  -3.07400 12.00300 34.26700
H  -1.69700 12.91200 33.72700
H  -1.71000 11.20000 33.31300
Mg 43.64700 42.07300 26.39000
C  42.47600 44.24900 28.84100
C  44.41000 39.77200 28.73500
C  44.69500 39.97800 23.85000
C  43.35000 44.66100 24.02800
N  43.30000 42.01800 28.53400
C  42.80600 43.04100 29.32600
C  42.82500 42.53600 30.76900
C  43.61100 41.19200 30.75100
C  43.86000 41.00000 29.28500
C  44.95700 41.03600 31.62200
C  41.35000 42.43800 31.39200
C  41.26600 41.96500 32.86800
H  40.42900 42.80500 33.93500
N  44.46300 40.11800 26.33300
C  44.58400 39.32300 27.38600
C  45.38100 38.20000 26.99400
C  45.48800 38.22300 25.54100
C  44.77400 39.43400 25.13400
C  46.01500 37.26000 28.04700
C  46.13400 37.25300 24.57200
O  46.09300 37.30600 23.33800
C  46.77200 36.03700 25.07200
N  44.11900 42.29500 24.23600
C  44.38300 41.26800 23.44000
C  44.41000 41.70300 21.96400
C  43.73600 43.06700 22.00400
C  43.75800 43.40700 23.49600
C  45.83500 41.63300 21.34000
C  42.23200 43.05600 21.47600
C  41.01400 42.78900 22.46100
N  43.02900 44.07300 26.37600
C  43.02100 44.99800 25.35700
C  42.37100 46.20400 25.86200
C  42.09100 45.96700 27.23900
C  42.69400 44.70700 27.47200
C  42.10100 47.50400 25.10400
C  41.49900 46.53100 28.45900
O  40.88800 47.55200 28.64900
C  41.79900 45.41500 29.53800
C  42.62900 46.11800 30.60100
O  43.45100 47.01000 30.43600
O  42.25000 45.63300 31.78300
C  42.83300 46.31000 32.94800
H  44.55000 39.03600 29.52900
H  44.92900 39.31600 23.01300
H  43.22000 45.50900 23.35300
H  43.48900 43.29300 31.18800
H  43.05500 40.36300 31.19000
H  44.93600 40.22300 32.34800
H  45.07400 41.97700 32.15900
H  45.79800 40.83000 30.96000
H  40.79300 41.68500 30.83400
H  40.84000 43.40000 31.35900
H  42.24700 41.78100 33.30500
H  40.76600 41.01800 33.07100
H  46.72100 37.82700 28.65400
H  46.48600 36.39700 27.57600
H  45.28300 36.89300 28.76600
H  47.52800 36.32800 25.80200
H  47.27900 35.56600 24.23000
H  46.00500 35.37400 25.47100
H  43.76900 40.97700 21.46200
H  44.38300 43.81100 21.53800
H  46.47000 42.50800 21.48200
H  45.71500 41.35800 20.29200
H  46.41900 40.87300 21.86000
H  42.18900 42.26700 20.72600
H  41.99400 44.03000 21.04900
H  41.39400 42.59800 23.46400
H  40.51800 41.86900 22.15100
H  40.31900 43.62700 22.50900
H  41.16800 47.39500 24.55200
H  42.91000 47.67100 24.39300
H  42.07000 48.32400 25.82200
H  40.84600 45.11500 29.97400
H  43.83100 46.70400 32.75400
H  42.96400 45.68700 33.83300
H  42.28700 47.17900 33.31500

