158

Mg 29.82000 58.06700 41.65400
C  26.96000 56.64000 39.99500
C  31.73300 55.99400 39.89800
C  32.34400 60.28300 42.22200
C  27.50800 60.66700 42.91800
N  29.40100 56.69200 40.06600
C  28.19600 56.16000 39.60100
C  28.36700 55.02700 38.64300
C  29.88300 54.64200 38.87600
C  30.36800 55.88900 39.65500
C  30.35100 53.26700 39.46500
C  27.99400 55.28800 37.11100
C  26.88000 54.46600 36.48100
H  26.16600 54.97400 35.25100
N  31.85700 57.97400 41.34600
C  32.45900 56.99100 40.59800
C  33.93700 57.19400 40.73600
C  34.09600 58.43700 41.44400
C  32.71900 58.98000 41.72100
C  34.82800 56.14400 40.11000
C  35.46800 59.17400 41.70500
O  36.52000 58.60100 41.48000
C  35.61500 60.57300 42.24900
N  29.89700 60.30600 42.38700
C  31.08200 60.92000 42.54800
C  30.90900 62.32800 43.07100
C  29.39200 62.34800 43.42100
C  28.85200 61.05500 42.84600
C  31.95800 62.88800 44.06800
C  28.60000 63.66200 43.12100
C  27.86500 64.35100 44.23300
N  27.65700 58.46900 41.71200
C  26.95400 59.55500 42.18000
C  25.56700 59.33400 41.90600
C  25.58600 58.14800 41.14100
C  26.85500 57.72300 40.92600
C  24.39600 60.05000 42.41500
C  24.73700 57.31800 40.42100
O  23.53200 57.43700 40.32100
C  25.55600 56.29200 39.66900
C  25.25700 54.96800 40.19100
O  25.51500 54.56200 41.34100
O  24.51300 54.20500 39.32300
C  23.76700 53.03000 39.77400
H  32.33200 55.14900 39.55200
H  33.15500 61.01200 42.28900
H  26.76300 61.37800 43.28300
H  27.69600 54.20800 38.89900
H  30.45700 54.74100 37.95500
H  30.59200 53.24400 40.52700
H  31.24000 52.93800 38.92600
H  29.52600 52.61500 39.17600
H  28.88500 55.03500 36.53700
H  27.71300 56.33700 37.01900
H  26.16000 54.32600 37.28600
H  27.30300 53.51400 36.16100
H  34.79400 55.21900 40.68600
H  35.82800 56.56700 40.02000
H  34.50700 55.96000 39.08500
H  35.27400 61.24000 41.45600
H  36.63100 60.79100 42.57800
H  34.93000 60.68100 43.09000
H  30.95100 62.97200 42.19200
H  29.29600 62.09400 44.47700
H  31.65700 62.75600 45.10700
H  32.14000 63.94700 43.88400
H  32.97300 62.50900 43.94800
H  27.82900 63.29300 42.44400
H  29.16600 64.42500 42.58600
H  27.92800 65.43000 44.08900
H  28.31500 64.15700 45.20700
H  26.81300 64.07000 44.18200
H  24.20900 59.69600 43.42900
H  23.48300 60.01900 41.81900
H  24.69300 61.08300 42.59500
H  25.22800 56.34200 38.63000
H  22.70100 53.22900 39.66900
H  23.95900 52.64400 40.77600
H  23.99300 52.21600 39.08600
Mg -1.44600 35.19400 26.83800
C  -3.52500 33.62900 29.10500
C  -0.45800 37.38100 29.40800
C  0.08300 37.19100 24.60700
C  -2.74900 33.33800 24.32600
N  -2.06000 35.55400 28.98700
C  -2.77100 34.67400 29.71600
C  -2.82800 35.20400 31.17100
C  -1.95700 36.50800 31.21500
C  -1.44700 36.50700 29.79200
C  -2.71200 37.78100 31.56200
C  -2.42800 34.16700 32.21300
C  -3.43900 33.56500 33.19000
H  -2.85200 33.06500 34.55100
N  -0.30300 36.94300 27.01200
C  0.03700 37.62300 28.13500
C  1.07700 38.62700 27.85900
C  1.25900 38.61000 26.41900
C  0.28700 37.55100 25.96800
C  1.79000 39.50300 28.83400
C  2.16700 39.47200 25.49800
O  2.32600 39.18700 24.31400
C  3.04200 40.50700 26.08900
N  -1.16600 35.14800 24.79300
C  -0.53800 36.10700 24.04800
C  -0.53200 35.76400 22.54800
C  -1.38400 34.42600 22.54300
C  -1.73700 34.26000 23.97800
C  -1.10900 36.94100 21.61200
C  -0.73700 33.10400 22.06200
C  -1.55500 32.16800 21.13500
N  -2.87500 33.73600 26.70700
C  -3.31300 33.05800 25.59300
C  -4.30800 32.10700 26.00800
C  -4.34800 32.22100 27.41800
C  -3.53400 33.27400 27.76700
C  -5.04800 31.14100 25.12500
C  -4.99100 31.66800 28.60400
O  -5.72600 30.73500 28.72300
C  -4.55700 32.66800 29.72700
C  -5.80800 33.36900 30.08600
O  -6.15700 34.47800 29.70900
O  -6.50700 32.68800 31.05300
C  -7.51400 33.49400 31.74800
H  -0.04900 37.73500 30.35600
H  0.62800 37.70900 23.81400
H  -3.20500 32.66400 23.59800
H  -3.88000 35.35800 31.41300
H  -1.09200 36.43300 31.87400
H  -3.31900 37.56200 32.44000
H  -3.33200 38.19400 30.76700
H  -1.95600 38.44600 31.97900
H  -1.55600 34.58400 32.71800
H  -2.21700 33.26900 31.63200
H  -3.93500 32.66500 32.82500
H  -4.24900 34.23700 33.47500
H  2.86700 39.58600 28.68900
H  1.77800 39.15000 29.86600
H  1.33400 40.49200 28.80100
H  3.73800 40.14000 26.84400
H  2.41700 41.17100 26.68800
H  3.55100 41.14000 25.36200
H  0.42100 35.46800 22.11000
H  -2.28500 34.53400 21.93800
H  -2.18700 36.91500 21.45300
H  -0.58400 37.09700 20.67000
H  -0.94000 37.90900 22.08300
H  -0.38500 32.57800 22.95000
H  0.24100 33.29500 21.62000
H  -2.60600 32.43600 21.02700
H  -1.55200 31.18800 21.61200
H  -1.11200 32.14100 20.14000
H  -4.44100 30.50800 24.47900
H  -5.61700 31.74700 24.41900
H  -5.78600 30.58700 25.70500
H  -4.18500 32.17700 30.62500
H  -8.21000 33.95100 31.04500
H  -6.99500 34.25700 32.32900
H  -7.99700 32.75000 32.38100

