158

Mg 9.08300 3.15000 27.62200
C  9.92800 1.40400 30.59200
C  6.85600 5.03200 29.47500
C  8.01300 4.54500 24.75700
C  10.75400 0.68600 25.78900
N  8.64600 3.34000 29.79600
C  9.12500 2.52200 30.77900
C  8.61100 2.97400 32.13200
C  7.48300 4.06900 31.72900
C  7.67400 4.19000 30.23300
C  6.00600 3.69500 32.19100
C  9.69100 3.54700 33.10200
C  9.08000 4.37100 34.19200
H  9.61400 3.96300 35.57000
N  7.58100 4.56800 27.21500
C  6.79400 5.30900 28.08600
C  5.96700 6.28800 27.33000
C  6.38900 6.14400 25.93800
C  7.35500 5.02400 25.93300
C  4.99100 7.17400 28.00800
C  5.90400 6.91000 24.73100
O  6.18200 6.69100 23.57100
C  4.87400 7.86800 25.02900
N  9.30900 2.69300 25.55800
C  8.82600 3.43600 24.55500
C  9.20700 2.93600 23.11500
C  9.95900 1.62100 23.50900
C  10.03400 1.62200 25.05800
C  8.05600 2.61400 22.15800
C  11.35500 1.57000 22.84000
C  11.58300 0.53300 21.72200
N  10.16800 1.40700 28.03900
C  10.75600 0.49700 27.15300
C  11.30400 -0.53400 27.98800
C  11.13600 -0.11600 29.36500
C  10.35500 0.98200 29.32200
C  11.94400 -1.77400 27.50500
C  11.44100 -0.53100 30.67100
O  12.10200 -1.45000 31.03700
C  10.66100 0.47100 31.57800
C  9.78600 -0.38300 32.39800
O  8.65800 -0.82600 32.10000
O  10.38300 -0.49300 33.68100
C  9.53200 -1.10600 34.73300
H  6.22100 5.70700 30.05200
H  7.75700 5.07100 23.83400
H  11.07300 -0.06100 25.06000
H  8.21700 2.07700 32.61000
H  7.69100 5.04300 32.17200
H  6.10000 2.75900 32.74200
H  5.21600 3.50800 31.46300
H  5.52600 4.39100 32.87800
H  10.51200 3.96600 32.52000
H  10.12100 2.66100 33.56800
H  8.02800 4.13500 34.34700
H  9.33800 5.43000 34.16200
H  5.42200 8.17500 27.99000
H  4.90900 7.09500 29.09200
H  4.02300 7.16200 27.50800
H  3.97500 7.29200 25.25100
H  4.76100 8.44500 24.11100
H  5.29400 8.46100 25.84100
H  9.86500 3.72000 22.74100
H  9.26300 0.80100 23.33200
H  7.12000 2.73300 22.70400
H  8.14700 1.59500 21.78200
H  8.03700 3.28800 21.30100
H  12.10000 1.44100 23.62600
H  11.64500 2.54000 22.43800
H  10.65600 0.42000 21.16100
H  11.92200 -0.43200 22.10000
H  12.37500 0.94800 21.09800
H  12.29500 -2.42900 28.30200
H  12.89700 -1.44100 27.09300
H  11.42400 -2.39300 26.77400
H  11.16500 1.03800 32.36100
H  10.15300 -1.81900 35.27400
H  8.76300 -1.61000 34.14600
H  8.96400 -0.31900 35.22900
Mg -0.05000 43.76700 26.26000
C  2.07200 43.19200 29.08600
C  -2.66300 42.22200 28.12700
C  -2.01900 43.65500 23.42700
C  2.72500 44.41800 24.53600
N  -0.37200 42.88900 28.42900
C  0.68400 42.85900 29.38900
C  0.09500 42.48900 30.87700
C  -1.36500 41.92600 30.38500
C  -1.49300 42.45200 28.90400
C  -1.68100 40.43100 30.55400
C  0.16600 43.80900 31.72400
C  0.21400 43.59600 33.20100
H  -0.21500 42.23900 33.78200
N  -2.13300 43.19500 25.89800
C  -2.97400 42.49600 26.75800
C  -4.29700 42.41100 26.13300
C  -4.19300 42.88200 24.79100
C  -2.72200 43.25300 24.59500
C  -5.55800 41.87400 26.89200
C  -5.20100 42.97600 23.67400
O  -5.01000 43.49000 22.60600
C  -6.61500 42.52500 23.97600
N  0.28900 43.90500 24.29300
C  -0.65600 43.98100 23.29700
C  -0.15400 44.73000 22.03700
C  1.38700 44.87900 22.42400
C  1.49800 44.41100 23.83900
C  -0.40500 43.89400 20.70800
C  2.06800 46.27300 22.32400
C  1.62900 47.23100 21.18300
N  1.94900 43.88600 26.69400
C  3.01700 44.13400 25.85400
C  4.31900 43.87400 26.46800
C  3.98000 43.61900 27.76800
C  2.54300 43.61100 27.88400
C  5.68800 44.03500 25.78200
C  4.56200 43.28300 29.05600
O  5.71100 43.10600 29.45000
C  3.32700 43.20900 29.98100
C  3.48000 41.86700 30.63100
O  3.20500 40.78900 30.20400
O  3.87600 42.12000 31.96700
C  4.15400 40.89600 32.77000
H  -3.46300 41.71900 28.67400
H  -2.70200 43.73000 22.57800
H  3.56700 44.63100 23.87500
H  0.68500 41.67600 31.29800
H  -2.02000 42.41300 31.10700
H  -0.90300 39.84200 31.03900
H  -1.75400 39.97800 29.56500
H  -2.54300 40.25800 31.19800
H  -0.67500 44.39800 31.35800
H  1.08100 44.27200 31.35600
H  -0.45700 44.32500 33.65600
H  1.22600 43.89300 33.47700
H  -5.49500 40.78700 26.84700
H  -6.56900 42.16900 26.61300
H  -5.42400 42.14300 27.94000
H  -7.01900 42.37200 22.97600
H  -7.12200 43.36500 24.45100
H  -6.61800 41.57300 24.50700
H  -0.59500 45.71000 21.85600
H  1.88100 44.18600 21.74300
H  -0.97700 44.57600 20.07900
H  -0.97300 42.96800 20.79500
H  0.47500 43.58200 20.14600
H  3.13000 46.13700 22.12100
H  2.13600 46.78500 23.28400
H  1.22800 48.17800 21.54400
H  1.03600 46.81000 20.37200
H  2.51000 47.48000 20.59100
H  6.36600 44.59300 26.42800
H  5.70200 44.57500 24.83500
H  6.09800 43.03900 25.61500
H  3.43500 44.04600 30.67100
H  5.11000 40.93600 33.29400
H  4.21400 39.96800 32.20200
H  3.38600 40.81400 33.53900

