158

Mg -2.17300 17.59600 26.89900
C  -2.68600 15.10100 29.61900
C  -2.75700 19.92600 29.30200
C  -1.97100 19.79800 24.46100
C  -2.71600 14.93700 24.64900
N  -2.75700 17.49300 29.13600
C  -2.71300 16.38900 30.05700
C  -2.75100 16.81400 31.57600
C  -2.89700 18.29900 31.38000
C  -2.73700 18.60200 29.85900
C  -4.15100 18.92800 31.98000
C  -1.54300 16.34900 32.50200
C  -1.29600 17.06000 33.90900
H  -0.77300 16.15700 35.07300
N  -2.15500 19.60200 26.92600
C  -2.55400 20.41500 27.97500
C  -2.39600 21.73200 27.58500
C  -2.04500 21.74700 26.20500
C  -2.01800 20.35300 25.76800
C  -2.66300 22.93900 28.49600
C  -1.91200 22.93200 25.16000
O  -1.76500 22.73300 23.97900
C  -2.04700 24.36100 25.65800
N  -2.34900 17.39400 24.82100
C  -2.25400 18.48100 24.04700
C  -2.44800 18.10300 22.60500
C  -2.56700 16.57100 22.64600
C  -2.50000 16.24400 24.14700
C  -3.60500 18.80100 21.87900
C  -1.60100 15.75800 21.68200
C  -0.34400 14.98700 22.10600
N  -2.51500 15.51200 27.05100
C  -2.74600 14.60100 26.09200
C  -2.92700 13.22900 26.65900
C  -2.83600 13.44600 28.06500
C  -2.65200 14.80400 28.25800
C  -3.11500 11.91600 25.97900
C  -2.90800 12.71000 29.33500
O  -3.11300 11.50200 29.57900
C  -2.85100 13.82400 30.44700
C  -1.54100 13.48700 31.08800
O  -0.47900 13.99400 30.82900
O  -1.74400 12.54400 31.98500
C  -0.63800 12.36900 32.94500
H  -2.83800 20.69200 30.07600
H  -1.92700 20.47800 23.60700
H  -2.74500 14.07600 23.97800
H  -3.62100 16.28200 31.96100
H  -2.02800 18.83800 31.75800
H  -4.74100 19.46400 31.23600
H  -3.93900 19.38000 32.94900
H  -4.80100 18.08100 32.20100
H  -0.63800 16.36100 31.89400
H  -1.74200 15.36600 32.92900
H  -2.20000 17.64100 34.08800
H  -0.45500 17.70500 33.65700
H  -1.86000 23.66100 28.34700
H  -2.70100 22.66400 29.55000
H  -3.60300 23.41300 28.21400
H  -2.92100 24.37500 26.30800
H  -2.23500 25.15200 24.93300
H  -1.19500 24.65600 26.26900
H  -1.52500 18.36100 22.08500
H  -3.55800 16.25600 22.32000
H  -4.27300 19.22800 22.62700
H  -4.25100 18.19700 21.24100
H  -3.24800 19.65100 21.29800
H  -1.26100 16.43100 20.89500
H  -2.23400 14.94800 21.32100
H  -0.48000 13.95900 21.77100
H  -0.24500 15.03100 23.19100
H  0.59800 15.37900 21.72400
H  -3.69300 11.28100 26.64900
H  -2.18500 11.38500 25.77600
H  -3.77600 12.19000 25.15700
H  -3.63300 13.66500 31.18900
H  -0.01000 13.25700 32.88900
H  -0.01700 11.47500 32.88000
H  -1.12900 12.33600 33.91800
Mg 30.61000 58.17100 40.21500
C  27.91100 55.94100 39.47400
C  32.74800 55.76400 38.83200
C  33.05000 60.50700 40.29000
C  28.23400 60.72700 40.79400
N  30.26000 56.19900 39.05500
C  29.14500 55.45600 39.01700
C  29.44800 54.12100 38.33900
C  30.95800 53.90600 38.64800
C  31.40500 55.30500 38.84900
C  31.26500 52.92100 39.81900
C  29.15800 54.22300 36.80800
C  28.01900 53.34100 36.34100
H  27.16600 54.07500 35.37400
N  32.63200 58.07900 39.82500
C  33.28600 57.05900 39.15600
C  34.68300 57.50000 39.07100
C  34.84300 58.82800 39.58600
C  33.45700 59.19900 39.90500
C  35.82000 56.63300 38.50400
C  36.21300 59.55800 39.52500
O  37.20700 58.97800 39.07100
C  36.39000 61.04800 39.70900
N  30.61700 60.33000 40.49700
C  31.79500 61.03300 40.62700
C  31.55800 62.59400 40.78500
C  30.00400 62.67400 40.94400
C  29.56600 61.17400 40.72000
C  32.48200 63.37600 41.81800
C  29.26200 63.79100 40.19500
C  28.57800 63.58900 38.78300
N  28.47400 58.39400 40.18900
C  27.65800 59.42600 40.55400
C  26.25900 59.01200 40.54300
C  26.33600 57.64700 40.14200
C  27.68000 57.28700 39.92800
C  25.10300 59.91300 40.71100
C  25.53600 56.46400 39.75800
O  24.34300 56.33500 39.61200
C  26.56800 55.28500 39.32100
C  26.24900 54.15600 40.23200
O  26.73800 54.08900 41.32500
O  25.42500 53.23900 39.65700
C  25.33000 51.93300 40.36400
H  33.54500 55.04900 38.61500
H  33.78700 61.29400 40.46600
H  27.47300 61.39500 41.20100
H  28.85500 53.42800 38.93600
H  31.43600 53.44900 37.78100
H  30.42900 52.63300 40.45600
H  32.15900 53.20000 40.37900
H  31.63000 51.98300 39.40100
H  30.03300 53.83500 36.28600
H  29.09400 55.24800 36.44300
H  27.45100 53.00600 37.20900
H  28.32000 52.45500 35.78100
H  36.31300 57.02800 37.61600
H  35.49800 55.61700 38.27400
H  36.55000 56.39100 39.27700
H  36.04600 61.38700 40.68600
H  35.84600 61.61200 38.95100
H  37.45600 61.23500 39.57800
H  31.75300 63.09300 39.83600
H  29.79400 62.70800 42.01300
H  31.83900 63.63700 42.65900
H  33.05700 64.20100 41.39800
H  33.20500 62.61300 42.10500
H  30.05800 64.52000 40.04400
H  28.47600 64.27700 40.77400
H  27.61700 64.10300 38.75600
H  28.42500 62.51700 38.65900
H  29.24000 63.98200 38.01200
H  24.49300 59.39000 41.44800
H  24.62200 59.93600 39.73300
H  25.31500 60.88300 41.15900
H  26.35000 54.94100 38.31000
H  26.15200 51.65400 41.02400
H  25.23900 51.15900 39.60300
H  24.39300 51.98800 40.91800

