158

Mg 35.07600 2.16200 30.42100
C  32.80300 3.10400 32.87600
C  37.60600 2.24800 32.77000
C  37.47900 1.77500 27.85200
C  32.62800 2.83600 27.93300
N  35.19900 2.59600 32.56800
C  34.11900 2.92700 33.40400
C  34.57000 2.86200 34.83600
C  36.09700 2.86900 34.76800
C  36.37900 2.59100 33.31000
C  36.79500 4.29500 35.22500
C  34.02900 1.54500 35.57000
C  33.41000 1.70000 36.98300
H  33.88100 2.70500 38.09200
N  37.17100 1.97100 30.36000
C  37.99500 2.02100 31.41400
C  39.38900 1.68700 30.97500
C  39.39200 1.40400 29.55300
C  37.96200 1.64900 29.20900
C  40.56700 1.61600 31.87700
C  40.47900 0.91800 28.62000
O  40.27000 0.99900 27.44800
C  41.84800 0.48800 29.04100
N  35.04400 2.21100 28.24500
C  36.16100 2.06200 27.37800
C  35.72800 2.43000 25.96000
C  34.16000 2.53500 25.97000
C  33.92200 2.59000 27.49400
C  36.48600 3.73500 25.43100
C  33.47000 1.29300 25.28100
C  32.52700 1.41700 24.05000
N  33.12900 2.77900 30.35300
C  32.24200 2.96500 29.28700
C  30.89100 3.31000 29.78900
C  31.10800 3.32600 31.20400
C  32.49700 3.09200 31.46000
C  29.65600 3.62900 28.98100
C  30.43800 3.66200 32.41300
O  29.31200 4.08100 32.64700
C  31.47400 3.38900 33.53600
C  31.63600 4.63700 34.41000
O  32.35100 5.60100 34.17300
O  30.70500 4.64800 35.44000
C  30.74500 5.80900 36.35800
H  38.41400 2.30300 33.50200
H  38.23500 1.75500 27.06400
H  31.93400 3.06800 27.12300
H  34.14500 3.69400 35.39800
H  36.54900 2.09700 35.39000
H  35.97400 4.91000 35.59400
H  37.43300 4.79300 34.49500
H  37.50000 4.01200 36.00700
H  34.91600 0.91800 35.65300
H  33.35700 0.99600 34.91100
H  33.41200 0.72500 37.47000
H  32.33800 1.80300 36.81000
H  40.77100 0.54700 31.82600
H  40.30400 1.90500 32.89500
H  41.44700 2.19400 31.59800
H  41.84400 -0.19800 29.88800
H  42.46700 1.36200 29.23900
H  42.46000 -0.02000 28.29500
H  36.10300 1.56600 25.41300
H  33.88500 3.47200 25.48700
H  37.27500 3.52500 24.70900
H  37.06000 4.17500 26.24500
H  35.76300 4.43700 25.01400
H  32.91200 0.72900 26.02800
H  34.23700 0.60400 24.92700
H  32.61500 2.41500 23.62100
H  31.54700 1.08900 24.39600
H  32.76200 0.60700 23.36000
H  29.71400 3.30900 27.94000
H  29.41700 4.69100 29.01200
H  28.80700 3.03600 29.32000
H  31.05900 2.63500 34.20500
H  30.52200 5.46100 37.36700
H  30.02100 6.50400 35.93200
H  31.64300 6.41800 36.24900
Mg 29.82600 57.09400 40.99300
C  27.26300 55.12700 39.45200
C  32.15200 54.65800 39.49400
C  32.35800 59.09000 41.66400
C  27.45700 59.53100 41.40700
N  29.64000 55.14000 39.54100
C  28.51600 54.52800 39.18900
C  28.81700 53.17800 38.43100
C  30.42100 53.04300 38.53300
C  30.80100 54.35100 39.24700
C  31.03700 51.82300 39.23000
C  28.27900 53.09100 36.96200
C  28.67800 54.20900 36.00900
H  27.58100 54.94600 35.22400
N  31.87100 56.80900 40.76800
C  32.59900 55.84500 40.16800
C  34.00200 56.16600 40.27300
C  34.18800 57.32800 41.07100
C  32.76700 57.80600 41.21600
C  35.17500 55.30300 39.71600
C  35.48400 58.03100 41.44200
O  36.52600 57.63400 41.05900
C  35.42500 59.16600 42.41400
N  29.89600 59.06000 41.30400
C  31.08600 59.62300 41.75600
C  30.84800 61.03000 42.34300
C  29.27800 61.22900 42.20200
C  28.82000 59.89100 41.56200
C  31.34600 61.42700 43.72000
C  28.97400 62.45100 41.26000
C  29.89300 63.71700 41.47400
N  27.75300 57.29400 40.62700
C  26.90400 58.31600 40.92200
C  25.51300 57.98100 40.83200
C  25.63900 56.69300 40.25000
C  26.97100 56.36800 40.05900
C  24.32000 58.89800 41.01500
C  24.84800 55.66000 39.52600
O  23.64900 55.67400 39.19300
C  25.87700 54.52000 39.17800
C  25.55100 53.37400 40.08900
O  25.98900 53.30300 41.25200
O  24.56200 52.55400 39.56000
C  24.04800 51.46800 40.38200
H  32.90900 53.94700 39.15500
H  33.13300 59.79200 41.97800
H  26.81400 60.38700 41.62000
H  28.28200 52.43600 39.02400
H  30.85200 52.94500 37.53700
H  31.91200 51.54800 38.64100
H  30.31300 51.01200 39.15200
H  31.38800 51.91000 40.25900
H  27.20600 52.90400 36.94200
H  28.60900 52.17900 36.46400
H  29.49100 53.89100 35.35600
H  29.07800 55.03600 36.59600
H  35.95500 55.94800 39.31300
H  34.92000 54.77200 38.79900
H  35.50800 54.46900 40.33400
H  35.22200 60.11100 41.91000
H  36.42400 59.26100 42.84000
H  34.80800 58.91200 43.27600
H  31.50200 61.60600 41.68900
H  28.74400 61.46800 43.12200
H  30.48700 61.49100 44.38800
H  31.86500 62.38500 43.75600
H  32.07600 60.68300 44.03900
H  27.96700 62.86400 41.32300
H  29.19100 62.26200 40.20900
H  30.68100 63.78000 40.72300
H  30.32200 63.61200 42.47100
H  29.36100 64.64700 41.27500
H  23.87100 59.03200 41.99900
H  23.53500 58.60900 40.31700
H  24.45300 59.91000 40.63400
H  25.67200 54.31600 38.12700
H  23.55300 50.78300 39.69300
H  23.37200 51.98800 41.06100
H  24.78600 50.90600 40.95400

