158

Mg 24.16500 -5.58600 45.21600
C  26.50300 -3.42400 43.51200
C  21.77400 -4.46400 43.12300
C  22.63700 -8.45000 45.77500
C  26.99900 -6.68500 47.03800
N  24.19700 -4.25400 43.48100
C  25.14900 -3.37500 43.00900
C  24.59000 -2.24700 42.03400
C  23.06300 -2.35100 42.33000
C  22.98000 -3.79800 43.01700
C  22.48000 -1.25100 43.19500
C  25.04200 -2.54400 40.60800
C  24.87600 -1.47300 39.50800
H  25.06900 -1.93800 38.05800
N  22.34700 -6.32100 44.64100
C  21.48200 -5.64100 43.84900
C  20.29500 -6.41200 43.71300
C  20.45000 -7.58400 44.53500
C  21.81900 -7.53000 45.04300
C  19.20100 -5.93400 42.78700
C  19.36900 -8.44000 44.91300
O  18.24100 -8.34500 44.44300
C  19.58700 -9.58100 45.80300
N  24.77600 -7.35000 46.26500
C  23.89300 -8.35800 46.43200
C  24.45600 -9.43300 47.37900
C  25.74200 -8.70600 47.97300
C  25.87400 -7.54100 47.05500
C  23.47500 -10.21800 48.41800
C  27.11600 -9.57200 48.03500
C  28.03800 -9.43200 49.27600
N  26.29900 -5.05000 45.38700
C  27.29200 -5.66900 46.14300
C  28.58100 -5.02400 45.85700
C  28.28300 -4.11300 44.79000
C  26.94200 -4.20300 44.53600
C  29.92800 -5.32900 46.50900
C  28.87500 -3.14300 43.86700
O  30.08100 -2.82000 43.77900
C  27.68000 -2.58200 43.03700
C  27.63600 -1.20300 43.54900
O  27.01800 -0.79700 44.47000
O  28.50600 -0.39700 42.86200
C  28.96300 0.88300 43.54400
H  20.93200 -4.02100 42.58600
H  22.14700 -9.36700 46.10900
H  27.94200 -6.96800 47.51200
H  24.95700 -1.26100 42.32200
H  22.41700 -2.37100 41.45200
H  21.76700 -1.74100 43.85800
H  21.91300 -0.53500 42.60000
H  23.24500 -0.71200 43.75500
H  24.46300 -3.41300 40.29200
H  26.06900 -2.87300 40.45000
H  25.77000 -0.89000 39.72900
H  23.96500 -0.88600 39.61700
H  19.55800 -6.19500 41.79100
H  18.97700 -4.88200 42.96400
H  18.23400 -6.37100 43.03700
H  18.65400 -10.09800 46.02700
H  19.97500 -9.29400 46.78000
H  20.33000 -10.24300 45.35900
H  24.82700 -10.23800 46.74400
H  25.59700 -8.35900 48.99700
H  22.44500 -9.86100 48.42300
H  23.90200 -9.99700 49.39600
H  23.59500 -11.28000 48.20600
H  27.68500 -9.34300 47.13400
H  26.92300 -10.64100 47.94100
H  29.03400 -9.10900 48.97300
H  28.14100 -10.37700 49.80900
H  27.65700 -8.80300 50.08000
H  29.99400 -5.79500 47.49100
H  30.40600 -4.34900 46.52200
H  30.58200 -5.96100 45.90800
H  27.91000 -2.64900 41.97400
H  29.43200 0.65400 44.50100
H  28.03900 1.38400 43.83100
H  29.54200 1.47100 42.83100
Mg 40.82900 9.76800 29.02000
C  42.60500 10.72800 31.79700
C  38.43500 8.15800 31.19900
C  39.26100 8.33100 26.38400
C  43.36900 10.95300 27.00900
N  40.68000 9.31500 31.20800
C  41.43700 10.02100 32.10100
C  40.88500 9.95400 33.51300
C  39.60100 8.96100 33.36200
C  39.54100 8.74100 31.84000
C  39.69800 7.68300 34.15500
C  40.37700 11.34700 34.12100
C  40.03900 11.41500 35.67500
H  41.03600 12.06000 36.63200
N  39.15200 8.50200 28.83400
C  38.21500 8.09200 29.80100
C  37.08100 7.43100 29.20400
C  37.37400 7.31700 27.84000
C  38.63700 8.05900 27.61900
C  35.91900 6.95500 30.07100
C  36.63100 6.63800 26.75100
O  37.05800 6.49800 25.64000
C  35.22700 6.17800 27.05900
N  41.27900 9.57100 27.01900
C  40.42200 9.03500 26.06100
C  40.91600 9.37400 24.61900
C  42.36200 10.01500 24.90800
C  42.34100 10.23200 26.40700
C  40.98600 8.20900 23.59700
C  42.57100 11.28100 24.01700
C  41.78600 12.58900 24.39000
N  42.61400 10.82600 29.25200
C  43.58700 11.15200 28.35800
C  44.68500 11.80700 29.05100
C  44.27200 11.80500 30.41900
C  43.08400 11.09200 30.44000
C  45.79200 12.60500 28.43100
C  44.66100 12.05200 31.79500
O  45.68500 12.59400 32.17700
C  43.56300 11.45200 32.77100
C  44.28900 10.46400 33.56400
O  45.20500 9.78800 33.20400
O  43.77100 10.50100 34.87300
C  44.23000 9.42200 35.70300
H  37.67200 7.81200 31.90000
H  38.83700 7.96500 25.44600
H  44.12500 11.33700 26.32100
H  41.65300 9.57900 34.18800
H  38.76800 9.54400 33.75400
H  39.43800 6.82000 33.54300
H  39.12400 7.59500 35.07700
H  40.74100 7.48700 34.40400
H  39.52900 11.64000 33.50100
H  41.09600 12.10700 33.81600
H  39.98400 10.37400 35.99300
H  38.99800 11.73300 35.73900
H  34.95200 7.06300 29.57900
H  35.82900 7.51700 31.00000
H  36.02400 5.93000 30.42600
H  34.81900 5.55600 26.26200
H  34.47200 6.90900 27.35100
H  35.46000 5.44600 27.83200
H  40.12000 10.06700 24.34400
H  43.08900 9.26800 24.58800
H  41.05200 7.28100 24.16600
H  41.85200 8.38400 22.96000
H  40.07500 8.28600 23.00300
H  42.17400 11.11400 23.01600
H  43.63000 11.52000 23.91000
H  41.12900 12.86500 23.56500
H  42.57200 13.28400 24.68700
H  41.17900 12.48200 25.28900
H  46.31500 13.13000 29.23100
H  45.34000 13.39700 27.83400
H  46.47100 12.01000 27.82200
H  43.28100 12.27900 33.42200
H  44.03300 9.76200 36.72000
H  45.26800 9.20300 35.45100
H  43.54500 8.60100 35.49300

