158

Mg 26.60700 50.28500 26.96400
C  24.72900 51.68600 29.64800
C  28.93600 49.40200 29.25600
C  28.45900 49.36200 24.40200
C  24.14000 51.55800 24.87200
N  26.84100 50.70500 29.18400
C  25.86600 51.04800 30.09100
C  26.38300 50.93500 31.55900
C  27.75500 50.19300 31.36800
C  27.87600 50.08300 29.83800
C  29.02600 50.98000 31.94000
C  25.31000 50.12600 32.46600
C  25.82800 49.11000 33.60800
H  25.01900 48.86700 34.83100
N  28.41600 49.43900 26.81100
C  29.18300 48.99600 27.86200
C  30.39400 48.38500 27.29400
C  30.29200 48.44300 25.86200
C  29.02700 49.14500 25.63900
C  31.42300 47.88900 28.18000
C  31.26200 48.01400 24.84300
O  31.12800 48.16600 23.59500
C  32.47900 47.27700 25.28500
N  26.41300 50.72300 24.88300
C  27.27600 50.06300 24.05000
C  26.72900 49.97400 22.57700
C  25.29500 50.60800 22.79800
C  25.24200 50.94000 24.29400
C  27.64300 50.67500 21.46700
C  24.14600 49.59100 22.43000
C  23.20700 50.09700 21.28200
N  24.85600 51.48800 27.14400
C  23.92000 51.82700 26.22600
C  22.82400 52.55000 26.76800
C  23.06300 52.52500 28.17200
C  24.32900 51.85900 28.28800
C  21.82200 53.29000 25.89400
C  22.63300 52.87900 29.51100
O  21.67300 53.56700 29.88100
C  23.67200 52.25900 30.52900
C  24.31000 53.42300 31.27800
O  25.24300 54.06900 30.81600
O  23.78700 53.65500 32.55500
C  24.47900 54.74600 33.30800
H  29.56300 48.98000 30.04400
H  28.89700 48.86400 23.53500
H  23.44000 51.92900 24.12100
H  26.58100 51.97900 31.80300
H  27.74700 49.12900 31.60300
H  29.44700 50.41600 32.77200
H  28.67000 51.95700 32.26800
H  29.80900 50.94400 31.18300
H  24.75400 49.61400 31.68100
H  24.77700 50.91900 32.99000
H  26.87500 49.30300 33.84500
H  25.96200 48.14400 33.12000
H  31.29600 46.83500 28.42700
H  31.38100 48.40100 29.14200
H  32.41700 48.21400 27.87400
H  33.06200 48.09600 25.70600
H  33.06100 46.71300 24.55500
H  32.38800 46.43300 25.96900
H  26.62000 48.89800 22.44000
H  25.21800 51.55100 22.25600
H  28.45500 51.32300 21.79700
H  26.97200 51.33000 20.91100
H  27.96800 49.84300 20.84100
H  23.51800 49.37900 23.29500
H  24.48000 48.60100 22.11900
H  23.69200 50.90500 20.73400
H  22.20700 50.39500 21.59900
H  23.06700 49.28100 20.57200
H  21.11500 53.89200 26.46500
H  21.34600 52.56000 25.23900
H  22.27500 53.97100 25.17400
H  23.22000 51.51400 31.18400
H  24.00400 54.92700 34.27200
H  24.45900 55.74000 32.86200
H  25.53100 54.46600 33.35300
Mg -11.21800 16.99500 41.97500
C  -7.76500 16.74900 42.32600
C  -10.80200 20.46200 41.46800
C  -14.52700 17.25400 41.45200
C  -11.38600 13.49000 42.06100
N  -9.45000 18.38900 41.84700
C  -8.11400 18.05100 42.05000
C  -7.22700 19.28500 42.02300
C  -8.28500 20.49000 42.21800
C  -9.61100 19.72700 41.82700
C  -8.28100 21.04300 43.71900
C  -6.45300 19.38000 40.62900
C  -4.92300 19.43300 40.74600
H  -4.21400 18.59400 39.69700
N  -12.48900 18.64200 41.57200
C  -12.09500 19.91900 41.27300
C  -13.23700 20.69400 40.88000
C  -14.36500 19.86800 41.10600
C  -13.86100 18.52100 41.43800
C  -13.13000 22.13000 40.37200
C  -15.80700 20.32500 41.10100
O  -16.16800 21.49600 40.87000
C  -16.90400 19.34800 41.56200
N  -12.70100 15.49600 41.50800
C  -14.03200 15.95700 41.62300
C  -14.87700 14.72100 41.71100
C  -13.90100 13.49500 41.92600
C  -12.57900 14.20500 41.79100
C  -16.04900 14.73200 42.72000
C  -14.11600 12.21600 41.06000
C  -14.63800 10.89900 41.68500
N  -9.88400 15.40800 42.17200
C  -10.11000 14.09500 42.14400
C  -8.85800 13.40200 42.45100
C  -7.89700 14.42300 42.56200
C  -8.60300 15.61500 42.36100
C  -8.64500 11.88600 42.57700
C  -6.47100 14.67800 42.75800
O  -5.51100 13.95400 42.96900
C  -6.40700 16.27000 42.70100
C  -5.88400 16.73200 44.01100
O  -6.57700 16.97100 44.95900
O  -4.46100 16.70500 44.05400
C  -3.84700 16.99600 45.33700
H  -10.65800 21.53000 41.29500
H  -15.60500 17.39100 41.34200
H  -11.59900 12.42800 42.19800
H  -6.50700 19.34000 42.84000
H  -8.05000 21.21700 41.44000
H  -7.49400 20.64300 44.35700
H  -9.26500 20.90900 44.16800
H  -8.17000 22.11400 43.54600
H  -6.62400 20.33600 40.13600
H  -6.81300 18.62900 39.92600
H  -4.66800 19.15000 41.76700
H  -4.48800 20.41800 40.58100
H  -13.42500 22.71600 41.24300
H  -13.75100 22.36600 39.50800
H  -12.10400 22.40000 40.12300
H  -17.68500 19.98100 41.98200
H  -16.47900 18.94500 42.48100
H  -17.12500 18.54600 40.85700
H  -15.35700 14.71300 40.73200
H  -14.11700 13.15400 42.93900
H  -16.17900 13.72400 43.11500
H  -16.94900 15.07900 42.21300
H  -15.83400 15.54700 43.41000
H  -13.23800 11.91800 40.48700
H  -14.82500 12.35200 40.24400
H  -14.67800 10.01300 41.05100
H  -15.55000 11.03400 42.26600
H  -13.89300 10.67300 42.44700
H  -9.64100 11.49800 42.78700
H  -7.92000 11.58400 43.33400
H  -8.23200 11.42400 41.68100
H  -5.67100 16.56100 41.95200
H  -4.50400 16.83800 46.19200
H  -3.30100 17.93100 45.21400
H  -3.06700 16.23600 45.37400

