158

Mg 30.33800 58.31800 40.48000
C  27.91000 56.11400 39.24300
C  32.69900 55.86800 39.64900
C  32.77400 60.66100 40.58900
C  27.94800 60.79700 40.53600
N  30.26700 56.19900 39.57000
C  29.17100 55.54700 39.12800
C  29.56500 54.22100 38.43700
C  30.94800 53.97100 39.10800
C  31.37800 55.41400 39.51800
C  30.90700 53.02000 40.35500
C  29.48400 54.44300 36.88400
C  29.10900 53.27300 35.98700
H  28.06200 53.41900 34.87600
N  32.37700 58.23600 40.31000
C  33.21200 57.14500 39.90800
C  34.58900 57.58900 39.78900
C  34.69400 58.89200 40.20700
C  33.23200 59.29900 40.36800
C  35.77000 56.79200 39.39000
C  36.04000 59.68200 40.54800
O  37.09900 59.13700 40.37500
C  35.98800 61.07800 41.08500
N  30.40000 60.39500 40.60700
C  31.50500 61.13800 40.69800
C  31.22100 62.63200 40.87900
C  29.64200 62.58500 41.00400
C  29.31200 61.14800 40.66200
C  31.99500 63.28600 42.01400
C  28.84100 63.49700 40.03300
C  27.69500 64.31000 40.57100
N  28.31600 58.46300 40.32400
C  27.44400 59.57300 40.32200
C  26.09200 59.13300 40.10800
C  26.21200 57.77600 39.64100
C  27.58900 57.44700 39.78500
C  24.87800 60.03300 40.20200
C  25.47500 56.62600 39.18300
O  24.32000 56.51400 38.80500
C  26.59500 55.54800 38.85100
C  26.10400 54.33600 39.64600
O  26.11900 54.26100 40.87200
O  25.80500 53.31200 38.73300
C  25.48600 52.09700 39.38000
H  33.51300 55.15800 39.49100
H  33.62800 61.34100 40.54800
H  27.16000 61.55200 40.58900
H  28.83400 53.48100 38.76100
H  31.68100 53.70100 38.34700
H  31.17700 53.64600 41.20600
H  31.69500 52.27300 40.26000
H  29.92500 52.55200 40.42500
H  30.51600 54.64700 36.59600
H  28.89800 55.34000 36.68300
H  28.80300 52.53500 36.72800
H  30.03700 52.93400 35.52600
H  35.39600 55.86900 38.94700
H  36.40400 56.49100 40.22400
H  36.38700 57.38900 38.71800
H  36.98100 61.26500 41.49200
H  35.19000 61.13100 41.82600
H  35.86700 61.68600 40.18800
H  31.47000 63.00900 39.88700
H  29.39700 62.79700 42.04500
H  32.51600 62.53200 42.60500
H  31.34600 63.89800 42.64000
H  32.66000 63.99300 41.51700
H  28.34100 62.96300 39.22500
H  29.53800 64.19300 39.56500
H  27.98200 65.32700 40.30300
H  27.41600 64.17300 41.61500
H  26.75600 64.18500 40.03200
H  24.79800 60.27200 41.26200
H  24.04600 59.47800 39.76800
H  25.06100 60.94300 39.63100
H  26.53100 55.26800 37.79900
H  25.10700 51.47800 38.56700
H  24.67300 52.31100 40.07300
H  26.36500 51.69000 39.87900
Mg 26.88100 50.50100 26.08400
C  24.87000 51.57700 28.77800
C  28.98500 49.03100 28.30300
C  28.81000 49.54700 23.45800
C  24.83700 52.29100 23.99800
N  26.85500 50.23200 28.28100
C  26.00900 50.86000 29.25300
C  26.41000 50.44400 30.67600
C  27.89800 49.94900 30.45200
C  27.94200 49.73200 28.90100
C  29.08400 50.84200 30.84300
C  25.42700 49.35200 31.25700
C  24.64800 49.70900 32.59700
H  24.72000 48.69300 33.81300
N  28.63500 49.32600 25.91700
C  29.30800 48.74800 26.96300
C  30.53200 48.07400 26.41600
C  30.58700 48.34900 25.01800
C  29.29000 49.02400 24.70200
C  31.48400 47.36900 27.33600
C  31.70100 47.95100 23.93400
O  31.57300 48.20600 22.77200
C  32.87500 47.13100 24.45600
N  26.89400 50.90100 23.99400
C  27.82300 50.49900 23.13400
C  27.41700 50.91400 21.71800
C  25.93500 51.42200 21.82900
C  25.92300 51.59100 23.37200
C  28.39700 51.97100 21.18600
C  24.81500 50.45200 21.44700
C  23.44800 50.99300 21.05200
N  25.21200 51.71300 26.24400
C  24.46600 52.35300 25.32000
C  23.29100 52.92000 25.91700
C  23.43300 52.68900 27.34000
C  24.54400 51.82800 27.46300
C  22.23900 53.65900 25.07800
C  22.84500 52.88000 28.62500
O  21.96500 53.59000 29.09000
C  23.79200 52.17200 29.59200
C  24.28900 53.15600 30.51500
O  25.22800 53.91000 30.33100
O  23.51600 53.13300 31.64800
C  24.06000 54.12800 32.58300
H  29.66200 48.64700 29.06900
H  29.34500 49.28500 22.54300
H  24.15600 52.63200 23.21500
H  26.37800 51.38900 31.21900
H  28.14200 49.02700 30.98100
H  29.78300 50.91500 30.01000
H  29.55500 50.39300 31.71800
H  28.65300 51.80600 31.11400
H  25.95700 48.44600 31.55400
H  24.59300 49.23700 30.56400
H  23.60800 49.79700 32.28500
H  24.99000 50.65100 33.02700
H  31.86900 46.41400 26.97600
H  31.17700 47.36900 28.38200
H  32.43200 47.90400 27.27200
H  33.65900 46.96600 23.71700
H  32.50200 46.18800 24.85600
H  33.44600 47.58800 25.26500
H  27.32600 49.99000 21.14700
H  25.86900 52.37400 21.30200
H  29.09300 52.19000 21.99500
H  28.01700 52.98200 21.03100
H  28.92100 51.58900 20.31000
H  24.73500 49.60200 22.12500
H  25.18100 50.08700 20.48700
H  22.59300 50.69100 21.65700
H  23.39200 50.83000 19.97500
H  23.48600 52.07500 21.17800
H  21.62300 52.94600 24.53100
H  22.72100 54.33200 24.37000
H  21.57400 54.25600 25.70300
H  23.11200 51.46400 30.06700
H  25.02400 53.73800 32.91000
H  23.42300 54.24700 33.45900
H  24.21500 55.10200 32.11900

