158

Mg 46.93600 25.10500 27.87500
C  48.01800 27.28500 30.29600
C  46.68400 22.72000 30.28700
C  46.53600 22.84500 25.36800
C  47.82400 27.42300 25.32800
N  47.31500 25.04400 30.01900
C  47.69200 26.07500 30.85200
C  47.83900 25.74700 32.32700
C  47.33300 24.23100 32.30000
C  47.17900 23.90200 30.76900
C  48.17300 23.18300 33.09000
C  46.93700 26.66800 33.15500
C  46.21900 26.02500 34.35700
H  46.11900 26.92100 35.60600
N  46.58800 23.08800 27.86800
C  46.47500 22.31700 28.96100
C  46.27000 20.93900 28.53800
C  46.01300 20.94900 27.13700
C  46.38900 22.35100 26.74700
C  46.17600 19.78600 29.46000
C  45.59700 19.79300 26.17300
O  45.48300 19.91900 24.95200
C  45.12600 18.50100 26.67100
N  47.23600 25.06500 25.56600
C  46.87500 24.06800 24.79000
C  46.74800 24.38900 23.33100
C  47.05700 25.94000 23.39800
C  47.37000 26.21300 24.90300
C  47.72400 23.66000 22.44000
C  45.82200 26.74800 22.90200
C  46.07000 27.89900 21.88200
N  47.70800 26.93600 27.76100
C  48.09800 27.77100 26.69100
C  48.51800 29.05000 27.18500
C  48.39800 28.92400 28.57100
C  48.01700 27.62800 28.90600
C  48.69200 30.29300 26.38800
C  48.56000 29.64600 29.84500
O  48.88800 30.80200 30.15200
C  48.30900 28.66400 31.01000
C  49.42800 28.77600 31.99800
O  50.45200 28.21600 31.87000
O  49.01000 29.50600 33.09500
C  49.73900 29.20700 34.30400
H  46.48400 21.91500 30.99700
H  46.34500 22.08200 24.61000
H  47.83100 28.22200 24.58300
H  48.88400 25.78100 32.63600
H  46.32000 24.18300 32.70000
H  48.77700 23.71700 33.82300
H  48.75000 22.62500 32.35200
H  47.49600 22.45500 33.53500
H  46.29300 27.31100 32.55500
H  47.72900 27.23500 33.64300
H  46.73100 25.12500 34.69900
H  45.21600 25.77200 34.01300
H  45.13300 19.50700 29.61200
H  46.50500 19.94000 30.48800
H  46.67100 18.89100 29.08400
H  44.84400 17.91500 25.79700
H  44.34200 18.55800 27.42700
H  45.99500 18.15100 27.22800
H  45.74800 24.17200 22.95600
H  47.95800 26.19000 22.83800
H  48.57200 24.17600 21.99100
H  47.14000 23.38800 21.56100
H  48.03800 22.68100 22.80200
H  45.33000 27.14100 23.79200
H  45.14100 26.05500 22.40800
H  47.12000 27.85100 21.59300
H  45.77700 28.83500 22.35900
H  45.44100 27.69900 21.01500
H  47.91700 30.20200 25.62800
H  49.75800 30.24100 26.16600
H  48.51700 31.21700 26.93900
H  47.37900 29.04700 31.43000
H  49.15600 28.54600 34.94500
H  49.87000 30.09200 34.92600
H  50.70400 28.70900 34.20600
Mg -2.12000 34.80400 26.37500
C  -4.09600 32.92400 28.74600
C  -1.20500 36.80600 29.01400
C  -0.43600 36.69600 24.10700
C  -3.22200 32.87400 23.82000
N  -2.58100 34.76800 28.63500
C  -3.40400 34.01900 29.34600
C  -3.25100 34.27600 30.82200
C  -2.59600 35.58700 30.82400
C  -2.08700 35.76000 29.38400
C  -3.63000 36.72900 31.13700
C  -2.57900 33.19300 31.63200
C  -2.99700 32.97100 33.06600
H  -3.23300 34.21000 33.90300
N  -0.95800 36.49100 26.54300
C  -0.70900 37.14200 27.69700
C  0.21600 38.27100 27.40800
C  0.32500 38.29300 26.00700
C  -0.32900 37.10600 25.45000
C  0.71900 39.19200 28.49500
C  0.97500 39.29800 25.18100
O  1.15700 39.11700 24.00800
C  1.53200 40.53800 25.80000
N  -1.86000 34.82600 24.25600
C  -1.07700 35.62600 23.55800
C  -0.90500 35.16700 22.07700
C  -1.70300 33.87000 22.11000
C  -2.33100 33.84200 23.46900
C  -1.40200 36.22100 20.95000
C  -0.71800 32.72500 21.82100
C  0.47500 32.63000 22.75000
N  -3.51700 33.35700 26.19900
C  -3.87600 32.66600 25.09400
C  -4.79700 31.65100 25.45900
C  -4.92600 31.72300 26.87800
C  -4.12300 32.73100 27.31400
C  -5.53900 30.71200 24.59600
C  -5.52200 31.14400 28.05700
O  -6.28000 30.21600 28.16000
C  -5.02400 31.86500 29.30300
C  -6.17900 32.45000 30.00400
O  -7.04600 33.12400 29.50800
O  -6.12000 32.09700 31.32900
C  -7.25000 32.34400 32.14100
H  -0.93900 37.39600 29.89400
H  0.05700 37.32200 23.36100
H  -3.55900 32.14400 23.08100
H  -4.26000 34.23600 31.23100
H  -1.77900 35.57400 31.54600
H  -3.12900 37.41600 31.81900
H  -4.53700 36.32600 31.58900
H  -3.96800 37.30200 30.27400
H  -1.49600 33.27900 31.71800
H  -2.70900 32.27600 31.05700
H  -2.22600 32.35800 33.53200
H  -3.96300 32.46800 33.02600
H  1.76000 39.33000 28.20300
H  0.67200 38.88400 29.53900
H  0.08900 40.07800 28.41900
H  0.60000 40.97200 26.16300
H  1.84500 41.13600 24.94400
H  2.39500 40.44700 26.46000
H  0.18100 35.16700 21.98300
H  -2.45900 33.89800 21.32400
H  -2.17900 35.83700 20.28800
H  -0.55600 36.44100 20.29900
H  -1.71600 37.07000 21.55700
H  -0.44800 32.64600 20.76800
H  -1.31500 31.82500 21.96800
H  0.49300 31.65400 23.23600
H  0.65300 33.47300 23.41800
H  1.33700 32.67200 22.08400
H  -4.95200 29.79400 24.59600
H  -5.55300 30.94200 23.53100
H  -6.53300 30.52000 25.00000
H  -4.47000 31.16100 29.92400
H  -7.96900 33.04900 31.72300
H  -6.94800 32.51200 33.17500
H  -7.80900 31.41400 32.24900

