158

Mg 49.33400 45.62600 43.32400
C  45.77900 45.68300 42.40200
C  49.36100 42.38300 42.57100
C  52.60300 45.92900 43.32200
C  49.00400 49.16100 43.64200
N  47.75300 44.24600 42.42900
C  46.35300 44.43400 42.27700
C  45.70300 43.11100 41.98800
C  46.81700 42.07100 42.25200
C  48.08900 42.89300 42.36200
C  46.46900 41.31600 43.59300
C  45.12200 43.00500 40.55100
C  46.01300 43.56800 39.37000
H  45.87400 42.86000 38.04000
N  50.84100 44.30200 43.04300
C  50.61600 42.98900 42.73900
C  51.86500 42.28500 42.79800
C  52.86000 43.25100 43.10000
C  52.14100 44.54800 43.20900
C  52.04300 40.72000 42.71800
C  54.36100 42.99800 43.27300
O  54.85600 41.86400 43.19300
C  55.31500 44.09400 43.56900
N  50.59900 47.34200 43.32400
C  51.91800 47.18400 43.38200
C  52.68000 48.49100 43.56600
C  51.52700 49.49500 43.67800
C  50.31700 48.63200 43.56700
C  53.47600 48.48600 44.87100
C  51.52700 50.63000 42.60900
C  52.17300 52.04200 42.84700
N  47.72800 47.12000 43.24300
C  47.76800 48.51500 43.37600
C  46.46100 49.10700 43.37900
C  45.70500 48.00900 42.91600
C  46.46800 46.85900 42.84900
C  45.93700 50.34900 43.69700
C  44.29800 47.60000 42.49500
O  43.28000 48.24200 42.46400
C  44.40500 46.11100 41.88300
C  43.26700 45.30700 42.46300
O  42.45300 44.71200 41.83300
O  43.22200 45.38100 43.84100
C  42.14300 44.58100 44.48700
H  49.37800 41.29300 42.51500
H  53.68500 45.91600 43.17500
H  48.93100 50.24300 43.77400
H  44.83700 42.99700 42.64000
H  46.97400 41.36900 41.43400
H  45.56600 41.66600 44.09400
H  47.27300 41.35500 44.32700
H  46.24400 40.30000 43.26800
H  44.13200 43.45500 40.47500
H  45.00600 41.96800 40.23600
H  47.06800 43.43300 39.60800
H  45.92200 44.65100 39.28500
H  51.22200 40.32600 42.11800
H  51.90100 40.32800 43.72500
H  53.07000 40.42400 42.50800
H  54.97600 44.66800 44.43200
H  55.41900 44.80700 42.75200
H  56.29700 43.70300 43.83600
H  53.31900 48.60900 42.69000
H  51.46700 49.86100 44.70200
H  54.51300 48.61100 44.56000
H  53.31400 47.52400 45.35800
H  53.10900 49.20300 45.60500
H  50.52800 50.98600 42.35700
H  51.92200 50.11500 41.73300
H  53.03300 52.33700 42.24500
H  52.66100 51.91500 43.81300
H  51.48000 52.88100 42.91200
H  45.30000 50.76500 42.91600
H  46.74200 51.07400 43.81700
H  45.36600 50.26300 44.62100
H  44.21000 46.17200 40.81200
H  42.28900 43.52000 44.28500
H  41.22200 45.02900 44.11400
H  42.24100 44.74400 45.56000
Mg 42.67700 41.59200 25.84000
C  41.82800 43.96700 28.33200
C  43.69100 39.45600 28.19700
C  43.88500 39.51400 23.39600
C  42.22800 44.04100 23.43500
N  42.38700 41.57300 28.04400
C  42.13900 42.67700 28.89000
C  42.30600 42.38400 30.33700
C  43.25600 41.15200 30.15900
C  43.10900 40.64100 28.66600
C  44.72600 41.21200 30.70100
C  40.96800 42.08400 31.08400
C  40.81600 42.59200 32.50400
H  41.92200 42.48500 33.55300
N  43.49400 39.64100 25.81900
C  43.77700 38.91100 26.89900
C  44.37300 37.71200 26.53700
C  44.35700 37.61900 25.08100
C  43.87900 38.94900 24.66200
C  44.79800 36.78600 27.61000
C  44.68200 36.41700 24.16000
O  44.41900 36.45100 23.00700
C  45.23000 35.07400 24.67300
N  42.90500 41.70400 23.76000
C  43.54600 40.80300 22.98000
C  43.56900 41.10000 21.52300
C  42.90300 42.47700 21.50500
C  42.65300 42.80500 22.93100
C  44.97200 40.96500 20.79500
C  41.54300 42.51000 20.68600
C  40.36500 41.87500 21.45100
N  42.20000 43.60400 25.84000
C  42.02100 44.52900 24.80200
C  41.65500 45.82900 25.31300
C  41.61600 45.63800 26.71100
C  41.91100 44.28100 26.94300
C  41.28600 47.05000 24.50800
C  41.36800 46.30400 27.95900
O  40.97500 47.44100 28.15600
C  41.53600 45.25000 29.00800
C  42.59200 45.75800 29.94900
O  43.75600 45.48800 29.76300
O  42.16300 46.57200 31.02300
C  43.16300 46.87800 31.97200
H  44.09200 38.85600 29.01600
H  44.25100 38.76000 22.69500
H  42.27400 44.76000 22.61500
H  42.81800 43.16700 30.89500
H  42.83300 40.38600 30.80900
H  44.64000 40.67700 31.64700
H  45.02500 42.25500 30.80000
H  45.38200 40.61600 30.06700
H  40.70400 41.02900 31.01000
H  40.16300 42.62000 30.58000
H  39.94500 42.08200 32.91500
H  40.53000 43.64100 32.58200
H  44.39800 35.78300 27.46300
H  44.30700 36.95600 28.56800
H  45.87500 36.76500 27.77400
H  44.48700 34.52900 25.25400
H  46.01400 35.39500 25.35900
H  45.61200 34.48300 23.84100
H  42.91900 40.36800 21.04400
H  43.49000 43.26300 21.03000
H  45.16700 41.82100 20.15000
H  45.13600 40.05600 20.21600
H  45.81000 41.01500 21.49100
H  41.71800 41.91800 19.78700
H  41.22900 43.54000 20.52000
H  40.25500 40.84900 21.09900
H  39.46900 42.49000 21.36800
H  40.47200 41.76800 22.53000
H  40.21900 47.27300 24.49600
H  41.44700 46.86600 23.44500
H  41.91200 47.84100 24.92000
H  40.61800 45.22000 29.59500
H  43.38600 45.99700 32.57500
H  42.74600 47.69500 32.56000
H  44.02500 47.39600 31.55400

