158

Mg 49.80000 46.30600 41.98400
C  46.90500 48.06800 41.11700
C  48.56700 43.60300 40.26100
C  52.78200 44.89400 41.95500
C  51.20600 49.31800 43.17000
N  47.81600 45.88100 40.95200
C  46.79100 46.73000 40.72300
C  45.65500 46.01900 39.92800
C  46.33300 44.58400 39.75100
C  47.68900 44.63400 40.34200
C  45.47500 43.42600 40.26800
C  45.29900 46.71300 38.53300
C  43.97800 46.19000 37.88900
H  44.00500 45.02500 36.90100
N  50.49400 44.38100 41.43900
C  49.80700 43.41200 40.79900
C  50.64500 42.24100 40.65300
C  51.94700 42.61700 41.11000
C  51.78200 44.01200 41.57100
C  50.15800 40.85800 40.04000
C  53.09100 41.69100 41.24300
O  53.00500 40.49700 40.80200
C  54.37600 41.96400 41.95600
N  51.75700 47.08600 42.54900
C  52.84500 46.25200 42.36900
C  54.08800 47.07400 42.76800
C  53.58400 48.47100 43.18200
C  52.10000 48.30000 43.02900
C  55.08300 46.27700 43.65200
C  54.32600 49.72000 42.49700
C  55.71500 50.06700 43.16700
N  49.16000 48.27200 42.18600
C  49.88900 49.36000 42.69700
C  48.90600 50.50600 42.79600
C  47.76000 49.98200 42.21100
C  47.94100 48.63400 41.85800
C  49.09100 51.91200 43.31200
C  46.40900 50.31600 41.83000
O  45.76100 51.31200 41.95700
C  45.93600 49.12000 40.93900
C  44.67300 48.63300 41.45400
O  44.48900 48.14300 42.55100
O  43.73700 48.68700 40.47600
C  42.36400 48.42000 41.03400
H  48.11200 42.73500 39.77900
H  53.73500 44.36500 41.89000
H  51.66300 50.25700 43.49000
H  44.77400 46.05500 40.56800
H  46.42200 44.34500 38.69100
H  45.33300 42.73000 39.44100
H  44.49900 43.74800 40.63200
H  46.09100 42.90100 40.99900
H  46.12100 46.43400 37.87400
H  45.36900 47.79900 38.57700
H  43.46000 47.04300 37.45000
H  43.31500 45.80300 38.66200
H  50.78700 40.69100 39.16500
H  49.09400 40.80000 39.81200
H  50.25300 40.06900 40.78600
H  54.92500 41.02200 41.94400
H  54.15200 42.34200 42.95400
H  54.98000 42.62500 41.33600
H  54.62900 47.36600 41.86900
H  53.65800 48.61900 44.25900
H  54.48800 45.43800 44.01100
H  55.43400 46.81800 44.53000
H  55.85100 45.91800 42.96700
H  53.62200 50.54800 42.58500
H  54.53500 49.51500 41.44700
H  56.53900 50.11900 42.45600
H  55.96400 49.30200 43.90200
H  55.61300 51.02600 43.67500
H  50.01500 52.34500 42.92900
H  49.14300 51.85000 44.39900
H  48.29400 52.48700 42.84100
H  45.82400 49.49600 39.92200
H  42.24500 47.68100 41.82600
H  41.93300 47.92700 40.16200
H  41.91800 49.40200 41.19200
Mg -11.82200 16.73300 40.71600
C  -8.45600 15.60000 40.48400
C  -10.76000 20.01500 40.05900
C  -14.98000 17.73400 40.44700
C  -12.77300 13.52800 41.36800
N  -9.84900 17.66900 40.24900
C  -8.56600 17.02200 40.16400
C  -7.47600 18.07700 39.91000
C  -8.19800 19.43300 39.67800
C  -9.71700 19.06000 40.03700
C  -7.61100 20.63900 40.43000
C  -6.56700 17.61700 38.58800
C  -5.01400 17.64600 38.84900
H  -4.21700 16.36600 38.79300
N  -12.77400 18.62800 40.35100
C  -12.14800 19.84200 40.21400
C  -13.14400 20.81900 40.17900
C  -14.44900 20.25800 40.40200
C  -14.12000 18.80000 40.37700
C  -12.80700 22.33000 39.87400
C  -15.81400 20.98800 40.68700
O  -15.89400 22.20600 40.57800
C  -16.98000 20.27400 41.40600
N  -13.59300 15.68700 40.52600
C  -14.73200 16.35200 40.53400
C  -15.91100 15.49800 40.98800
C  -15.28700 14.07200 41.09500
C  -13.76600 14.46700 41.06000
C  -16.60500 16.12700 42.23900
C  -15.74700 13.14600 39.87400
C  -16.47800 11.85700 40.31900
N  -10.85100 14.85600 40.96600
C  -11.33800 13.65400 41.27800
C  -10.26000 12.68500 41.49700
C  -9.15100 13.39200 41.17200
C  -9.56500 14.71900 40.81700
C  -10.26600 11.22600 41.85100
C  -7.70900 13.38000 41.10100
O  -6.97200 12.39800 41.25200
C  -7.19000 14.74700 40.62300
C  -6.19700 15.18300 41.62200
O  -6.41400 15.71000 42.66900
O  -4.99000 14.53400 41.36400
C  -3.87100 14.60900 42.38500
H  -10.55600 21.07400 39.89200
H  -16.04100 17.99100 40.47800
H  -13.08100 12.50400 41.58700
H  -6.92400 17.98000 40.84500
H  -8.31900 19.50700 38.59700
H  -6.76800 20.19700 40.96000
H  -8.37000 21.06500 41.08600
H  -7.29900 21.44300 39.76300
H  -6.75300 18.29200 37.75400
H  -6.86600 16.59700 38.34600
H  -4.81100 18.01100 39.85500
H  -4.56200 18.31400 38.11500
H  -13.68000 22.94500 39.65800
H  -12.08400 22.42700 39.06300
H  -12.26300 22.75800 40.71600
H  -17.92900 20.25800 40.87000
H  -17.15700 20.94000 42.25100
H  -16.77700 19.30100 41.85400
H  -16.60700 15.49800 40.14900
H  -15.38300 13.56100 42.05400
H  -16.25000 17.11000 42.54800
H  -16.56300 15.38600 43.03800
H  -17.64400 16.29500 41.95600
H  -14.82600 12.89100 39.35100
H  -16.39600 13.61900 39.13700
H  -15.72900 11.06600 40.27900
H  -17.39400 11.56500 39.80700
H  -16.77900 11.95700 41.36200
H  -11.17800 10.68700 41.59400
H  -10.24400 11.08900 42.93200
H  -9.41000 10.82100 41.31100
H  -6.66900 14.68400 39.66800
H  -3.13300 13.90900 41.99400
H  -4.23900 14.33500 43.37400
H  -3.54500 15.62200 42.62100

