158

Mg 0.97600 8.47500 26.94500
C  1.54400 10.96700 29.43400
C  1.35500 6.10100 29.25400
C  0.68500 6.25500 24.49200
C  1.28400 11.06100 24.57900
N  1.32600 8.55600 29.13100
C  1.34800 9.67900 29.94900
C  1.19500 9.30000 31.42200
C  1.46800 7.73500 31.34000
C  1.36500 7.44600 29.83000
C  2.76200 7.15900 31.95600
C  -0.20600 9.66400 31.89600
C  -0.59000 9.25600 33.34100
H  0.53600 8.82900 34.36100
N  0.87900 6.52500 26.92500
C  0.94600 5.69100 27.96700
C  0.69000 4.30000 27.56600
C  0.69500 4.30600 26.18100
C  0.77700 5.77600 25.77200
C  0.57700 3.24900 28.61100
C  0.63500 3.07900 25.28100
O  0.59700 3.20900 24.03000
C  0.62500 1.66200 25.95000
N  1.09400 8.63800 24.85400
C  0.80800 7.58900 24.04000
C  0.79600 7.98500 22.56900
C  0.61700 9.50300 22.61100
C  1.13400 9.74700 24.08700
C  2.03800 7.39900 21.84400
C  -0.75700 10.05900 22.32200
C  -0.86200 11.32300 21.41900
N  1.36100 10.59200 26.94400
C  1.48100 11.47700 25.89200
C  1.78300 12.79400 26.37700
C  1.75600 12.68900 27.75000
C  1.51900 11.32000 28.03300
C  1.96300 14.01300 25.60800
C  1.84400 13.43000 29.07300
O  1.99000 14.61800 29.24700
C  1.61800 12.26600 30.25200
C  2.79400 12.22200 31.15400
O  3.89100 11.70100 30.98500
O  2.43200 12.79600 32.38000
C  3.35100 12.69100 33.50300
H  1.46600 5.40400 30.08700
H  0.58600 5.52300 23.68900
H  1.26300 11.84500 23.81900
H  2.04400 9.72600 31.95700
H  0.58700 7.24900 31.76100
H  3.15000 6.35400 31.33200
H  2.50600 6.72700 32.92400
H  3.50500 7.92100 32.18900
H  -0.88000 9.08700 31.26300
H  -0.41700 10.72500 31.76200
H  -1.23600 8.37800 33.34000
H  -1.07600 10.13900 33.75500
H  1.23000 2.39100 28.45600
H  -0.42700 2.87900 28.81800
H  1.05800 3.50500 29.55500
H  1.55000 1.49000 26.50000
H  0.46400 0.98400 25.11200
H  -0.29300 1.61400 26.53500
H  -0.02600 7.50300 22.04000
H  1.32200 10.12300 22.05700
H  2.55100 6.68600 22.49000
H  2.78600 8.14400 21.57200
H  1.73400 6.93900 20.90400
H  -1.17400 10.42600 23.26000
H  -1.43700 9.30500 21.92500
H  0.12800 11.50200 20.99800
H  -1.18700 12.20800 21.96500
H  -1.58700 11.22300 20.61200
H  2.81300 13.80000 24.96000
H  2.30500 14.82100 26.25600
H  1.05800 14.28700 25.06500
H  0.77300 12.56200 30.87300
H  4.09000 11.90300 33.36000
H  2.76400 12.35200 34.35700
H  3.85200 13.64000 33.69100
Mg 30.39200 57.31700 39.05700
C  27.66300 55.38700 38.17700
C  32.57100 54.81100 38.36200
C  32.94100 59.58500 39.24600
C  28.12700 60.06700 39.44700
N  30.12300 55.34600 38.44800
C  28.97100 54.79400 38.06100
C  29.23700 53.42400 37.51500
C  30.73900 53.12000 37.73000
C  31.25400 54.50200 38.20000
C  31.13100 51.98100 38.68700
C  28.76300 52.99700 36.11200
C  29.17000 53.81800 34.85400
H  28.08500 54.50700 34.03000
N  32.45700 57.26900 38.73300
C  33.17900 56.11900 38.54400
C  34.51300 56.39400 38.54200
C  34.67800 57.78000 38.91100
C  33.31300 58.26800 38.99900
C  35.65700 55.43100 38.34100
C  36.06600 58.53900 39.11000
O  37.11600 57.94300 38.88100
C  36.18700 59.98800 39.40700
N  30.53000 59.49400 39.07600
C  31.69800 60.17500 39.37200
C  31.50700 61.64600 39.79700
C  29.95900 61.62600 40.06200
C  29.48500 60.31300 39.44900
C  32.37000 62.23800 41.07100
C  29.29700 62.88100 39.50600
C  28.10600 63.52900 40.25400
N  28.27600 57.68300 38.92400
C  27.51400 58.83300 39.13200
C  26.07600 58.51400 39.00200
C  26.09900 57.18000 38.63500
C  27.41500 56.74200 38.54900
C  24.78800 59.45000 39.06400
C  25.25300 56.05000 38.35200
O  24.01500 55.99900 38.36700
C  26.29100 54.84100 37.92200
C  26.05200 53.73700 38.82000
O  26.65400 53.47900 39.87900
O  25.05000 52.91500 38.28600
C  24.70700 51.65900 39.11300
H  33.26100 53.96600 38.32400
H  33.66400 60.37700 39.45400
H  27.47100 60.83300 39.86500
H  28.67500 52.74600 38.15800
H  31.32400 52.93900 36.82800
H  30.26800 51.38900 38.99300
H  31.51400 52.34000 39.64200
H  31.89800 51.34400 38.24600
H  27.67600 52.95600 36.18900
H  29.06800 51.96500 35.93700
H  29.50600 52.98600 34.23500
H  29.98600 54.47300 35.15700
H  36.47700 55.89400 37.79400
H  35.30500 54.65300 37.66200
H  36.03900 55.18500 39.33100
H  35.88400 60.37800 40.37900
H  35.49400 60.47500 38.72200
H  37.19600 60.36600 39.24800
H  31.76900 62.24000 38.92200
H  29.73900 61.66800 41.12900
H  31.77300 62.62300 41.89700
H  33.00100 63.02700 40.66100
H  33.08300 61.45700 41.33700
H  28.95300 62.61300 38.50700
H  30.05500 63.66000 39.42700
H  27.30700 63.90100 39.61300
H  28.52100 64.43800 40.69100
H  27.68800 62.93300 41.06600
H  24.99200 60.50500 38.88600
H  24.24300 59.40400 40.00700
H  24.11500 59.11900 38.27300
H  26.01000 54.49800 36.92700
H  23.87300 51.81400 39.79700
H  25.56700 51.13400 39.52700
H  24.37900 50.96900 38.33500

