158

Mg 43.68000 42.20800 26.55400
C  42.45500 44.63500 28.79900
C  44.73400 40.37100 29.22200
C  44.82000 40.01200 24.44400
C  43.13800 44.57800 23.99200
N  43.77400 42.64200 28.69300
C  43.04500 43.52200 29.38800
C  43.22200 43.29900 30.95800
C  43.88400 41.88900 31.08600
C  44.22600 41.64200 29.57100
C  45.19600 41.83500 31.95300
C  41.92300 43.38800 31.94900
C  42.14000 44.31100 33.09400
H  42.45400 43.67100 34.50400
N  44.50700 40.34600 26.82000
C  44.97600 39.78000 27.97100
C  45.40000 38.42000 27.74800
C  45.31100 38.26900 26.32900
C  44.86500 39.54300 25.75700
C  45.97000 37.59100 28.82900
C  45.64400 37.02400 25.50000
O  45.37700 36.90500 24.34200
C  46.44500 35.93900 26.10000
N  44.03300 42.37400 24.59300
C  44.50400 41.29600 23.91700
C  44.61500 41.56300 22.41600
C  43.88400 42.96300 22.23500
C  43.72200 43.34000 23.68400
C  46.14200 41.59000 22.08500
C  42.56100 42.95400 21.38400
C  41.21500 42.78800 21.97700
N  42.91700 44.29100 26.41400
C  42.66800 45.01800 25.25200
C  41.93000 46.18000 25.61900
C  41.84800 46.17800 27.05200
C  42.48800 44.99300 27.46500
C  41.64600 47.30200 24.57300
C  41.26200 46.84600 28.18000
O  40.63600 47.90200 28.25400
C  41.66300 45.80900 29.45200
C  42.41500 46.72700 30.41600
O  43.51900 47.20200 30.24000
O  41.58300 47.10400 31.43700
C  42.20300 47.97300 32.52600
H  45.16100 40.00200 30.15700
H  45.16000 39.29100 23.69800
H  42.85200 45.30700 23.23000
H  43.99700 44.04600 31.12900
H  43.20800 41.09400 31.40300
H  45.13600 42.74300 32.55400
H  46.10600 41.81300 31.35400
H  45.15700 41.04100 32.69900
H  41.66300 42.38900 32.29900
H  41.02300 43.70300 31.42100
H  41.16500 44.77900 33.22900
H  42.88900 45.08700 32.93800
H  47.01700 37.88900 28.78100
H  45.83600 36.52500 28.64500
H  45.63100 37.90600 29.81600
H  46.78900 35.18600 25.39100
H  45.85000 35.41600 26.84800
H  47.38000 36.31200 26.51700
H  43.94800 40.88000 21.89100
H  44.51300 43.64800 21.66800
H  46.83100 41.59700 22.92900
H  46.35200 42.55800 21.63000
H  46.37000 40.73400 21.45000
H  42.61600 42.22500 20.57500
H  42.50200 43.92000 20.88200
H  41.28800 42.60900 23.04900
H  40.64100 41.99000 21.50500
H  40.70900 43.74800 21.87500
H  41.23100 46.83000 23.68200
H  42.50400 47.93600 24.35000
H  40.85300 47.90100 25.02100
H  40.75700 45.42000 29.91800
H  43.20300 48.36800 32.34800
H  42.18900 47.53300 33.52400
H  41.39600 48.70500 32.55300
Mg 10.98100 46.82000 25.74800
C  8.95600 46.85700 28.67100
C  13.57200 47.89800 27.50600
C  12.70300 47.08000 22.92700
C  7.96000 46.42500 23.90000
N  11.20300 47.31900 27.84400
C  10.26300 47.23000 28.83400
C  11.00700 47.57400 30.18500
C  12.26200 48.32900 29.68800
C  12.37700 47.80900 28.22000
C  12.20600 49.84500 29.75800
C  11.34900 46.42000 31.21800
C  10.90000 46.51400 32.70800
H  10.93200 45.28500 33.56300
N  12.91800 47.19500 25.31300
C  13.91000 47.50200 26.23500
C  15.19300 47.30300 25.61100
C  14.95100 47.10500 24.15200
C  13.45300 47.13900 24.08000
C  16.43000 47.41400 26.40000
C  15.98600 46.82200 23.04000
O  15.65700 46.57400 21.89200
C  17.47400 46.85300 23.46700
N  10.38200 46.94300 23.70100
C  11.30400 47.05400 22.66900
C  10.69100 46.75100 21.38600
C  9.20500 46.46500 21.70700
C  9.15200 46.64300 23.17500
C  11.05800 47.78900 20.21100
C  8.63100 45.08400 21.22500
C  9.12600 44.57300 19.83600
N  8.77800 46.72500 26.15300
C  7.72500 46.43100 25.32300
C  6.52900 46.24400 26.14000
C  6.99700 46.37700 27.50600
C  8.36400 46.72100 27.41000
C  5.11300 45.96300 25.60100
C  6.62100 46.47000 28.89200
O  5.45400 46.37500 29.25600
C  7.89000 46.59200 29.75400
C  8.13000 45.42700 30.51100
O  8.75700 44.46000 30.12100
O  7.50900 45.47100 31.74800
C  7.61600 44.24200 32.62100
H  14.30600 48.32300 28.19300
H  13.36600 46.82900 22.09600
H  7.01500 46.24400 23.38400
H  10.32800 48.21700 30.74400
H  13.16100 48.01000 30.21400
H  13.17200 50.33000 29.90200
H  11.43600 50.08100 30.49200
H  11.81500 50.32600 28.86200
H  12.41900 46.27300 31.07100
H  10.89700 45.48200 30.89600
H  9.85700 46.83000 32.73500
H  11.48700 47.36800 33.04700
H  17.03400 48.24600 26.03800
H  17.10300 46.55800 26.43600
H  16.22600 47.73700 27.42100
H  17.64200 45.90900 23.98700
H  17.72500 47.71200 24.08900
H  18.03000 46.89800 22.53000
H  11.20700 45.81200 21.18600
H  8.62500 47.24200 21.21000
H  11.47500 48.72600 20.58000
H  10.26800 48.06700 19.51300
H  11.76800 47.27700 19.56200
H  7.54300 45.14900 21.22500
H  8.99800 44.30500 21.89400
H  8.24000 44.18800 19.33100
H  9.88100 43.79100 19.91900
H  9.54900 45.35900 19.21100
H  4.42900 46.41600 26.31800
H  4.89000 44.90600 25.74300
H  4.88000 46.29100 24.58800
H  7.78400 47.34100 30.53800
H  7.52100 44.54700 33.66300
H  8.59800 43.77800 32.53200
H  6.81300 43.53100 32.42400

