158

Mg 0.64200 7.18500 25.33000
C  1.29100 8.99900 28.25800
C  0.98800 4.30100 27.12500
C  0.37300 5.42900 22.38100
C  0.61000 10.17700 23.51700
N  1.15500 6.75500 27.43100
C  1.21500 7.60200 28.45500
C  1.13800 6.99900 29.75400
C  1.36800 5.47400 29.39400
C  1.12300 5.48600 27.86100
C  2.73800 4.92800 29.89900
C  -0.14700 7.24900 30.60100
C  0.01900 7.90200 31.98100
H  1.20100 7.39200 32.79100
N  0.82600 5.18800 24.85500
C  0.81500 4.12400 25.73200
C  0.82400 2.89100 25.06700
C  0.66100 3.15700 23.65900
C  0.57100 4.65600 23.55900
C  0.88400 1.57200 25.81700
C  0.42600 2.22400 22.49500
O  0.47400 2.59500 21.32800
C  0.33800 0.79000 22.75700
N  0.39400 7.71300 23.28300
C  0.26100 6.77200 22.25400
C  0.03500 7.50700 20.90600
C  -0.01500 9.03100 21.36000
C  0.31500 9.00800 22.83600
C  1.26200 7.31600 19.92500
C  -1.44800 9.62500 21.03900
C  -2.60200 9.11000 21.97100
N  0.72600 9.22600 25.75300
C  0.79700 10.32400 24.87800
C  1.17500 11.52800 25.66400
C  1.31300 11.00900 26.98500
C  1.11300 9.57900 27.00500
C  1.20100 12.94300 25.36200
C  1.52900 11.47800 28.36900
O  1.72100 12.59300 28.84100
C  1.53100 10.14900 29.19000
C  2.89200 9.96700 29.91500
O  3.79900 9.23400 29.57300
O  2.84700 10.75400 31.00300
C  3.82500 10.66000 32.15400
H  0.92600 3.39500 27.73200
H  0.45900 4.82600 21.47500
H  0.55300 11.08400 22.91100
H  1.94600 7.42300 30.35000
H  0.53600 4.96300 29.87800
H  3.05300 4.47100 28.96100
H  2.56400 4.11000 30.59900
H  3.48500 5.62400 30.28000
H  -0.82900 6.39900 30.60600
H  -0.73100 8.00200 30.07300
H  -0.86400 7.91200 32.62000
H  0.23100 8.95900 31.82500
H  0.47700 1.64200 26.82600
H  1.93300 1.27700 25.85200
H  0.32800 0.77700 25.31900
H  0.42000 0.29800 21.78800
H  -0.49200 0.29200 23.25900
H  1.20000 0.45800 23.33500
H  -0.89800 7.11300 20.50300
H  0.67500 9.73900 20.90000
H  2.05900 6.74300 20.39800
H  1.72100 8.24100 19.57700
H  0.93200 6.65200 19.12500
H  -1.55900 9.17800 20.05100
H  -1.37900 10.70900 20.94700
H  -3.36100 8.81700 21.24700
H  -2.97000 9.96600 22.53700
H  -2.30600 8.38800 22.73300
H  0.69600 13.16100 24.42000
H  2.23000 13.30000 25.34300
H  0.78600 13.50500 26.19800
H  0.70300 10.26200 29.88900
H  4.66800 11.35000 32.10100
H  4.21800 9.64500 32.10400
H  3.32300 10.59900 33.11900
Mg 26.20500 0.39600 29.62200
C  28.00000 0.20800 32.64100
C  23.31200 0.80100 31.53300
C  24.39500 0.21600 26.76000
C  28.99200 -0.50100 27.82100
N  25.70200 0.32500 31.92800
C  26.64600 0.44800 32.92200
C  26.00100 0.81200 34.25500
C  24.42700 0.87600 33.92000
C  24.44200 0.64900 32.31900
C  23.53300 0.09800 34.87300
C  26.62900 2.14900 34.77600
C  27.35600 1.99200 36.09300
H  26.81500 2.84900 37.28400
N  24.09300 0.45500 29.18400
C  23.05600 0.50800 30.12000
C  21.77500 0.43000 29.39700
C  22.06100 0.22800 28.00500
C  23.55900 0.32400 27.95300
C  20.44300 0.48100 30.15600
C  21.08900 -0.06100 26.81800
O  21.50800 -0.19500 25.66700
C  19.64100 -0.10500 26.99100
N  26.59000 -0.05800 27.56300
C  25.71800 0.00200 26.54900
C  26.38300 -0.08300 25.16300
C  27.82200 -0.45800 25.58700
C  27.86100 -0.31900 27.06600
C  25.67300 -1.06700 24.15600
C  28.94400 0.34500 24.79000
C  29.18900 1.74900 25.14800
N  28.12800 -0.03500 30.03300
C  29.17000 -0.39300 29.20600
C  30.30000 -0.72200 30.01500
C  29.94400 -0.42600 31.34500
C  28.57600 -0.04900 31.30700
C  31.64900 -1.19300 29.44700
C  30.44200 -0.41200 32.74600
O  31.46600 -0.85600 33.22600
C  29.17600 0.11100 33.66800
C  29.14600 -0.79400 34.80000
O  28.41400 -1.81800 34.88200
O  29.91600 -0.37100 35.80400
C  29.80000 -1.08400 37.08600
H  22.45200 1.19600 32.07800
H  23.89500 -0.00600 25.81500
H  29.86300 -0.82100 27.24600
H  26.14400 -0.06900 34.88200
H  24.02900 1.87200 34.11300
H  22.96100 -0.62000 34.28500
H  22.87500 0.81900 35.35800
H  24.05400 -0.45600 35.65400
H  25.86100 2.90900 34.91800
H  27.43200 2.64000 34.22600
H  28.38800 2.28300 35.89800
H  27.26800 0.95000 36.40000
H  20.58200 1.07800 31.05800
H  19.97800 -0.45600 30.46300
H  19.78400 1.00000 29.46000
H  19.20200 -0.16300 25.99500
H  19.32300 0.83300 27.44700
H  19.37100 -0.94300 27.63400
H  26.44500 0.84100 24.58700
H  27.93600 -1.54200 25.55900
H  24.73000 -1.37300 24.60900
H  26.22800 -1.99500 24.01700
H  25.60100 -0.59800 23.17500
H  28.57400 0.40600 23.76700
H  29.85500 -0.24000 24.65900
H  30.25200 1.92500 25.31500
H  28.67000 2.07100 26.05000
H  28.73000 2.46400 24.46500
H  31.69200 -0.89100 28.40100
H  31.74200 -2.27200 29.57200
H  32.50700 -0.68100 29.88100
H  29.38200 1.13400 33.98200
H  29.97500 -2.15600 36.99500
H  28.80700 -0.94300 37.51200
H  30.45700 -0.63600 37.83100

