158

Mg 1.86800 -1.67200 45.52100
C  5.10700 -0.72900 44.62700
C  0.75100 0.99600 43.83500
C  -1.21200 -3.04200 45.67500
C  3.22300 -4.67300 46.95500
N  2.88400 0.05300 44.47300
C  4.15700 0.18500 44.15900
C  4.38400 1.53900 43.41400
C  2.96400 2.21500 43.48900
C  2.10800 1.05000 43.98300
C  2.78800 3.45500 44.46800
C  4.97900 1.36900 41.97100
C  6.25200 2.14800 41.74500
H  7.42700 1.48100 40.98700
N  0.01500 -1.10500 44.80800
C  -0.23000 -0.00900 44.07500
C  -1.62800 0.02600 43.64500
C  -2.23200 -1.13300 44.20100
C  -1.14900 -1.83800 44.91000
C  -2.16400 1.26200 42.82200
C  -3.69000 -1.52000 44.03500
O  -4.40900 -0.83600 43.33200
C  -4.35100 -2.76500 44.47000
N  1.10100 -3.51100 46.44400
C  -0.25900 -3.77800 46.44000
C  -0.59400 -5.13000 47.13600
C  0.88900 -5.60400 47.61200
C  1.83300 -4.55200 46.99200
C  -1.71800 -5.04700 48.25000
C  1.35600 -7.09100 47.25100
C  1.57800 -8.01000 48.49800
N  3.74200 -2.62100 45.71400
C  4.15000 -3.76400 46.41000
C  5.59900 -3.81200 46.25900
C  6.00500 -2.62800 45.69100
C  4.85800 -1.94900 45.34000
C  6.38100 -4.97900 46.67900
C  7.08900 -1.86800 45.24900
O  8.27100 -2.04100 45.43000
C  6.62400 -0.58000 44.58600
C  7.00500 0.55100 45.41600
O  6.26600 1.17000 46.16400
O  8.34600 0.86500 45.19800
C  8.80500 2.12700 45.70000
H  0.44600 1.92100 43.34100
H  -2.24300 -3.37900 45.80300
H  3.66900 -5.59200 47.34100
H  5.05100 2.16200 44.01100
H  2.61000 2.47100 42.49100
H  1.85800 3.48900 45.03400
H  2.79300 4.37000 43.87600
H  3.64300 3.55600 45.13600
H  4.30900 1.67800 41.16900
H  5.22900 0.32700 41.76900
H  6.81000 2.37700 42.65300
H  5.94400 3.06300 41.23900
H  -2.09400 1.18300 41.73700
H  -1.64700 2.16000 43.16100
H  -3.21500 1.44600 43.04500
H  -4.24100 -2.69500 45.55200
H  -3.75100 -3.50300 43.93800
H  -5.40500 -2.69500 44.19900
H  -0.96200 -5.78300 46.34400
H  1.02100 -5.46900 48.68500
H  -1.26700 -5.32000 49.20400
H  -2.60400 -5.63000 47.99900
H  -2.10000 -4.03400 48.37700
H  2.22000 -7.06900 46.58700
H  0.47900 -7.45100 46.71200
H  0.58500 -8.16900 48.91900
H  2.03600 -7.35100 49.23600
H  2.27000 -8.82800 48.29800
H  7.43300 -4.77000 46.87000
H  6.26300 -5.80700 45.98000
H  6.05200 -5.44700 47.60700
H  7.12100 -0.35700 43.64200
H  9.61400 1.93500 46.40400
H  8.09400 2.71300 46.28200
H  9.26900 2.63300 44.85400
Mg 53.76800 25.07700 43.71100
C  51.05000 27.15100 42.95200
C  52.01000 22.46200 42.68100
C  56.69400 23.42000 43.53000
C  55.51000 28.08400 44.49000
N  51.77300 24.91400 42.75100
C  50.81400 25.84900 42.65000
C  49.42500 25.22600 42.11900
C  49.76200 23.68300 42.39200
C  51.32100 23.68500 42.67100
C  48.98400 23.07300 43.61600
C  49.08400 25.33700 40.60400
C  50.24200 25.54800 39.68000
H  49.90500 25.90200 38.18900
N  54.27600 23.15300 43.19900
C  53.34500 22.18700 42.93800
C  54.05700 20.92700 42.77200
C  55.46100 21.18100 42.87000
C  55.57400 22.67100 43.22000
C  53.36500 19.70200 42.52500
C  56.44500 20.16700 42.70400
O  56.11500 19.00000 42.69500
C  57.95600 20.47000 42.63300
N  55.79800 25.67600 43.84800
C  56.87200 24.76400 43.81200
C  58.18000 25.43200 44.25100
C  57.73600 26.91100 44.38900
C  56.26800 26.92200 44.18500
C  58.86100 24.80600 45.53200
C  58.41900 27.91300 43.37300
C  59.13200 29.11600 43.92800
N  53.43900 27.16400 43.83000
C  54.18000 28.20900 44.23600
C  53.37200 29.38400 44.40100
C  52.16700 29.05200 43.77900
C  52.24800 27.68700 43.45500
C  53.84800 30.63300 45.06400
C  50.85600 29.55300 43.38500
O  50.40500 30.65700 43.51600
C  50.09800 28.28200 42.83900
C  49.56700 28.57200 41.46300
O  50.23500 29.00100 40.57200
O  48.18800 28.51300 41.43800
C  47.51900 29.19700 40.32000
H  51.37300 21.61000 42.43500
H  57.63900 22.88300 43.42900
H  56.02200 28.93600 44.94100
H  48.60200 25.60700 42.72300
H  49.64300 23.11900 41.46700
H  49.72100 22.64500 44.29600
H  48.44200 22.19700 43.26100
H  48.36800 23.83500 44.09300
H  48.32000 26.09900 40.45500
H  48.59100 24.38600 40.40000
H  50.57300 24.52400 39.50300
H  51.18700 25.97100 40.02200
H  53.34900 19.11400 43.44300
H  53.85700 19.25100 41.66300
H  52.32300 19.79100 42.21900
H  58.49000 19.56800 42.33100
H  58.18800 20.76900 43.65500
H  58.15700 21.25300 41.90300
H  58.80600 25.06200 43.43900
H  58.03500 27.26400 45.37600
H  59.54800 23.99600 45.28900
H  58.06800 24.43700 46.18300
H  59.47500 25.54400 46.04800
H  57.67800 28.21500 42.63300
H  59.14900 27.40600 42.74100
H  58.71800 29.46200 44.87500
H  59.03100 29.87800 43.15600
H  60.17600 28.88700 44.14600
H  53.28900 31.54200 44.84100
H  54.79300 30.88800 44.58500
H  54.04500 30.49800 46.12700
H  49.24900 28.18200 43.51600
H  46.45700 29.11400 40.55100
H  47.58700 28.59700 39.41300
H  47.84200 30.21900 40.11800

