158

Mg -8.19600 39.52200 42.69900
C  -7.02600 36.38800 41.78400
C  -5.52100 41.00000 41.22100
C  -9.63300 42.40400 43.32500
C  -11.25900 37.98200 43.59700
N  -6.54400 38.81000 41.54000
C  -6.19500 37.48100 41.39300
C  -4.98800 37.37800 40.54600
C  -4.37500 38.84200 40.72800
C  -5.53700 39.64800 41.24700
C  -3.09600 38.96200 41.58900
C  -5.32300 37.01800 39.01300
C  -4.59000 35.72100 38.55800
H  -3.76100 35.75600 37.33000
N  -7.58600 41.52200 42.38900
C  -6.50400 41.92500 41.72800
C  -6.38400 43.35500 41.79200
C  -7.58500 43.82200 42.41000
C  -8.37800 42.64000 42.83300
C  -5.16000 44.12600 41.15800
C  -7.88400 45.28200 42.57500
O  -7.13500 46.12500 42.18600
C  -9.03300 45.72700 43.44700
N  -10.36900 40.17300 43.08500
C  -10.54000 41.41900 43.45800
C  -11.94900 41.66500 43.94100
C  -12.47100 40.18000 43.96200
C  -11.27200 39.33900 43.54900
C  -12.19000 42.42400 45.26500
C  -13.72300 39.97600 43.10500
C  -15.07500 40.43000 43.47400
N  -9.02500 37.54900 42.68000
C  -10.27100 37.11000 43.12800
C  -10.31400 35.64000 43.10100
C  -9.01900 35.33400 42.57000
C  -8.31800 36.54700 42.30900
C  -11.52500 34.78200 43.50100
C  -8.02900 34.27300 42.26000
O  -8.17300 33.10200 42.37300
C  -6.73800 34.90200 41.74700
C  -5.70800 34.57200 42.72300
O  -5.28100 35.33600 43.63000
O  -5.16300 33.29500 42.50100
C  -4.09600 32.84100 43.33900
H  -4.64000 41.45000 40.75800
H  -10.10800 43.37200 43.49700
H  -12.14700 37.54800 44.06300
H  -4.35100 36.61700 40.99600
H  -4.07400 39.27900 39.77600
H  -2.93500 38.00200 42.08100
H  -3.28600 39.69800 42.37000
H  -2.28000 39.28100 40.94100
H  -4.94300 37.82900 38.39100
H  -6.40600 37.08700 38.91000
H  -5.34900 34.98500 38.29400
H  -3.98000 35.32300 39.36900
H  -5.21100 45.21300 41.09900
H  -5.04200 43.79900 40.12500
H  -4.23400 43.88500 41.68000
H  -9.14400 46.81100 43.42900
H  -9.05600 45.35100 44.47000
H  -9.87200 45.36800 42.85100
H  -12.48800 42.26000 43.20400
H  -12.79400 39.88300 44.95900
H  -12.87200 43.26500 45.14600
H  -11.29100 42.80800 45.74800
H  -12.64100 41.69200 45.93400
H  -13.76900 38.89200 43.00400
H  -13.58000 40.38800 42.10600
H  -15.46800 41.06600 42.68200
H  -15.03500 41.03600 44.38000
H  -15.70100 39.54500 43.59000
H  -11.18500 33.75600 43.64400
H  -12.35300 34.90900 42.80300
H  -11.81100 35.21500 44.45900
H  -6.43600 34.50700 40.77700
H  -4.43100 32.99900 44.36500
H  -3.29000 33.56000 43.19300
H  -3.74500 31.83100 43.12900
Mg 0.24600 42.79100 26.06200
C  2.56800 42.20700 28.66000
C  -2.28500 41.88200 28.29200
C  -2.01900 42.42700 23.53500
C  2.77100 43.07900 23.80700
N  0.22400 42.10600 28.21300
C  1.24400 42.08900 29.14800
C  0.73000 41.88200 30.60800
C  -0.82000 41.85300 30.35000
C  -1.02100 42.03600 28.89000
C  -1.45400 40.52400 30.87900
C  1.25800 42.97700 31.54000
C  1.89300 42.50500 32.83900
H  1.28800 41.21400 33.46700
N  -1.84300 42.35400 25.94600
C  -2.69400 42.01700 26.99100
C  -4.04300 41.75700 26.52600
C  -3.95200 41.86800 25.11200
C  -2.54200 42.24200 24.80700
C  -5.24600 41.34700 27.51600
C  -5.10000 41.67700 24.12400
O  -4.96700 42.04700 22.97800
C  -6.56100 41.34700 24.57300
N  0.36800 42.77100 23.93200
C  -0.70000 42.67100 23.12700
C  -0.24000 42.67700 21.62100
C  1.26800 43.09400 21.77800
C  1.49900 43.09300 23.28900
C  -0.47200 41.33000 20.86000
C  1.81900 44.31900 21.06100
C  1.63200 45.71400 21.71000
N  2.27900 42.76100 26.16800
C  3.16500 42.83600 25.09200
C  4.51700 42.67500 25.64600
C  4.35100 42.49000 27.02000
C  2.93800 42.42600 27.32700
C  5.73300 42.71000 24.89700
C  5.04300 42.34700 28.26200
O  6.25300 42.29400 28.49000
C  3.91300 42.25900 29.38600
C  4.13700 40.93600 30.08100
O  3.62400 39.87300 29.80600
O  4.90400 41.18500 31.15300
C  5.13900 40.02900 32.02000
H  -2.97400 41.64500 29.10600
H  -2.71100 42.45000 22.69000
H  3.63800 43.26200 23.16900
H  1.20400 40.94100 30.88900
H  -1.34000 42.71700 30.76500
H  -0.76500 39.94900 31.49700
H  -1.58600 39.77700 30.09600
H  -2.31600 40.74000 31.51100
H  0.45800 43.60800 31.92700
H  1.94400 43.69700 31.09300
H  1.73400 43.22200 33.64500
H  2.92200 42.39800 32.49600
H  -5.46900 40.29000 27.37300
H  -6.11100 41.99400 27.37400
H  -5.01100 41.40200 28.57900
H  -6.62500 40.45700 25.20000
H  -7.23800 41.29300 23.72000
H  -6.87000 42.26700 25.06900
H  -0.85100 43.49600 21.24300
H  1.94600 42.26000 21.59800
H  -1.09000 40.64000 21.43600
H  0.35300 40.67300 20.58700
H  -1.05100 41.58500 19.97200
H  1.49700 44.36300 20.02100
H  2.89300 44.14600 20.99300
H  2.53700 45.99400 22.25000
H  0.81500 45.59600 22.42200
H  1.29700 46.44600 20.97500
H  6.55800 43.14200 25.46300
H  5.56300 43.35900 24.03800
H  5.88700 41.68200 24.56800
H  3.96900 43.13100 30.03700
H  5.85800 40.31200 32.78900
H  5.55600 39.16600 31.50000
H  4.18100 39.76600 32.46900

