158

Mg 29.46400 59.14500 41.03800
C  26.57800 57.38900 40.28900
C  31.34900 56.53100 39.78200
C  32.15000 61.18900 41.08600
C  27.35400 61.82000 41.94900
N  28.99200 57.29200 39.87100
C  27.77200 56.74800 39.89300
C  27.77900 55.38900 39.12700
C  29.32900 54.99700 39.21800
C  29.96700 56.34400 39.73200
C  29.58100 53.72700 40.06600
C  27.37400 55.59400 37.68500
C  26.46000 54.52700 37.10300
H  26.57800 54.02100 35.61600
N  31.53300 58.78800 40.65000
C  32.11000 57.71400 40.08400
C  33.51500 57.95800 40.03300
C  33.80600 59.24700 40.57400
C  32.47900 59.81600 40.84000
C  34.47700 56.89100 39.66100
C  35.16200 59.85800 40.59300
O  36.13000 59.21400 40.22400
C  35.39700 61.26400 41.13200
N  29.71300 61.28200 41.56500
C  30.94400 61.84600 41.41400
C  30.85900 63.33400 41.52000
C  29.29200 63.52200 41.79300
C  28.69900 62.13600 41.84900
C  31.79900 63.96200 42.56600
C  28.51800 64.48000 40.78300
C  27.64200 65.63900 41.31400
N  27.43700 59.54700 41.14000
C  26.74400 60.62700 41.58900
C  25.41200 60.28000 41.81900
C  25.25400 58.98400 41.34800
C  26.48900 58.61100 40.88000
C  24.32700 61.25500 42.36300
C  24.37200 57.92800 41.16800
O  23.15900 57.91800 41.34600
C  25.14900 56.75500 40.39700
C  25.25800 55.58200 41.18700
O  25.99300 55.31600 42.14100
O  24.33400 54.68200 40.66500
C  24.17500 53.35900 41.24400
H  31.95200 55.65500 39.53500
H  32.91900 61.96200 41.15300
H  26.80500 62.68200 42.33400
H  27.08300 54.71900 39.63100
H  29.81700 54.88800 38.25000
H  28.66900 53.37400 40.54700
H  30.34000 53.93800 40.82000
H  30.00600 52.97200 39.40500
H  28.16800 55.74800 36.95400
H  26.92700 56.58800 37.67000
H  25.44000 54.85100 37.30900
H  26.66400 53.69100 37.77200
H  34.81300 56.52500 40.63100
H  35.29700 57.28300 39.05900
H  34.02200 56.08300 39.08800
H  35.10600 61.93900 40.32700
H  36.47900 61.37300 41.20200
H  34.84400 61.42100 42.05800
H  31.14300 63.61000 40.50500
H  29.10900 64.04800 42.73000
H  32.59600 64.44300 41.99800
H  32.19100 63.23400 43.27700
H  31.26900 64.75100 43.09900
H  27.85100 63.86700 40.17700
H  29.18800 65.01800 40.11200
H  26.69000 65.11600 41.40400
H  27.54400 66.41700 40.55800
H  27.77900 66.00900 42.33000
H  24.06200 61.95200 41.56900
H  24.63400 61.90700 43.18100
H  23.42900 60.71200 42.65900
H  24.61600 56.61800 39.45600
H  23.13300 53.07400 41.10200
H  24.52900 53.25500 42.27000
H  24.72400 52.65900 40.61400
Mg 7.14200 57.54600 41.51700
C  6.28900 54.20700 41.28700
C  10.28800 56.72100 40.38900
C  7.81200 60.89700 41.16900
C  3.94100 58.30400 42.53200
N  8.10000 55.73200 40.72500
C  7.55000 54.46800 40.80800
C  8.51900 53.39300 40.32300
C  9.88500 54.17400 40.37000
C  9.39700 55.61300 40.45200
C  10.94100 53.73800 41.48400
C  8.18100 52.71900 38.95500
C  8.31100 51.21100 38.91500
H  9.48100 50.75900 38.05500
N  8.80400 58.60500 40.85800
C  9.98200 58.10200 40.47200
C  10.93200 59.16600 40.19700
C  10.33500 60.40200 40.38100
C  8.90800 60.02900 40.77200
C  12.41400 58.88100 39.65800
C  11.01900 61.80700 40.27800
O  12.22600 61.86700 39.90900
C  10.28000 63.06100 40.55000
N  5.92900 59.42300 41.58100
C  6.46000 60.62400 41.57700
C  5.53200 61.67900 42.14200
C  4.20400 60.94400 42.52900
C  4.70000 59.43900 42.28400
C  6.08200 62.75400 43.13300
C  2.88100 61.24800 41.76800
C  1.64800 60.78800 42.51800
N  5.41300 56.46200 41.84200
C  4.16700 56.89800 42.34900
C  3.34900 55.73600 42.56600
C  4.13900 54.62000 42.19700
C  5.33900 55.15600 41.73800
C  2.01600 55.69000 43.29800
C  4.11700 53.24300 42.14700
O  3.28800 52.39200 42.32200
C  5.50100 52.88200 41.39400
C  5.07100 52.59100 39.95700
O  4.83200 53.42500 39.10500
O  4.99200 51.21300 39.83600
C  4.48800 50.71300 38.56100
H  11.34700 56.50800 40.23000
H  8.09700 61.94400 41.04900
H  2.94700 58.37800 42.97800
H  8.57300 52.63000 41.09900
H  10.29300 54.14500 39.35900
H  11.53300 54.64700 41.59000
H  11.67500 53.00700 41.14400
H  10.53800 53.39000 42.43500
H  8.89800 53.17500 38.27200
H  7.26400 53.03800 38.46000
H  7.37100 50.81600 38.52900
H  8.48000 50.78000 39.90200
H  12.65000 57.83100 39.48000
H  13.15600 59.27900 40.35100
H  12.59000 59.28000 38.66000
H  9.90800 63.04900 41.57400
H  9.55300 63.27700 39.76700
H  11.06400 63.81300 40.63000
H  5.09100 62.35700 41.41100
H  4.06100 60.88100 43.60800
H  7.16900 62.67900 43.08000
H  5.65900 62.68700 44.13600
H  5.85900 63.78200 42.84700
H  2.99200 60.79700 40.78200
H  2.91000 62.32500 41.60300
H  0.83700 61.47100 42.26400
H  1.73700 60.78400 43.60500
H  1.32700 59.82700 42.11600
H  1.67100 54.68100 43.52400
H  1.28900 56.22800 42.69100
H  2.06800 56.22200 44.24800
H  6.04900 52.10100 41.92200
H  3.44600 51.01000 38.44100
H  4.61600 49.63500 38.46900
H  5.02300 51.19800 37.74500

