158

Mg 8.67500 3.46400 27.79800
C  9.86000 1.85100 30.71700
C  6.74700 5.49200 29.89600
C  7.33300 4.88900 25.09000
C  10.02500 0.90700 25.86300
N  8.14800 3.46000 30.08400
C  8.99900 2.92400 31.00300
C  8.59700 3.41900 32.43700
C  7.34800 4.31800 32.14600
C  7.46800 4.47000 30.63800
C  5.91500 3.73700 32.51200
C  9.83200 4.00500 33.16700
C  10.15300 3.46700 34.53700
H  10.71400 4.23700 35.64500
N  7.31700 5.07500 27.53500
C  6.70000 5.81500 28.52800
C  5.89400 6.86300 27.90900
C  6.11100 6.65500 26.49300
C  6.98000 5.54300 26.32600
C  4.97500 7.94300 28.62600
C  5.30000 7.24100 25.32300
O  5.37000 6.82100 24.18800
C  4.29100 8.39300 25.56100
N  8.52800 2.90800 25.80700
C  7.95600 3.70800 24.82400
C  8.30400 3.27800 23.41300
C  9.32800 2.12700 23.67200
C  9.30400 1.97300 25.22800
C  7.07600 2.81800 22.65300
C  10.72500 2.31000 23.12000
C  11.85100 2.85200 24.10800
N  9.71100 1.62500 28.14200
C  10.24000 0.69000 27.26900
C  11.13500 -0.18000 28.04400
C  11.06600 0.27700 29.35800
C  10.12600 1.29200 29.37000
C  11.83500 -1.32100 27.36900
C  11.56700 0.07200 30.70100
O  12.41000 -0.72100 31.13700
C  10.76700 1.05300 31.65300
C  10.02500 0.22500 32.66500
O  8.91500 -0.23100 32.49100
O  10.70700 0.11200 33.80200
C  9.98300 -0.42300 34.97600
H  6.21900 6.14000 30.59900
H  7.12200 5.39000 24.14300
H  10.62900 0.32000 25.16800
H  8.20700 2.62000 33.06700
H  7.34600 5.20900 32.77400
H  5.92200 2.66900 32.73100
H  5.13200 3.83800 31.76100
H  5.59500 4.28600 33.39800
H  9.70400 5.08300 33.25900
H  10.73100 4.09800 32.55600
H  10.92100 2.72600 34.31500
H  9.27100 3.00400 34.98100
H  5.08600 8.89000 28.09700
H  5.28000 8.00400 29.67100
H  3.95200 7.61800 28.43900
H  3.51200 8.07600 26.25400
H  3.77400 8.52400 24.61000
H  4.82700 9.30900 25.81100
H  8.88900 4.00800 22.85300
H  9.02700 1.18500 23.21300
H  6.25700 2.65000 23.35200
H  7.17100 1.87800 22.11000
H  6.88100 3.56700 21.88500
H  10.79600 3.03700 22.31100
H  11.11900 1.40500 22.65600
H  11.68300 2.75000 25.18000
H  11.89600 3.91100 23.85300
H  12.79300 2.38300 23.82400
H  11.32300 -1.53400 26.43100
H  11.76500 -2.21200 27.99400
H  12.87300 -1.04800 27.18200
H  11.44000 1.75900 32.13900
H  10.73600 -0.86400 35.62900
H  9.25300 -1.21000 34.78100
H  9.46400 0.37700 35.50500
Mg -11.84100 38.36300 42.18600
C  -9.58900 35.98100 40.96600
C  -9.73700 40.88000 40.84000
C  -14.29100 40.53900 42.60600
C  -13.79500 35.73900 43.29000
N  -9.97100 38.43200 40.88900
C  -9.20300 37.32200 40.67900
C  -7.93400 37.79100 39.86400
C  -7.81900 39.37000 40.21700
C  -9.22200 39.55700 40.75500
C  -6.68600 39.87300 41.24100
C  -8.10300 37.37800 38.36500
C  -6.96800 36.47700 37.97200
H  -6.33800 36.89500 36.64200
N  -11.98400 40.42600 41.78200
C  -11.00100 41.28000 41.30500
C  -11.52700 42.63900 41.38700
C  -12.87200 42.56200 41.78100
C  -13.11400 41.15100 42.11800
C  -10.73100 43.83300 41.03200
C  -13.78300 43.76800 42.05900
O  -13.37900 44.88000 41.75400
C  -15.23600 43.74000 42.63700
N  -13.74000 38.17000 42.93800
C  -14.56900 39.27600 43.02500
C  -15.84500 38.78600 43.81000
C  -15.81400 37.20800 43.65900
C  -14.34700 37.00900 43.25200
C  -15.87800 39.38500 45.21400
C  -16.77600 36.73200 42.52600
C  -17.95500 35.86400 42.91700
N  -11.70900 36.30600 42.18800
C  -12.54100 35.35500 42.79000
C  -11.84300 34.06700 42.84100
C  -10.71400 34.28400 42.04700
C  -10.68600 35.63400 41.68500
C  -12.30800 32.76900 43.43900
C  -9.55600 33.60800 41.48700
O  -9.21700 32.41200 41.56800
C  -8.78800 34.69300 40.66500
C  -7.40500 34.70200 41.03400
O  -6.91700 35.40800 41.91100
O  -6.73300 33.80300 40.25800
C  -5.33100 33.45500 40.64700
H  -9.02200 41.69300 40.69900
H  -15.14100 41.20400 42.77100
H  -14.46500 34.90100 43.49200
H  -7.13500 37.23500 40.35300
H  -7.81600 40.03700 39.35600
H  -6.07000 40.66700 40.81900
H  -6.07900 39.05400 41.62600
H  -7.17700 40.34700 42.09100
H  -8.00500 38.21800 37.67700
H  -9.07400 36.89800 38.25200
H  -7.37800 35.46800 37.91000
H  -6.12000 36.39000 38.65200
H  -11.26900 44.33900 40.23000
H  -9.81000 43.42600 40.61600
H  -10.52900 44.38000 41.95300
H  -15.85700 43.20900 41.91600
H  -15.63200 44.74700 42.76600
H  -15.31700 43.30500 43.63300
H  -16.73200 39.14900 43.29100
H  -16.09800 36.72400 44.59300
H  -16.75100 40.01900 45.36900
H  -14.98200 40.00000 45.28900
H  -15.83100 38.60800 45.97700
H  -16.09600 36.35300 41.76300
H  -17.20700 37.64000 42.10400
H  -18.15600 34.99300 42.29200
H  -18.93500 36.34100 42.91900
H  -17.84800 35.56400 43.95900
H  -12.74900 32.02700 42.77400
H  -13.02900 33.13600 44.16900
H  -11.58100 32.39100 44.15800
H  -8.84100 34.52800 39.58900
H  -5.28500 33.46600 41.73600
H  -4.63500 34.14500 40.16900
H  -5.19700 32.42400 40.31900

