158

Mg 1.82500 -1.68300 43.74900
C  5.14900 -0.71400 43.12700
C  0.88700 1.27000 42.29700
C  -1.26600 -2.81200 43.79900
C  3.03900 -4.78600 44.96000
N  2.90500 0.01600 42.84600
C  4.22400 0.13100 42.53300
C  4.58000 1.45500 41.72300
C  3.22700 2.26700 41.85200
C  2.31400 1.14300 42.39700
C  3.24600 3.47800 42.82400
C  5.16100 1.24200 40.31800
C  6.57900 1.79500 40.11100
H  6.72700 2.80400 38.87800
N  0.01900 -0.90200 42.98000
C  -0.11900 0.36000 42.46200
C  -1.53100 0.51800 42.17200
C  -2.17800 -0.66400 42.63100
C  -1.16900 -1.56500 43.14000
C  -2.03800 1.82300 41.60800
C  -3.64100 -1.01100 42.60000
O  -4.36700 -0.03800 42.35000
C  -4.20900 -2.33700 42.80800
N  0.99100 -3.61600 44.26500
C  -0.30400 -3.74900 44.22800
C  -0.85400 -5.10000 44.81300
C  0.60500 -5.72700 45.12700
C  1.63800 -4.66600 44.75700
C  -1.83200 -4.98500 46.05000
C  0.94900 -7.12300 44.55000
C  0.85400 -8.34500 45.48900
N  3.66200 -2.63800 44.00200
C  3.95100 -3.81800 44.61200
C  5.42200 -3.92200 44.64900
C  5.91300 -2.68000 44.17500
C  4.82000 -2.00000 43.69800
C  6.13100 -5.07300 45.19000
C  7.11600 -1.84600 43.89400
O  8.26200 -1.90800 44.22100
C  6.63200 -0.59800 43.18300
C  7.02000 0.56400 43.95500
O  6.44600 1.00500 44.93300
O  8.16800 1.22800 43.42500
C  8.47900 2.51800 44.18100
H  0.53800 2.27000 42.03000
H  -2.28600 -3.10300 44.06000
H  3.33400 -5.66700 45.53300
H  5.34000 1.92200 42.35000
H  2.89100 2.64900 40.88800
H  4.27400 3.77500 43.03200
H  2.74100 3.29400 43.77200
H  2.74200 4.36800 42.44700
H  4.50100 1.71500 39.59100
H  5.30100 0.18100 40.11100
H  7.31500 1.00600 39.95800
H  6.87200 2.26600 41.05000
H  -1.57000 2.00200 40.64000
H  -1.79000 2.65900 42.26300
H  -3.11400 1.66300 41.54100
H  -5.23100 -2.35800 42.42900
H  -4.24400 -2.44400 43.89300
H  -3.68900 -3.20100 42.39600
H  -1.25200 -5.76000 44.04300
H  0.73100 -5.76900 46.20900
H  -2.54000 -5.81000 45.98100
H  -2.37800 -4.04100 46.06900
H  -1.33200 -5.17000 47.00100
H  1.98800 -7.08200 44.22600
H  0.25900 -7.20700 43.71000
H  1.44800 -9.17800 45.11400
H  -0.18800 -8.66200 45.44200
H  1.17400 -8.21800 46.52400
H  5.54100 -5.62400 45.92200
H  7.03300 -4.69800 45.67200
H  6.47800 -5.76800 44.42500
H  7.06100 -0.56900 42.18200
H  7.86300 3.36000 43.86700
H  9.52100 2.74600 43.95600
H  8.48500 2.40300 45.26500
Mg 47.85000 16.06700 28.50400
C  45.89400 16.34200 31.40900
C  50.39200 17.77900 30.22900
C  49.48300 16.36000 25.54100
C  45.03600 15.08100 26.81200
N  48.06100 16.90600 30.62300
C  47.18500 16.81800 31.65600
C  47.89300 17.35500 32.86900
C  49.08200 18.20100 32.25100
C  49.22200 17.55000 30.91800
C  48.85300 19.75500 32.24600
C  48.47200 16.17100 33.84800
C  48.60600 16.48000 35.31500
H  48.55000 17.96500 35.82300
N  49.70400 16.84800 27.95600
C  50.62400 17.45900 28.80500
C  51.86600 17.61400 28.08400
C  51.61600 17.17900 26.69700
C  50.22100 16.75100 26.67700
C  53.18600 17.94200 28.83500
C  52.64200 17.07800 25.64500
O  52.34600 16.79700 24.50200
C  54.08100 17.48600 25.90000
N  47.36200 15.59400 26.53100
C  48.14300 15.94500 25.46500
C  47.42400 15.84200 24.14000
C  46.14200 15.17300 24.53600
C  46.10800 15.27400 26.02400
C  47.21700 17.09800 23.26400
C  46.09400 13.64200 24.12300
C  45.06400 13.29600 23.01800
N  45.88500 15.74600 28.97400
C  44.86700 15.33300 28.14600
C  43.74800 15.01500 28.96300
C  44.07300 15.37600 30.22100
C  45.36600 15.89800 30.15900
C  42.47400 14.26600 28.56000
C  43.54600 15.41900 31.54200
O  42.46600 15.03300 31.95400
C  44.78500 16.04500 32.39300
C  44.41800 17.28900 33.09100
O  44.43300 18.41300 32.59700
O  43.82700 16.90600 34.28000
C  43.27000 18.03700 35.00000
H  51.24300 18.29500 30.67900
H  49.97900 16.52300 24.58200
H  44.18300 14.66200 26.27400
H  47.19400 18.01500 33.38300
H  49.98000 18.05100 32.85100
H  47.97600 20.01700 32.83700
H  48.78800 20.05500 31.20000
H  49.70000 20.22700 32.74400
H  49.42800 15.82500 33.45500
H  47.85300 15.28500 33.70800
H  49.51900 16.13900 35.80300
H  47.80400 15.99400 35.87100
H  53.85600 17.08300 28.83000
H  53.03100 18.21700 29.87900
H  53.66000 18.76500 28.30000
H  54.12800 18.55000 26.13100
H  54.63700 17.40600 24.96600
H  54.53500 16.89600 26.69600
H  48.04200 15.15500 23.56300
H  45.35000 15.73700 24.04300
H  47.89700 17.02400 22.41500
H  47.43000 18.01100 23.82000
H  46.21300 17.28700 22.88300
H  45.99900 12.97700 24.98100
H  47.06500 13.35600 23.71900
H  45.66300 13.10400 22.12900
H  44.38500 14.12400 22.81500
H  44.46600 12.46100 23.38200
H  42.38300 14.33000 27.47600
H  41.52300 14.58300 28.98800
H  42.60900 13.21800 28.82700
H  45.03700 15.25700 33.10200
H  44.01800 18.81100 35.17000
H  42.77000 17.87500 35.95500
H  42.47200 18.44100 34.37700

