158

Mg -2.76200 16.88200 27.01200
C  -2.78200 14.88700 29.80500
C  -3.07400 19.63300 29.22500
C  -2.65300 19.03800 24.36200
C  -2.94700 14.18500 24.95000
N  -3.03500 17.23900 29.23700
C  -2.98200 16.21100 30.17300
C  -3.11800 16.76100 31.59500
C  -3.22000 18.33000 31.32600
C  -3.16100 18.41300 29.86200
C  -4.44100 19.02900 31.96500
C  -1.94200 16.23600 32.54800
C  -1.58600 17.17400 33.65400
H  -0.85700 16.47400 34.79000
N  -2.69600 19.02300 26.85000
C  -2.90500 19.93700 27.85500
C  -2.73900 21.27800 27.28800
C  -2.38500 21.12900 25.88500
C  -2.66200 19.71200 25.59500
C  -2.91200 22.58300 28.12800
C  -1.87900 22.16300 24.87500
O  -1.79500 21.94200 23.65400
C  -1.55500 23.56200 25.42800
N  -2.93100 16.69700 24.98000
C  -2.82900 17.68200 24.06400
C  -2.94000 17.09900 22.58900
C  -2.67300 15.52700 22.88000
C  -2.88400 15.42500 24.42800
C  -4.29900 17.41300 21.89000
C  -1.26100 15.13900 22.44900
C  -0.10500 16.09300 22.99500
N  -2.88500 14.92700 27.18900
C  -2.99700 13.94500 26.33200
C  -3.11100 12.63400 26.97400
C  -2.95700 12.97500 28.35900
C  -2.76500 14.37700 28.39500
C  -3.17400 11.21700 26.37400
C  -2.86400 12.39400 29.65300
O  -2.93600 11.24100 30.04200
C  -2.73400 13.62800 30.65800
C  -1.46800 13.42100 31.51700
O  -0.33400 13.56900 31.13400
O  -1.87900 12.82300 32.71900
C  -0.79900 12.70700 33.69300
H  -3.05900 20.44400 29.95600
H  -2.33900 19.58100 23.46900
H  -2.91100 13.27300 24.35100
H  -4.12300 16.47700 31.90600
H  -2.30400 18.88200 31.53600
H  -3.92400 19.86400 32.43800
H  -4.88500 18.39600 32.73400
H  -5.11000 19.36400 31.17300
H  -0.99200 16.00600 32.06600
H  -2.27700 15.35800 33.10000
H  -2.40800 17.71300 34.12500
H  -0.91500 17.98200 33.36500
H  -3.41000 22.29400 29.05400
H  -3.48000 23.38400 27.65500
H  -1.91900 22.87600 28.46800
H  -1.39200 24.24800 24.59700
H  -0.65600 23.35700 26.00900
H  -2.36800 23.97000 26.02800
H  -2.04300 17.44500 22.07700
H  -3.36000 15.02000 22.20200
H  -4.86600 18.18300 22.41300
H  -4.91600 16.51500 21.90100
H  -4.15500 17.67600 20.84200
H  -1.26800 15.11100 21.36000
H  -0.96900 14.14200 22.78200
H  0.44400 16.45400 22.12500
H  0.51500 15.47200 23.64000
H  -0.41500 17.00700 23.50100
H  -2.19600 11.13500 25.90100
H  -4.00700 11.08800 25.68400
H  -3.41100 10.53000 27.18700
H  -3.57600 13.46600 31.33000
H  -1.19000 13.21900 34.57200
H  0.14500 13.24900 33.63600
H  -0.53200 11.65600 33.80700
Mg 27.51000 50.77200 25.74400
C  25.34200 51.72100 28.44400
C  29.84700 49.83300 28.15200
C  29.60600 50.05700 23.34400
C  25.32700 52.32700 23.55800
N  27.55100 50.70000 28.03400
C  26.56400 51.13700 28.88200
C  26.85100 50.81400 30.35500
C  28.38700 50.32200 30.28200
C  28.67600 50.36400 28.74500
C  29.49800 51.17800 31.03600
C  25.82000 49.78400 30.85400
C  24.90300 50.10900 32.00400
H  24.72200 49.18800 33.25100
N  29.48200 49.98200 25.80100
C  30.26100 49.65200 26.84500
C  31.46600 48.93700 26.36600
C  31.44900 49.08300 24.94300
C  30.13600 49.71600 24.62300
C  32.39500 48.13400 27.19200
C  32.54200 48.78900 23.93500
O  32.39900 49.06200 22.70500
C  33.87100 48.27300 24.37000
N  27.50900 51.28100 23.76100
C  28.44100 50.74100 22.89300
C  28.03600 50.87200 21.40800
C  26.58000 51.33100 21.52900
C  26.45300 51.67500 23.05500
C  28.93200 51.96000 20.80800
C  25.55300 50.33400 21.04400
C  24.23000 50.83600 20.42100
N  25.84000 52.02000 25.97400
C  25.05700 52.51300 24.99400
C  23.98900 53.20500 25.49600
C  23.90300 52.91200 26.85800
C  25.11300 52.16300 27.10600
C  23.03600 53.98200 24.75200
C  23.25700 53.05500 28.17700
O  22.22300 53.60700 28.51500
C  24.15900 52.32300 29.24600
C  24.66900 53.25100 30.26900
O  25.70200 53.95400 30.24700
O  23.68000 53.25300 31.25700
C  23.83900 54.12400 32.43000
H  30.46100 49.29000 28.87400
H  30.13000 49.61100 22.49600
H  24.51500 52.61600 22.88700
H  26.81100 51.75100 30.91000
H  28.51700 49.27400 30.55300
H  30.27400 51.56700 30.37800
H  29.93600 50.54400 31.80700
H  29.01200 51.97200 31.60300
H  26.39900 48.91100 31.15400
H  25.25800 49.45000 29.98200
H  23.89800 50.31200 31.63400
H  25.24000 51.09300 32.33100
H  32.28800 47.05900 27.04600
H  32.25900 48.26500 28.26600
H  33.44000 48.41300 27.05800
H  34.63500 48.95800 24.73800
H  34.26100 47.80500 23.46600
H  33.64400 47.37700 24.94700
H  28.14600 49.89300 20.94200
H  26.37600 52.27500 21.02500
H  28.27600 52.76800 20.48400
H  29.38500 51.58900 19.88900
H  29.76200 52.21800 21.46500
H  25.30600 49.65600 21.86000
H  26.04700 49.75800 20.26000
H  24.19500 50.66300 19.34500
H  24.00000 51.82700 20.81100
H  23.42900 50.19400 20.78800
H  22.36900 53.32200 24.19700
H  23.59500 54.54400 24.00400
H  22.47000 54.56800 25.47600
H  23.45600 51.63000 29.70900
H  23.08800 53.78900 33.14600
H  23.87600 55.20900 32.33600
H  24.76300 53.75000 32.87100

