158

Mg 42.71900 4.22200 47.32400
C  40.99100 7.18400 46.97100
C  39.71500 2.47400 47.06100
C  44.38600 1.15300 47.22900
C  45.74800 5.85500 46.86200
N  40.67000 4.74100 46.91600
C  40.17700 6.04900 46.82200
C  38.69100 6.03700 46.53100
C  38.22200 4.60300 46.92700
C  39.64900 3.86100 46.99900
C  37.44300 4.63400 48.36400
C  38.28900 6.41400 45.05300
C  39.36100 6.13400 43.92500
H  38.91100 6.35800 42.48500
N  42.12300 2.14300 47.18400
C  40.86600 1.67200 47.12200
C  40.82200 0.23800 47.17600
C  42.13600 -0.19300 47.16200
C  43.00900 1.06500 47.21400
C  39.46400 -0.61800 47.32000
C  42.55400 -1.62100 47.08600
O  41.75000 -2.48900 47.17000
C  43.95500 -2.03800 47.07100
N  44.81700 3.53700 47.10900
C  45.19200 2.25900 47.10700
C  46.72300 2.14900 47.03100
C  47.17900 3.64400 46.95800
C  45.82900 4.41100 46.97700
C  47.38300 1.23600 48.08700
C  48.06400 3.85200 45.71800
C  49.51900 4.14500 46.15700
N  43.31700 6.16800 47.07000
C  44.58600 6.70700 46.91400
C  44.41800 8.18500 46.90000
C  43.02500 8.37200 47.00900
C  42.42100 7.12100 47.01800
C  45.55200 9.18500 46.84100
C  41.94500 9.35500 46.96700
O  42.04400 10.58600 46.91200
C  40.60500 8.60200 46.99300
C  39.86800 8.82600 48.25900
O  39.78800 8.05800 49.21300
O  39.20900 10.01800 48.13900
C  38.58000 10.52100 49.36400
H  38.77200 1.92900 47.14000
H  44.93200 0.20800 47.26700
H  46.70200 6.38500 46.83700
H  38.12600 6.72300 47.16200
H  37.70600 4.00700 46.17500
H  37.02100 3.67600 48.66500
H  36.70200 5.42900 48.28400
H  38.18900 4.79600 49.14200
H  37.97300 7.45000 44.93200
H  37.40500 5.84400 44.76500
H  39.75500 5.11700 43.91300
H  40.20100 6.82700 43.95600
H  38.65400 -0.38900 46.62700
H  39.17000 -0.35100 48.33500
H  39.58900 -1.70000 47.31500
H  44.47800 -1.55100 46.24900
H  43.96300 -3.10400 46.84500
H  44.44100 -1.72100 47.99400
H  46.86900 1.76200 46.02300
H  47.68300 3.84100 47.90400
H  46.68800 0.84500 48.83000
H  48.29300 1.62900 48.54100
H  47.79700 0.40500 47.51600
H  47.68300 4.74600 45.22500
H  48.17700 3.03900 45.00100
H  49.59900 5.23200 46.13400
H  50.18900 3.65200 45.45300
H  49.73500 3.93300 47.20400
H  46.06800 9.22500 47.80100
H  45.04400 10.11800 46.59700
H  46.30000 9.03800 46.06200
H  39.99800 9.01400 46.18700
H  37.51800 10.32900 49.20900
H  38.82900 11.56500 49.55500
H  38.87700 9.93200 50.23100
Mg -10.64500 17.03500 42.36100
C  -7.26000 16.03300 42.15600
C  -9.51100 20.19100 41.53000
C  -13.76900 17.80000 41.80600
C  -11.44000 13.58700 42.53300
N  -8.52400 17.98300 41.69600
C  -7.37100 17.35000 41.80000
C  -6.19300 18.34600 41.50400
C  -6.96700 19.71500 41.61900
C  -8.44000 19.30900 41.69500
C  -6.46600 20.57700 42.70900
C  -5.43400 18.17500 40.12900
C  -6.35000 17.64400 39.01100
H  -5.70600 17.76500 37.65900
N  -11.56500 18.83500 41.94200
C  -10.97200 19.97300 41.59100
C  -11.92300 20.96500 41.34300
C  -13.19500 20.31700 41.42200
C  -12.92200 18.87600 41.74200
C  -11.59100 22.40100 40.94100
C  -14.51900 21.04600 41.26500
O  -14.58700 22.21400 41.01500
C  -15.85400 20.29200 41.45800
N  -12.36400 15.83100 42.25100
C  -13.57200 16.46300 42.06700
C  -14.65500 15.49800 42.16700
C  -13.97200 14.11600 42.30300
C  -12.49500 14.49400 42.34000
C  -15.73200 15.82100 43.24000
C  -14.22100 13.16200 41.10900
C  -14.36600 11.68400 41.53000
N  -9.61100 15.21300 42.41600
C  -10.01700 13.90200 42.55400
C  -8.88900 12.97000 42.56900
C  -7.82700 13.84900 42.54300
C  -8.26600 15.16900 42.38400
C  -8.93900 11.49600 42.61000
C  -6.39200 13.77200 42.46300
O  -5.63300 12.80100 42.48800
C  -5.94200 15.22600 42.27100
C  -5.12100 15.69900 43.43800
O  -3.91800 15.89200 43.32000
O  -5.84500 15.92700 44.59900
C  -5.14800 16.59400 45.81900
H  -9.14300 21.18100 41.25100
H  -14.74800 18.18200 41.50700
H  -11.74500 12.54600 42.65500
H  -5.47900 18.26700 42.32300
H  -6.69400 20.29700 40.73900
H  -6.00900 19.95600 43.48000
H  -7.40800 20.95800 43.10200
H  -5.85800 21.42200 42.38700
H  -4.60600 17.49100 40.31200
H  -5.06200 19.12900 39.75600
H  -7.24600 18.26300 39.07300
H  -6.45800 16.58100 39.22800
H  -11.44600 22.47600 39.86300
H  -10.66600 22.69200 41.43900
H  -12.39700 23.06400 41.25300
H  -16.07300 19.62500 40.62400
H  -16.62700 21.05000 41.32800
H  -15.92700 19.83700 42.44600
H  -15.29000 15.48900 41.28100
H  -14.19700 13.63400 43.25400
H  -16.76800 15.76500 42.90700
H  -15.57300 16.88100 43.44200
H  -15.62500 15.19200 44.12400
H  -13.40700 13.14700 40.38300
H  -15.00100 13.56900 40.46500
H  -14.84100 11.49100 42.49200
H  -13.43400 11.12400 41.47000
H  -15.10500 11.19000 40.89900
H  -8.19400 11.09900 41.92000
H  -9.85200 10.96500 42.34300
H  -8.60600 11.15100 43.58900
H  -5.31300 15.34100 41.38800
H  -5.17900 17.68000 45.91200
H  -4.06900 16.48000 45.72200
H  -5.55700 16.19200 46.74600

