158

Mg 9.68400 49.06800 25.53100
C  7.77100 49.41600 28.42600
C  12.49100 49.90600 27.30900
C  11.49100 48.77100 22.63900
C  6.75700 48.42100 23.75700
N  10.04300 49.78200 27.55800
C  9.14500 49.64600 28.59000
C  9.82800 49.97500 29.94700
C  11.18100 50.47200 29.46800
C  11.28700 49.99500 28.04700
C  11.31300 52.02200 29.42900
C  9.79900 48.82300 30.94600
C  10.87500 48.76200 32.04100
H  10.52700 47.75200 33.14400
N  11.72800 49.27900 25.04700
C  12.76900 49.52000 25.97200
C  14.04700 49.43700 25.23900
C  13.71800 49.14700 23.89300
C  12.25100 49.02800 23.77900
C  15.43900 49.59200 25.89700
C  14.77600 48.88900 22.76800
O  14.49100 48.82300 21.57600
C  16.30600 48.75900 23.11300
N  9.22800 48.73500 23.49100
C  10.12700 48.69000 22.48300
C  9.46500 48.05800 21.20800
C  7.93500 48.04100 21.56200
C  7.99100 48.40400 23.01500
C  9.90300 48.69800 19.86100
C  7.27000 46.71300 21.23200
C  7.55500 45.54700 22.20800
N  7.62700 49.03500 25.94100
C  6.56100 48.71500 25.17400
C  5.35100 48.78200 25.89400
C  5.78800 49.04400 27.16700
C  7.14200 49.22700 27.16200
C  4.00100 48.31100 25.37700
C  5.34100 49.09800 28.51200
O  4.23400 48.86200 28.93500
C  6.58000 49.28100 29.47200
C  6.76300 48.02400 30.25000
O  7.45300 47.03300 29.98300
O  5.93700 48.02200 31.33300
C  6.10900 46.93400 32.39100
H  13.43600 50.02600 27.84300
H  12.02300 48.59800 21.70100
H  5.85300 48.23800 23.17200
H  9.37000 50.81500 30.46900
H  12.07800 50.06100 29.93000
H  10.71500 52.37600 28.58900
H  12.32100 52.38000 29.22000
H  11.02500 52.43500 30.39600
H  9.71100 47.92400 30.33600
H  8.92100 48.90500 31.58700
H  11.09900 49.76100 32.41600
H  11.78200 48.41700 31.54500
H  15.94400 48.62800 25.97100
H  15.43400 49.94500 26.92800
H  16.04000 50.34300 25.38500
H  16.54200 47.90100 23.74300
H  16.75000 49.71800 23.38200
H  16.76800 48.33700 22.22100
H  9.67000 46.99700 21.06300
H  7.23000 48.71500 21.07700
H  9.10400 49.30200 19.43200
H  10.29600 47.90000 19.23100
H  10.68600 49.39300 20.16500
H  7.60900 46.38100 20.25100
H  6.23200 46.99600 21.05600
H  8.25600 45.76900 23.01300
H  7.97900 44.65700 21.74300
H  6.57300 45.41500 22.66300
H  3.50700 49.07400 24.77600
H  3.30600 48.09900 26.19000
H  4.15500 47.44400 24.73500
H  6.28800 50.10700 30.12100
H  5.97800 47.38900 33.37300
H  7.18000 46.73800 32.35500
H  5.53800 46.06400 32.06700
Mg -10.43100 16.52400 41.22800
C  -6.89100 16.21900 41.77700
C  -9.88300 19.83100 40.65800
C  -13.62700 16.77600 40.31500
C  -10.59400 13.07300 41.14900
N  -8.58100 17.78800 41.12100
C  -7.27500 17.49300 41.47600
C  -6.39800 18.74800 41.35100
C  -7.45700 19.84000 41.59900
C  -8.71900 19.16400 41.02100
C  -7.60800 20.50600 43.06500
C  -5.79100 18.78300 39.96100
C  -4.33500 18.37900 39.77000
H  -3.97200 17.16300 38.86500
N  -11.67300 18.18600 40.67400
C  -11.24700 19.46500 40.51100
C  -12.38600 20.23200 40.02800
C  -13.50400 19.32900 39.89200
C  -12.98300 18.06000 40.24600
C  -12.39200 21.72700 39.88200
C  -14.96500 19.72100 39.29600
O  -15.14700 20.84800 38.88000
C  -15.99700 18.71900 38.88900
N  -11.92500 15.19300 40.71300
C  -13.19000 15.50700 40.56600
C  -14.08300 14.25800 40.46300
C  -13.12000 13.10900 40.80200
C  -11.78500 13.82900 40.85900
C  -15.33400 14.30200 41.39300
C  -13.28100 11.83000 39.86500
C  -13.70200 10.45600 40.40800
N  -9.05400 14.89100 41.50100
C  -9.24300 13.55200 41.41500
C  -7.99800 12.82700 41.67000
C  -7.08400 13.90100 41.93400
C  -7.76900 15.10200 41.70800
C  -7.84900 11.30600 41.80600
C  -5.68200 14.18400 42.23500
O  -4.77800 13.39000 42.52400
C  -5.50300 15.72600 42.25900
C  -5.04100 16.12800 43.56200
O  -3.90200 16.43300 43.77100
O  -6.01100 16.01800 44.46800
C  -5.74900 16.53900 45.83400
H  -9.69400 20.90000 40.53900
H  -14.68600 16.87100 40.06400
H  -10.79500 12.01600 41.33600
H  -5.55100 18.85000 42.03000
H  -7.13500 20.67400 40.97500
H  -8.37800 19.96600 43.61700
H  -7.79200 21.57600 42.96700
H  -6.76900 20.35300 43.74300
H  -5.82100 19.81500 39.61300
H  -6.32600 18.06600 39.33800
H  -4.00800 18.20700 40.79600
H  -3.86400 19.28600 39.38900
H  -13.26200 22.12500 40.40500
H  -12.54000 21.87500 38.81200
H  -11.45600 22.24200 40.09500
H  -15.60500 17.78700 38.48300
H  -16.74100 19.26900 38.31300
H  -16.42900 18.50500 39.86700
H  -14.39400 14.11300 39.42900
H  -13.22900 12.78000 41.83500
H  -15.20600 15.14200 42.07600
H  -15.57900 13.35900 41.88100
H  -16.20000 14.46500 40.75200
H  -12.31700 11.68700 39.37700
H  -14.10900 11.96200 39.16900
H  -14.70100 10.13400 40.11200
H  -13.77100 10.52400 41.49300
H  -13.01300 9.69500 40.04000
H  -6.90000 11.01500 42.25600
H  -7.82300 10.90200 40.79400
H  -8.69500 10.84900 42.32100
H  -4.64800 15.91300 41.60900
H  -4.71100 16.73900 46.10000
H  -6.23900 15.76700 46.42700
H  -6.26800 17.48200 46.00700

