158

Mg 43.44700 4.19200 47.84700
C  41.41600 6.92100 47.74300
C  40.61900 2.19900 47.63500
C  45.44600 1.63000 47.10900
C  46.25800 6.40400 47.66400
N  41.26900 4.54700 47.51700
C  40.67700 5.77100 47.67800
C  39.19100 5.58600 47.76800
C  39.04700 4.08200 48.00300
C  40.38700 3.55800 47.68300
C  38.51500 3.41100 49.31800
C  38.42800 6.17600 46.54700
C  39.29200 6.15700 45.19700
H  38.45700 6.07700 43.86800
N  43.09800 2.16100 47.43500
C  41.86600 1.53100 47.45700
C  41.99300 0.14800 47.22900
C  43.36900 -0.05200 46.87200
C  44.05900 1.28300 47.12900
C  40.84300 -0.85600 47.14400
C  43.93100 -1.39500 46.42200
O  43.18600 -2.32000 46.22500
C  45.48000 -1.53800 46.06800
N  45.60500 4.05900 47.29600
C  46.17500 2.87100 47.14000
C  47.64500 2.98400 47.24400
C  47.91600 4.53500 47.54000
C  46.52800 5.04400 47.46300
C  48.31300 1.94200 48.11200
C  49.04000 5.12700 46.65500
C  50.44200 5.20200 47.31600
N  43.84000 6.28000 47.81400
C  44.97500 7.03200 47.81100
C  44.66500 8.39400 47.80000
C  43.22500 8.45200 47.78200
C  42.80000 7.13900 47.77100
C  45.58500 9.57500 47.76400
C  42.05400 9.32000 47.71300
O  41.83800 10.53900 47.61800
C  40.79600 8.34700 47.76600
C  40.04600 8.64400 48.98100
O  40.22700 8.13200 50.10800
O  39.11900 9.61200 48.71800
C  37.96700 9.91900 49.58700
H  39.65600 1.68400 47.61700
H  46.11200 0.80200 46.85800
H  47.15600 7.01700 47.76600
H  38.79900 6.03900 48.67900
H  38.38000 3.71000 47.22500
H  38.06500 4.17600 49.95000
H  39.38600 2.93300 49.76800
H  37.70800 2.69700 49.15200
H  38.19200 7.21600 46.77200
H  37.54300 5.57600 46.33700
H  40.06600 5.39000 45.18100
H  39.73000 7.15300 45.13900
H  40.69000 -1.18000 46.11500
H  39.95300 -0.29300 47.42300
H  41.02100 -1.71600 47.78900
H  46.10500 -1.21500 46.90100
H  45.58000 -0.94200 45.16100
H  45.68400 -2.59000 45.86600
H  47.97700 2.79700 46.22300
H  48.02400 4.77800 48.59700
H  48.71900 1.19300 47.43100
H  47.54700 1.49400 48.74400
H  49.14400 2.43200 48.61900
H  48.72800 6.07900 46.22500
H  49.14300 4.48700 45.77800
H  50.64700 6.26400 47.45200
H  51.14900 4.75200 46.61900
H  50.38400 4.80000 48.32800
H  45.09300 10.47900 47.40600
H  46.22300 9.28300 46.92900
H  46.28700 9.73900 48.58100
H  40.19000 8.55300 46.88400
H  38.33700 10.70600 50.24500
H  37.79000 8.99100 50.12900
H  37.09600 10.19100 48.99100
Mg -11.39100 38.36900 41.89700
C  -9.27400 35.69000 40.63400
C  -9.37300 40.47000 40.03000
C  -13.92000 40.50500 41.70200
C  -13.62200 35.77100 43.08600
N  -9.55200 38.07700 40.49900
C  -8.86800 36.98000 40.17300
C  -7.61500 37.32400 39.35100
C  -7.48100 38.85300 39.55700
C  -8.92400 39.18900 40.04900
C  -6.35600 39.32400 40.51800
C  -7.78600 36.85100 37.79000
C  -6.88100 35.70000 37.38500
H  -5.59600 36.01000 36.68600
N  -11.49100 40.30700 41.31800
C  -10.52900 41.00200 40.66000
C  -10.85000 42.43000 40.76800
C  -12.21300 42.44600 41.09400
C  -12.64900 41.03500 41.38200
C  -9.87800 43.44800 40.24900
C  -13.07300 43.77400 41.13200
O  -12.53700 44.86200 40.95400
C  -14.54800 43.73800 41.44100
N  -13.48200 38.21400 42.36700
C  -14.36500 39.25700 42.28700
C  -15.73600 38.93500 42.99900
C  -15.56500 37.42200 43.33400
C  -14.07600 37.06100 42.90700
C  -15.98800 39.78500 44.21300
C  -16.73800 36.43000 42.81300
C  -17.28500 35.44900 43.85900
N  -11.46400 36.21000 41.96200
C  -12.40600 35.29200 42.54700
C  -11.87000 33.96800 42.46900
C  -10.66800 34.08000 41.74400
C  -10.47200 35.43000 41.43100
C  -12.55300 32.78400 43.12500
C  -9.60200 33.30500 41.06800
O  -9.35700 32.12700 41.12800
C  -8.68200 34.32200 40.37600
C  -7.21100 34.25900 40.77700
O  -6.73500 34.90800 41.69900
O  -6.52800 33.27800 40.06400
C  -5.09800 33.08200 40.50100
H  -8.67600 41.14100 39.52300
H  -14.80000 41.15100 41.71700
H  -14.32600 35.07500 43.54700
H  -6.77100 36.80200 39.80300
H  -7.31000 39.16900 38.52800
H  -6.63800 40.28800 40.94300
H  -5.39000 39.38800 40.01700
H  -6.29800 38.59500 41.32600
H  -7.64700 37.66000 37.07400
H  -8.82500 36.56300 37.62500
H  -7.38300 34.99600 36.72200
H  -6.66700 35.11300 38.27800
H  -10.20800 44.37500 40.71900
H  -9.90900 43.47300 39.16000
H  -8.91300 43.16200 40.66600
H  -15.02200 43.09300 40.70000
H  -15.03800 44.70200 41.30300
H  -14.82000 43.25400 42.37900
H  -16.58900 39.01400 42.32500
H  -15.54100 37.23600 44.40800
H  -15.06300 39.98900 44.75200
H  -16.66700 39.33600 44.93700
H  -16.54200 40.70700 44.04000
H  -16.21600 35.86000 42.04500
H  -17.51300 37.02500 42.33000
H  -18.37000 35.54300 43.91000
H  -16.75500 35.66600 44.78700
H  -17.13700 34.43500 43.48800
H  -13.48600 32.47800 42.65200
H  -12.76500 32.90200 44.18800
H  -11.90200 31.92400 42.96900
H  -8.79200 34.20600 39.29800
H  -4.61700 32.24600 39.99300
H  -5.11400 33.06500 41.59100
H  -4.52800 33.93500 40.13200

