158

Mg 1.87300 -1.02000 43.88800
C  5.22100 -0.39000 43.59800
C  1.19800 2.06500 42.39000
C  -1.34500 -1.91600 43.30600
C  2.59300 -4.36600 44.88000
N  3.09300 0.57300 42.89200
C  4.49700 0.69600 42.99600
C  4.95400 1.88900 42.30900
C  3.66400 2.69700 42.13500
C  2.51400 1.73300 42.48300
C  3.57600 4.04600 42.89300
C  5.58800 1.40800 40.90700
C  6.92600 1.93600 40.49000
H  7.17900 2.17100 39.03500
N  0.10600 -0.00500 43.09800
C  0.04800 1.22700 42.61600
C  -1.34000 1.52000 42.24400
C  -2.09300 0.36000 42.44400
C  -1.10100 -0.59700 42.96800
C  -1.79200 2.87200 41.69900
C  -3.49100 0.14600 41.91900
O  -4.13100 1.08600 41.45700
C  -4.23100 -1.12100 42.20800
N  0.82600 -2.96800 44.02900
C  -0.54400 -2.95400 43.85900
C  -1.12700 -4.38200 44.13700
C  0.11200 -5.17300 44.60000
C  1.28100 -4.13300 44.48400
C  -2.24100 -4.41200 45.20300
C  0.55000 -6.44400 43.84500
C  0.48000 -7.73900 44.59800
N  3.57600 -2.18400 44.20500
C  3.66400 -3.46700 44.67600
C  5.09300 -3.72300 44.90600
C  5.69900 -2.53800 44.49600
C  4.77200 -1.65000 44.06300
C  5.72400 -5.02600 45.45000
C  7.09000 -1.89900 44.34900
O  8.18500 -2.27500 44.68100
C  6.78900 -0.47500 43.76600
C  7.39700 0.55800 44.56800
O  7.37500 0.57500 45.74900
O  8.05100 1.47900 43.79700
C  8.63900 2.58700 44.60400
H  1.02200 3.09700 42.07800
H  -2.29900 -2.42500 43.14800
H  2.80800 -5.38200 45.21600
H  5.72800 2.41900 42.86400
H  3.52800 2.92900 41.07900
H  3.63400 4.80800 42.11700
H  4.49900 4.07900 43.47200
H  2.62400 4.15900 43.41100
H  4.95300 1.59500 40.04100
H  5.78400 0.33700 40.87900
H  7.64300 1.20300 40.85900
H  7.15000 2.79500 41.12300
H  -2.25800 2.78800 40.71700
H  -1.04900 3.66700 41.75800
H  -2.66700 3.12200 42.30000
H  -5.30100 -1.01300 42.03300
H  -4.06500 -1.34100 43.26200
H  -3.73700 -1.89300 41.61700
H  -1.48100 -4.76900 43.18100
H  0.02700 -5.37700 45.66700
H  -2.93900 -3.59800 45.00500
H  -1.77900 -4.44500 46.18900
H  -2.72100 -5.38000 45.05800
H  1.56400 -6.36500 43.45200
H  -0.14300 -6.49800 43.00500
H  1.47000 -8.13500 44.37200
H  -0.15800 -8.52100 44.18700
H  0.43900 -7.54800 45.67100
H  6.08400 -5.56700 44.57500
H  5.05700 -5.56200 46.12500
H  6.53900 -4.77700 46.12900
H  7.29600 -0.27800 42.82100
H  9.34500 3.15400 43.99800
H  8.99700 2.39600 45.61600
H  7.82200 3.26300 44.86000
Mg 26.46600 0.88800 29.27200
C  28.34700 0.33900 32.06400
C  23.61700 1.04800 31.30900
C  24.70500 1.36900 26.53000
C  29.26000 -0.11300 27.23400
N  25.96000 0.57700 31.44900
C  27.01600 0.53600 32.35300
C  26.43500 0.58700 33.81900
C  24.91300 0.55200 33.56800
C  24.82300 0.77000 32.04800
C  24.07800 -0.59000 34.11300
C  26.96800 1.78900 34.60200
C  27.57600 1.51900 35.97900
H  27.04400 2.46700 37.01600
N  24.48600 1.12600 28.94100
C  23.46700 1.21200 29.85300
C  22.21100 1.47300 29.21800
C  22.46600 1.49800 27.82900
C  23.95900 1.31800 27.70400
C  20.90400 1.60700 30.01200
C  21.55900 1.63700 26.60200
O  21.86900 1.66300 25.40800
C  20.04300 1.57100 26.82300
N  26.88100 0.56200 27.10400
C  26.01100 1.00100 26.22800
C  26.62300 1.07700 24.84200
C  28.09800 0.62000 25.02000
C  28.12800 0.33400 26.51900
C  25.92000 0.31500 23.73800
C  29.12600 1.68400 24.65400
C  30.38200 1.21400 24.08700
N  28.43600 0.31100 29.58300
C  29.44400 -0.12100 28.71000
C  30.60200 -0.50500 29.42000
C  30.35600 -0.19500 30.79400
C  28.92800 0.17700 30.83300
C  31.76800 -1.14600 28.71000
C  30.78600 -0.22100 32.21800
O  31.81400 -0.58100 32.78800
C  29.47000 0.10500 33.03700
C  29.29400 -1.06700 33.95600
O  28.95500 -2.19900 33.57000
O  29.67600 -0.65000 35.18400
C  29.92100 -1.69400 36.16400
H  22.89300 1.31200 32.08200
H  24.31700 1.81900 25.61400
H  30.02500 -0.48200 26.54700
H  26.63100 -0.41300 34.20400
H  24.52800 1.50900 33.92000
H  23.49400 -0.13500 34.91300
H  24.74800 -1.26800 34.64300
H  23.48400 -1.13500 33.37900
H  26.15100 2.50800 34.66400
H  27.70800 2.29500 33.98400
H  28.65000 1.63500 35.83500
H  27.45200 0.49100 36.31800
H  20.50100 2.51200 29.55800
H  20.91200 1.89100 31.06500
H  20.34200 0.67700 29.92900
H  19.87100 0.74300 27.51100
H  19.55700 1.18700 25.92600
H  19.67000 2.47700 27.30000
H  26.55800 2.15200 24.67500
H  28.27200 -0.30400 24.46800
H  24.98800 -0.18100 24.00800
H  26.63200 -0.24300 23.13000
H  25.57000 1.10600 23.07400
H  29.41000 2.19100 25.57600
H  28.63900 2.48400 24.09600
H  30.22500 0.21900 23.67200
H  31.13500 1.03900 24.85600
H  30.75200 1.86600 23.29600
H  32.64900 -1.06000 29.34500
H  31.89900 -0.69900 27.72400
H  31.65900 -2.20000 28.45200
H  29.55000 1.01700 33.62900
H  29.73400 -2.72800 35.87500
H  29.26600 -1.49900 37.01300
H  30.94400 -1.57200 36.51900

