158

Mg -9.97300 40.25700 42.59400
C  -9.05000 37.03600 41.71600
C  -7.18200 41.53900 41.14900
C  -11.52700 43.13800 42.31800
C  -13.21400 38.78300 43.31500
N  -8.27800 39.30700 41.61600
C  -8.07600 38.02300 41.33000
C  -6.66400 37.78400 40.70200
C  -6.08700 39.25500 40.69300
C  -7.20000 40.10300 41.20400
C  -4.78600 39.41700 41.42700
C  -6.73100 37.20100 39.18900
C  -5.61800 36.24300 38.74600
H  -4.56100 36.67500 37.67400
N  -9.35600 42.08500 42.05700
C  -8.13200 42.43000 41.57100
C  -8.02900 43.86600 41.48600
C  -9.28400 44.40400 41.69500
C  -10.13100 43.19400 42.05100
C  -6.75700 44.54100 40.96700
C  -9.62100 45.88100 41.64500
O  -8.80500 46.72600 41.29600
C  -10.91700 46.51300 42.03900
N  -12.05000 40.88700 42.96500
C  -12.40800 42.13500 42.63400
C  -13.91800 42.43100 42.70300
C  -14.50900 41.03200 43.21300
C  -13.20000 40.18000 43.13300
C  -14.31600 43.53200 43.72600
C  -15.59600 40.45700 42.33700
C  -16.85000 39.90800 43.06200
N  -10.98600 38.25700 42.68500
C  -12.28200 37.83400 42.90800
C  -12.38200 36.34400 42.92600
C  -11.09800 36.03400 42.49500
C  -10.31000 37.17500 42.30800
C  -13.54100 35.48400 43.27300
C  -10.18400 34.95300 42.17800
O  -10.35900 33.74100 42.25800
C  -8.95500 35.56100 41.58100
C  -7.83300 35.01000 42.29200
O  -7.52800 35.24500 43.44700
O  -7.24500 34.18000 41.39800
C  -6.25500 33.34700 41.99700
H  -6.29400 41.84900 40.59500
H  -12.04700 44.07000 42.08700
H  -14.21200 38.49300 43.65000
H  -5.96500 37.15600 41.25500
H  -5.79800 39.60600 39.70300
H  -4.12300 38.57400 41.23100
H  -4.98100 39.46900 42.49800
H  -4.24800 40.26100 40.99500
H  -6.68300 37.99300 38.44200
H  -7.62200 36.63300 38.92000
H  -6.18000 35.38000 38.39000
H  -5.03800 36.04600 39.64700
H  -6.88200 44.72100 39.90000
H  -5.98000 43.78900 41.10300
H  -6.51300 45.46400 41.49400
H  -11.64500 46.07100 41.35900
H  -10.87900 47.58000 41.82000
H  -11.12700 46.32400 43.09200
H  -14.20900 42.64200 41.67400
H  -14.79500 41.07000 44.26400
H  -14.77900 43.02900 44.57500
H  -15.06700 44.21200 43.32200
H  -13.45600 44.10500 44.07100
H  -15.31000 39.65800 41.65400
H  -15.93500 41.33400 41.78600
H  -16.97100 38.84700 42.84200
H  -17.69000 40.49500 42.69000
H  -16.87700 40.13900 44.12700
H  -14.32200 36.04800 43.78200
H  -13.27600 34.63200 43.89900
H  -14.00600 35.11100 42.36000
H  -8.88900 35.24100 40.54200
H  -6.39800 33.00800 43.02300
H  -5.28000 33.78800 41.79400
H  -6.25200 32.45600 41.36800
Mg 0.08700 43.10000 25.90800
C  2.17100 42.57500 28.59200
C  -2.60200 42.05200 28.01900
C  -1.98900 43.33300 23.22800
C  2.79600 43.91400 23.94400
N  -0.16800 42.37400 28.10400
C  0.85600 42.48100 29.02200
C  0.28200 42.37400 30.50600
C  -1.19100 41.91900 30.17700
C  -1.33100 42.19100 28.68900
C  -1.55500 40.45000 30.56400
C  0.53900 43.75600 31.33800
C  0.65300 43.70200 32.85800
H  0.58300 42.35500 33.55500
N  -2.06900 42.79200 25.71900
C  -2.94400 42.41500 26.68600
C  -4.29500 42.50000 26.10100
C  -4.14600 42.79100 24.69100
C  -2.68600 42.98200 24.49600
C  -5.55800 42.22600 26.99700
C  -5.15900 42.89100 23.61500
O  -4.84700 43.09500 22.47900
C  -6.62800 42.86900 23.82300
N  0.39900 43.39700 23.82300
C  -0.63000 43.57000 22.90800
C  -0.08700 44.11500 21.56100
C  1.38700 44.52800 22.00100
C  1.56600 43.88300 23.33000
C  -0.15200 43.06000 20.44700
C  1.55000 46.05800 22.01400
C  0.60400 46.78100 22.90900
N  2.04100 43.16200 26.15100
C  3.06200 43.46200 25.24000
C  4.37600 43.28800 25.87000
C  4.05300 42.92600 27.18500
C  2.61500 42.92100 27.28700
C  5.70400 43.46300 25.27200
C  4.65800 42.52200 28.52800
O  5.81800 42.19900 28.83300
C  3.43000 42.37900 29.53200
C  3.59100 41.04500 30.19900
O  3.07300 40.00300 29.86800
O  4.43600 41.17800 31.25200
C  4.59700 39.98600 32.13200
H  -3.42100 41.81700 28.70200
H  -2.60600 43.63300 22.37800
H  3.63500 44.25600 23.33500
H  0.76200 41.53600 31.01200
H  -1.95200 42.51500 30.68000
H  -1.29800 40.38000 31.62100
H  -0.94800 39.80300 29.93000
H  -2.60900 40.23600 30.38800
H  -0.33900 44.39600 31.24400
H  1.45700 44.19100 30.94300
H  -0.12200 44.34300 33.27800
H  1.63300 44.15800 32.99900
H  -6.41800 41.97600 26.37600
H  -5.76700 43.12900 27.57000
H  -5.16600 41.39000 27.57700
H  -6.96800 43.78400 24.30800
H  -6.96400 42.06200 24.47400
H  -7.28300 42.73200 22.96300
H  -0.66700 45.01300 21.34800
H  2.15600 44.06800 21.38000
H  -0.52100 43.50200 19.52100
H  -0.73200 42.16000 20.64700
H  0.84700 42.85200 20.06300
H  1.57600 46.48400 21.01000
H  2.50000 46.22200 22.52300
H  1.03000 47.24200 23.80100
H  -0.22000 46.11900 23.17300
H  0.17000 47.58600 22.31800
H  6.44600 42.87900 25.81600
H  6.11300 44.46700 25.15800
H  5.41600 43.03000 24.31400
H  3.40500 43.05100 30.39000
H  3.79200 40.02600 32.86600
H  5.51600 40.10200 32.70800
H  4.54000 39.08000 31.52800

