158

Mg -2.06700 17.13300 25.99000
C  -2.50800 14.88300 28.69900
C  -2.35500 19.68800 28.33800
C  -2.44900 19.25000 23.51800
C  -2.31300 14.42900 23.82000
N  -2.63500 17.18900 28.23400
C  -2.39800 16.21500 29.17800
C  -2.41500 16.76200 30.61200
C  -2.61900 18.31300 30.37000
C  -2.54600 18.42700 28.88000
C  -3.91900 18.86900 30.88500
C  -1.25900 16.24700 31.48300
C  -0.34400 17.07900 32.50200
H  -0.02200 16.47400 33.87000
N  -2.12500 19.21100 25.92500
C  -2.23500 20.06300 27.00000
C  -2.15500 21.46100 26.39200
C  -2.32800 21.34400 25.01300
C  -2.27100 19.91300 24.78300
C  -2.10100 22.69500 27.21800
C  -2.33700 22.37700 23.93400
O  -2.36000 22.08300 22.72300
C  -2.23700 23.82800 24.35000
N  -2.21700 16.83500 23.98500
C  -2.32200 17.91200 23.10800
C  -2.24700 17.40900 21.66000
C  -1.93300 15.88000 21.79800
C  -2.19900 15.68200 23.31800
C  -3.45500 17.66200 20.68400
C  -0.53800 15.44500 21.24400
C  -0.32300 15.58000 19.71700
N  -2.37700 15.06100 26.15800
C  -2.48500 14.07700 25.14600
C  -2.68800 12.81200 25.73300
C  -2.67300 13.09100 27.11300
C  -2.47300 14.45900 27.34300
C  -2.99700 11.53200 25.01300
C  -2.83000 12.40000 28.32200
O  -2.93100 11.20500 28.56900
C  -2.77400 13.60500 29.43200
C  -1.61700 13.29600 30.32100
O  -0.41900 13.18600 30.00900
O  -2.20600 12.90900 31.53600
C  -1.29200 12.24500 32.47200
H  -2.34100 20.59900 28.94000
H  -2.57700 19.82800 22.60000
H  -2.39200 13.66600 23.04300
H  -3.31800 16.40600 31.10800
H  -1.82900 18.91300 30.82300
H  -4.29900 18.35000 31.76500
H  -4.62300 18.90200 30.05300
H  -3.75600 19.90900 31.16600
H  -0.57200 15.81800 30.75300
H  -1.71800 15.40700 32.00400
H  -0.86700 18.02500 32.64300
H  0.64900 17.34900 32.14300
H  -1.17700 23.19800 26.93400
H  -1.96100 22.40300 28.25900
H  -3.07200 23.18700 27.15800
H  -2.59400 24.51000 23.57900
H  -1.19400 24.03900 24.58500
H  -2.96600 23.98000 25.14600
H  -1.40400 17.86600 21.14300
H  -2.66100 15.30800 21.22300
H  -3.77600 18.69900 20.58500
H  -4.36600 17.24800 21.11600
H  -3.38500 17.33800 19.64500
H  -0.38300 14.38100 21.42000
H  0.25000 15.91800 21.83000
H  0.71400 15.88500 19.57400
H  -1.08400 16.24500 19.30900
H  -0.36800 14.59500 19.25200
H  -3.15700 10.88900 25.87900
H  -2.23300 11.16700 24.32700
H  -3.79100 11.68500 24.28200
H  -3.73100 13.54500 29.95000
H  -0.64800 11.50600 31.99600
H  -1.91500 11.92700 33.30800
H  -0.59300 13.02000 32.79000
Mg 27.47400 50.69800 26.91100
C  25.47400 51.70400 29.63200
C  30.02400 49.81600 29.03100
C  29.49300 50.01300 24.26100
C  24.92300 51.81700 24.78600
N  27.61400 50.74500 29.05700
C  26.71700 51.01500 30.02200
C  27.15600 50.74700 31.43500
C  28.67000 50.31100 31.21100
C  28.80100 50.21900 29.60600
C  29.69900 51.17200 31.82100
C  26.30800 49.59600 32.01800
C  25.24300 49.96400 33.05600
H  25.15400 49.11000 34.37300
N  29.45100 49.87900 26.66500
C  30.34200 49.62100 27.66600
C  31.60100 49.11300 27.14800
C  31.52900 49.47400 25.72600
C  30.11800 49.89900 25.45800
C  32.72400 48.40600 28.01400
C  32.70400 49.57900 24.75500
O  32.53000 50.06500 23.67300
C  34.08200 49.12700 25.09900
N  27.29200 51.04300 24.82400
C  28.16800 50.45400 23.91400
C  27.59200 50.44700 22.51100
C  26.06000 50.79700 22.75400
C  26.11600 51.35000 24.17500
C  28.33700 51.35100 21.42100
C  25.01900 49.66400 22.56300
C  23.64700 50.01900 21.94500
N  25.58900 51.54000 27.02700
C  24.68600 52.01300 26.11300
C  23.55600 52.63600 26.76100
C  23.83900 52.57400 28.14600
C  25.03500 51.88500 28.26200
C  22.44000 53.44000 26.16400
C  23.29700 52.84600 29.48900
O  22.22600 53.36100 29.75700
C  24.27800 52.33700 30.46500
C  24.78400 53.47500 31.29300
O  25.51600 54.40900 30.84000
O  24.30600 53.38100 32.57300
C  24.76100 54.48400 33.44200
H  30.82400 49.47000 29.68900
H  30.00900 49.77000 23.33000
H  24.09800 51.93900 24.08100
H  27.06600 51.71200 31.93300
H  28.96600 49.31100 31.52600
H  30.74100 50.87800 31.94900
H  29.30600 51.40200 32.81100
H  29.62500 52.12800 31.30300
H  27.00000 48.94900 32.55700
H  25.81800 49.13800 31.15900
H  24.32000 49.87500 32.48300
H  25.37100 51.03200 33.23000
H  32.25400 48.00000 28.90900
H  33.44700 49.15400 28.34000
H  33.12200 47.65600 27.33100
H  34.71600 49.21100 24.21600
H  34.10100 48.07200 25.37300
H  34.56900 49.74000 25.85700
H  27.50000 49.39600 22.23700
H  25.72800 51.64400 22.15300
H  29.15800 51.91800 21.86100
H  27.69800 52.03600 20.86300
H  28.76800 50.76400 20.61000
H  24.90800 49.13200 23.50800
H  25.43500 48.90100 21.90400
H  22.90300 49.32300 22.33200
H  23.74000 49.91500 20.86400
H  23.30900 51.03600 22.14600
H  21.47300 53.08500 26.52100
H  22.38600 53.35000 25.07900
H  22.58400 54.49500 26.39700
H  23.91900 51.53800 31.11300
H  25.83200 54.60900 33.60200
H  24.39400 54.48300 34.46900
H  24.46700 55.45400 33.04200

