158

Mg 8.09600 4.18200 27.60800
C  9.40800 2.50400 30.37700
C  6.37500 6.20300 29.77600
C  6.87300 5.66400 24.95000
C  9.57800 1.61100 25.57600
N  7.72000 4.16600 29.76300
C  8.51500 3.55600 30.71600
C  8.30300 4.07400 32.14800
C  7.24900 5.22100 31.94800
C  7.03300 5.16000 30.42600
C  6.01400 5.26000 32.82900
C  9.65400 4.57600 32.88000
C  9.45500 5.36800 34.21500
H  10.32800 4.92200 35.41400
N  6.80500 5.72400 27.40000
C  6.20300 6.45900 28.41000
C  5.39000 7.46800 27.75500
C  5.61100 7.35400 26.33700
C  6.41100 6.19300 26.16500
C  4.47200 8.42200 28.51000
C  5.06300 8.25800 25.21800
O  5.32700 7.99200 24.04600
C  4.38000 9.61000 25.47200
N  8.02400 3.61200 25.51900
C  7.58100 4.51600 24.58000
C  7.99400 4.10500 23.20200
C  8.82400 2.83000 23.46700
C  8.89000 2.69300 24.99500
C  6.70100 3.78400 22.39500
C  10.24100 2.95000 22.76200
C  10.96100 1.56100 22.56700
N  9.19300 2.44500 27.84100
C  9.74700 1.54200 26.98300
C  10.49300 0.50600 27.67400
C  10.41500 0.92500 29.06200
C  9.63400 2.01800 29.10800
C  11.27900 -0.66100 27.08400
C  10.89800 0.58600 30.42400
O  11.79000 -0.20400 30.76000
C  10.25900 1.73900 31.36100
C  9.52800 1.04600 32.52100
O  8.43100 0.40100 32.64800
O  10.49500 1.09400 33.53700
C  10.18000 0.23500 34.71800
H  5.84800 6.92400 30.40400
H  6.69000 6.20300 24.01700
H  10.13400 0.93800 24.91800
H  7.82700 3.26700 32.70500
H  7.83900 6.13500 32.02200
H  5.77300 6.10000 33.48200
H  6.06600 4.49700 33.60600
H  5.07000 5.28200 32.28400
H  10.27800 5.22300 32.26500
H  10.34400 3.73600 32.96700
H  8.42700 5.40500 34.57800
H  9.69200 6.41700 34.04200
H  4.80800 9.45200 28.38400
H  4.36300 8.13500 29.55600
H  3.46600 8.40100 28.09100
H  3.80900 9.91300 24.59500
H  5.16200 10.26400 25.85800
H  3.62600 9.44700 26.24200
H  8.66200 4.82100 22.72400
H  8.33000 1.92000 23.12800
H  6.57100 4.47000 21.55800
H  5.86500 4.00500 23.05900
H  6.79400 2.76900 22.01100
H  10.88700 3.61800 23.33200
H  10.12700 3.49500 21.82500
H  11.43600 1.52000 21.58600
H  10.25100 0.74800 22.71300
H  11.71400 1.34600 23.32600
H  11.87800 -0.35000 26.22800
H  10.60800 -1.44500 26.73200
H  11.78800 -1.20400 27.88000
H  11.15200 2.30600 31.62300
H  9.21500 -0.26900 34.77700
H  10.19600 0.95900 35.53200
H  11.10400 -0.27500 34.99200
Mg 34.73300 48.63300 26.06400
C  35.52000 46.72400 28.80500
C  33.52700 51.13500 28.26500
C  33.84500 50.43300 23.47400
C  35.84100 46.07800 24.00500
N  34.52500 48.89500 28.26300
C  35.08000 48.01500 29.18000
C  34.92100 48.53100 30.62800
C  34.08100 49.85300 30.44200
C  34.09600 49.96600 28.87500
C  32.62200 49.83700 31.05400
C  36.35100 48.75200 31.33500
C  36.58400 48.45300 32.81500
H  36.18200 49.62700 33.74100
N  33.86000 50.46600 25.90500
C  33.43300 51.34400 26.89300
C  32.96400 52.54100 26.28300
C  33.03400 52.33600 24.86900
C  33.72400 51.07500 24.73500
C  32.44200 53.73100 27.11100
C  32.51200 53.30800 23.74200
O  32.56500 53.01000 22.55600
C  31.88000 54.60300 24.18800
N  34.78300 48.28400 23.99600
C  34.34200 49.20200 23.06600
C  34.47800 48.72900 21.63500
C  35.29400 47.36100 21.88500
C  35.40000 47.24400 23.39000
C  33.08100 48.44000 20.98900
C  36.67300 47.22800 21.14700
C  36.90700 45.84200 20.56400
N  35.42000 46.73900 26.25000
C  35.81400 45.83800 25.37500
C  36.26300 44.62100 26.07100
C  36.26000 45.01600 27.42300
C  35.74100 46.29300 27.52200
C  36.82200 43.35400 25.54200
C  36.59100 44.54800 28.77900
O  37.01000 43.45500 29.15300
C  36.11500 45.61500 29.70900
C  35.18600 45.13900 30.74500
O  33.95900 45.10100 30.66900
O  35.86200 44.86300 31.86200
C  35.09800 44.81800 33.06600
H  33.28700 51.74700 29.13600
H  33.62300 50.98300 22.55700
H  36.29100 45.27300 23.42200
H  34.28700 47.86200 31.20900
H  34.58700 50.70600 30.89300
H  31.84300 50.41900 30.56200
H  32.80200 50.24100 32.05000
H  32.28000 48.80400 31.12000
H  36.60000 49.78900 31.11000
H  37.15900 48.15200 30.91500
H  37.64700 48.42900 33.05500
H  35.99800 47.58700 33.12100
H  32.89200 54.65100 26.74000
H  32.80200 53.80800 28.13700
H  31.35400 53.78700 27.13100
H  32.71200 55.19600 24.56800
H  31.20000 54.42300 25.02000
H  31.34200 55.13200 23.40100
H  35.08300 49.54400 21.23600
H  34.71500 46.44200 21.80600
H  32.83200 47.38900 20.84000
H  33.10500 48.87200 19.98900
H  32.30000 48.91800 21.58100
H  37.43400 47.39000 21.91000
H  36.68600 47.94200 20.32400
H  37.94200 45.66100 20.27500
H  36.19100 45.79100 19.74400
H  36.69600 45.04600 21.27800
H  36.22200 42.52300 25.91200
H  37.89700 43.29400 25.71400
H  36.76800 43.36200 24.45300
H  36.97800 46.01900 30.23800
H  34.53100 45.74900 33.05300
H  35.75000 44.66500 33.92600
H  34.46900 43.92800 33.08200

