158

Mg 47.48800 25.32500 28.21700
C  48.96300 27.22800 30.70900
C  46.14500 23.35400 30.62000
C  46.83700 23.00100 25.87000
C  48.86000 27.39800 25.85500
N  47.51400 25.37400 30.40700
C  48.21400 26.18600 31.17300
C  47.88500 25.89100 32.68400
C  47.08900 24.56400 32.64500
C  46.90500 24.44100 31.13500
C  47.92700 23.34200 33.12100
C  47.10600 27.04100 33.44200
C  47.58000 27.06800 34.91600
H  46.61300 27.54700 36.02400
N  46.62200 23.48100 28.26800
C  45.99100 22.85100 29.30300
C  45.39200 21.57400 28.85700
C  45.73200 21.49100 27.47500
C  46.44100 22.67500 27.11800
C  44.71400 20.58700 29.87400
C  45.45500 20.19400 26.58800
O  45.89400 20.19000 25.43800
C  44.56800 19.04800 27.03900
N  47.88200 25.17100 26.18700
C  47.50400 24.12800 25.36000
C  47.89400 24.32000 23.91800
C  48.26900 25.86100 23.92900
C  48.32400 26.15600 25.43900
C  49.04600 23.32400 23.47300
C  47.32900 26.71100 23.03000
C  47.84500 26.85100 21.57500
N  48.66000 27.13000 28.21900
C  49.07400 27.86900 27.18300
C  49.73800 29.03900 27.65400
C  49.87700 28.81000 29.08900
C  49.08700 27.61300 29.39800
C  50.28500 30.23300 26.93200
C  50.44300 29.26600 30.35700
O  51.07300 30.26300 30.61800
C  49.83000 28.31400 31.49500
C  50.96700 27.78400 32.22000
O  51.90100 27.22500 31.68700
O  50.87300 28.03200 33.56700
C  52.04400 27.66900 34.37100
H  45.73000 22.64300 31.33700
H  46.82300 22.27600 25.05300
H  49.18000 28.07700 25.06300
H  48.85200 25.79500 33.17700
H  46.15400 24.56700 33.20400
H  48.72400 23.65700 33.79400
H  48.43600 22.76200 32.35100
H  47.39700 22.51800 33.59800
H  46.08600 26.66200 33.37300
H  47.34000 27.98800 32.95600
H  48.49500 27.65400 35.00600
H  47.86600 26.03000 35.08200
H  43.84900 20.08400 29.44300
H  44.42600 21.08300 30.80100
H  45.38400 19.76700 30.13300
H  45.08200 18.48600 27.81800
H  44.38900 18.39800 26.18200
H  43.55800 19.40800 27.23900
H  47.09900 24.18800 23.18400
H  49.28700 25.93600 23.54600
H  49.07800 23.02800 22.42400
H  49.04200 22.46900 24.14900
H  50.03400 23.76100 23.62200
H  47.31300 27.70500 23.47700
H  46.35900 26.21500 23.01600
H  47.03700 26.63100 20.87700
H  48.72700 26.24600 21.36600
H  48.13900 27.88700 21.40500
H  51.22300 29.93300 26.46400
H  50.46900 30.99500 27.69000
H  49.51600 30.65000 26.28100
H  49.18000 29.04100 31.98100
H  52.70600 26.92600 33.92700
H  51.59700 27.24600 35.27000
H  52.63800 28.58100 34.43200
Mg 36.08200 49.66300 25.81700
C  36.01100 47.67700 28.71800
C  34.43300 52.11400 27.31300
C  35.53100 51.07400 22.76600
C  37.73500 46.95300 24.24400
N  35.33000 49.83100 27.77900
C  35.52700 48.97700 28.87900
C  34.97700 49.68100 30.20900
C  34.42100 51.00400 29.66200
C  34.68500 50.95300 28.10100
C  32.89300 51.20300 29.92100
C  36.20200 49.87800 31.19300
C  36.00200 49.41300 32.65200
H  34.57000 49.20800 33.14700
N  35.26200 51.48800 25.14600
C  34.60500 52.37700 25.95000
C  34.13400 53.51100 25.09800
C  34.54100 53.24700 23.78100
C  35.14600 51.92000 23.82400
C  33.31300 54.64200 25.61800
C  34.55600 54.09800 22.55300
O  35.12700 53.78300 21.51600
C  33.85600 55.41700 22.59000
N  36.57700 49.08700 23.83900
C  36.27200 49.89500 22.78100
C  36.93400 49.42800 21.50400
C  37.73800 48.10900 21.90900
C  37.35800 48.07300 23.47500
C  36.05300 49.16200 20.23600
C  39.24500 48.11700 21.56600
C  40.17100 49.18100 22.13800
N  36.73200 47.75500 26.26400
C  37.39200 46.76400 25.52800
C  37.55200 45.57400 26.33800
C  37.06800 45.89500 27.61000
C  36.58500 47.20900 27.51400
C  38.14900 44.35400 25.85200
C  36.79400 45.34700 28.92300
O  36.91700 44.21200 29.32200
C  36.25700 46.54000 29.78000
C  35.06200 46.16600 30.60800
O  33.89700 46.41300 30.36300
O  35.47500 45.66200 31.80300
C  34.56200 45.23200 32.80700
H  33.90900 52.88200 27.88700
H  35.21000 51.52900 21.82700
H  38.31800 46.15100 23.78600
H  34.20500 49.03400 30.62500
H  34.90100 51.87300 30.11200
H  32.66600 52.08700 30.51700
H  32.38100 50.35500 30.37700
H  32.24100 51.27400 29.05100
H  36.42600 50.93800 31.07400
H  37.08300 49.32800 30.86400
H  36.49100 50.11500 33.32700
H  36.45100 48.42300 32.73900
H  33.05800 54.40100 26.65000
H  32.33400 54.86100 25.19100
H  33.85500 55.58800 25.61400
H  34.40000 55.98100 23.34800
H  32.78600 55.37000 22.79100
H  33.90700 56.01700 21.68100
H  37.74300 50.15600 21.44000
H  37.20200 47.28300 21.44200
H  36.28400 48.20300 19.77400
H  36.18100 49.91100 19.45500
H  34.98900 49.13700 20.47400
H  39.30300 48.28900 20.49100
H  39.55700 47.07600 21.65000
H  40.45000 49.73200 21.24000
H  41.03700 48.69200 22.58600
H  39.65600 49.80200 22.87100
H  37.41400 43.78600 25.28300
H  38.61000 43.76500 26.64500
H  38.99700 44.58300 25.20600
H  37.05100 46.86900 30.45000
H  33.54300 45.28800 32.42300
H  34.68600 45.90200 33.65800
H  34.79200 44.21900 33.13600

