158

Mg -10.97800 16.56000 40.99200
C  -7.53900 15.68000 40.93600
C  -10.04900 19.79000 40.46700
C  -14.21900 17.20600 40.35900
C  -11.71700 13.09000 40.99600
N  -8.96100 17.66300 40.87100
C  -7.72300 17.04000 40.90600
C  -6.64000 18.10200 40.74200
C  -7.42800 19.49300 40.91100
C  -8.89400 18.96200 40.72000
C  -7.28600 20.15600 42.23300
C  -5.85900 17.91400 39.48200
C  -4.35000 17.76700 39.48500
H  -3.83000 16.56500 38.68300
N  -11.99100 18.29400 40.55800
C  -11.41300 19.52900 40.43100
C  -12.51200 20.42200 40.10300
C  -13.78100 19.72100 40.14300
C  -13.39000 18.32000 40.31600
C  -12.19200 21.84700 39.91400
C  -15.16400 20.32200 40.01500
O  -15.26600 21.50900 39.92200
C  -16.43800 19.56100 40.13800
N  -12.69700 15.33200 40.63900
C  -13.91200 15.87500 40.48200
C  -14.97500 14.86400 40.45800
C  -14.24100 13.48100 40.66200
C  -12.77500 13.97700 40.73900
C  -16.16700 15.09300 41.38700
C  -14.45100 12.47600 39.48100
C  -14.81500 10.93900 39.65800
N  -9.90200 14.73700 41.03400
C  -10.35900 13.41100 41.07900
C  -9.25700 12.48200 41.19000
C  -8.13100 13.27400 41.09900
C  -8.53900 14.67900 40.92800
C  -9.36900 10.99100 41.27800
C  -6.73500 13.28900 41.09300
O  -5.96100 12.36900 41.17300
C  -6.30000 14.84700 41.07600
C  -5.62100 14.98300 42.32400
O  -6.15700 15.48900 43.33200
O  -4.25900 14.62400 42.26100
C  -3.53300 14.61900 43.49800
H  -9.87400 20.85200 40.28500
H  -15.30800 17.27300 40.33900
H  -12.02700 12.04600 41.07400
H  -5.97800 17.96100 41.59600
H  -7.04900 20.23000 40.20300
H  -6.80100 19.54600 42.99600
H  -8.13300 20.66600 42.69300
H  -6.64700 21.01900 42.04600
H  -6.02500 18.79300 38.85900
H  -6.27000 17.03900 38.97800
H  -4.03000 17.74900 40.52700
H  -3.86900 18.60100 38.97300
H  -11.66100 21.96300 38.97000
H  -11.41300 22.08600 40.63900
H  -12.95700 22.62400 39.93100
H  -16.48200 19.07800 39.16200
H  -17.34800 20.15800 40.19100
H  -16.50900 18.83800 40.95100
H  -15.41600 14.93100 39.46300
H  -14.52800 13.09000 41.63800
H  -16.46000 14.20500 41.94800
H  -16.95300 15.57600 40.80600
H  -15.87700 15.81700 42.14800
H  -13.47500 12.46100 38.99700
H  -15.16600 12.84200 38.74400
H  -15.11200 10.73800 40.68800
H  -13.98700 10.26000 39.45400
H  -15.61100 10.66200 38.96600
H  -10.26400 10.68900 41.82200
H  -8.52700 10.61000 41.85500
H  -9.31800 10.57300 40.27200
H  -5.63500 14.91300 40.21400
H  -3.27200 15.65700 43.70500
H  -2.65800 14.01900 43.24700
H  -4.02700 14.10800 44.32400
Mg -4.58400 25.30900 26.06900
C  -3.49400 26.54200 29.12100
C  -6.78300 23.25200 27.71600
C  -5.54800 24.23600 23.01100
C  -2.23600 27.34200 24.46900
N  -5.02300 24.85400 28.27100
C  -4.46900 25.53800 29.30900
C  -5.14700 25.08800 30.67100
C  -6.13300 23.95900 30.14900
C  -5.90800 23.90600 28.65100
C  -6.14600 22.63400 30.95800
C  -5.88600 26.23600 31.38900
C  -5.50100 26.35500 32.86000
H  -4.97700 25.18900 33.69900
N  -5.94400 23.91200 25.50800
C  -6.78800 23.26800 26.29800
C  -7.80600 22.62800 25.48700
C  -7.42500 22.82600 24.09600
C  -6.25400 23.68500 24.18200
C  -9.12200 21.96500 26.06700
C  -8.13700 22.30300 22.85900
O  -7.71800 22.55600 21.73100
C  -9.45100 21.65300 23.01900
N  -3.90400 25.68600 24.06100
C  -4.52500 25.14700 22.91900
C  -3.85800 25.44700 21.56100
C  -2.76600 26.51000 22.09400
C  -2.98800 26.57100 23.66800
C  -3.31300 24.16500 20.72000
C  -2.78000 27.86300 21.27100
C  -1.46000 28.43500 20.63700
N  -3.12800 26.68500 26.65900
C  -2.27000 27.37400 25.88600
C  -1.48700 28.21100 26.72200
C  -1.87000 27.92400 28.03600
C  -2.87000 26.95100 27.96300
C  -0.54200 29.29300 26.24600
C  -1.73500 28.29500 29.40200
O  -1.09500 29.18500 29.93500
C  -2.71500 27.31600 30.17700
C  -1.68800 26.58400 31.03200
O  -1.07500 25.67200 30.54900
O  -1.61200 27.10300 32.29800
C  -0.67400 26.33800 33.19700
H  -7.49400 22.58800 28.21100
H  -5.74400 23.79600 22.03100
H  -1.41200 27.86900 23.98200
H  -4.29000 24.72000 31.23500
H  -7.11800 24.33100 30.43100
H  -5.28400 22.52500 31.61600
H  -6.16000 21.76100 30.30500
H  -7.00800 22.39700 31.58000
H  -6.97600 26.21600 31.37000
H  -5.64300 27.17100 30.88600
H  -6.33300 26.75100 33.44100
H  -4.71400 27.10500 32.77700
H  -9.02200 20.88000 26.05000
H  -10.05600 22.28800 25.60600
H  -9.21800 22.25700 27.11300
H  -9.65100 21.29300 22.01000
H  -10.29000 22.28100 23.31800
H  -9.28600 20.78000 23.65100
H  -4.58800 26.03600 21.00700
H  -1.79200 26.04100 21.95500
H  -4.05200 23.65800 20.09800
H  -2.92700 23.35900 21.34400
H  -2.43100 24.50800 20.18000
H  -3.18100 28.58800 21.97900
H  -3.53400 27.91700 20.48500
H  -1.14700 29.34500 21.14900
H  -1.75000 28.67900 19.61500
H  -0.68900 27.66400 20.62500
H  -1.16400 30.18800 26.28100
H  -0.15900 29.14000 25.23700
H  0.27400 29.31300 26.96900
H  -3.26800 27.99600 30.82600
H  -0.58900 25.29000 32.90800
H  -1.07800 26.41200 34.20700
H  0.29700 26.81900 33.08000

