158

Mg 25.98000 -0.21700 29.52800
C  27.73400 -0.64300 32.60300
C  23.14800 0.18000 31.28500
C  24.43400 -0.24100 26.55300
C  28.96100 -1.04900 27.91500
N  25.56700 -0.24200 31.71800
C  26.39100 -0.35000 32.82800
C  25.65400 -0.05000 34.14200
C  24.14400 0.09200 33.66100
C  24.24900 -0.00700 32.09900
C  23.14200 -0.86700 34.32700
C  26.22600 1.25900 34.90900
C  26.89100 1.05700 36.28500
H  26.38500 1.93800 37.41900
N  24.07400 -0.02700 29.00300
C  23.00700 0.02100 29.86400
C  21.81100 0.01500 29.10700
C  22.13700 0.14600 27.70800
C  23.60100 -0.09200 27.64500
C  20.46800 -0.11200 29.73400
C  21.25400 0.49500 26.47800
O  21.69600 0.77700 25.36400
C  19.72100 0.52500 26.63400
N  26.64300 -0.42400 27.48400
C  25.77700 -0.46600 26.46500
C  26.46000 -0.79300 25.14000
C  27.96500 -0.77000 25.54100
C  27.94400 -0.69100 27.02800
C  25.97300 -1.99200 24.41800
C  28.76500 0.46400 25.03400
C  28.92400 0.74000 23.47500
N  27.98000 -0.81600 30.07200
C  29.06400 -1.07600 29.29000
C  30.22500 -1.38500 30.11800
C  29.77300 -1.15400 31.37900
C  28.35200 -0.84900 31.36000
C  31.55800 -1.89400 29.58100
C  30.14600 -1.08200 32.80300
O  31.23600 -1.10400 33.41000
C  28.85800 -0.82100 33.61700
C  28.51900 -1.99400 34.47800
O  27.69800 -2.89000 34.26900
O  29.10700 -1.79500 35.66900
C  28.66600 -2.70400 36.76000
H  22.17900 0.41500 31.73000
H  23.90200 -0.34500 25.60500
H  29.92900 -0.93200 27.42300
H  25.71100 -0.94300 34.76400
H  23.79000 1.04500 34.05700
H  22.34300 -1.16900 33.64900
H  22.72900 -0.32900 35.18000
H  23.59400 -1.82500 34.58400
H  25.46900 2.03800 34.99400
H  26.89400 1.80600 34.24400
H  27.97500 1.16800 36.25100
H  26.83400 -0.00900 36.50200
H  19.93300 -0.87900 29.17400
H  19.95900 0.84400 29.85800
H  20.62100 -0.46900 30.75300
H  19.16100 1.11200 25.90600
H  19.63900 0.99600 27.61400
H  19.32200 -0.48800 26.59600
H  26.20500 0.13000 24.61900
H  28.43400 -1.72100 25.29000
H  26.75500 -2.71000 24.17000
H  25.43900 -1.68400 23.51900
H  25.18700 -2.40000 25.05300
H  29.75800 0.19200 25.39300
H  28.20700 1.30200 25.45300
H  28.68800 1.79500 23.33700
H  28.20800 0.06800 23.00100
H  29.93400 0.59200 23.09100
H  32.30300 -1.61400 30.32500
H  31.78200 -1.41200 28.62900
H  31.50300 -2.98000 29.50500
H  28.91900 0.10900 34.18400
H  29.38600 -3.50500 36.92500
H  27.71300 -3.19100 36.55100
H  28.52400 -2.02500 37.60100
Mg 8.61300 47.78200 25.80000
C  6.39500 47.65200 28.49100
C  11.08600 48.90200 27.94900
C  10.71300 47.83700 23.23200
C  5.89600 47.36900 23.69100
N  8.63500 48.37500 27.90300
C  7.68600 48.07500 28.86200
C  8.16800 48.38600 30.25600
C  9.51200 49.16100 29.96800
C  9.77000 48.81800 28.56000
C  9.50500 50.70300 30.17100
C  8.11100 47.18700 31.26500
C  9.11000 47.18300 32.43000
H  8.69100 46.56000 33.77500
N  10.65600 48.01800 25.68000
C  11.53000 48.48800 26.64200
C  12.83100 48.41700 26.05500
C  12.77300 48.02200 24.73200
C  11.35100 47.96000 24.47100
C  14.04200 48.73300 26.89400
C  13.86600 47.79100 23.62000
O  13.68400 47.51900 22.45200
C  15.34100 47.81900 24.02300
N  8.30100 47.76700 23.75700
C  9.36100 47.75500 22.88200
C  8.89200 47.70100 21.43000
C  7.33800 47.58700 21.56400
C  7.14100 47.55100 23.10100
C  9.38900 48.87800 20.60500
C  6.66900 46.37100 20.86700
C  5.75700 46.61300 19.64600
N  6.57200 47.58400 25.95700
C  5.58700 47.38100 25.02800
C  4.28800 47.14100 25.66900
C  4.62500 47.21900 27.03500
C  6.00600 47.52100 27.16900
C  2.93300 46.97300 25.08400
C  3.94500 47.14700 28.34400
O  2.74800 46.93400 28.53000
C  5.11000 47.42500 29.35500
C  5.05100 46.36000 30.37700
O  5.62500 45.32200 30.38800
O  4.17700 46.75800 31.39000
C  4.42300 46.28300 32.75400
H  11.85100 49.15300 28.68700
H  11.39100 47.97700 22.38700
H  5.08100 47.25800 22.97300
H  7.49000 49.17600 30.57900
H  10.39400 48.75900 30.46500
H  9.20700 51.05600 29.18400
H  10.42800 51.13400 30.56100
H  8.83600 50.95400 30.99400
H  8.05300 46.24400 30.72200
H  7.17000 47.41000 31.76800
H  9.42600 48.22300 32.50900
H  9.96400 46.57700 32.12700
H  14.68700 49.39500 26.31600
H  14.64000 47.85100 27.12400
H  13.76900 49.17800 27.85100
H  15.47800 46.93500 24.64600
H  15.62100 48.72100 24.56600
H  16.08800 47.64900 23.24800
H  9.34300 46.81100 20.99200
H  6.73900 48.47600 21.36600
H  9.71800 48.40600 19.68000
H  10.10300 49.52100 21.12000
H  8.49000 49.42500 20.32000
H  6.17300 45.81100 21.66000
H  7.49800 45.71400 20.60200
H  6.05500 45.89100 18.88500
H  5.84500 47.62300 19.24600
H  4.73100 46.44200 19.97300
H  3.08000 46.53400 24.09800
H  2.54600 47.98700 24.98000
H  2.43700 46.23300 25.71200
H  4.92300 48.38500 29.83700
H  3.65900 45.59100 33.11000
H  4.57300 47.06900 33.49500
H  5.36500 45.73900 32.82700

