158

Mg 40.88300 9.10900 29.94600
C  42.40400 10.30100 32.78100
C  38.17900 8.19000 31.94400
C  39.34500 7.87600 27.22500
C  43.61500 9.99000 28.12800
N  40.43500 9.06500 32.13600
C  41.07900 9.83200 33.05800
C  40.27800 9.89900 34.39300
C  39.03400 8.97100 34.12500
C  39.22100 8.65800 32.69700
C  38.83500 7.73900 35.12400
C  40.04300 11.32700 34.86900
C  39.80700 11.46400 36.40200
H  40.94700 12.04000 37.29100
N  39.02100 8.07300 29.66500
C  38.05600 7.84500 30.52700
C  36.91400 7.09500 29.88700
C  37.22200 7.00700 28.48000
C  38.56600 7.68400 28.36400
C  35.71500 6.45500 30.60600
C  36.38700 6.51100 27.34900
O  36.79000 6.49800 26.19300
C  35.02900 6.13000 27.71000
N  41.48400 8.94500 28.01900
C  40.64600 8.37000 27.06900
C  41.41200 8.25500 25.70500
C  42.60700 9.27000 25.91800
C  42.52400 9.47000 27.43800
C  41.78600 6.79500 25.33700
C  42.50400 10.65700 25.17100
C  41.14000 11.49300 25.30200
N  42.66900 9.98900 30.36600
C  43.70500 10.29900 29.48600
C  44.72600 10.94200 30.20100
C  44.26300 10.94700 31.55300
C  43.02600 10.33100 31.55900
C  45.91600 11.51500 29.58000
C  44.52900 11.48400 32.93200
O  45.39900 12.17700 33.37500
C  43.33800 10.95300 33.78500
C  43.68700 10.00600 34.78400
O  43.64200 8.77500 34.68200
O  44.02800 10.65000 35.91300
C  44.51200 9.76700 37.03200
H  37.18500 8.06500 32.37700
H  38.97000 7.51500 26.26500
H  44.55900 10.21300 27.62500
H  40.74800 9.32300 35.19100
H  38.12400 9.53900 34.31500
H  39.20500 7.97400 36.12300
H  39.42800 6.88700 34.79200
H  37.76500 7.55000 35.20900
H  39.08100 11.55100 34.40700
H  40.66300 12.11600 34.44400
H  39.56400 10.46300 36.75900
H  38.87500 12.01800 36.51900
H  34.78100 6.97800 30.39700
H  35.84100 6.51100 31.68700
H  35.63500 5.39200 30.37900
H  34.45800 5.73600 26.86900
H  34.59500 7.05100 28.10100
H  35.19700 5.26800 28.35500
H  40.85000 8.59600 24.83500
H  43.53600 8.70900 25.81900
H  41.21800 6.07300 25.92300
H  42.82900 6.75800 25.65000
H  41.54800 6.45500 24.32900
H  42.52500 10.49200 24.09400
H  43.33200 11.30700 25.45400
H  40.61700 11.77300 24.38800
H  41.19100 12.47400 25.77300
H  40.36700 11.01100 25.90000
H  45.85400 12.60300 29.61200
H  46.19700 11.00600 28.65800
H  46.71500 11.16600 30.23500
H  42.92800 11.84200 34.26400
H  44.91300 8.80000 36.73000
H  43.63000 9.61500 37.65400
H  45.26700 10.31500 37.59700
Mg -9.43500 39.65000 41.64400
C  -8.35400 36.24700 41.32100
C  -6.28200 40.57000 40.39400
C  -10.74300 42.60700 40.88600
C  -12.76300 38.34200 42.15700
N  -7.53300 38.54200 40.98400
C  -7.35300 37.17300 40.92300
C  -5.98500 36.87700 40.39700
C  -5.24700 38.30800 40.44700
C  -6.43200 39.21700 40.63100
C  -4.07800 38.52300 41.48000
C  -6.15100 36.26700 38.96800
C  -5.71500 34.77300 38.85800
H  -4.98600 34.35600 37.56300
N  -8.57900 41.36900 40.80700
C  -7.32500 41.54400 40.40600
C  -7.25400 42.92200 39.82500
C  -8.47900 43.57900 40.13500
C  -9.29900 42.50500 40.64000
C  -6.10000 43.55000 39.18800
C  -8.86100 45.07500 39.86400
O  -8.12100 45.81300 39.16000
C  -10.15600 45.69200 40.22500
N  -11.45400 40.37000 41.47800
C  -11.69600 41.65000 41.31900
C  -13.21300 42.07800 41.73800
C  -13.77000 40.63200 42.01900
C  -12.60800 39.71400 41.89300
C  -13.27400 43.07600 42.93800
C  -15.05900 40.21300 41.18800
C  -16.35500 40.00900 42.00300
N  -10.44400 37.70900 41.79100
C  -11.76200 37.34600 42.00500
C  -11.84800 35.98500 42.04200
C  -10.56300 35.48000 41.85400
C  -9.68100 36.56700 41.63600
C  -13.15200 35.29100 42.21900
C  -9.74200 34.28900 41.76300
O  -10.06900 33.14100 41.88400
C  -8.29200 34.72400 41.38000
C  -7.30000 34.26800 42.45200
O  -6.94300 34.81800 43.46100
O  -6.75600 33.15500 41.91600
C  -5.54000 32.63400 42.65500
H  -5.23900 40.81700 40.18100
H  -11.10300 43.63600 40.81700
H  -13.77300 38.13200 42.51400
H  -5.51600 36.10800 41.01000
H  -4.89500 38.53700 39.44100
H  -4.17000 39.25800 42.28000
H  -3.39500 39.04500 40.81000
H  -3.71800 37.57300 41.87500
H  -5.42000 36.74200 38.31400
H  -7.17300 36.48600 38.65900
H  -6.65500 34.24500 38.70100
H  -5.26900 34.43100 39.79200
H  -6.27700 43.91300 38.17500
H  -5.33100 42.77900 39.14000
H  -5.63800 44.31700 39.81000
H  -10.44700 45.43700 41.24400
H  -10.87200 45.31400 39.49600
H  -10.09100 46.78000 40.23100
H  -13.57300 42.50800 40.80400
H  -13.97000 40.61500 43.09100
H  -12.24700 43.33100 43.19800
H  -13.73700 42.70500 43.85200
H  -13.88400 43.92700 42.63300
H  -14.84000 39.30100 40.63300
H  -15.32100 41.07000 40.56900
H  -16.25900 40.12900 43.08200
H  -16.66800 38.96900 41.91000
H  -17.03100 40.73700 41.55500
H  -13.40800 34.98600 41.20400
H  -14.00700 35.82900 42.62800
H  -13.14600 34.45200 42.91500
H  -8.02500 34.19400 40.46600
H  -4.84500 32.14700 41.97100
H  -5.86800 31.92700 43.41700
H  -5.05800 33.44700 43.19800

