158

Mg 26.33900 0.14800 29.02200
C  27.92700 0.01200 32.24600
C  23.24300 0.14200 30.74100
C  24.69500 0.11300 26.14800
C  29.34200 -0.66000 27.63500
N  25.71200 -0.01700 31.21500
C  26.50500 0.19100 32.30200
C  25.72700 0.61700 33.54900
C  24.29900 0.50400 33.05900
C  24.41700 0.11900 31.58900
C  23.47200 -0.57800 33.79400
C  26.10500 2.00000 34.16100
C  25.40300 2.40000 35.50500
H  26.32300 2.62800 36.67900
N  24.27500 0.29600 28.52800
C  23.19500 0.21400 29.36900
C  21.95900 0.23200 28.60200
C  22.31600 0.40000 27.25200
C  23.80500 0.31000 27.22400
C  20.62700 0.09600 29.28200
C  21.53000 0.64400 26.00100
O  22.00700 0.75600 24.84400
C  20.09500 0.64300 26.03300
N  26.99200 -0.22400 27.24200
C  26.09800 -0.16400 26.17600
C  26.88900 -0.31900 24.86100
C  28.38000 -0.38500 25.34400
C  28.25800 -0.37300 26.85300
C  26.56600 -1.43300 23.80900
C  29.28200 0.77500 24.87300
C  29.98100 0.54600 23.53000
N  28.25400 -0.18500 29.69200
C  29.36500 -0.50500 28.98200
C  30.55400 -0.47600 29.80200
C  29.97900 -0.25600 31.13800
C  28.66300 -0.10400 31.00600
C  31.93300 -0.79700 29.48400
C  30.36500 -0.06600 32.52500
O  31.47600 -0.29600 33.07500
C  28.99600 0.19200 33.23100
C  28.96500 -0.66000 34.35700
O  28.97200 -1.87600 34.34400
O  28.89400 0.07700 35.52400
C  28.63700 -0.69800 36.75200
H  22.35100 0.10600 31.37000
H  24.31700 0.23900 25.13100
H  30.27900 -0.97100 27.16900
H  25.92000 -0.18100 34.26500
H  23.74600 1.43700 33.16700
H  22.70400 -0.06500 34.37100
H  24.02700 -1.08600 34.58300
H  23.04800 -1.23400 33.03400
H  25.87200 2.73700 33.39200
H  27.17200 1.98100 34.38300
H  24.64800 1.68400 35.83100
H  24.83400 3.30400 35.28400
H  20.25500 1.12000 29.24100
H  20.70900 -0.22400 30.32100
H  19.90600 -0.58700 28.83300
H  19.85700 1.30900 26.86200
H  19.70900 -0.33200 26.33100
H  19.53800 0.93400 25.14300
H  26.69600 0.57900 24.27400
H  28.84600 -1.35700 25.18400
H  27.40800 -2.08500 23.57600
H  26.16300 -0.89000 22.95500
H  25.73700 -2.04400 24.16500
H  29.96000 0.94600 25.70900
H  28.69600 1.68800 24.77100
H  30.90500 -0.02000 23.65400
H  30.12200 1.49400 23.01200
H  29.45300 -0.19700 22.93200
H  32.40500 -0.00200 28.90800
H  31.88200 -1.74100 28.94200
H  32.49000 -0.90500 30.41500
H  29.12500 1.25200 33.45200
H  27.77300 -1.36400 36.76400
H  28.52200 -0.03200 37.60700
H  29.51400 -1.32300 36.92200
Mg 43.82900 4.34800 47.17700
C  41.65100 7.07600 46.64300
C  41.22400 2.28100 46.85100
C  46.01900 1.93200 46.89300
C  46.51100 6.74300 47.29800
N  41.69600 4.64400 46.53200
C  41.06800 5.84600 46.51600
C  39.61800 5.64700 46.14400
C  39.39200 4.16400 46.65000
C  40.85900 3.63000 46.72100
C  38.75300 4.12100 48.06100
C  39.32000 5.90100 44.69400
C  38.13300 6.84300 44.36600
H  37.68000 6.80200 42.88200
N  43.66200 2.27000 46.92000
C  42.48100 1.61800 46.82400
C  42.78700 0.22900 46.79200
C  44.16200 0.09100 46.62700
C  44.72200 1.43500 46.74100
C  41.73000 -0.87600 46.80900
C  44.94600 -1.18000 46.62500
O  44.35600 -2.27400 46.57000
C  46.43500 -1.23100 46.52400
N  46.01300 4.32600 47.02000
C  46.63400 3.14000 47.10400
C  48.16600 3.30700 47.22100
C  48.27400 4.89100 47.48900
C  46.86700 5.40500 47.29000
C  48.94000 2.32900 48.27500
C  49.37200 5.53900 46.55700
C  50.46200 6.34000 47.41900
N  44.09600 6.51800 46.91600
C  45.20900 7.33600 47.11200
C  44.87100 8.74600 46.91400
C  43.44800 8.72200 46.84900
C  43.03400 7.33000 46.82900
C  45.81900 9.95400 46.77700
C  42.21200 9.47900 46.61600
O  42.00900 10.72000 46.46200
C  41.08500 8.46600 46.55100
C  40.12000 8.76600 47.62000
O  40.31600 8.57400 48.79300
O  38.90800 9.21400 47.12900
C  38.04800 9.79100 48.13500
H  40.36600 1.63600 46.64900
H  46.79600 1.25700 46.52800
H  47.32300 7.46200 47.42300
H  38.98100 6.36800 46.65600
H  38.82900 3.56300 45.93500
H  38.27300 5.09000 48.20000
H  39.46800 4.03600 48.87900
H  38.02300 3.31500 48.13700
H  39.29000 4.93800 44.18200
H  40.19900 6.37600 44.25700
H  38.32000 7.89300 44.59100
H  37.27900 6.58700 44.99300
H  41.85800 -1.51700 45.93600
H  40.72500 -0.45200 46.82200
H  41.92100 -1.42300 47.73200
H  47.07600 -0.77300 47.27700
H  46.69800 -0.88500 45.52400
H  46.73900 -2.25500 46.74000
H  48.46800 3.11900 46.19100
H  48.42600 4.96400 48.56500
H  48.32200 2.05500 49.13000
H  49.80100 2.77700 48.77300
H  49.32600 1.55800 47.60900
H  48.88600 6.35700 46.02600
H  49.77500 4.84000 45.82400
H  51.46700 6.11200 47.06400
H  50.60400 6.08100 48.46900
H  50.32200 7.41500 47.30600
H  45.95600 10.45400 47.73600
H  45.49000 10.75900 46.12000
H  46.81100 9.57300 46.53600
H  40.61500 8.70900 45.59800
H  37.11500 10.15800 47.70500
H  38.50400 10.68100 48.56900
H  37.82300 9.07200 48.92300

