158

Mg 48.43200 34.76800 26.42600
C  46.53400 33.32100 28.92500
C  48.86100 37.59200 28.23400
C  49.28200 36.45500 23.57000
C  47.49000 31.96100 24.21800
N  47.67800 35.39100 28.24600
C  47.08600 34.60400 29.18300
C  47.27300 35.27100 30.52300
C  47.44000 36.76600 30.18700
C  48.07600 36.61500 28.75500
C  46.15900 37.62500 30.18600
C  48.55500 34.68600 31.28300
C  48.44900 34.44500 32.78600
H  47.49000 35.26300 33.66700
N  49.16000 36.65700 25.97700
C  49.34100 37.65700 26.90300
C  50.11500 38.72200 26.30000
C  50.15600 38.45000 24.89800
C  49.55000 37.13100 24.75400
C  50.70600 39.84200 27.20400
C  50.92100 39.16700 23.78800
O  50.85600 38.82900 22.60300
C  51.66700 40.38500 24.11800
N  48.48900 34.24600 24.23700
C  48.76700 35.21300 23.28900
C  48.68100 34.60600 21.85700
C  48.34700 33.10300 22.20800
C  48.13500 33.07400 23.70300
C  47.68600 35.38200 20.90000
C  49.49100 32.23100 21.69900
C  49.29100 31.83300 20.28200
N  47.29400 32.89400 26.54400
C  46.97800 31.93400 25.62000
C  46.17600 30.90300 26.34800
C  46.01700 31.41100 27.63600
C  46.62000 32.62300 27.69400
C  45.65000 29.67400 25.78300
C  45.43800 31.22300 28.94200
O  44.76400 30.26700 29.33700
C  45.60400 32.46000 29.82600
C  46.15300 32.04300 31.12300
O  47.24700 31.63200 31.38500
O  45.20800 32.11700 32.14400
C  45.58600 31.53200 33.49100
H  48.94100 38.51200 28.81600
H  49.72900 36.96900 22.71600
H  47.28300 31.20900 23.45500
H  46.47900 35.17200 31.26400
H  48.09000 37.26300 30.90700
H  45.91300 37.97100 29.18200
H  46.37200 38.53400 30.74800
H  45.36300 37.07100 30.68500
H  49.42700 35.31000 31.08500
H  48.71400 33.70300 30.83900
H  49.45300 34.55900 33.19400
H  48.10900 33.42000 32.93400
H  51.78400 39.93600 27.07500
H  50.51900 39.60000 28.25000
H  50.29500 40.78800 26.85300
H  50.97000 41.22100 24.18200
H  52.26300 40.64400 23.24300
H  52.41900 40.23400 24.89200
H  49.59700 34.57000 21.26800
H  47.37400 32.86100 21.77900
H  46.78500 34.81400 20.66900
H  48.26000 35.56200 19.99100
H  47.28700 36.24100 21.43900
H  49.67600 31.40100 22.38100
H  50.45700 32.73000 21.77300
H  49.89300 32.49300 19.65800
H  48.25000 31.88400 19.96200
H  49.68100 30.82300 20.16200
H  46.43600 29.19600 25.19700
H  44.80100 29.77300 25.10700
H  45.29600 29.10600 26.64400
H  44.66700 32.95600 30.07900
H  46.64900 31.37800 33.67800
H  44.95900 30.67900 33.75000
H  45.35800 32.21600 34.30800
Mg 4.96700 54.84500 40.38900
C  4.47700 51.47200 41.05100
C  7.69200 54.21000 38.55500
C  4.76100 57.99600 39.24100
C  1.67600 55.34800 41.75200
N  5.85400 53.00800 39.70700
C  5.60800 51.73900 40.25100
C  6.58600 50.73100 39.70500
C  7.84100 51.69700 39.36600
C  7.09600 53.03700 39.19000
C  8.93100 51.70000 40.46900
C  6.13700 49.86400 38.49000
C  4.83000 50.20300 37.74100
H  4.94500 49.76500 36.25800
N  6.11700 56.04400 39.08000
C  7.21200 55.56100 38.45600
C  7.82100 56.68800 37.81300
C  7.03700 57.78000 38.00100
C  5.92100 57.34200 38.80100
C  9.16800 56.52700 37.07700
C  7.35400 59.15200 37.40700
O  8.21000 59.35500 36.50000
C  6.69700 60.35900 37.94800
N  3.32500 56.35100 40.36500
C  3.61300 57.56100 39.87500
C  2.49100 58.57500 40.21100
C  1.37600 57.73600 40.74800
C  2.14700 56.40700 40.94600
C  2.90400 59.75600 41.09900
C  0.12600 57.62200 39.74900
C  -1.27600 58.04300 40.40600
N  3.46600 53.73900 41.44400
C  2.26900 54.06500 41.99300
C  1.78000 52.95900 42.81000
C  2.73600 51.94600 42.52100
C  3.64100 52.42700 41.64200
C  0.47000 52.93900 43.74600
C  3.02100 50.52900 42.81900
O  2.59100 49.75400 43.56600
C  4.14900 50.19500 41.76800
C  3.58100 49.13100 40.89200
O  2.62100 49.34100 40.13200
O  4.32200 47.95400 41.03700
C  3.87400 46.72700 40.34400
H  8.70900 54.01800 38.20600
H  4.61000 59.01600 38.88300
H  0.71100 55.51700 42.23300
H  6.72900 50.10200 40.58400
H  8.25600 51.26400 38.45500
H  8.76700 50.86500 41.15000
H  8.93400 52.64800 41.00500
H  9.90300 51.64100 39.97900
H  5.92000 48.91400 38.97800
H  6.94000 49.63600 37.79000
H  4.68000 51.28000 37.80600
H  3.99900 49.61200 38.12800
H  9.80300 57.38700 36.86300
H  9.17300 55.94700 36.15500
H  9.74100 55.94100 37.79600
H  7.29700 61.24100 37.72100
H  6.46100 60.27500 39.00900
H  5.80600 60.40100 37.32200
H  2.20200 59.04200 39.27000
H  0.99500 58.13000 41.69000
H  2.30500 59.92300 41.99400
H  2.61000 60.69100 40.62100
H  3.98000 59.67200 41.25400
H  0.03700 56.61400 39.34200
H  0.20800 58.31100 38.90900
H  -1.15500 58.66700 41.29200
H  -1.74700 57.16500 40.84800
H  -1.90600 58.57500 39.69400
H  0.68800 52.69400 44.78500
H  -0.32100 52.30400 43.34800
H  -0.01800 53.91400 43.75900
H  5.00600 49.69600 42.22200
H  3.87500 45.86800 41.01500
H  4.55500 46.41200 39.55300
H  2.89500 46.77100 39.86600

