158

Mg 43.31400 2.92700 47.16500
C  41.65400 5.90000 46.49000
C  40.39500 1.16700 46.58900
C  45.10600 0.08600 47.10900
C  46.28300 4.81900 46.89900
N  41.29600 3.46300 46.65800
C  40.84000 4.75500 46.48100
C  39.37800 4.64800 46.00500
C  38.98600 3.25200 46.55100
C  40.30500 2.54200 46.60500
C  38.21200 3.19500 47.93100
C  39.21200 4.71700 44.47600
C  38.49100 6.00700 44.00300
H  39.09900 6.63100 42.70100
N  42.79800 0.87000 46.83500
C  41.59400 0.41200 46.67600
C  41.59600 -1.02800 46.64900
C  42.92200 -1.41600 46.63300
C  43.70200 -0.13500 46.87400
C  40.27400 -1.87200 46.63800
C  43.44700 -2.85000 46.43800
O  42.71500 -3.79700 46.17700
C  44.97000 -3.05400 46.54900
N  45.42500 2.52100 46.64800
C  45.85000 1.29600 47.06400
C  47.43200 1.33300 47.19600
C  47.72900 2.82800 46.80400
C  46.34000 3.41500 46.86100
C  48.00500 0.92200 48.62500
C  48.26500 2.87300 45.34500
C  49.75000 3.45300 45.29700
N  43.94400 5.00200 46.88800
C  45.14400 5.62200 46.83800
C  44.95600 7.02400 46.86000
C  43.58600 7.16000 46.68100
C  43.02800 5.93600 46.69600
C  46.02400 8.10000 46.98500
C  42.53100 8.16200 46.53300
O  42.60200 9.39900 46.42200
C  41.18900 7.32000 46.40000
C  40.36900 7.73800 47.56000
O  40.47400 7.34500 48.72900
O  39.45200 8.69500 47.08300
C  38.65600 9.47300 48.07000
H  39.46800 0.62000 46.40400
H  45.79400 -0.76200 47.09800
H  47.21500 5.38000 46.99300
H  38.74800 5.34400 46.56000
H  38.31600 2.68100 45.90700
H  38.95200 3.15900 48.73100
H  37.74200 2.21300 47.99000
H  37.52000 4.01900 48.10400
H  38.62600 3.84300 44.19000
H  40.23300 4.64100 44.10100
H  38.58900 6.73000 44.81200
H  37.41700 5.85900 43.89300
H  39.70800 -1.62500 45.73900
H  39.68100 -1.55100 47.49300
H  40.52200 -2.93200 46.58400
H  45.35400 -2.40700 45.76000
H  45.30000 -4.06900 46.32600
H  45.21300 -2.72700 47.56000
H  47.74600 0.57300 46.47900
H  48.35600 3.34000 47.53400
H  47.19900 0.49700 49.22400
H  48.41900 1.86000 48.99700
H  48.86400 0.25000 48.62200
H  47.68200 3.59200 44.77000
H  48.19400 1.92700 44.80800
H  49.59100 4.52500 45.18200
H  50.44400 2.97500 44.60600
H  50.14100 3.21000 46.28500
H  45.54500 9.05500 46.77000
H  46.70400 7.89800 46.15700
H  46.55600 7.87200 47.90900
H  40.64500 7.45800 45.46500
H  38.81200 9.26600 49.12800
H  37.59300 9.34400 47.86400
H  38.89500 10.50700 47.82000
Mg -1.49300 34.49600 26.47400
C  -3.27800 32.59800 29.00600
C  -0.93500 36.82400 28.93300
C  -0.63300 36.65600 24.06900
C  -3.20900 32.47500 24.06400
N  -2.12200 34.68500 28.72200
C  -2.60200 33.65300 29.58900
C  -2.37200 33.95700 31.06700
C  -1.75200 35.44200 31.02100
C  -1.64200 35.70800 29.47100
C  -2.47400 36.55700 31.79100
C  -1.56200 32.81900 31.83500
C  -2.19500 32.20900 33.09900
H  -1.32100 32.26000 34.36900
N  -0.67000 36.33700 26.52000
C  -0.50400 37.13400 27.61000
C  0.37700 38.14200 27.19700
C  0.50100 38.25500 25.80900
C  -0.30800 37.06900 25.38300
C  1.06900 39.10400 28.23500
C  1.24600 39.20000 24.88400
O  1.17700 39.08400 23.64900
C  2.06700 40.27100 25.51600
N  -1.83700 34.45300 24.37700
C  -1.30900 35.50000 23.60300
C  -1.49000 35.19300 22.07300
C  -2.17000 33.80900 22.06000
C  -2.40300 33.49400 23.58500
C  -2.32800 36.31900 21.25800
C  -1.28400 32.73300 21.39600
C  0.04800 32.33900 22.02000
N  -2.93600 32.84800 26.47100
C  -3.50200 32.15500 25.44500
C  -4.40800 31.08800 25.88100
C  -4.32000 31.24800 27.27200
C  -3.43700 32.35200 27.59500
C  -5.09000 30.20400 24.93900
C  -4.79600 30.69900 28.53900
O  -5.60200 29.81900 28.93800
C  -3.96600 31.51000 29.66300
C  -5.00400 31.99200 30.68300
O  -5.92200 32.84700 30.59700
O  -4.95800 31.24900 31.85000
C  -5.89300 31.61300 32.93400
H  -0.60900 37.54200 29.68800
H  -0.09300 37.24300 23.32400
H  -3.58400 31.80100 23.29100
H  -3.38800 34.06800 31.44600
H  -0.75700 35.38900 31.46200
H  -3.00000 37.18600 31.07300
H  -1.65700 37.06700 32.30200
H  -3.21200 36.14500 32.48000
H  -0.55900 33.17900 32.06500
H  -1.30500 32.01800 31.14100
H  -2.57400 31.21200 32.87600
H  -3.05200 32.85600 33.28800
H  1.11300 40.16100 27.97400
H  2.14800 38.96500 28.15800
H  0.71600 39.06600 29.26600
H  2.82100 39.90800 26.21400
H  1.46800 41.08100 25.93100
H  2.61000 40.65200 24.65100
H  -0.44600 35.20500 21.76000
H  -3.17400 33.89100 21.64300
H  -3.33900 35.98800 21.02000
H  -1.83400 36.67200 20.35300
H  -2.30900 37.16800 21.94100
H  -1.14600 32.91600 20.33000
H  -1.92800 31.85400 21.42200
H  0.15700 33.03700 22.85000
H  0.84200 32.41200 21.27700
H  0.15400 31.34200 22.44900
H  -4.51300 29.92700 24.05700
H  -6.09900 30.49500 24.64500
H  -5.26800 29.31000 25.53600
H  -3.43800 30.74600 30.23400
H  -5.38900 32.27600 33.63700
H  -6.14500 30.67000 33.42100
H  -6.86800 31.91700 32.55300

