158

Mg 52.88700 24.05700 45.57600
C  50.19100 26.12900 44.55600
C  51.17100 21.38500 44.24800
C  55.81600 22.31000 45.47900
C  54.45500 26.75100 46.91300
N  50.89700 23.83800 44.46300
C  49.91900 24.76100 44.21600
C  48.78200 24.20500 43.39600
C  48.94800 22.63100 43.65600
C  50.40600 22.61100 44.18700
C  48.12700 21.95400 44.81400
C  48.66300 24.67900 41.95500
C  49.85900 25.11000 41.14300
H  51.18500 24.40400 41.47200
N  53.47200 22.18300 44.86300
C  52.59700 21.20600 44.39400
C  53.35100 20.01400 44.09200
C  54.68500 20.28000 44.34500
C  54.74600 21.63800 44.94800
C  52.71500 18.83500 43.47600
C  55.74800 19.22300 44.17500
O  55.51000 18.11200 43.60100
C  57.11000 19.38700 44.68200
N  55.02100 24.64800 45.81600
C  55.87100 23.58800 46.08400
C  57.04400 24.01800 46.83400
C  56.67700 25.51700 47.25000
C  55.28700 25.65400 46.70200
C  57.56700 23.08700 47.89500
C  57.74500 26.54600 46.61600
C  58.49300 27.40600 47.72500
N  52.44800 26.04600 45.75700
C  53.17400 27.02600 46.36800
C  52.36600 28.18300 46.58600
C  51.20000 27.90700 45.80300
C  51.32700 26.56600 45.35100
C  52.75700 29.40200 47.45900
C  49.98700 28.43900 45.32700
O  49.51700 29.58100 45.39000
C  49.36800 27.35500 44.32900
C  49.29500 27.91000 42.95300
O  50.30800 28.32100 42.34000
O  48.01300 28.00700 42.51000
C  47.88300 28.60100 41.20400
H  50.65200 20.54900 43.77400
H  56.68300 21.66600 45.63600
H  54.95200 27.42100 47.61800
H  47.90100 24.57000 43.92300
H  48.70700 22.09600 42.73700
H  48.66500 21.37000 45.56200
H  47.25300 21.43500 44.41900
H  47.81700 22.79500 45.43400
H  47.83000 25.37800 41.88700
H  48.35800 23.78700 41.40800
H  49.89900 26.17600 41.36800
H  49.75800 25.01900 40.06200
H  53.31000 17.92600 43.38600
H  52.18300 19.10100 42.56300
H  51.92700 18.59900 44.19100
H  57.68200 18.51700 44.36000
H  56.96500 19.30900 45.76000
H  57.58300 20.34300 44.46100
H  57.92800 24.05500 46.19800
H  56.60900 25.65700 48.32900
H  57.13800 22.08500 47.88900
H  57.27700 23.52300 48.85100
H  58.64700 22.96700 47.81300
H  57.23400 27.24500 45.95500
H  58.55900 26.09200 46.05200
H  58.62100 28.45200 47.44400
H  59.46700 26.97900 47.96400
H  57.90500 27.36700 48.64200
H  51.87100 29.76200 47.98100
H  53.20200 30.17400 46.83200
H  53.55400 29.25600 48.18800
H  48.38200 27.27700 44.78800
H  47.06900 28.07500 40.70400
H  48.67700 28.42200 40.47900
H  47.45900 29.60600 41.20100
Mg -12.10300 37.73400 42.05800
C  -9.83200 35.30500 41.31800
C  -10.11900 40.19600 41.04800
C  -14.81200 39.92200 42.32600
C  -14.24000 35.18800 43.49800
N  -10.30100 37.67100 41.05800
C  -9.42900 36.58900 40.95700
C  -8.10300 37.06000 40.43100
C  -8.09600 38.59000 40.74600
C  -9.60200 38.85100 40.96700
C  -7.27100 38.92300 42.03500
C  -8.01700 36.74700 38.88600
C  -6.79000 35.79600 38.40100
H  -5.84700 36.41300 37.26100
N  -12.38400 39.82100 41.70300
C  -11.41500 40.66300 41.26300
C  -11.98700 41.97900 41.22500
C  -13.36900 41.86300 41.37400
C  -13.62600 40.49800 41.79000
C  -11.20100 43.18200 40.81500
C  -14.37400 42.99400 41.23300
O  -13.93300 44.17200 41.05000
C  -15.89500 42.86700 41.41100
N  -14.21500 37.52500 42.77800
C  -15.05600 38.61600 42.82700
C  -16.34100 38.31500 43.56100
C  -16.13900 36.81600 44.00100
C  -14.81600 36.48800 43.44500
C  -16.70400 39.33000 44.69700
C  -17.27000 35.80900 43.44900
C  -18.22300 35.13600 44.48600
N  -12.22100 35.56200 42.16900
C  -13.06600 34.69400 42.90700
C  -12.44500 33.38600 42.88700
C  -11.18400 33.53200 42.22800
C  -11.11400 34.90800 41.80100
C  -13.01300 32.23200 43.65300
C  -9.89200 32.97400 42.00000
O  -9.46300 31.86900 42.26100
C  -8.97500 34.09900 41.35100
C  -7.60500 34.22300 42.04000
O  -6.56300 33.92800 41.42400
O  -7.62500 34.81400 43.27600
C  -6.34500 34.96100 43.94600
H  -9.26400 40.85300 40.87600
H  -15.65600 40.60300 42.45100
H  -14.85300 34.45800 44.03100
H  -7.30700 36.52400 40.94800
H  -7.74000 39.25000 39.95600
H  -7.80400 39.44300 42.83100
H  -6.58700 39.70000 41.69400
H  -6.73200 38.04600 42.39400
H  -7.86800 37.69100 38.36300
H  -8.97600 36.36100 38.54000
H  -7.35300 34.97900 37.95000
H  -6.22700 35.36100 39.22700
H  -11.39000 43.43500 39.77100
H  -10.14000 42.96300 40.93600
H  -11.48700 43.99800 41.47900
H  -16.49800 43.61200 40.89200
H  -16.30200 42.83600 42.42100
H  -16.13600 41.94400 40.88300
H  -17.03300 38.33900 42.71800
H  -16.08500 36.70900 45.08500
H  -17.12800 38.73900 45.51000
H  -17.57000 39.85700 44.29700
H  -15.91700 40.05200 44.91200
H  -16.77300 35.12900 42.75700
H  -17.95700 36.39700 42.84100
H  -19.25500 35.35600 44.21300
H  -17.91200 35.54800 45.44600
H  -18.16100 34.04700 44.47800
H  -13.09000 31.33600 43.03700
H  -13.98700 32.41700 44.10500
H  -12.39300 31.90300 44.48700
H  -8.72400 33.87400 40.31400
H  -5.78600 35.78300 43.49800
H  -5.71300 34.09200 44.13000
H  -6.62500 35.31700 44.93800

