158

Mg 15.96700 51.81400 25.91800
C  17.73700 51.07200 28.86200
C  13.23600 52.60400 27.91300
C  14.37700 52.61100 23.24100
C  18.63500 50.64100 24.00500
N  15.49500 51.71700 28.11500
C  16.44500 51.57100 29.11200
C  15.88800 51.85600 30.43700
C  14.32600 52.12600 30.07300
C  14.31200 52.20000 28.58200
C  13.20800 51.13900 30.59700
C  16.76900 53.00900 31.06200
C  17.00300 52.98800 32.54900
H  16.02700 52.12100 33.32200
N  14.00200 52.47800 25.53600
C  13.13700 52.67500 26.48000
C  11.92800 53.29400 25.83500
C  12.30000 53.41700 24.45900
C  13.60100 52.85500 24.35900
C  10.70600 53.79500 26.59300
C  11.55200 54.13700 23.36300
O  11.95400 54.18200 22.25400
C  10.26700 54.95600 23.60800
N  16.45300 51.58800 23.87500
C  15.61400 51.98900 22.97200
C  16.13600 51.66400 21.51300
C  17.57100 51.18500 21.71500
C  17.65200 51.13700 23.26100
C  15.19900 50.69200 20.69600
C  18.62300 52.16100 21.14400
C  19.33500 51.75400 19.78800
N  17.73600 50.97200 26.31200
C  18.75300 50.63800 25.44500
C  19.92400 50.18200 26.14600
C  19.53200 50.27700 27.50900
C  18.26400 50.78100 27.54100
C  21.25700 49.66900 25.49100
C  19.95900 49.99000 28.89300
O  20.97800 49.48600 29.33700
C  18.84500 50.64100 29.76000
C  18.38500 49.61000 30.79700
O  17.61200 48.70800 30.65300
O  19.13800 49.86100 31.94700
C  18.83800 48.91600 32.97600
H  12.42900 53.06800 28.48400
H  13.92800 52.88000 22.28200
H  19.53200 50.27300 23.50100
H  15.91400 50.88800 30.93700
H  14.25600 53.17200 30.36900
H  13.60800 50.54600 31.41900
H  12.92200 50.41700 29.83100
H  12.32600 51.63200 31.00700
H  16.07700 53.84500 30.96700
H  17.56700 53.23700 30.35500
H  16.95000 54.00700 32.93300
H  18.00400 52.56300 32.63300
H  10.66500 53.24600 27.53400
H  9.80400 53.61900 26.00700
H  10.66100 54.88400 26.58100
H  10.37400 55.64400 24.44700
H  9.50500 54.18000 23.67800
H  10.20400 55.66200 22.77900
H  16.15600 52.55200 20.88100
H  17.75200 50.18000 21.33500
H  14.57500 50.08400 21.35100
H  15.80000 50.13500 19.97800
H  14.51500 51.29500 20.09800
H  19.38000 52.30100 21.91500
H  18.14400 53.12600 20.98100
H  20.39400 51.53100 19.92500
H  19.16200 52.52400 19.03600
H  18.85300 50.82200 19.49500
H  21.55400 50.23200 24.60600
H  21.08100 48.62800 25.21700
H  22.01400 49.77000 26.26800
H  19.25200 51.49100 30.30700
H  18.90400 47.90200 32.58000
H  17.86700 49.05200 33.45200
H  19.56600 49.02300 33.78000
Mg -2.73900 34.82500 26.67800
C  -3.84800 33.19400 29.57300
C  -0.96000 36.91000 28.67200
C  -1.89200 36.57700 23.86000
C  -4.62800 32.54800 24.83700
N  -2.43300 34.94800 28.95200
C  -2.92100 34.22900 29.92400
C  -2.37700 34.60900 31.31300
C  -1.48300 35.88700 30.94500
C  -1.61200 35.95300 29.41900
C  -1.82900 37.07500 31.71800
C  -1.65400 33.39900 31.96900
C  -2.39600 32.89800 33.32800
H  -1.49600 32.74600 34.54400
N  -1.59300 36.49000 26.26200
C  -0.94400 37.19700 27.26200
C  -0.14100 38.19000 26.63700
C  -0.19400 37.90900 25.26700
C  -1.20400 36.92100 25.06400
C  0.81100 39.17200 27.37500
C  0.63400 38.48100 24.05900
O  0.33700 38.29300 22.94600
C  1.92400 39.36700 24.34000
N  -3.57100 34.83700 24.70100
C  -2.94900 35.60300 23.72300
C  -3.53400 35.20300 22.38600
C  -4.06300 33.75100 22.67600
C  -4.12300 33.71800 24.19500
C  -4.51500 36.21800 21.71800
C  -3.19200 32.58300 22.15700
C  -3.29900 32.24700 20.67500
N  -3.99000 33.21900 27.07700
C  -4.67300 32.40100 26.25500
C  -5.48300 31.45000 26.92300
C  -5.17500 31.76700 28.28700
C  -4.24400 32.81800 28.25800
C  -6.50500 30.57800 26.39600
C  -5.35800 31.31800 29.67200
O  -5.98200 30.38600 30.15000
C  -4.57800 32.28000 30.54100
C  -5.54800 32.92500 31.49500
O  -6.31300 33.86600 31.23800
O  -5.52400 32.33900 32.70700
C  -6.50800 32.63700 33.69400
H  -0.33700 37.71300 29.07300
H  -1.62100 37.05800 22.91700
H  -5.11900 31.80600 24.20400
H  -3.21300 34.90700 31.94600
H  -0.47500 35.80000 31.35100
H  -0.92200 37.58800 32.03600
H  -2.47400 36.85800 32.56900
H  -2.36500 37.77800 31.08100
H  -0.60200 33.60800 32.16000
H  -1.51300 32.61200 31.22800
H  -2.73000 31.87100 33.17900
H  -3.26800 33.52500 33.51500
H  1.80300 38.74100 27.51100
H  0.45800 39.39300 28.38300
H  0.94200 40.02500 26.70900
H  2.59500 38.90800 25.06600
H  1.57400 40.36800 24.59500
H  2.46100 39.37700 23.39100
H  -2.67700 35.21000 21.71300
H  -5.03700 33.65600 22.19700
H  -5.47600 35.76700 21.47100
H  -4.24300 36.59100 20.73100
H  -4.80900 37.02300 22.39200
H  -3.46600 31.65300 22.65600
H  -2.17000 32.92300 22.32600
H  -4.14400 32.72200 20.17500
H  -3.46800 31.18200 20.52000
H  -2.39300 32.55600 20.15300
H  -6.17900 29.54700 26.54000
H  -6.66300 30.76600 25.33400
H  -7.42200 30.80700 26.93700
H  -3.98300 31.79300 31.31300
H  -6.04700 33.30500 34.42100
H  -6.78200 31.69200 34.16300
H  -7.36700 33.13500 33.24300

