158

Mg 16.62300 -2.73000 27.25800
C  15.92600 -0.61400 30.04600
C  18.14400 -4.88000 29.37900
C  17.41800 -4.54700 24.58900
C  15.38800 -0.23700 25.21900
N  17.18400 -2.56300 29.49600
C  16.61900 -1.72100 30.45700
C  17.00200 -2.17700 31.84900
C  17.91500 -3.46700 31.58700
C  17.79000 -3.67100 30.02800
C  19.40900 -3.34600 31.97500
C  15.79400 -2.45700 32.77500
C  15.83300 -1.80000 34.20500
H  17.21800 -1.68300 34.91300
N  17.59500 -4.55000 27.02500
C  18.21400 -5.24500 28.02500
C  18.57100 -6.55400 27.49200
C  18.27500 -6.46600 26.11700
C  17.66600 -5.18100 25.85300
C  18.98900 -7.65900 28.45200
C  18.36700 -7.51200 24.97000
O  17.93900 -7.40500 23.85300
C  18.95100 -8.85000 25.24400
N  16.78200 -2.25100 25.20200
C  17.08000 -3.19500 24.32700
C  16.95200 -2.69800 22.87100
C  15.91700 -1.50100 23.06200
C  16.05500 -1.25400 24.58600
C  18.36600 -2.20600 22.40000
C  14.49400 -1.87700 22.54700
C  13.53300 -2.23800 23.70100
N  15.70500 -0.81300 27.50200
C  15.17600 0.02000 26.59700
C  14.56300 1.15200 27.16800
C  14.80900 0.89200 28.63100
C  15.53300 -0.27500 28.70900
C  13.92000 2.24300 26.43600
C  14.64300 1.46100 29.93200
O  14.21600 2.50100 30.46500
C  15.32400 0.43500 30.95600
C  16.38600 1.10100 31.77500
O  17.59200 1.21000 31.57300
O  15.75800 1.66800 32.84600
C  16.49500 2.60700 33.79700
H  18.57300 -5.71400 29.93900
H  17.53600 -5.05600 23.63000
H  14.92200 0.46800 24.52700
H  17.56000 -1.38100 32.34200
H  17.51200 -4.35700 32.07100
H  19.62400 -2.56100 32.70000
H  20.01200 -3.35000 31.06800
H  19.76100 -4.23800 32.49500
H  15.80400 -3.53800 32.91400
H  14.87000 -2.31300 32.21500
H  15.11200 -2.37600 34.78500
H  15.42200 -0.79500 34.11700
H  18.24800 -7.79000 29.24100
H  19.93900 -7.42000 28.93000
H  18.97600 -8.58400 27.87500
H  19.85000 -8.68500 25.83700
H  19.21100 -9.45100 24.37300
H  18.28800 -9.40100 25.91100
H  16.54600 -3.42700 22.17000
H  16.26900 -0.63000 22.50800
H  18.46300 -1.13200 22.24300
H  18.59600 -2.70400 21.45800
H  19.02100 -2.53300 23.20800
H  14.51200 -2.57700 21.71100
H  14.01800 -1.02500 22.06300
H  13.09000 -1.28800 24.00200
H  13.98200 -2.70700 24.57600
H  12.73400 -2.88600 23.34200
H  14.63000 2.85600 25.88100
H  13.44600 2.89600 27.17000
H  13.16800 1.71600 25.84900
H  14.62700 -0.00600 31.66900
H  15.67000 3.20400 34.18400
H  17.33100 3.17300 33.38600
H  16.90300 1.97300 34.58400
Mg 40.77500 7.90100 29.70300
C  42.42400 9.40900 32.53300
C  38.43900 6.81400 31.93100
C  39.38900 6.35000 27.06600
C  43.56100 8.89100 27.71600
N  40.56600 8.11400 31.96500
C  41.18800 8.80100 32.88400
C  40.48700 8.84300 34.23100
C  39.28400 7.96300 34.01200
C  39.48300 7.50400 32.57900
C  39.21900 6.69900 34.98400
C  40.05400 10.30000 34.59600
C  39.31200 10.48900 35.87400
H  40.01600 11.25800 36.98900
N  39.11100 6.76200 29.54500
C  38.29100 6.42600 30.55700
C  37.10500 5.68000 29.95700
C  37.40700 5.52300 28.55800
C  38.71300 6.22300 28.33800
C  35.93000 5.23300 30.87600
C  36.64300 4.76300 27.51500
O  37.13100 4.35200 26.50900
C  35.24200 4.35100 27.87700
N  41.45700 7.60800 27.73100
C  40.65900 6.90900 26.80500
C  41.39700 6.81100 25.44800
C  42.62500 7.84500 25.64700
C  42.59200 8.06600 27.17600
C  41.85000 5.32200 25.05500
C  42.63800 9.13900 24.80200
C  41.37400 10.06800 24.81800
N  42.50900 8.93900 29.89700
C  43.53400 9.26500 29.01500
C  44.50900 10.06500 29.67100
C  44.14300 10.17000 31.03800
C  42.89800 9.50000 31.13800
C  45.89500 10.55400 29.08200
C  44.49700 10.69800 32.34800
O  45.38100 11.45000 32.60600
C  43.35400 10.29200 33.34200
C  43.83200 9.73500 34.58000
O  44.28200 8.60600 34.61400
O  43.71300 10.62400 35.65300
C  43.72700 9.99600 36.96800
H  37.71600 6.51200 32.69200
H  38.79700 5.94700 26.24100
H  44.25100 9.41400 27.05000
H  41.17400 8.51200 35.00900
H  38.35000 8.52600 34.02600
H  39.83900 6.92500 35.85200
H  39.68100 5.89500 34.41100
H  38.19100 6.66800 35.34500
H  39.38800 10.68200 33.82200
H  40.89800 10.99000 34.58700
H  38.90200 9.65200 36.43800
H  38.46000 11.15500 35.73500
H  34.95300 5.60100 30.56100
H  36.10200 5.59900 31.88800
H  35.89900 4.14400 30.85200
H  34.69200 5.23300 28.20500
H  35.38400 3.73200 28.76300
H  34.74300 3.88000 27.02900
H  40.79200 7.08400 24.58400
H  43.52400 7.40300 25.21800
H  41.54800 5.20200 24.01500
H  41.38700 4.63400 25.76300
H  42.92700 5.22200 25.18900
H  42.67200 8.85000 23.75100
H  43.61000 9.59500 24.98900
H  40.65700 9.67600 25.53900
H  40.82400 10.04700 23.87700
H  41.78800 11.06300 24.97700
H  46.34300 9.90100 28.33300
H  46.57400 10.62200 29.93200
H  45.82800 11.54600 28.63600
H  42.91800 11.25900 33.59200
H  44.43500 9.18600 37.13900
H  42.72000 9.61700 37.14200
H  43.97600 10.73400 37.73100

