158

Mg 8.98500 47.75700 24.56500
C  6.91900 47.96900 27.33900
C  11.61500 48.68300 26.42300
C  10.89000 47.35200 21.69700
C  6.09100 47.50300 22.59300
N  9.23300 48.24000 26.68800
C  8.25900 48.24200 27.68300
C  8.93700 48.56700 29.00400
C  10.28200 49.29700 28.53700
C  10.41100 48.74700 27.09500
C  10.13900 50.91300 28.65700
C  9.25700 47.32100 29.97900
C  9.30800 47.66700 31.51700
H  8.59900 46.85900 32.54100
N  10.89500 47.98500 24.15500
C  11.88700 48.31600 25.07100
C  13.20300 48.13100 24.51800
C  12.97600 47.82300 23.14000
C  11.53400 47.74400 22.91600
C  14.47500 48.48400 25.30500
C  13.97400 47.69900 22.03700
O  13.65900 47.48900 20.84600
C  15.41700 47.73100 22.33800
N  8.53700 47.60300 22.37700
C  9.54200 47.24200 21.52100
C  8.89800 46.41300 20.41500
C  7.37000 46.73300 20.47000
C  7.29000 47.34500 21.86800
C  9.45900 46.76200 18.99500
C  6.44700 45.54000 20.34600
C  5.23400 45.61500 19.40400
N  6.94500 47.82900 24.84600
C  5.92900 47.68900 23.97400
C  4.73700 47.57800 24.70000
C  5.05600 47.68000 26.07300
C  6.44100 47.77700 26.06500
C  3.38900 47.36100 24.19600
C  4.50200 47.79000 27.47400
O  3.38100 47.67800 27.85900
C  5.73500 47.92800 28.33000
C  5.67700 46.78900 29.19400
O  6.09900 45.69800 29.02200
O  4.97800 47.07900 30.32200
C  4.63400 45.92800 31.18400
H  12.43100 48.91400 27.11100
H  11.44100 46.70200 21.01400
H  5.19500 47.22400 22.03500
H  8.30100 49.26100 29.55400
H  11.14000 48.98200 29.13000
H  10.88600 51.26600 29.36700
H  9.18800 51.25700 29.06300
H  10.28300 51.37500 27.68000
H  10.24500 47.04000 29.61400
H  8.62400 46.46800 29.73500
H  8.98700 48.70100 31.64800
H  10.35700 47.77000 31.79600
H  14.34800 48.55400 26.38500
H  14.88200 49.42300 24.93000
H  15.18900 47.66100 25.28800
H  15.53200 46.87300 23.00000
H  15.44700 48.74400 22.73800
H  15.89900 47.57400 21.37300
H  9.08400 45.34700 20.54500
H  6.96000 47.58400 19.92500
H  10.24400 47.51800 18.98100
H  8.74500 47.29000 18.36200
H  9.91000 45.87400 18.55200
H  6.09300 45.14900 21.30000
H  7.07600 44.71200 20.01900
H  5.22700 44.74500 18.74800
H  5.33700 46.41000 18.66500
H  4.31300 45.71400 19.98000
H  3.33800 46.50000 23.52900
H  2.99400 48.23500 23.67800
H  2.67800 47.07200 24.97100
H  5.70500 48.89000 28.84200
H  4.22500 45.19500 30.48900
H  3.87300 46.34500 31.84300
H  5.54400 45.61900 31.69700
Mg -2.76700 34.94700 26.47500
C  -3.60300 33.40000 29.50500
C  -0.88500 37.20400 28.26900
C  -2.45500 36.83300 23.67800
C  -5.20700 32.94900 24.81300
N  -2.36400 35.19300 28.68500
C  -2.87200 34.52800 29.74700
C  -2.31000 35.18200 31.09600
C  -1.37200 36.32400 30.66100
C  -1.58100 36.30200 29.11900
C  -1.55900 37.66300 31.30000
C  -1.61700 34.17000 32.10200
C  -2.26200 34.22000 33.59200
H  -1.36400 34.16800 34.80700
N  -1.64700 36.60800 25.98700
C  -0.98300 37.39300 26.89600
C  -0.39700 38.52300 26.24500
C  -0.80200 38.48700 24.80200
C  -1.69000 37.27200 24.78100
C  0.39000 39.49400 27.02100
C  -0.49500 39.34800 23.57200
O  -0.83100 39.09300 22.42300
C  0.30300 40.62500 23.77400
N  -3.64900 34.78700 24.57400
C  -3.29500 35.73700 23.53600
C  -4.18300 35.47200 22.23600
C  -4.69600 34.00300 22.54100
C  -4.57300 33.95800 24.07500
C  -5.25400 36.59400 21.99800
C  -3.89100 32.83800 21.84800
C  -4.28600 32.63700 20.39400
N  -4.12800 33.47800 26.98100
C  -4.98800 32.70100 26.19000
C  -5.53000 31.62700 26.98900
C  -5.05200 31.88700 28.28100
C  -4.16400 32.99700 28.22700
C  -6.51400 30.56600 26.55800
C  -5.05200 31.40200 29.59800
O  -5.51900 30.40500 30.09900
C  -4.35300 32.47700 30.51300
C  -5.37800 33.11700 31.47500
O  -6.07000 34.06800 31.21800
O  -5.34100 32.42900 32.65300
C  -6.10200 32.98600 33.78800
H  -0.23300 37.80200 28.90900
H  -2.39800 37.27100 22.67900
H  -5.91800 32.28300 24.32100
H  -3.16600 35.54400 31.66600
H  -0.34200 36.13900 30.96600
H  -1.63500 38.48900 30.59300
H  -0.81300 37.97100 32.03300
H  -2.42000 37.68900 31.96800
H  -0.54400 34.31200 32.23100
H  -1.73500 33.15200 31.73100
H  -3.01500 33.43200 33.59900
H  -2.73400 35.20100 33.64500
H  1.00700 40.09800 26.35400
H  1.10700 39.15600 27.77000
H  -0.31100 40.25600 27.35900
H  0.03900 41.28000 24.60500
H  0.53100 41.15300 22.84800
H  1.23500 40.16200 24.09900
H  -3.58200 35.46200 21.32600
H  -5.77200 34.04200 22.36900
H  -5.16500 37.26800 22.85000
H  -6.26600 36.18900 22.01300
H  -5.07400 37.12600 21.06400
H  -3.89300 31.90900 22.41700
H  -2.84600 33.11400 21.70800
H  -5.13200 33.27300 20.13200
H  -4.72300 31.64000 20.32900
H  -3.43900 32.81100 19.73100
H  -6.10300 29.55600 26.53400
H  -7.06800 30.78600 25.64600
H  -7.28900 30.63600 27.32200
H  -3.55700 32.01900 31.10000
H  -7.01300 33.43100 33.38800
H  -5.44600 33.79900 34.10000
H  -6.37100 32.24800 34.54400

