158

Mg 45.53800 5.13300 46.58000
C  43.81000 8.14200 46.14000
C  42.71800 3.51300 45.50900
C  47.37600 2.37000 46.35100
C  48.51200 7.01700 46.77500
N  43.46900 5.81900 45.97600
C  42.97000 7.03000 45.90500
C  41.47900 7.06400 45.52400
C  41.15600 5.56700 45.38200
C  42.54800 4.88800 45.66400
C  40.12700 5.03400 46.47300
C  41.17400 7.99700 44.28000
C  42.22600 7.84300 43.17700
H  41.62500 7.49700 41.82400
N  45.06000 3.17400 46.17500
C  43.88700 2.72300 45.67000
C  44.01700 1.29400 45.44500
C  45.32600 0.92000 45.67100
C  45.99600 2.16500 46.09200
C  42.75800 0.50200 44.96700
C  45.88900 -0.53600 45.59400
O  45.10000 -1.41900 45.22200
C  47.29200 -0.92400 46.06500
N  47.71000 4.75400 46.67100
C  48.21200 3.53700 46.61100
C  49.69200 3.47600 46.62200
C  50.03900 5.02900 46.78600
C  48.69500 5.66800 46.68100
C  50.21600 2.66400 47.79000
C  51.14000 5.55700 45.78400
C  52.58100 5.48000 46.42100
N  46.10600 7.09900 46.50100
C  47.34900 7.70800 46.61200
C  47.16100 9.15000 46.56900
C  45.75700 9.31100 46.55400
C  45.18700 8.07300 46.32900
C  48.24700 10.11600 46.67800
C  44.69100 10.36000 46.57000
O  44.82000 11.59200 46.52200
C  43.36500 9.56200 46.41200
C  42.53100 9.61900 47.77900
O  42.48200 8.76800 48.59900
O  41.91500 10.82300 47.94400
C  41.20800 11.08300 49.20500
H  41.78000 3.02800 45.23300
H  48.03000 1.53600 46.08900
H  49.46400 7.50900 46.98500
H  40.90800 7.70600 46.19400
H  40.84200 5.19700 44.40600
H  40.62100 4.63600 47.36000
H  39.55200 4.29800 45.91100
H  39.51200 5.90300 46.70600
H  41.21100 9.05300 44.54700
H  40.11300 7.90300 44.04500
H  42.82400 6.96400 43.41300
H  42.89600 8.70100 43.24000
H  43.04200 -0.25900 44.24100
H  42.07000 1.15800 44.43400
H  42.18500 0.09800 45.80200
H  47.41400 -1.99800 46.21200
H  47.47400 -0.44500 47.02700
H  48.05300 -0.70500 45.31600
H  50.11100 3.18600 45.65800
H  50.39700 5.19000 47.80300
H  50.76200 1.75200 47.55300
H  49.42000 2.26900 48.42100
H  50.83500 3.28300 48.44100
H  50.95600 6.58200 45.46300
H  51.15700 5.04400 44.82200
H  53.04100 4.60800 45.95600
H  52.60200 5.40000 47.50700
H  53.11800 6.37300 46.10300
H  48.74800 9.95100 47.63200
H  47.92500 11.15200 46.57300
H  48.91300 10.00900 45.82200
H  42.74600 10.02600 45.64400
H  40.69700 12.04500 49.17400
H  41.93400 11.10900 50.01800
H  40.56700 10.23700 49.45300
Mg 43.39200 41.93200 27.00500
C  42.23000 44.45000 29.30200
C  44.67300 40.33100 29.71600
C  44.89600 39.88500 24.84900
C  42.58800 44.21400 24.33700
N  43.40000 42.37900 29.19000
C  42.78000 43.32300 29.87700
C  42.88100 43.09200 31.37000
C  43.64600 41.77900 31.46500
C  43.96800 41.50900 30.04800
C  44.85600 41.91500 32.38700
C  41.46200 43.17400 32.02400
C  41.04100 42.13200 33.15400
H  40.23700 42.70600 34.36300
N  44.40900 40.20300 27.23000
C  44.91700 39.72000 28.40500
C  45.51200 38.39100 28.19400
C  45.64600 38.20900 26.77000
C  44.99900 39.47400 26.19800
C  45.92900 37.42600 29.34600
C  46.20900 37.05000 26.01400
O  46.09900 36.91300 24.76900
C  46.99900 35.96700 26.79500
N  43.75800 42.05200 24.89400
C  44.28400 40.97700 24.23000
C  44.18000 41.20300 22.71800
C  43.47700 42.57900 22.57100
C  43.30300 43.00900 24.02100
C  45.59600 41.15700 21.93700
C  42.17300 42.49700 21.70500
C  40.95500 41.79500 22.36300
N  42.63800 43.93300 26.80000
C  42.36500 44.72900 25.69000
C  41.79600 46.01800 26.11300
C  41.71400 45.82700 27.52100
C  42.24500 44.65000 27.91000
C  41.22300 47.20200 25.26200
C  41.18500 46.57500 28.72000
O  40.52900 47.61700 28.80300
C  41.51600 45.61200 29.91500
C  42.46800 46.34700 30.81700
O  43.58900 46.78500 30.55800
O  41.79300 46.59300 32.00000
C  42.58900 47.41800 32.96700
H  44.96300 39.82100 30.63700
H  45.31100 39.18000 24.12500
H  42.13600 44.87500 23.59500
H  43.49800 43.87400 31.81300
H  43.06000 40.88500 31.68000
H  44.76200 42.68100 33.15600
H  45.76500 42.14900 31.83200
H  45.16500 40.95700 32.80400
H  40.67700 43.22000 31.27000
H  41.36700 44.16500 32.46900
H  41.92800 41.57200 33.44900
H  40.29400 41.48200 32.69600
H  45.30000 36.53900 29.27000
H  45.60500 37.87000 30.28800
H  46.99100 37.18400 29.39300
H  47.97300 36.41700 26.98800
H  47.10400 35.11800 26.11800
H  46.42000 35.60300 27.64400
H  43.48400 40.47300 22.30500
H  44.10800 43.36200 22.14900
H  46.09400 42.12600 21.98700
H  45.46100 40.86700 20.89500
H  46.20200 40.43200 22.47900
H  42.19600 42.10400 20.68900
H  41.95700 43.55700 21.57100
H  40.56500 40.91900 21.84500
H  40.07300 42.43500 22.37300
H  41.32500 41.51400 23.34900
H  41.21500 46.92200 24.20800
H  41.92900 48.03300 25.27100
H  40.30000 47.64100 25.63800
H  40.59100 45.37200 30.43800
H  43.26900 48.16000 32.54800
H  43.24700 46.86400 33.63600
H  41.91900 47.80100 33.73600

