158

Mg 39.93900 9.12000 28.91500
C  41.86100 10.25500 31.55200
C  37.65400 7.76600 31.07300
C  38.18400 8.01400 26.25700
C  42.60400 9.90900 26.76300
N  39.90600 8.91600 31.06100
C  40.71800 9.54400 31.92900
C  40.15900 9.51200 33.32800
C  38.92500 8.52100 33.19500
C  38.76700 8.43200 31.67800
C  38.96900 7.19300 33.93800
C  39.85100 10.91700 33.86100
C  39.51000 11.17500 35.34800
H  40.50300 11.96100 36.19400
N  38.16000 8.06000 28.72200
C  37.29700 7.61300 29.72300
C  36.03800 7.12500 29.20800
C  36.22400 7.20900 27.73600
C  37.56800 7.79600 27.49700
C  34.85700 6.58700 30.03100
C  35.23600 6.99200 26.71900
O  35.49700 7.09200 25.51800
C  33.75100 6.59500 27.06300
N  40.41600 8.94300 26.83100
C  39.44900 8.52000 25.86200
C  40.00100 8.41200 24.41600
C  41.42500 9.11300 24.61800
C  41.52600 9.35200 26.15600
C  39.98100 6.98200 23.87500
C  41.45300 10.59600 23.92100
C  40.73800 11.81500 24.52700
N  41.81700 10.04200 29.03000
C  42.77700 10.33000 28.11200
C  43.88000 11.02700 28.71600
C  43.63500 11.00700 30.12700
C  42.34000 10.41100 30.21500
C  45.06900 11.61400 28.01400
C  44.11900 11.29200 31.43800
O  45.18100 11.75700 31.87600
C  42.94600 10.94300 32.42400
C  43.42200 10.10900 33.50500
O  44.16900 9.16600 33.33600
O  42.96000 10.63200 34.67300
C  43.36500 10.04600 35.90500
H  36.96600 7.37200 31.82400
H  37.62300 7.78400 25.34900
H  43.45900 10.05600 26.10000
H  40.83900 9.06600 34.05400
H  38.04300 9.07600 33.51600
H  39.81700 7.22600 34.62200
H  39.05400 6.36700 33.23200
H  38.04300 7.10100 34.50500
H  38.94200 11.22900 33.34700
H  40.74900 11.47900 33.60400
H  39.56200 10.13800 35.67700
H  38.50900 11.60800 35.34000
H  34.89800 6.76400 31.10500
H  34.62500 5.53500 29.86100
H  33.97300 7.14000 29.71100
H  33.59100 5.95500 27.93100
H  33.25300 6.14200 26.20600
H  33.18700 7.49900 27.29400
H  39.46700 9.01000 23.67700
H  42.29900 8.51600 24.35500
H  39.09100 6.85000 23.25900
H  39.88300 6.42100 24.80400
H  40.91000 6.81500 23.33100
H  41.04700 10.40300 22.92900
H  42.52500 10.74800 23.79100
H  40.12000 11.55400 25.38700
H  39.96400 12.13200 23.82900
H  41.41800 12.65800 24.64700
H  44.64200 11.81600 27.03200
H  45.82600 10.83000 27.99400
H  45.46100 12.54200 28.43200
H  42.59100 11.89800 32.81200
H  42.49700 9.88100 36.54300
H  44.03700 10.79200 36.32900
H  43.92900 9.11300 35.90200
Mg 54.23500 24.67100 43.45900
C  51.66300 27.05300 43.29300
C  51.85700 22.23600 43.00600
C  56.72900 22.53900 42.87500
C  56.64400 27.35200 43.57400
N  52.02600 24.70000 43.13000
C  51.22500 25.79200 43.03800
C  49.77700 25.30300 42.91800
C  49.79800 23.76500 43.37400
C  51.28700 23.51700 43.17900
C  49.46000 23.56100 44.86900
C  49.11700 25.52300 41.47400
C  49.82400 24.95800 40.22300
H  50.40200 25.89800 39.18600
N  54.31500 22.56800 43.04600
C  53.19400 21.75900 42.96600
C  53.65100 20.39300 42.71100
C  55.09200 20.46700 42.64100
C  55.41800 21.87400 42.91500
C  52.75500 19.30400 42.37500
C  56.04000 19.28800 42.16600
O  55.58300 18.20400 41.91500
C  57.46700 19.47900 41.91500
N  56.40800 24.96100 42.95600
C  57.20500 23.86500 42.98700
C  58.64800 24.24500 42.94200
C  58.57700 25.86700 42.97800
C  57.13200 26.10000 43.17800
C  59.41300 23.69900 44.13400
C  59.11900 26.57100 41.68900
C  59.93100 27.79900 41.83800
N  54.24800 26.77900 43.43300
C  55.27000 27.74700 43.59600
C  54.67400 29.05400 43.82700
C  53.28500 28.81600 43.61900
C  53.02600 27.45400 43.39800
C  55.27500 30.35200 44.05000
C  51.95000 29.48000 43.66800
O  51.60800 30.64200 43.85500
C  50.85800 28.30800 43.21300
C  50.48600 28.78400 41.87400
O  51.17400 28.59500 40.89800
O  49.20600 29.35500 41.83900
C  48.69300 29.75600 40.55700
H  51.11000 21.51000 42.67500
H  57.51800 21.79500 43.00300
H  57.38600 28.14600 43.68300
H  49.21900 25.85800 43.67200
H  49.12200 23.16100 42.76900
H  48.60400 24.18100 45.13400
H  50.31800 23.89200 45.45400
H  49.31500 22.52000 45.15600
H  48.84800 26.56900 41.33100
H  48.17200 24.97900 41.49000
H  49.09900 24.29600 39.74900
H  50.64000 24.37200 40.64700
H  52.70900 19.20500 41.29100
H  51.79100 19.69100 42.70500
H  52.98100 18.43800 42.99700
H  57.58200 20.42000 41.37800
H  57.87400 18.63500 41.35800
H  57.89400 19.51000 42.91800
H  59.04200 23.82900 42.01400
H  59.18700 26.17600 43.82600
H  59.44100 24.44100 44.93200
H  60.38800 23.29800 43.85700
H  58.90900 22.82900 44.55400
H  58.18600 26.82300 41.18500
H  59.60500 25.78300 41.11300
H  60.28900 27.89900 42.86200
H  59.37100 28.68200 41.52700
H  60.86600 27.73200 41.28300
H  54.49700 31.05200 43.74300
H  56.14600 30.51200 43.41500
H  55.47300 30.47600 45.11500
H  50.09000 28.42200 43.97800
H  48.94300 29.08200 39.73800
H  48.91500 30.78000 40.25900
H  47.60900 29.69300 40.65400

