158

Mg 0.61300 7.63600 25.67700
C  1.32300 9.70600 28.62100
C  1.03300 5.03700 27.89800
C  0.20800 5.72700 23.12600
C  0.61000 10.57700 23.84100
N  1.17400 7.40500 28.04900
C  1.22400 8.39000 29.02600
C  1.49000 7.74300 30.37100
C  1.64600 6.21600 30.07100
C  1.16600 6.18300 28.61600
C  3.00100 5.57500 30.36800
C  0.39000 8.12400 31.30100
C  0.71600 7.98400 32.81200
H  1.76300 6.96700 33.33900
N  0.62900 5.63900 25.53600
C  0.79200 4.72900 26.53500
C  0.67200 3.38800 25.99500
C  0.41900 3.52900 24.55400
C  0.37500 5.00400 24.36600
C  0.71700 2.16200 26.77200
C  0.27700 2.52900 23.46400
O  -0.07900 2.85700 22.33300
C  0.46800 1.08400 23.72100
N  0.63600 8.14900 23.75400
C  0.36100 7.13400 22.80400
C  0.11300 7.79900 21.39800
C  -0.17300 9.29200 21.75600
C  0.40000 9.35000 23.21600
C  1.30600 7.46900 20.43100
C  -1.73600 9.59600 21.77700
C  -2.19100 10.93000 21.21900
N  0.98700 9.74800 26.09500
C  0.92000 10.81700 25.18300
C  1.38600 12.04100 25.87400
C  1.50100 11.70000 27.25000
C  1.28800 10.30100 27.31500
C  1.41200 13.48000 25.25200
C  1.70200 12.20600 28.55800
O  1.95200 13.34900 28.92300
C  1.63400 10.97700 29.49700
C  2.84800 10.81300 30.35300
O  3.87300 10.17300 30.08000
O  2.62400 11.43700 31.52000
C  3.67200 11.37400 32.54200
H  1.04800 4.15500 28.54100
H  0.04100 5.17700 22.19700
H  0.41300 11.40300 23.15500
H  2.42600 8.15600 30.74600
H  0.86100 5.70800 30.63200
H  3.40800 5.36200 29.37900
H  2.90000 4.64200 30.92300
H  3.46300 6.31300 31.02300
H  -0.48800 7.48300 31.22500
H  0.13600 9.15600 31.05800
H  -0.19300 7.71200 33.34900
H  1.04100 8.97900 33.11600
H  -0.00400 1.42400 26.42000
H  0.36900 2.40900 27.77500
H  1.71200 1.72300 26.85500
H  1.35600 0.92800 24.33300
H  0.48800 0.46400 22.82400
H  -0.37000 0.78700 24.35100
H  -0.78700 7.38000 20.94900
H  0.27600 9.92200 20.98900
H  1.95600 6.80500 21.00200
H  1.84800 8.38800 20.20600
H  0.87300 7.04300 19.52600
H  -1.96000 9.66600 22.84100
H  -2.38100 8.80900 21.38600
H  -1.31900 11.44400 20.81400
H  -2.72500 11.54000 21.94800
H  -2.87800 10.76200 20.38900
H  0.62700 14.13600 25.62900
H  1.22800 13.54200 24.18000
H  2.34200 13.98900 25.50300
H  0.82900 11.20200 30.19700
H  4.27500 12.27800 32.44800
H  4.33100 10.51800 32.39600
H  3.11400 11.41600 33.47700
Mg 17.35300 52.21800 26.52000
C  19.23800 50.70200 29.01900
C  14.94900 53.13100 28.97600
C  15.47400 53.70800 24.06400
C  19.69800 51.12600 24.12900
N  17.02600 51.75900 28.78000
C  18.02700 51.20700 29.58200
C  17.65400 51.47900 31.06200
C  16.11400 51.84900 30.95200
C  16.04300 52.33400 29.48800
C  15.19900 50.61000 31.05600
C  18.47300 52.67600 31.55300
C  18.69800 52.85500 33.07300
H  17.89800 51.91700 34.04500
N  15.56600 53.34500 26.50900
C  14.70700 53.52700 27.61800
C  13.62200 54.35500 27.19900
C  13.80800 54.66800 25.87900
C  14.95200 53.86800 25.41900
C  12.42200 54.56200 28.11500
C  12.88400 55.48300 24.96700
O  13.10200 55.48000 23.79800
C  11.76600 56.33900 25.44000
N  17.57800 52.27900 24.33100
C  16.59000 52.91000 23.58500
C  16.96500 52.72800 22.06200
C  18.52600 52.28900 22.16100
C  18.59200 51.80500 23.58000
C  15.95000 51.77400 21.44100
C  19.56100 53.46500 22.01200
C  20.64900 53.26900 21.04500
N  19.00600 51.01500 26.44000
C  19.91200 50.68300 25.44100
C  21.09100 50.02300 25.95600
C  20.79700 49.93800 27.38000
C  19.56500 50.62100 27.59900
C  22.34300 49.45400 25.24600
C  21.26700 49.52600 28.68500
O  22.25100 48.81900 28.94600
C  20.38300 50.18400 29.76200
C  20.05400 49.16200 30.83900
O  19.41700 48.09600 30.76600
O  20.83300 49.55900 31.91500
C  20.85600 48.56900 33.04600
H  14.31600 53.53000 29.77100
H  14.94700 54.24000 23.26900
H  20.51000 50.72200 23.52000
H  17.79400 50.57700 31.65700
H  15.77200 52.55700 31.70600
H  14.40800 50.64200 30.30700
H  14.69700 50.51700 32.02000
H  15.77800 49.69500 30.93600
H  18.04700 53.57300 31.10300
H  19.51400 52.54000 31.26000
H  18.65300 53.92500 33.27600
H  19.77900 52.77700 33.18900
H  12.38700 53.78700 28.87900
H  11.44500 54.43600 27.64800
H  12.38500 55.55000 28.57400
H  10.89200 55.78800 25.78800
H  11.47600 57.12400 24.74200
H  12.25500 56.80100 26.29800
H  16.86000 53.70600 21.59200
H  18.84500 51.54000 21.43500
H  15.07900 51.59700 22.07300
H  16.41300 50.80900 21.23900
H  15.57900 52.26300 20.54100
H  20.01600 53.63500 22.98800
H  19.01100 54.40600 22.02000
H  20.56100 52.34700 20.47200
H  21.68400 53.35100 21.37900
H  20.46400 54.08300 20.34500
H  23.22100 49.92200 25.69200
H  22.27700 49.76600 24.20300
H  22.41400 48.36900 25.32100
H  21.04900 50.92200 30.20900
H  21.71000 48.95700 33.60200
H  21.05500 47.53700 32.75700
H  20.01300 48.62600 33.73400

