158

Mg 25.85900 1.43500 29.89500
C  27.73300 1.24100 33.01400
C  23.08200 1.99000 31.83400
C  24.11600 1.39100 27.06200
C  28.69400 0.37200 28.21600
N  25.52000 1.30300 32.10500
C  26.40700 1.43400 33.24500
C  25.64300 1.54400 34.60100
C  24.21200 1.73900 34.10700
C  24.22500 1.62100 32.57200
C  23.16800 0.83700 34.80600
C  26.24000 2.66600 35.51900
C  26.40600 2.15800 36.99000
H  26.15800 3.13700 38.08800
N  23.89000 1.74800 29.46000
C  22.90200 1.91400 30.44200
C  21.60700 1.96100 29.70200
C  21.84300 1.61000 28.31100
C  23.30600 1.56700 28.25200
C  20.26100 2.08800 30.45900
C  20.89900 1.24300 27.22000
O  21.36800 0.78700 26.17600
C  19.45600 1.32100 27.44000
N  26.29400 0.81100 27.96100
C  25.43800 1.15100 26.92800
C  26.07000 0.99500 25.58400
C  27.53800 0.54900 25.96000
C  27.54900 0.49800 27.46700
C  25.42100 -0.05500 24.57300
C  28.67300 1.41800 25.24200
C  29.30300 2.62800 25.97800
N  27.86800 0.98600 30.42700
C  28.82900 0.47900 29.60600
C  30.04900 0.41100 30.40100
C  29.67600 0.68800 31.74400
C  28.35300 1.00900 31.71900
C  31.40600 0.16900 29.86200
C  30.23300 0.81800 33.09500
O  31.38800 0.85700 33.55100
C  28.95300 1.13300 34.01600
C  28.80400 0.01300 34.88200
O  28.23400 -1.04400 34.58900
O  29.32300 0.31400 36.11700
C  29.20400 -0.73700 37.15200
H  22.15900 2.23900 32.36200
H  23.52600 1.57100 26.16100
H  29.65000 0.04600 27.80000
H  25.75000 0.58200 35.10300
H  24.02200 2.80300 34.24700
H  22.37600 1.36100 35.34100
H  23.65000 0.02900 35.35800
H  22.64800 0.33100 33.99400
H  25.55800 3.51600 35.52500
H  27.09400 3.17100 35.06700
H  27.40700 1.74800 37.12300
H  25.65900 1.37100 37.09400
H  19.74700 3.02500 30.24500
H  20.38500 2.01700 31.54000
H  19.75500 1.16600 30.17400
H  19.22800 0.31600 27.79500
H  19.02400 1.52100 26.45900
H  19.12500 2.18500 28.01600
H  25.99700 1.93300 25.03300
H  27.65400 -0.45000 25.54200
H  24.48700 -0.39700 25.01700
H  25.98200 -0.98300 24.45900
H  25.34300 0.54100 23.66300
H  28.31300 1.82700 24.29800
H  29.43800 0.65400 25.10100
H  28.71000 2.77100 26.88200
H  29.17900 3.59900 25.50000
H  30.33600 2.39700 26.23600
H  31.48200 0.79900 28.97600
H  31.52200 -0.85500 29.50500
H  32.09400 0.37600 30.68200
H  29.18100 2.01900 34.60900
H  28.30600 -0.63700 37.76200
H  30.13700 -0.82700 37.70900
H  29.04500 -1.69700 36.66100
Mg 6.04700 54.29000 41.40000
C  5.55000 50.73700 41.22700
C  9.25700 53.60300 40.30400
C  6.40900 57.40100 41.14300
C  2.61900 54.60100 42.06400
N  7.15100 52.35600 40.55500
C  6.74500 51.06900 40.64000
C  7.78100 50.12600 40.12800
C  9.06500 50.97700 40.27200
C  8.44800 52.40500 40.37000
C  10.01500 50.53600 41.45400
C  7.42600 49.65000 38.67100
C  6.82700 50.63300 37.63400
H  5.89600 50.00700 36.55500
N  7.67100 55.39900 40.85200
C  8.90000 54.95800 40.44400
C  9.70300 56.15800 40.28000
C  8.95000 57.27900 40.51900
C  7.58700 56.72100 40.79600
C  11.14800 56.09100 39.85900
C  9.45700 58.77200 40.60200
O  10.65500 59.00000 40.39200
C  8.51100 59.91200 40.95100
N  4.65500 55.73500 41.37500
C  5.10400 57.00400 41.44000
C  4.03200 58.01200 41.89200
C  2.80700 57.12900 41.79700
C  3.36800 55.66500 41.76600
C  4.33900 58.60800 43.37400
C  1.82100 57.41200 40.68900
C  1.93600 56.77100 39.30500
N  4.41300 52.94900 41.63500
C  3.12700 53.26000 42.07200
C  2.49100 51.97000 42.47400
C  3.40000 50.99500 42.05900
C  4.55200 51.64200 41.65300
C  1.05300 51.77000 42.96700
C  3.62300 49.60700 42.13900
O  2.90700 48.64900 42.42600
C  5.03000 49.37600 41.50100
C  4.75000 48.50200 40.33500
O  4.05000 48.88900 39.40200
O  5.23400 47.24600 40.63000
C  4.46700 46.24400 39.83500
H  10.30000 53.28300 40.26200
H  6.45600 58.47000 41.36300
H  1.56700 54.74900 42.31800
H  7.84800 49.22600 40.74000
H  9.56600 50.86000 39.31100
H  11.02000 50.40100 41.05400
H  9.66100 49.55000 41.75500
H  10.01000 51.27300 42.25800
H  6.73600 48.80900 38.75200
H  8.35300 49.34400 38.18600
H  7.62600 51.05000 37.02000
H  6.33800 51.44300 38.17500
H  11.52800 55.06900 39.85100
H  11.59500 56.60500 40.71000
H  11.36800 56.62100 38.93200
H  9.02900 60.84700 41.16500
H  8.07200 59.64900 41.91400
H  7.74500 60.05300 40.18900
H  4.01600 58.81500 41.15500
H  2.19900 57.04300 42.69800
H  4.86000 57.91700 44.03700
H  3.35400 58.84600 43.77600
H  4.84300 59.57400 43.33300
H  1.74700 58.48400 40.50800
H  0.87900 57.14600 41.16800
H  1.05600 56.14400 39.16800
H  2.92600 56.33500 39.17300
H  1.87900 57.57600 38.57300
H  1.05600 50.71500 43.24200
H  0.41100 51.78000 42.08600
H  0.66200 52.37800 43.78200
H  5.46500 48.80700 42.32300
H  4.94300 46.24900 38.85400
H  3.41400 46.52300 39.82900
H  4.69200 45.29700 40.32500

