158

Mg 25.98300 0.98900 29.39800
C  27.94400 0.45900 32.30100
C  23.24700 1.51600 31.48100
C  23.98600 1.27900 26.63500
C  28.62200 0.05800 27.50800
N  25.61200 0.93200 31.60900
C  26.60000 0.74100 32.57600
C  25.96800 0.88600 33.94500
C  24.43300 1.01600 33.69700
C  24.38700 1.14500 32.20200
C  23.59400 -0.16500 34.20900
C  26.63400 2.03400 34.73000
C  27.30000 1.59300 36.03300
H  26.93600 2.28500 37.39200
N  23.94300 1.44100 29.06700
C  22.99000 1.64100 30.11700
C  21.73600 1.85100 29.48600
C  21.92400 1.67600 28.09400
C  23.30700 1.45100 27.87400
C  20.37300 1.86100 30.24800
C  20.88500 1.59600 26.99900
O  21.09600 1.28100 25.83900
C  19.49200 2.02900 27.25500
N  26.31300 0.68200 27.34200
C  25.35600 0.97900 26.38500
C  25.91100 0.58200 24.97600
C  27.44700 0.35400 25.22500
C  27.48400 0.31300 26.77500
C  25.11400 -0.54700 24.22500
C  28.33900 1.46900 24.58700
C  28.91700 2.56900 25.50900
N  27.98800 0.48100 29.76300
C  28.91700 0.10300 28.88600
C  30.06400 -0.37200 29.64300
C  29.80500 -0.14500 30.96600
C  28.49900 0.27000 30.99500
C  31.35300 -0.99500 29.13900
C  30.28100 -0.27800 32.31100
O  31.34500 -0.67000 32.71700
C  29.06700 0.12700 33.24700
C  28.72100 -0.96300 34.08400
O  27.99000 -1.87700 33.77400
O  29.48100 -0.96400 35.22400
C  29.18900 -2.05300 36.21600
H  22.36600 1.71900 32.09400
H  23.47500 1.69900 25.76600
H  29.46400 -0.15600 26.84600
H  26.15200 -0.05000 34.47100
H  24.02600 1.93600 34.11700
H  24.14900 -0.97300 34.68600
H  23.00500 -0.59600 33.39900
H  22.84800 0.23500 34.89500
H  25.97300 2.78000 35.17100
H  27.30900 2.58600 34.07500
H  28.33900 1.89900 35.90800
H  27.21100 0.50700 36.03100
H  19.79800 1.02400 29.85200
H  19.96700 2.84200 30.00100
H  20.39100 1.74500 31.33200
H  19.09500 1.19900 27.84000
H  19.02400 2.12900 26.27500
H  19.55300 3.02200 27.70000
H  25.79900 1.49400 24.39000
H  27.85300 -0.52600 24.72700
H  25.92200 -1.18300 23.86500
H  24.54200 -0.19300 23.36700
H  24.58900 -1.10300 25.00200
H  27.69700 1.99100 23.87800
H  29.10700 1.04500 23.93900
H  28.40900 2.70700 26.46400
H  28.71100 3.52100 25.02000
H  29.96500 2.27300 25.55500
H  31.99200 -1.23900 29.98800
H  31.98900 -0.30700 28.58300
H  31.25400 -1.98500 28.69400
H  29.33500 1.02400 33.80500
H  29.00600 -3.00800 35.72300
H  28.35600 -1.71400 36.83100
H  30.16300 -2.14700 36.69500
Mg -11.52500 16.05000 41.04300
C  -8.59000 14.11700 41.34000
C  -9.59200 18.70100 39.94400
C  -14.33100 17.71300 40.31600
C  -13.34700 13.19000 41.97300
N  -9.35400 16.34900 40.81400
C  -8.38100 15.38100 40.87400
C  -7.06200 15.96800 40.45600
C  -7.37900 17.42300 40.02400
C  -8.86100 17.50700 40.33500
C  -6.53100 18.55900 40.67100
C  -6.37800 15.02100 39.41400
C  -4.90700 14.54100 39.80400
H  -3.81700 14.71600 38.72300
N  -11.91100 17.98000 40.25800
C  -10.97800 18.95100 39.98700
C  -11.65900 20.16100 39.54400
C  -13.06000 19.83000 39.48600
C  -13.20200 18.49900 40.05300
C  -10.86300 21.50300 39.04600
C  -14.16800 20.73100 38.82500
O  -13.81300 21.84700 38.47000
C  -15.64700 20.36900 38.71100
N  -13.47100 15.51000 41.00500
C  -14.50500 16.43500 40.75600
C  -15.89000 15.78000 40.83700
C  -15.48600 14.33500 41.36300
C  -14.00900 14.33200 41.45700
C  -17.01100 16.43900 41.74900
C  -16.22900 13.12600 40.56400
C  -17.04200 12.32600 41.58400
N  -11.13300 14.02400 41.54800
C  -11.94400 12.99400 41.99400
C  -11.13900 11.88500 42.55300
C  -9.82600 12.30500 42.28000
C  -9.91300 13.56700 41.67400
C  -11.65800 10.58800 43.08600
C  -8.48500 11.89600 42.41800
O  -8.00800 10.90800 42.86000
C  -7.59000 13.15800 41.99300
C  -6.84200 13.63100 43.18100
O  -7.29800 14.42100 44.02100
O  -5.55800 13.14800 43.12200
C  -4.62700 14.01000 43.82300
H  -8.99500 19.54400 39.58800
H  -15.27800 18.23200 40.15500
H  -14.00600 12.36300 42.24400
H  -6.51700 15.99600 41.39900
H  -7.12300 17.44900 38.96500
H  -7.11400 19.26400 41.26400
H  -5.94600 19.00000 39.86400
H  -5.79600 18.05000 41.29500
H  -6.23700 15.53600 38.46400
H  -6.99900 14.14700 39.21400
H  -5.01200 13.48900 40.06800
H  -4.67100 15.12800 40.69300
H  -10.80200 21.42600 37.96000
H  -9.91600 21.54300 39.58300
H  -11.38400 22.41000 39.35200
H  -16.18700 21.00700 38.01200
H  -16.04100 20.42200 39.72600
H  -15.71100 19.37200 38.27500
H  -16.26400 15.69900 39.81700
H  -15.80500 14.35500 42.40500
H  -16.49200 17.06100 42.47800
H  -17.51100 15.56500 42.16500
H  -17.78500 17.03900 41.27100
H  -15.50100 12.47300 40.08400
H  -17.03100 13.48000 39.91700
H  -18.07000 12.63900 41.76800
H  -16.42500 12.40700 42.48000
H  -17.10700 11.30300 41.21300
H  -10.72300 10.06500 43.28800
H  -12.30400 10.05000 42.39300
H  -12.31700 10.62900 43.95400
H  -6.75200 13.06700 41.30200
H  -4.70300 13.85900 44.90000
H  -4.75200 15.06600 43.57900
H  -3.63800 13.63100 43.56800

