158

Mg 50.44200 46.62700 41.15300
C  47.08700 47.36300 40.02600
C  49.82700 43.34400 40.16500
C  53.77400 46.18900 41.04900
C  50.85500 50.14000 41.59100
N  48.57800 45.52100 40.32100
C  47.43700 46.00100 39.83400
C  46.56300 44.93700 39.17900
C  47.34900 43.62100 39.66900
C  48.68300 44.19100 40.05200
C  46.81000 42.81200 40.79900
C  46.40000 45.15800 37.63800
C  44.94600 45.16700 37.15500
H  44.66300 43.99800 36.13000
N  51.69300 44.93600 40.71100
C  51.16900 43.65600 40.38000
C  52.34700 42.83600 40.30600
C  53.53600 43.62800 40.51300
C  53.05900 44.94900 40.80300
C  52.32200 41.35900 40.04200
C  54.94600 43.00600 40.46700
O  55.16800 41.84000 40.12500
C  56.04100 43.95200 40.76400
N  52.11700 48.05200 41.16400
C  53.33300 47.52800 41.24800
C  54.33400 48.65000 41.72700
C  53.42200 49.90600 41.98100
C  52.01800 49.38400 41.52000
C  55.20100 48.27400 42.98900
C  53.91900 51.25800 41.28300
C  54.08400 52.49700 42.21500
N  49.19200 48.42600 41.10800
C  49.51300 49.74900 41.23300
C  48.31900 50.53300 41.06700
C  47.34200 49.66200 40.51700
C  47.96400 48.37400 40.50300
C  48.34100 52.02300 41.24800
C  46.07200 49.59900 39.90800
O  45.32600 50.53500 39.62900
C  45.80400 48.06100 39.69500
C  44.71100 47.70600 40.66600
O  44.86300 47.41200 41.80000
O  43.50600 47.98200 40.11500
C  42.41700 48.13300 41.07900
H  49.55400 42.31800 39.91100
H  54.86200 46.23300 41.13000
H  50.98400 51.20400 41.79900
H  45.53700 44.94400 39.54700
H  47.61700 42.91400 38.88400
H  46.59900 41.81800 40.40700
H  45.89300 43.18200 41.25700
H  47.54300 42.69400 41.59700
H  46.91700 44.32500 37.16300
H  46.81900 46.04300 37.15800
H  44.69600 46.13400 36.71700
H  44.14300 45.04100 37.88100
H  51.34500 41.00800 39.71200
H  52.57200 40.93800 41.01600
H  53.00000 41.08200 39.23500
H  55.82800 44.41900 41.72600
H  55.98600 44.67300 39.94900
H  56.94300 43.34400 40.69600
H  55.05500 48.81900 40.92700
H  53.49600 50.09300 43.05200
H  56.21400 48.28600 42.58700
H  54.93300 47.31200 43.42600
H  55.18700 48.91800 43.86900
H  53.23300 51.36200 40.44300
H  54.93600 51.06300 40.94100
H  53.70000 53.28200 41.56500
H  55.13200 52.65900 42.46700
H  53.56500 52.50200 43.17300
H  49.22700 52.39600 40.73600
H  48.23000 52.34400 42.28400
H  47.51300 52.54300 40.76700
H  45.47900 47.95800 38.66000
H  41.50300 47.57600 40.87200
H  42.16600 49.18900 40.97800
H  42.64400 47.78500 42.08600
Mg 41.36400 41.60100 26.48700
C  40.76300 43.74200 29.18300
C  42.90200 39.39600 28.75400
C  42.04500 39.48900 23.98900
C  40.67600 44.05200 24.24400
N  41.70700 41.54500 28.72000
C  41.31600 42.48400 29.55500
C  41.48800 42.03600 31.03600
C  42.57300 40.76700 30.89700
C  42.43500 40.53900 29.39000
C  43.99000 41.03500 31.40800
C  40.18500 41.88200 31.90100
C  40.07200 42.72000 33.18900
H  39.83800 41.90700 34.48300
N  42.31500 39.70400 26.41500
C  42.86000 38.98800 27.41000
C  43.37200 37.75200 26.94600
C  43.17800 37.71200 25.54800
C  42.47700 39.02400 25.25400
C  44.08500 36.62800 27.79400
C  43.57200 36.62500 24.52100
O  43.45500 36.80700 23.34200
C  44.13000 35.34000 25.03400
N  41.41400 41.76100 24.39400
C  41.71200 40.70000 23.51900
C  41.31700 41.05100 22.04800
C  41.00600 42.63200 22.18200
C  40.97800 42.83600 23.64700
C  42.33900 40.66700 21.03200
C  39.66900 43.06100 21.49900
C  39.85300 44.29000 20.60200
N  40.80000 43.50400 26.62000
C  40.60700 44.39100 25.58500
C  40.22000 45.61600 26.15100
C  40.23800 45.44500 27.56600
C  40.60600 44.12900 27.81600
C  39.95300 46.82200 25.37000
C  39.96700 46.04800 28.90500
O  39.53200 47.19100 29.19800
C  40.29400 44.99900 29.90300
C  41.41300 45.51800 30.78000
O  42.55500 45.14900 30.74100
O  40.92100 46.41200 31.72900
C  41.81900 46.80600 32.78900
H  43.29900 38.72600 29.52000
H  42.22500 38.80900 23.15300
H  40.32200 44.80000 23.53200
H  42.10400 42.82600 31.46700
H  42.16000 39.90600 31.42100
H  44.18800 42.09700 31.26100
H  44.66800 40.32200 30.93800
H  44.00500 40.88600 32.48800
H  40.09400 40.83100 32.17700
H  39.36800 42.11400 31.21800
H  39.26100 43.43700 33.05700
H  41.00300 43.26600 33.34100
H  45.08200 36.56800 27.35600
H  43.48400 35.71900 27.79500
H  44.08700 36.97900 28.82600
H  43.43700 34.80100 25.68000
H  45.06900 35.51400 25.56000
H  44.47700 34.69000 24.23100
H  40.38100 40.58600 21.73900
H  41.85000 43.21600 21.81400
H  42.81200 41.53600 20.57600
H  41.79600 40.15300 20.23800
H  43.05000 40.14200 21.67000
H  38.93300 43.26700 22.27600
H  39.19900 42.26900 20.91600
H  40.15500 45.12800 21.23000
H  38.94800 44.61500 20.08800
H  40.54800 44.12500 19.77800
H  40.81500 46.82400 24.70300
H  39.99800 47.76700 25.91100
H  39.03600 46.67200 24.80000
H  39.45400 44.73700 30.54700
H  42.24500 47.80000 32.65100
H  42.60400 46.10200 33.06500
H  41.11600 46.99900 33.60000

