158

Mg 48.02100 34.62100 27.26800
C  45.87700 33.07200 29.76600
C  48.67100 37.16900 29.52700
C  49.22100 36.32800 24.84900
C  47.10400 31.99400 25.23600
N  47.25700 35.02000 29.26900
C  46.49400 34.24300 30.18700
C  46.77500 34.79600 31.59800
C  47.03900 36.33200 31.35500
C  47.75800 36.15300 29.97400
C  45.85000 37.24300 31.29900
C  47.99400 34.03400 32.39100
C  47.60400 33.54800 33.84000
H  48.07900 34.38600 35.01100
N  48.90200 36.45300 27.16000
C  49.17600 37.29600 28.24700
C  49.81000 38.54300 27.75800
C  50.02700 38.26700 26.34300
C  49.33600 36.99300 26.07800
C  50.24000 39.67400 28.62200
C  50.69300 39.22600 25.45000
O  50.80100 38.98600 24.29200
C  51.03000 40.61700 25.92800
N  48.10300 34.25700 25.29400
C  48.77000 35.12700 24.51000
C  48.78900 34.58600 23.00900
C  48.29400 33.07300 23.21300
C  47.74500 33.11000 24.67700
C  47.94300 35.44100 21.98200
C  49.40800 32.01100 23.10900
C  50.71600 32.00600 23.95900
N  46.82500 32.90400 27.43800
C  46.59400 31.87600 26.57000
C  45.76300 30.85600 27.07700
C  45.47600 31.25400 28.34500
C  46.09400 32.52200 28.49200
C  45.63000 29.55200 26.40900
C  44.82200 30.90800 29.58200
O  44.20300 29.95800 29.95700
C  44.98600 32.12400 30.53100
C  45.49000 31.60500 31.76600
O  46.60700 31.12900 31.86700
O  44.48400 31.56200 32.71200
C  44.84000 30.83700 33.97900
H  48.88700 37.89700 30.31200
H  49.73900 36.81000 24.01700
H  46.86200 31.31500 24.41600
H  45.82500 34.81500 32.13200
H  47.68600 36.80200 32.09600
H  44.98500 36.58300 31.23900
H  45.81800 37.87500 30.41100
H  45.74700 37.84600 32.20200
H  48.87200 34.67500 32.47500
H  48.37300 33.16400 31.85500
H  47.85000 32.50800 34.05400
H  46.53300 33.63400 34.02000
H  51.31800 39.81300 28.69400
H  50.01200 39.41500 29.65600
H  49.68000 40.55000 28.29600
H  50.20200 41.19200 26.34200
H  51.28400 41.28500 25.10600
H  51.86200 40.61800 26.63300
H  49.82800 34.51700 22.68800
H  47.55000 32.81200 22.46100
H  48.55600 36.23300 21.55100
H  47.06900 35.91700 22.42800
H  47.53000 34.77400 21.22500
H  49.81500 32.23200 22.12200
H  49.07100 30.97500 23.08700
H  50.75800 31.01100 24.40100
H  50.69700 32.78300 24.72300
H  51.57500 32.05300 23.28900
H  46.08300 28.83000 27.08900
H  46.28500 29.55000 25.53800
H  44.63000 29.25100 26.09800
H  44.01600 32.60500 30.65000
H  45.19400 31.63400 34.63400
H  45.54400 30.01700 33.83700
H  43.97300 30.37200 34.44700
Mg 35.80700 49.00800 24.65300
C  35.60400 47.23900 27.85100
C  34.31900 51.68700 26.17100
C  35.22000 50.19100 21.58700
C  36.64400 45.84700 23.21600
N  35.19600 49.45800 26.77600
C  35.16400 48.58700 27.91400
C  34.83300 49.31200 29.19500
C  34.22500 50.68100 28.56200
C  34.60700 50.64400 27.06800
C  32.71200 50.95600 28.70000
C  35.97100 49.47600 30.17900
C  35.92700 48.80600 31.56300
H  34.88800 49.48000 32.50400
N  34.94200 50.79800 23.99000
C  34.43900 51.78000 24.75100
C  34.04200 52.93500 23.87200
C  34.28900 52.49700 22.52900
C  34.92400 51.13000 22.62200
C  33.55900 54.22900 24.39600
C  33.97200 53.26900 21.19100
O  34.27400 52.88300 20.07000
C  33.32100 54.62900 21.23800
N  35.77700 47.98500 22.67300
C  35.58400 48.78700 21.57100
C  35.82700 48.01600 20.28700
C  36.50700 46.70200 20.82500
C  36.25700 46.80100 22.34600
C  34.57200 47.72100 19.33000
C  37.93800 46.35300 20.39600
C  39.15300 46.85000 21.29200
N  36.11700 47.01100 25.33300
C  36.51400 45.81700 24.63200
C  36.85300 44.77500 25.55400
C  36.42000 45.25800 26.77800
C  36.01400 46.61500 26.64500
C  37.45500 43.47600 25.25600
C  36.30500 44.88900 28.19100
O  36.47100 43.81300 28.72100
C  35.82400 46.19700 28.90800
C  34.63400 45.82400 29.70100
O  33.45900 46.09900 29.46500
O  35.05500 45.15800 30.78400
C  34.09900 44.77300 31.67100
H  33.94900 52.56800 26.69800
H  35.12800 50.66200 20.60600
H  36.93600 44.87000 22.82700
H  34.10200 48.66200 29.67700
H  34.72000 51.54000 29.01500
H  32.26800 50.13400 29.26100
H  32.35600 51.13000 27.68500
H  32.53900 51.94700 29.12000
H  36.10100 50.55300 30.29100
H  36.89400 49.19900 29.67100
H  36.93600 48.82300 31.97500
H  35.60300 47.77800 31.39600
H  34.18500 55.09800 24.19400
H  33.49200 54.19100 25.48300
H  32.63300 54.60600 23.96100
H  32.29300 54.45300 21.55500
H  33.35400 55.08000 20.24600
H  33.77600 55.45100 21.79100
H  36.48800 48.54700 19.60200
H  35.89500 45.87300 20.47200
H  34.58000 46.70800 18.92800
H  34.46400 48.48400 18.55900
H  33.63200 47.87300 19.86000
H  38.18000 46.67300 19.38300
H  38.02000 45.26700 20.35900
H  38.93400 47.03000 22.34500
H  39.44500 47.83400 20.92600
H  39.93100 46.08600 21.29600
H  38.26300 43.66700 24.55000
H  36.74500 42.93900 24.62700
H  37.78800 42.98600 26.17100
H  36.62700 46.48800 29.58500
H  33.35000 44.18600 31.14100
H  33.65100 45.68600 32.06300
H  34.57200 44.25300 32.50400

