158

Mg 44.09600 5.27200 47.05300
C  42.07500 8.17200 46.73900
C  41.33600 3.31400 46.45600
C  45.99400 2.57300 46.54000
C  46.83600 7.34400 46.95100
N  41.91600 5.73400 46.75600
C  41.34700 6.91400 46.51300
C  39.90900 6.74700 45.98500
C  39.62200 5.19300 46.34200
C  41.00900 4.67900 46.49900
C  38.60100 4.86900 47.56100
C  39.71200 7.04500 44.41200
C  39.08500 8.40300 44.00300
H  39.70500 9.19800 42.87300
N  43.69200 3.19300 46.60400
C  42.50000 2.57000 46.43700
C  42.63400 1.19800 46.16900
C  44.02200 0.91100 46.20000
C  44.67400 2.23100 46.45400
C  41.48300 0.29400 45.87000
C  44.65800 -0.53400 46.01300
O  43.93000 -1.53000 45.77400
C  46.10500 -0.71800 45.77400
N  46.09400 4.98200 46.95500
C  46.65800 3.79400 46.79000
C  48.17500 3.84200 46.71100
C  48.53100 5.34200 46.66000
C  47.09200 5.95400 46.92200
C  48.80400 2.96300 47.84200
C  49.03200 5.92100 45.28100
C  50.29400 5.31900 44.66100
N  44.45800 7.35000 46.99000
C  45.63800 8.01300 46.97500
C  45.36100 9.42400 46.95300
C  43.96200 9.54900 46.91000
C  43.45100 8.24400 46.92800
C  46.36400 10.57600 46.88800
C  42.84200 10.49000 46.84300
O  42.80700 11.71100 46.81000
C  41.58800 9.60900 46.66400
C  40.61500 9.94400 47.72800
O  40.65500 9.46600 48.86000
O  39.67000 10.86300 47.30700
C  38.58600 11.17500 48.13900
H  40.44400 2.69000 46.37500
H  46.68200 1.82200 46.14600
H  47.66400 8.05600 46.97600
H  39.24600 7.45200 46.48600
H  39.20100 4.74300 45.44300
H  38.16900 3.91800 47.25200
H  37.76800 5.51400 47.84200
H  39.21800 4.86700 48.46000
H  39.15500 6.18700 44.03600
H  40.67900 6.95500 43.91700
H  39.04900 8.99200 44.92000
H  38.01600 8.22400 43.89200
H  40.48300 0.70200 46.01900
H  41.63800 -0.56500 46.52200
H  41.73200 -0.13900 44.90100
H  46.38000 0.08100 45.08600
H  46.30000 -1.73500 45.43400
H  46.65600 -0.69700 46.71400
H  48.49600 3.36500 45.78600
H  49.11400 5.56200 47.55400
H  49.54300 3.53700 48.40200
H  49.23600 2.00100 47.56600
H  48.10200 2.78500 48.65600
H  49.37300 6.93700 45.48100
H  48.16700 5.86600 44.62000
H  50.28400 4.91700 43.64800
H  50.64600 4.57400 45.37500
H  51.16100 5.98000 44.66200
H  46.38800 11.05800 45.91000
H  47.33600 10.22800 47.23800
H  45.90700 11.24200 47.61900
H  41.20000 9.72000 45.65200
H  37.67100 10.91700 47.60600
H  38.46500 12.23400 48.36900
H  38.43100 10.47800 48.96200
Mg 34.35500 2.84000 30.08700
C  31.99600 3.89800 32.51600
C  36.88700 3.09500 32.53300
C  36.73900 2.55100 27.55900
C  31.87800 2.92800 27.65700
N  34.34900 3.43400 32.22600
C  33.28300 3.71300 33.08800
C  33.72100 3.69900 34.57500
C  35.25700 3.85900 34.42200
C  35.51500 3.42800 32.97000
C  35.93000 5.24200 34.74700
C  33.06600 2.48000 35.38900
C  32.63800 2.56600 36.88600
H  33.22900 3.67000 37.78200
N  36.41900 2.72500 30.06500
C  37.21200 2.70200 31.20500
C  38.59200 2.38400 30.77400
C  38.61200 2.30200 29.34000
C  37.19700 2.56900 28.91200
C  39.79500 2.24800 31.66700
C  39.72800 1.95300 28.38800
O  39.54300 1.73200 27.17700
C  41.11300 1.60600 28.90900
N  34.28500 2.56700 27.99200
C  35.41200 2.56300 27.15600
C  34.99100 2.54600 25.65200
C  33.39900 2.45100 25.72500
C  33.14300 2.68100 27.23500
C  35.48900 3.78800 24.83000
C  32.78700 1.16800 25.11900
C  32.15700 0.09500 26.06500
N  32.35700 3.32800 30.00700
C  31.45500 3.30500 28.93000
C  30.12600 3.67600 29.45600
C  30.30700 3.88200 30.81100
C  31.64200 3.61500 31.14400
C  28.87200 3.70300 28.64800
C  29.61900 4.22900 32.10600
O  28.45500 4.46500 32.39200
C  30.76000 4.27600 33.26400
C  30.89100 5.62500 33.80700
O  31.23100 6.61200 33.17200
O  30.66100 5.61600 35.18400
C  30.86200 6.89800 35.93300
H  37.73000 3.16700 33.22200
H  37.45400 2.56400 26.73400
H  31.09600 2.80600 26.90500
H  33.29800 4.64300 34.91500
H  35.76500 3.16300 35.08900
H  36.62000 5.17900 35.58800
H  35.13300 5.96100 34.94000
H  36.51700 5.63900 33.91800
H  33.73300 1.64500 35.17200
H  32.16000 2.21700 34.84300
H  32.94900 1.62900 37.34800
H  31.55800 2.64900 37.00800
H  40.74300 2.66600 31.33000
H  39.96800 1.20100 31.91600
H  39.68500 2.83900 32.57700
H  41.68900 2.49400 29.17000
H  41.63400 1.17100 28.05700
H  41.01000 0.81100 29.64700
H  35.51400 1.78900 25.06800
H  32.85900 3.20400 25.15100
H  34.70700 4.47900 24.51600
H  36.11100 3.45400 23.99900
H  36.19500 4.32000 25.46800
H  33.63600 0.64600 24.67700
H  32.11100 1.47100 24.31900
H  32.34300 0.24700 27.12800
H  32.47100 -0.89100 25.72100
H  31.08900 0.25000 25.91700
H  29.04400 3.41400 27.61200
H  28.39700 4.67300 28.79000
H  28.20300 3.06000 29.22000
H  30.51500 3.55000 34.03900
H  30.27600 7.76000 35.61500
H  31.92100 7.15400 35.95800
H  30.52700 6.56000 36.91400

