158

Mg 36.03600 49.86300 25.47800
C  36.06500 48.02100 28.51100
C  35.68800 52.73400 27.24600
C  35.87700 51.27400 22.54200
C  36.41800 46.63500 23.92900
N  35.72500 50.27300 27.61200
C  35.86400 49.42000 28.68200
C  35.83300 50.22500 30.04000
C  35.60800 51.65600 29.57600
C  35.69900 51.59200 28.05400
C  34.41000 52.39200 30.07800
C  37.05200 50.01700 30.92500
C  36.75100 49.81900 32.44700
H  35.32200 49.81200 32.96300
N  35.80100 51.75300 24.98800
C  35.80800 52.80000 25.84200
C  35.78700 53.96300 25.11300
C  35.86100 53.66900 23.70300
C  35.84600 52.14000 23.66000
C  35.72100 55.32200 25.64300
C  35.91700 54.64100 22.41800
O  35.86700 54.11700 21.30700
C  35.94500 56.26600 22.47900
N  36.03300 49.07500 23.49900
C  36.06600 49.89500 22.42500
C  36.26200 49.15100 21.10000
C  36.64300 47.65100 21.52900
C  36.41100 47.79400 23.14000
C  34.97700 49.26200 20.11000
C  38.09600 47.26600 21.21400
C  38.22900 45.75500 21.07700
N  36.19400 47.86300 26.03100
C  36.29700 46.68300 25.26900
C  36.32000 45.46000 26.06600
C  36.24700 45.97000 27.37600
C  36.08800 47.40500 27.30700
C  36.46300 44.00400 25.58800
C  36.42500 45.57100 28.74000
O  36.63000 44.46900 29.24500
C  36.23400 46.85800 29.60400
C  34.99000 46.59800 30.38100
O  33.86800 46.79700 29.93900
O  35.26100 46.04600 31.59800
C  34.03800 45.68800 32.36500
H  35.64000 53.67100 27.80600
H  36.02100 51.73000 21.56000
H  36.57400 45.70300 23.38300
H  34.86000 49.85100 30.35600
H  36.45000 52.30500 29.81800
H  33.94500 53.04900 29.34300
H  34.72600 53.04400 30.89300
H  33.60500 51.79200 30.50500
H  37.71800 50.87800 30.86100
H  37.60700 49.16600 30.53000
H  37.33400 50.63100 32.88100
H  37.12600 48.83300 32.72300
H  36.29400 56.01800 25.02900
H  36.13800 55.47400 26.63800
H  34.65400 55.52600 25.55800
H  36.83500 56.59500 23.01600
H  35.14300 56.54900 23.16100
H  35.87200 56.67600 21.47200
H  37.13300 49.70300 20.74700
H  35.99900 46.87400 21.11900
H  35.24000 49.90300 19.26800
H  34.19600 49.77100 20.67500
H  34.66000 48.28800 19.73700
H  38.65000 47.53700 22.11300
H  38.46900 47.77000 20.32300
H  37.33500 45.21700 20.76100
H  38.61700 45.31400 21.99500
H  38.89400 45.65500 20.22000
H  36.41700 43.30700 26.42500
H  37.43500 43.81700 25.13300
H  35.62800 43.81400 24.91300
H  37.05200 46.97600 30.31400
H  33.90700 44.60700 32.33500
H  33.19600 46.27200 31.99400
H  34.15400 46.09000 33.37100
Mg -4.33500 25.06100 26.03800
C  -2.78800 26.83200 28.65300
C  -5.41600 22.67300 28.28100
C  -5.50100 23.49100 23.50600
C  -2.46800 27.15800 23.73500
N  -4.18100 24.82300 28.27000
C  -3.54300 25.72400 29.06200
C  -3.94600 25.46400 30.52300
C  -4.53700 23.93900 30.37700
C  -4.71800 23.72800 28.89400
C  -3.66200 22.81700 31.00800
C  -5.09400 26.51500 30.94200
C  -5.45900 26.62300 32.40100
H  -5.06300 25.44100 33.33100
N  -5.32900 23.32500 25.90700
C  -5.76600 22.51000 26.93500
C  -6.66800 21.55000 26.36200
C  -6.50700 21.59600 24.93100
C  -5.73700 22.82000 24.70600
C  -7.50300 20.67300 27.19100
C  -7.09400 20.65000 23.82700
O  -6.91900 20.82100 22.65900
C  -7.88600 19.46500 24.16000
N  -3.96700 25.27100 23.86400
C  -4.83800 24.65100 23.11800
C  -4.84500 25.18500 21.54800
C  -3.77500 26.28600 21.66200
C  -3.41700 26.28200 23.15500
C  -4.51500 24.01900 20.63900
C  -4.30900 27.69200 21.15900
C  -4.29400 27.88600 19.67400
N  -2.90400 26.68300 26.12100
C  -2.18800 27.43300 25.09700
C  -1.37400 28.45700 25.70700
C  -1.61000 28.26900 27.10000
C  -2.51000 27.17800 27.28400
C  -0.63500 29.50500 25.09800
C  -1.33900 28.83600 28.38700
O  -0.69800 29.84900 28.74700
C  -2.12700 27.95400 29.36900
C  -1.32100 27.46900 30.56800
O  -0.23700 26.92200 30.52100
O  -1.98700 27.82200 31.72200
C  -1.27000 27.46500 32.90200
H  -5.79700 21.98900 29.04300
H  -5.95100 23.04200 22.61800
H  -1.87700 27.78700 23.06600
H  -3.03700 25.43600 31.12400
H  -5.52100 24.01700 30.83900
H  -2.68400 23.26300 31.19300
H  -3.51700 22.01700 30.28200
H  -4.07000 22.41500 31.93500
H  -5.95000 26.17800 30.35700
H  -4.82200 27.50400 30.57300
H  -6.53500 26.76800 32.50500
H  -5.16500 27.62800 32.70300
H  -7.22600 19.63000 27.03500
H  -8.50000 20.83100 26.77900
H  -7.43500 20.88600 28.25800
H  -8.64100 19.67900 24.91600
H  -7.31500 18.60000 24.50000
H  -8.40900 19.15100 23.25700
H  -5.78400 25.64200 21.23600
H  -2.96400 26.03700 20.97800
H  -4.44800 23.04300 21.12100
H  -3.66100 24.19500 19.98500
H  -5.34200 23.88800 19.94100
H  -3.78000 28.53900 21.59500
H  -5.35400 27.71200 21.46900
H  -3.97200 26.96900 19.18000
H  -3.82400 28.80500 19.32500
H  -5.35700 27.96900 19.44500
H  -0.66800 29.51100 24.00800
H  0.40200 29.41000 25.42100
H  -1.06500 30.45300 25.42200
H  -2.87900 28.60400 29.81600
H  -1.81900 27.87300 33.75100
H  -0.27600 27.90900 32.86500
H  -1.26500 26.37900 32.99600

