158

Mg 47.33600 44.54500 44.11300
C  43.91400 44.20000 43.59600
C  47.65900 41.16400 43.05900
C  50.69000 44.94400 43.88600
C  46.85800 48.03300 44.41100
N  45.87700 42.94800 43.49400
C  44.56900 42.98000 43.43300
C  43.92300 41.73700 42.91800
C  45.09100 40.76800 43.26000
C  46.32100 41.69300 43.27000
C  45.04800 39.95100 44.63100
C  43.65400 41.78800 41.36700
C  42.28500 41.38400 40.87900
H  42.18500 40.93600 39.36500
N  48.95800 43.20500 43.53400
C  48.88000 41.89600 43.16900
C  50.20200 41.35400 42.92100
C  51.06000 42.46600 43.09700
C  50.26600 43.57400 43.59900
C  50.39800 39.88200 42.58400
C  52.58400 42.44900 42.77100
O  53.07000 41.48000 42.15900
C  53.46700 43.56700 43.10400
N  48.58700 46.27000 44.07300
C  49.90100 46.14000 44.05100
C  50.61600 47.47900 44.05400
C  49.39800 48.40400 44.41000
C  48.19000 47.54400 44.25500
C  51.87800 47.62800 44.87600
C  49.28900 49.77900 43.67400
C  49.21800 51.01000 44.67200
N  45.74800 45.92600 44.12000
C  45.68600 47.25900 44.35000
C  44.29000 47.72900 44.29400
C  43.57300 46.52800 44.02500
C  44.50400 45.48300 43.93200
C  43.83400 49.02600 44.66600
C  42.25600 45.99100 43.91200
O  41.17000 46.56000 43.98800
C  42.43200 44.47100 43.43400
C  41.48800 43.62300 44.18100
O  40.33000 43.49200 43.90400
O  42.02400 43.11200 45.34900
C  41.02900 42.43500 46.19500
H  47.61200 40.09300 42.85000
H  51.75800 45.05200 44.09200
H  46.60000 49.06900 44.63900
H  43.06800 41.56500 43.57300
H  45.15600 40.08200 42.41500
H  45.47300 40.60600 45.39200
H  45.56000 38.99600 44.51600
H  43.99200 39.74000 44.80100
H  44.42200 41.28600 40.77700
H  43.69200 42.85300 41.13800
H  41.61800 42.23600 41.01000
H  41.89300 40.56200 41.47800
H  50.57200 39.91100 41.50800
H  49.52800 39.23900 42.71400
H  51.22400 39.43300 43.13500
H  52.96500 44.36100 42.55100
H  54.44100 43.37900 42.65200
H  53.49100 43.63300 44.19200
H  50.84300 47.66500 43.00400
H  49.49500 48.50000 45.49100
H  52.32000 46.67100 45.15600
H  51.64300 48.34800 45.65900
H  52.60000 48.01100 44.15400
H  48.39000 49.75700 43.05800
H  50.13300 49.81700 42.98600
H  49.30300 50.62400 45.68700
H  48.23900 51.44000 44.45800
H  49.90200 51.83000 44.45200
H  44.30400 49.69000 43.94000
H  44.08800 49.24200 45.70400
H  42.75100 49.07200 44.55100
H  42.07400 44.41600 42.40600
H  40.46000 41.67300 45.66200
H  40.28000 43.09700 46.63000
H  41.57900 41.99500 47.02600
Mg 9.13600 47.46100 25.51200
C  7.16000 47.28600 28.32100
C  11.72000 48.76600 27.44500
C  10.97100 47.88100 22.73400
C  6.31500 46.73500 23.45800
N  9.34400 47.93400 27.65900
C  8.44100 47.68000 28.68600
C  9.03900 48.08200 30.04100
C  10.32000 48.90600 29.63500
C  10.48600 48.55000 28.16800
C  10.26500 50.43400 29.77800
C  9.27900 46.91900 31.03500
C  8.53200 46.92700 32.36100
H  8.88800 45.87100 33.37700
N  11.06400 48.13700 25.17700
C  12.01200 48.44300 26.12400
C  13.33100 48.48400 25.52300
C  13.09000 48.21800 24.12100
C  11.60900 48.13300 23.98600
C  14.59000 48.72000 26.32000
C  14.10100 48.01100 23.03100
O  13.78600 47.80700 21.87400
C  15.56200 48.03900 23.34400
N  8.56600 47.67100 23.29000
C  9.64300 47.65700 22.43900
C  9.21100 47.15900 21.05600
C  7.70400 46.84900 21.30000
C  7.45300 47.04900 22.74600
C  9.36600 48.28700 19.97200
C  7.35600 45.33300 20.92700
C  6.15700 45.13400 20.03500
N  7.15800 47.06100 25.72500
C  6.09600 46.79500 24.82400
C  4.88400 46.63500 25.56800
C  5.26100 46.71500 26.93600
C  6.64400 46.99900 26.95900
C  3.57400 46.40900 25.06600
C  4.75400 46.62800 28.28500
O  3.68800 46.20600 28.70400
C  6.03600 46.83600 29.27700
C  6.18900 45.45200 29.84800
O  6.85100 44.54200 29.43500
O  5.54100 45.51200 31.06300
C  5.66200 44.42300 31.96500
H  12.51000 49.08600 28.12700
H  11.55000 47.98600 21.81400
H  5.47800 46.36600 22.86200
H  8.29900 48.72000 30.52500
H  11.13000 48.53000 30.25900
H  9.48900 50.63200 30.51700
H  10.13600 50.97600 28.84100
H  11.21700 50.72200 30.22400
H  10.34000 46.86700 31.27700
H  9.07000 45.99900 30.48900
H  7.46400 46.85200 32.15500
H  8.59500 47.94300 32.75200
H  14.48200 48.73600 27.40500
H  14.97400 49.72200 26.13000
H  15.30000 47.95600 26.00300
H  16.15800 48.06500 22.43200
H  15.65500 47.05500 23.80500
H  15.87800 48.89700 23.93700
H  9.74300 46.22200 20.89100
H  7.08300 47.56500 20.76300
H  8.91600 47.87200 19.07000
H  10.43200 48.45700 19.81800
H  8.92000 49.25200 20.21000
H  7.30600 44.70000 21.81200
H  8.16800 44.92000 20.32800
H  6.51600 44.86500 19.04200
H  5.49200 45.99500 19.97900
H  5.60100 44.36800 20.57600
H  3.48800 45.85200 24.13300
H  3.16800 47.38000 24.78400
H  2.95200 45.95400 25.83600
H  5.83500 47.57100 30.05700
H  6.22400 44.72100 32.85100
H  6.21700 43.59800 31.51700
H  4.76100 43.91900 32.31600

