158

Mg 44.23100 2.94800 46.50200
C  42.30800 5.86000 46.25000
C  41.43800 1.08900 46.08700
C  46.25400 0.27300 46.26900
C  47.07900 5.01600 46.40200
N  42.11700 3.44300 46.25900
C  41.56100 4.64800 46.15400
C  40.04000 4.54200 46.17600
C  39.74400 3.01800 46.39900
C  41.15000 2.42900 46.23100
C  39.03700 2.58600 47.71800
C  39.22000 5.28000 45.07100
C  39.56800 4.84500 43.67600
H  40.31100 5.83500 42.82100
N  43.83500 0.88900 46.21200
C  42.60100 0.36200 46.09900
C  42.71900 -1.07700 45.88700
C  44.10500 -1.33700 45.93100
C  44.84700 -0.07300 46.13000
C  41.54400 -1.99200 45.69300
C  44.71900 -2.73300 45.82300
O  43.95800 -3.70000 45.71200
C  46.08700 -3.06000 45.68500
N  46.37200 2.68100 46.35700
C  46.90500 1.47000 46.36200
C  48.40600 1.55300 46.51300
C  48.66700 3.10400 46.21100
C  47.29900 3.64900 46.41000
C  48.80000 0.99500 47.90300
C  49.31900 3.43000 44.83500
C  50.75600 4.03100 44.98500
N  44.67400 5.06300 46.35100
C  45.88800 5.75700 46.42200
C  45.66200 7.20200 46.47800
C  44.27900 7.28400 46.43700
C  43.74100 5.99800 46.38600
C  46.71400 8.36000 46.49900
C  43.21100 8.17500 46.47700
O  43.19200 9.45100 46.63900
C  41.87600 7.28200 46.25200
C  40.87700 7.82000 47.21400
O  40.66300 7.44500 48.37900
O  40.10800 8.77200 46.55600
C  39.01000 9.38100 47.36300
H  40.47600 0.57300 46.08000
H  46.85600 -0.63600 46.21700
H  48.01900 5.56900 46.33900
H  39.82700 5.06400 47.10800
H  39.09600 2.67000 45.59400
H  39.15100 3.30500 48.52900
H  39.54800 1.67700 48.03400
H  37.99700 2.46600 47.41400
H  39.55200 6.30900 45.20800
H  38.15500 5.06000 45.14100
H  38.64400 4.57400 43.16600
H  40.24200 3.99100 43.75200
H  41.81600 -2.70000 44.91000
H  40.54200 -1.58300 45.55800
H  41.52000 -2.42800 46.69100
H  46.57600 -2.61500 44.81900
H  46.22000 -4.13400 45.55100
H  46.59400 -2.84900 46.62700
H  48.98400 0.93200 45.82900
H  49.30000 3.39100 47.05100
H  49.43500 0.11100 47.97200
H  47.94300 0.75300 48.53200
H  49.31200 1.78600 48.45100
H  48.78400 4.13200 44.19600
H  49.43700 2.54200 44.21400
H  50.85600 4.88300 44.31200
H  51.46700 3.22400 44.80600
H  51.05800 4.49200 45.92500
H  46.46900 9.22500 45.88400
H  47.68200 7.97300 46.18100
H  46.83600 8.75600 47.50700
H  41.61800 7.69900 45.27800
H  38.01100 9.00200 47.14800
H  39.00500 10.46100 47.21500
H  39.19800 9.35100 48.43700
Mg -4.33500 25.06100 26.03800
C  -2.78800 26.83200 28.65300
C  -5.41600 22.67300 28.28100
C  -5.50100 23.49100 23.50600
C  -2.46800 27.15800 23.73500
N  -4.18100 24.82300 28.27000
C  -3.54300 25.72400 29.06200
C  -3.94600 25.46400 30.52300
C  -4.53700 23.93900 30.37700
C  -4.71800 23.72800 28.89400
C  -3.66200 22.81700 31.00800
C  -5.09400 26.51500 30.94200
C  -5.45900 26.62300 32.40100
H  -5.06300 25.44100 33.33100
N  -5.32900 23.32500 25.90700
C  -5.76600 22.51000 26.93500
C  -6.66800 21.55000 26.36200
C  -6.50700 21.59600 24.93100
C  -5.73700 22.82000 24.70600
C  -7.50300 20.67300 27.19100
C  -7.09400 20.65000 23.82700
O  -6.91900 20.82100 22.65900
C  -7.88600 19.46500 24.16000
N  -3.96700 25.27100 23.86400
C  -4.83800 24.65100 23.11800
C  -4.84500 25.18500 21.54800
C  -3.77500 26.28600 21.66200
C  -3.41700 26.28200 23.15500
C  -4.51500 24.01900 20.63900
C  -4.30900 27.69200 21.15900
C  -4.29400 27.88600 19.67400
N  -2.90400 26.68300 26.12100
C  -2.18800 27.43300 25.09700
C  -1.37400 28.45700 25.70700
C  -1.61000 28.26900 27.10000
C  -2.51000 27.17800 27.28400
C  -0.63500 29.50500 25.09800
C  -1.33900 28.83600 28.38700
O  -0.69800 29.84900 28.74700
C  -2.12700 27.95400 29.36900
C  -1.32100 27.46900 30.56800
O  -0.23700 26.92200 30.52100
O  -1.98700 27.82200 31.72200
C  -1.27000 27.46500 32.90200
H  -5.79700 21.98900 29.04300
H  -5.95100 23.04200 22.61800
H  -1.87700 27.78700 23.06600
H  -3.03700 25.43600 31.12400
H  -5.52100 24.01700 30.83900
H  -2.68400 23.26300 31.19300
H  -3.51700 22.01700 30.28200
H  -4.07000 22.41500 31.93500
H  -5.95000 26.17800 30.35700
H  -4.82200 27.50400 30.57300
H  -6.53500 26.76800 32.50500
H  -5.16500 27.62800 32.70300
H  -7.22600 19.63000 27.03500
H  -8.50000 20.83100 26.77900
H  -7.43500 20.88600 28.25800
H  -8.64100 19.67900 24.91600
H  -7.31500 18.60000 24.50000
H  -8.40900 19.15100 23.25700
H  -5.78400 25.64200 21.23600
H  -2.96400 26.03700 20.97800
H  -4.44800 23.04300 21.12100
H  -3.66100 24.19500 19.98500
H  -5.34200 23.88800 19.94100
H  -3.78000 28.53900 21.59500
H  -5.35400 27.71200 21.46900
H  -3.97200 26.96900 19.18000
H  -3.82400 28.80500 19.32500
H  -5.35700 27.96900 19.44500
H  -0.66800 29.51100 24.00800
H  0.40200 29.41000 25.42100
H  -1.06500 30.45300 25.42200
H  -2.87900 28.60400 29.81600
H  -1.81900 27.87300 33.75100
H  -0.27600 27.90900 32.86500
H  -1.26500 26.37900 32.99600

