158

Mg 51.23300 45.28000 42.77100
C  47.93300 45.89800 42.14200
C  50.68700 41.90900 42.01700
C  54.68200 44.84100 42.37100
C  51.87700 48.73400 42.88000
N  49.52800 44.03900 42.12400
C  48.27600 44.53300 41.97700
C  47.28900 43.38400 41.59700
C  48.10800 42.03700 41.85800
C  49.51100 42.68600 42.01700
C  47.65100 41.06000 42.97000
C  46.76900 43.47800 40.13600
C  47.61800 43.95000 38.98100
H  47.60100 43.04400 37.72600
N  52.50300 43.53800 42.40800
C  52.03700 42.25900 42.13500
C  53.24800 41.45000 42.03200
C  54.35500 42.27400 42.29400
C  53.89300 43.63000 42.33700
C  53.16600 40.00300 41.60800
C  55.87600 41.80500 42.52600
O  56.14800 40.60800 42.20200
C  56.94900 42.66300 43.13100
N  52.96000 46.57000 42.71100
C  54.22000 46.11000 42.47600
C  55.13800 47.25200 42.08000
C  54.36500 48.55000 42.61500
C  52.94600 47.89800 42.69100
C  56.63500 47.27000 42.66900
C  54.50200 49.84000 41.71300
C  54.89100 51.11100 42.45600
N  50.16500 46.96200 42.71200
C  50.51400 48.25300 42.82600
C  49.25100 49.06700 42.82900
C  48.23800 48.15700 42.62800
C  48.84500 46.92100 42.41300
C  49.07400 50.44800 43.14400
C  46.78900 48.06000 42.46400
O  45.92100 48.91900 42.56100
C  46.52400 46.57900 42.01000
C  45.48800 46.03000 43.03600
O  44.30200 46.08400 42.87700
O  46.03400 45.42200 44.05000
C  45.19900 45.15400 45.22100
H  50.59200 40.85500 41.74700
H  55.71500 44.56800 42.14500
H  51.98100 49.81800 42.96900
H  46.42700 43.49600 42.25400
H  48.18600 41.34900 41.01600
H  47.17300 40.15700 42.59000
H  47.04500 41.52500 43.74700
H  48.52200 40.75800 43.55300
H  45.88800 44.11800 40.18300
H  46.48900 42.44700 39.92000
H  48.61100 44.07500 39.41300
H  47.12400 44.86600 38.65600
H  53.03200 39.42400 42.52200
H  53.95900 39.59200 40.98300
H  52.34100 39.70400 40.96200
H  57.25700 43.23700 42.25700
H  57.85900 42.13200 43.41200
H  56.65000 43.38200 43.89500
H  55.23900 47.35000 40.99900
H  54.51600 48.78200 43.66900
H  57.33800 47.22400 41.83700
H  56.88300 46.41600 43.30000
H  56.81400 48.13700 43.30400
H  53.56900 49.96100 41.16300
H  55.25700 49.62300 40.95700
H  54.25100 51.95000 42.18400
H  55.86100 51.43200 42.07500
H  55.14300 50.97200 43.50700
H  48.31500 50.87700 42.49000
H  50.02600 50.97500 43.08500
H  48.74400 50.51500 44.18000
H  46.05900 46.59100 41.02400
H  45.24000 45.90400 46.01100
H  45.50300 44.20700 45.66800
H  44.13100 45.19500 45.00700
Mg 30.92400 58.72400 40.73900
C  28.32400 56.62900 39.78000
C  33.14700 56.35700 39.46400
C  33.41400 61.07000 40.93300
C  28.57400 61.16800 41.69000
N  30.70700 56.77400 39.75500
C  29.55600 56.17500 39.35500
C  29.73100 54.88200 38.58700
C  31.29400 54.72500 38.76600
C  31.74700 56.00800 39.38300
C  31.69700 53.41900 39.52200
C  29.27200 54.95900 37.09900
C  28.23300 53.98800 36.54100
H  27.14300 54.52000 35.55200
N  32.92000 58.72100 40.25100
C  33.69300 57.63600 39.82700
C  35.07800 57.97000 39.76300
C  35.16100 59.30000 40.12000
C  33.80300 59.76500 40.41100
C  36.19500 56.96800 39.40200
C  36.51900 60.00900 40.29500
O  37.53300 59.37700 40.18900
C  36.62500 61.46100 40.61000
N  30.93600 60.92100 41.03600
C  32.16200 61.55500 41.24800
C  31.90600 62.93900 41.81200
C  30.37600 63.02600 42.05300
C  29.88600 61.63700 41.56600
C  32.81000 63.38200 43.10100
C  29.65400 64.15800 41.33800
C  28.31200 64.64700 41.90200
N  28.92400 58.83900 40.81300
C  28.06100 59.94300 41.16100
C  26.74000 59.61800 40.80700
C  26.74400 58.29900 40.30900
C  28.06700 57.87300 40.42600
C  25.52300 60.54200 41.05400
C  25.98800 57.21500 39.80900
O  24.81100 57.11400 39.57800
C  26.92800 56.08700 39.38200
C  26.59100 54.91100 40.17600
O  26.96200 54.60700 41.29900
O  25.69900 54.16000 39.42800
C  25.24900 52.85800 40.05500
H  33.78600 55.59300 39.01500
H  34.19100 61.81800 41.10400
H  27.88400 61.91900 42.08000
H  29.12100 54.19400 39.17400
H  31.79300 54.78500 37.79900
H  32.01200 53.72800 40.51900
H  32.57700 52.97300 39.05900
H  30.95500 52.62200 39.55500
H  30.14200 54.76600 36.47100
H  28.95900 55.98900 36.93200
H  27.66900 53.63300 37.40300
H  28.71300 53.11200 36.10400
H  35.79100 56.23500 38.70400
H  36.64000 56.62000 40.33400
H  36.98900 57.46800 38.84700
H  36.00700 62.15000 40.03400
H  37.67000 61.76500 40.54200
H  36.27100 61.70600 41.61100
H  32.18400 63.57100 40.96900
H  30.12400 62.90600 43.10700
H  32.20800 63.37800 44.00900
H  33.33800 64.33400 43.04600
H  33.58100 62.63600 43.29500
H  29.62600 63.69700 40.35100
H  30.27700 65.05100 41.31300
H  28.15600 64.27200 42.91300
H  27.54600 64.29100 41.21200
H  28.30800 65.73700 41.90700
H  24.99700 60.18200 41.93900
H  24.82800 60.50300 40.21600
H  25.83200 61.57100 41.23800
H  26.84200 55.95900 38.30300
H  24.38100 52.96700 40.70600
H  26.04400 52.46200 40.68700
H  24.94100 52.13900 39.29500

