158

Mg 17.52800 -2.28100 27.26500
C  16.68700 -0.40500 30.07400
C  19.47900 -4.23900 29.32800
C  18.93600 -3.79600 24.41800
C  16.02200 0.08700 25.22100
N  18.17100 -2.09800 29.43100
C  17.53000 -1.46200 30.44300
C  17.97900 -1.90200 31.86000
C  18.98900 -3.06800 31.54000
C  18.86300 -3.18300 29.99100
C  20.39500 -2.65200 31.97200
C  16.79700 -2.32100 32.74200
C  16.91100 -1.73900 34.15300
H  18.23100 -1.41800 34.76900
N  18.82500 -3.86600 26.89700
C  19.54000 -4.54100 27.89300
C  20.35900 -5.64500 27.26700
C  20.07700 -5.62200 25.86700
C  19.25300 -4.39000 25.65400
C  21.14700 -6.63200 28.05300
C  20.53700 -6.53500 24.73000
O  20.10200 -6.35900 23.57000
C  21.37500 -7.78700 24.99100
N  17.38700 -1.99700 25.07800
C  18.15300 -2.64500 24.15600
C  17.98000 -1.95200 22.76300
C  17.02200 -0.77900 23.05900
C  16.79600 -0.92600 24.54800
C  19.38200 -1.61200 22.13600
C  15.72200 -0.67000 22.15600
C  14.56100 -1.51500 22.71700
N  16.39300 -0.65000 27.51100
C  15.78200 0.20600 26.61900
C  15.00000 1.21200 27.33800
C  15.39500 0.98300 28.66300
C  16.27500 -0.10400 28.73800
C  14.02900 2.15200 26.67100
C  15.09500 1.47900 30.03200
O  14.25500 2.30500 30.40700
C  15.97600 0.59800 30.98600
C  16.85000 1.42800 31.85500
O  17.88900 1.94900 31.52100
O  16.42100 1.51900 33.14400
C  17.12500 2.61700 33.91500
H  20.08600 -4.92100 29.92600
H  19.43000 -4.22800 23.54600
H  15.68700 0.86300 24.52900
H  18.38900 -0.99800 32.31100
H  18.85700 -4.00100 32.08800
H  21.00700 -2.80900 31.08400
H  20.66900 -3.26600 32.83000
H  20.50300 -1.60400 32.24900
H  16.65200 -3.39700 32.83500
H  15.94200 -1.83100 32.27500
H  16.31600 -2.39800 34.78500
H  16.28100 -0.85500 34.05400
H  20.50400 -7.46100 28.34700
H  21.52400 -6.14600 28.95300
H  21.97300 -7.11500 27.53100
H  20.87400 -8.48200 25.66500
H  22.32500 -7.44100 25.39600
H  21.66600 -8.21300 24.03100
H  17.45600 -2.71800 22.19000
H  17.45600 0.19900 22.85500
H  19.55200 -2.34900 21.35100
H  20.09100 -1.65500 22.96300
H  19.42000 -0.60900 21.71200
H  15.97700 -0.98200 21.14300
H  15.33300 0.34600 22.10700
H  13.86700 -0.79800 23.15700
H  14.84800 -2.29400 23.42300
H  14.00900 -1.92700 21.87300
H  13.56100 1.61500 25.84600
H  14.57900 3.00400 26.27100
H  13.26200 2.41200 27.40100
H  15.27800 0.10900 31.66500
H  16.64400 2.84000 34.86700
H  17.09000 3.52800 33.31700
H  18.17100 2.31700 33.97300
Mg -5.20700 24.99200 26.47900
C  -3.76900 26.40100 29.37600
C  -6.36700 22.41100 28.55600
C  -6.19800 23.34200 23.69200
C  -3.61900 27.29600 24.58200
N  -5.07400 24.45400 28.74500
C  -4.46200 25.21700 29.68500
C  -4.84100 24.71600 31.08800
C  -5.37200 23.31600 30.76500
C  -5.69500 23.39300 29.26200
C  -4.24300 22.32500 31.02300
C  -5.90800 25.69500 31.63600
C  -5.67200 26.28500 33.00200
H  -5.52600 25.26000 34.11400
N  -6.29900 23.30300 26.17700
C  -6.66700 22.35100 27.13500
C  -7.26700 21.19900 26.53200
C  -7.42700 21.48400 25.16800
C  -6.63300 22.80400 24.92600
C  -7.72800 20.14200 27.40500
C  -8.15300 20.78500 24.01700
O  -8.18300 21.25600 22.89200
C  -9.01700 19.57900 24.32800
N  -4.97300 25.24000 24.40100
C  -5.52900 24.50500 23.38900
C  -5.14000 24.95400 21.98800
C  -4.53600 26.41800 22.36300
C  -4.44600 26.40400 23.90800
C  -4.01800 24.05400 21.36000
C  -5.32800 27.75300 21.97300
C  -6.28900 27.76400 20.81100
N  -3.81300 26.41500 26.85000
C  -3.24800 27.31800 25.93400
C  -2.33700 28.22700 26.65400
C  -2.65500 27.96000 28.03400
C  -3.51100 26.84600 28.06000
C  -1.45300 29.32400 26.10800
C  -2.40100 28.36800 29.37200
O  -1.64400 29.27400 29.74200
C  -3.11300 27.34400 30.31800
C  -2.03600 26.80500 31.14100
O  -1.12300 26.01700 30.87500
O  -2.33300 27.21400 32.40000
C  -1.47500 26.81100 33.48800
H  -6.73100 21.59600 29.18500
H  -6.34900 22.62700 22.88100
H  -3.15000 28.03400 23.92700
H  -3.99300 24.84800 31.75900
H  -6.13400 23.02400 31.48800
H  -3.98000 21.91400 30.04800
H  -4.61300 21.51400 31.65100
H  -3.28700 22.68700 31.40000
H  -6.83200 25.11900 31.64600
H  -6.03400 26.51900 30.93400
H  -6.55300 26.91500 33.12600
H  -4.72100 26.81600 33.04400
H  -8.46500 20.58300 28.07700
H  -6.89300 19.85400 28.04300
H  -8.21100 19.32700 26.86600
H  -9.56100 19.93000 25.20600
H  -8.36100 18.73300 24.53200
H  -9.61200 19.10700 23.54600
H  -5.96300 24.99900 21.27400
H  -3.55600 26.42700 21.88700
H  -3.19500 24.65900 20.97900
H  -4.54600 23.51100 20.57600
H  -3.66300 23.28700 22.04800
H  -4.50800 28.45200 21.81100
H  -5.92200 28.09800 22.81900
H  -6.02900 27.10200 19.98500
H  -6.30200 28.75000 20.34500
H  -7.27700 27.52000 21.20200
H  -1.83700 29.61400 25.13100
H  -0.39300 29.10000 25.98700
H  -1.39100 30.23900 26.69700
H  -3.82400 27.84400 30.97500
H  -0.82300 27.67900 33.58800
H  -0.88100 25.93900 33.21700
H  -2.02500 26.63900 34.41400

