158

Mg 46.64700 25.10000 28.84600
C  47.55700 27.34400 31.49200
C  45.52400 23.00600 31.30100
C  46.02900 22.85900 26.45500
C  47.97700 27.34300 26.64900
N  46.71400 25.10500 31.04600
C  46.97700 26.16700 31.84600
C  46.87500 25.83300 33.31700
C  46.51900 24.25500 33.29500
C  46.15800 24.10500 31.78000
C  47.69800 23.35100 33.87400
C  45.82400 26.76800 34.06500
C  46.29200 27.47700 35.34300
H  45.52900 27.30400 36.58300
N  45.80100 23.20400 28.84700
C  45.38800 22.55100 29.92000
C  44.73300 21.38400 29.45500
C  44.81000 21.28100 28.07100
C  45.58900 22.47300 27.73200
C  44.14700 20.32400 30.46600
C  44.56300 20.11600 27.08800
O  44.80900 20.14600 25.92600
C  43.90000 18.90100 27.61900
N  47.21900 24.95600 26.90000
C  46.76300 23.96700 26.08800
C  47.08700 24.32800 24.67600
C  47.30000 25.85800 24.69000
C  47.46100 26.08400 26.13400
C  48.21000 23.44800 23.95900
C  46.00500 26.61200 24.16900
C  44.61300 26.18900 24.60900
N  47.53300 26.98600 28.97600
C  48.14300 27.71500 27.99600
C  48.71200 28.92100 28.54400
C  48.46100 28.89500 29.96100
C  47.88400 27.60900 30.17400
C  49.56600 29.92400 27.74700
C  48.67400 29.53200 31.26900
O  49.17000 30.59900 31.57300
C  48.14500 28.49800 32.39000
C  49.34600 28.20000 33.16100
O  50.15300 27.29700 32.84600
O  49.36400 28.90000 34.39400
C  50.39500 28.42200 35.32400
H  45.12600 22.35900 32.08500
H  45.85600 22.25200 25.56400
H  48.39900 27.97300 25.86300
H  47.86500 25.86400 33.77300
H  45.66500 24.10800 33.95600
H  47.83500 22.40500 33.35000
H  47.47900 23.28500 34.94000
H  48.63300 23.90700 33.80500
H  45.00000 26.10300 34.32100
H  45.55600 27.49900 33.30200
H  46.31900 28.54700 35.13900
H  47.28400 27.08200 35.56400
H  44.43700 19.31600 30.16900
H  43.06000 20.34500 30.53700
H  44.48700 20.41500 31.49800
H  44.45800 18.24300 28.28500
H  43.52900 18.31000 26.78200
H  42.99800 19.17000 28.17000
H  46.12800 24.10600 24.20700
H  48.24000 26.14700 24.22000
H  48.58200 22.68000 24.63700
H  49.06600 24.00600 23.57900
H  47.87700 22.89800 23.07900
H  45.92300 26.74800 23.09100
H  46.19300 27.60600 24.57500
H  44.48700 25.41600 25.36700
H  43.86400 26.15000 23.81900
H  44.26400 26.97700 25.27700
H  49.84000 29.55400 26.75900
H  50.52600 30.12500 28.22000
H  49.10300 30.90400 27.63100
H  47.37600 29.00200 32.97500
H  51.36900 28.23300 34.87200
H  50.08300 27.48100 35.77800
H  50.50300 29.25500 36.01800
Mg 42.50000 41.94600 26.21900
C  41.50300 44.27400 28.70000
C  43.41900 39.77400 28.80000
C  43.50900 39.63300 23.93000
C  41.88700 44.21000 23.80000
N  42.33900 41.98500 28.51900
C  41.91900 43.07300 29.25700
C  41.89600 42.64700 30.76200
C  42.66800 41.22400 30.79500
C  42.75500 40.93600 29.26500
C  43.86600 41.02400 31.69200
C  40.47100 42.57700 31.40900
C  40.33700 43.23600 32.75000
H  41.34600 42.97800 33.84600
N  43.37500 40.07000 26.32600
C  43.66500 39.42000 27.48300
C  44.11300 38.07400 27.12900
C  43.97200 37.91800 25.72600
C  43.67400 39.21000 25.21900
C  44.51000 36.91900 28.17400
C  44.16600 36.70500 24.87400
O  44.04500 36.66800 23.66900
C  44.48100 35.35300 25.50800
N  42.75900 41.89600 24.21400
C  43.26200 40.89700 23.43200
C  43.34400 41.28700 21.92900
C  42.69800 42.71800 21.90200
C  42.39700 42.94100 23.43200
C  44.73000 41.14600 21.15600
C  41.40600 42.69000 21.10700
C  40.18600 42.06400 21.81900
N  41.75000 43.82100 26.20600
C  41.58300 44.66000 25.12200
C  41.18700 46.01900 25.59400
C  41.12700 45.86700 27.00900
C  41.45200 44.51900 27.32200
C  40.93200 47.21100 24.79700
C  40.75100 46.53700 28.23600
O  40.52900 47.76300 28.34600
C  41.01400 45.54200 29.42500
C  42.02300 46.10200 30.24500
O  43.01100 46.59700 29.74200
O  41.79200 45.82100 31.56800
C  42.85200 46.28600 32.43300
H  43.50000 38.99300 29.55900
H  43.87500 38.97000 23.14300
H  41.68700 45.01200 23.08700
H  42.47700 43.35200 31.35500
H  42.10400 40.35400 31.13300
H  44.56000 40.41900 31.10900
H  43.66500 40.58000 32.66800
H  44.44900 41.93000 31.85500
H  40.05800 41.57000 31.37400
H  39.92200 43.16200 30.67100
H  39.40000 42.84800 33.14800
H  40.20500 44.31000 32.61500
H  45.45000 36.44100 27.89900
H  43.68500 36.22200 28.31700
H  44.67600 37.40400 29.13600
H  43.86000 35.21900 26.39400
H  45.56300 35.38400 25.63700
H  44.29400 34.46000 24.91100
H  42.73500 40.57300 21.37300
H  43.38800 43.44500 21.47400
H  45.38200 41.96400 21.46100
H  44.56300 41.24500 20.08300
H  45.09800 40.14400 21.37900
H  41.58000 42.06400 20.23200
H  41.19800 43.73400 20.87300
H  39.83500 41.17400 21.29700
H  39.51900 42.92700 21.83700
H  40.36100 41.69700 22.83000
H  41.40500 46.94300 23.85300
H  41.57600 47.92000 25.31900
H  39.90600 47.52800 24.61100
H  40.14800 45.23300 30.01000
H  43.26000 47.25100 32.13300
H  43.71500 45.62800 32.33900
H  42.51500 46.31600 33.46900

