158

Mg 18.01000 -0.94400 27.90400
C  17.02300 1.07400 30.82000
C  19.77000 -2.86100 30.05200
C  18.63000 -2.74500 25.28300
C  16.01600 1.36500 25.98100
N  18.26000 -0.96400 30.12400
C  17.88800 -0.05500 31.07100
C  18.25800 -0.52000 32.52500
C  19.14800 -1.76000 32.27200
C  19.09500 -1.84600 30.71000
C  20.58600 -1.90300 32.80200
C  16.95200 -0.80200 33.39300
C  16.81500 -0.01800 34.71300
H  18.14500 0.55100 35.33500
N  19.21300 -2.45000 27.61000
C  19.87600 -3.16100 28.61400
C  20.65200 -4.20300 27.96700
C  20.27100 -4.19000 26.58700
C  19.24400 -3.11900 26.43100
C  21.44700 -5.19200 28.69300
C  20.76000 -5.11600 25.43400
O  20.45700 -4.98400 24.26000
C  21.75000 -6.17200 25.70500
N  17.54500 -0.64500 25.91600
C  17.81300 -1.64000 25.04100
C  17.23800 -1.33900 23.63400
C  16.37400 -0.05800 23.93800
C  16.68000 0.24800 25.33800
C  18.24400 -1.07600 22.45100
C  14.87600 -0.28500 23.66200
C  14.04300 -1.06300 24.68300
N  16.74300 0.81800 28.29700
C  15.96500 1.62400 27.34500
C  15.39500 2.74300 28.03300
C  15.74900 2.54500 29.34900
C  16.60600 1.46400 29.49000
C  14.48500 3.68500 27.44500
C  15.60700 3.10500 30.63700
O  14.98100 4.02900 31.05600
C  16.29600 2.07700 31.65400
C  17.27700 2.89000 32.48800
O  18.51100 3.04200 32.32600
O  16.50400 3.41700 33.50700
C  17.18500 4.49500 34.23000
H  20.43600 -3.43500 30.70000
H  18.67500 -3.45500 24.45400
H  15.36100 1.93700 25.32000
H  18.87400 0.28600 32.92400
H  18.65300 -2.63300 32.69700
H  20.60400 -1.40500 33.77100
H  21.19100 -1.36900 32.07000
H  20.97100 -2.92300 32.83800
H  16.80000 -1.84500 33.67100
H  16.21900 -0.45100 32.66800
H  16.31600 -0.66600 35.43400
H  16.23500 0.89200 34.55900
H  21.49200 -4.99400 29.76400
H  22.48100 -5.04700 28.38100
H  21.05500 -6.19000 28.49400
H  22.67400 -5.76200 26.11300
H  22.00900 -6.55400 24.71800
H  21.43500 -7.03400 26.29400
H  16.56300 -2.17500 23.45000
H  16.62900 0.83200 23.36100
H  18.56100 -1.89800 21.80900
H  19.16000 -0.65600 22.86700
H  17.90100 -0.21600 21.87700
H  14.76900 -0.80800 22.71200
H  14.38300 0.67900 23.53600
H  13.30700 -0.32300 25.00100
H  14.59500 -1.47400 25.52800
H  13.35000 -1.81600 24.30900
H  14.03800 3.25400 26.54900
H  14.98900 4.60400 27.14600
H  13.67300 4.02900 28.08500
H  15.43900 1.65900 32.18000
H  18.26500 4.34800 34.21800
H  16.76000 4.55100 35.23200
H  16.86200 5.41400 33.73900
Mg 48.26900 15.78400 27.88400
C  46.31900 15.01300 30.78400
C  50.38700 17.38200 29.93700
C  49.82200 16.70100 25.18900
C  45.72900 14.17000 26.00500
N  48.25900 16.26300 30.00200
C  47.41200 15.84800 31.03500
C  47.92100 16.22300 32.42100
C  49.01000 17.28700 32.10900
C  49.28100 16.90200 30.62200
C  48.58100 18.81100 32.30100
C  48.26700 14.98300 33.23800
C  47.97600 15.05500 34.74100
H  47.36100 16.31400 35.30300
N  49.98300 16.81000 27.59100
C  50.74500 17.39700 28.53300
C  51.97600 17.91100 27.90900
C  51.75700 17.77000 26.46700
C  50.43600 17.15800 26.36000
C  53.05300 18.56800 28.83800
C  52.64900 18.23800 25.36200
O  52.24900 18.16900 24.18400
C  53.97000 18.88300 25.66200
N  47.85400 15.45000 25.87900
C  48.60100 16.04100 24.87700
C  48.12600 15.54500 23.46700
C  46.86700 14.72500 23.75300
C  46.74300 14.83100 25.28600
C  47.76600 16.80300 22.53100
C  46.88300 13.23900 23.26400
C  47.42100 12.17100 24.27900
N  46.43000 14.77400 28.21400
C  45.54800 14.17000 27.36200
C  44.49700 13.56600 28.10300
C  44.72500 13.80600 29.45500
C  45.94500 14.55200 29.48400
C  43.35200 12.67700 27.48000
C  44.29600 13.67800 30.77800
O  43.32100 13.14500 31.28700
C  45.23600 14.50600 31.69200
C  44.41800 15.57700 32.25500
O  44.35400 16.73100 31.84500
O  43.90000 15.17100 33.48400
C  43.09100 16.12700 34.25800
H  51.06000 17.82500 30.67300
H  50.28500 16.97300 24.23800
H  44.87600 13.72600 25.48800
H  47.00900 16.75000 32.70100
H  49.91200 17.05900 32.67600
H  47.55800 18.95700 32.64500
H  48.73000 19.38400 31.38600
H  49.24500 19.20200 33.07200
H  49.34400 14.82400 33.18000
H  47.88200 14.11600 32.70100
H  48.95900 14.88500 35.18100
H  47.28600 14.23500 34.93800
H  54.00000 18.76500 28.33600
H  53.22200 18.02800 29.77000
H  52.64500 19.48700 29.25900
H  53.77700 19.90900 25.97800
H  54.54700 19.01500 24.74700
H  54.53700 18.22100 26.31500
H  48.89900 14.91600 23.02700
H  45.94700 15.14300 23.34500
H  48.53200 16.98700 21.77800
H  47.82500 17.68700 23.16600
H  46.77200 16.79400 22.08300
H  47.49300 13.16900 22.36400
H  45.92600 12.82600 22.94600
H  47.72900 12.57800 25.24200
H  48.27100 11.64700 23.84300
H  46.56500 11.56300 24.57300
H  43.80300 11.71000 27.25700
H  42.97500 13.23700 26.62500
H  42.48800 12.61600 28.14300
H  45.60900 13.96500 32.56200
H  43.08200 17.09500 33.75600
H  43.64600 16.30600 35.17900
H  42.07400 15.79500 34.46900

