158

Mg 17.20600 -1.70800 27.67800
C  16.01100 0.20800 30.36500
C  18.69300 -3.86400 29.78700
C  18.64100 -3.15400 24.90900
C  15.44900 0.49500 25.61800
N  17.31000 -1.80600 29.82500
C  16.76400 -0.96200 30.73900
C  17.17500 -1.36000 32.19500
C  18.10000 -2.64600 32.03700
C  18.05700 -2.76200 30.44600
C  19.48300 -2.39700 32.65400
C  15.88500 -1.44900 33.13900
C  16.00900 -0.75100 34.46900
H  17.33500 -0.25200 34.97700
N  18.44200 -3.25600 27.42900
C  18.96400 -4.04300 28.42600
C  19.66300 -5.19400 27.87300
C  19.70200 -4.95300 26.45200
C  18.89200 -3.79300 26.13800
C  20.26900 -6.24900 28.72200
C  20.43700 -5.76000 25.35400
O  20.51500 -5.44300 24.17000
C  21.15400 -7.06600 25.66400
N  16.89600 -1.49100 25.57700
C  17.74600 -2.10200 24.65800
C  17.52700 -1.63000 23.21000
C  16.36900 -0.57800 23.47400
C  16.20800 -0.49000 24.92900
C  18.68400 -1.05100 22.44200
C  15.11900 -0.77500 22.64100
C  14.77600 0.31700 21.61700
N  15.97300 0.02700 27.90400
C  15.29900 0.76200 26.99000
C  14.59000 1.86100 27.68500
C  14.87500 1.64200 28.99400
C  15.81100 0.60200 29.03700
C  13.73700 2.91700 27.01400
C  14.61200 2.25700 30.25400
O  13.92200 3.22800 30.51600
C  15.48000 1.37200 31.19000
C  16.51000 2.17400 31.71100
O  17.61700 2.27200 31.20600
O  16.06700 2.87600 32.82000
C  16.93500 3.95200 33.36600
H  19.23300 -4.56000 30.43200
H  19.21800 -3.55800 24.07600
H  15.04900 1.32800 25.03400
H  17.80500 -0.54200 32.54500
H  17.60700 -3.55800 32.37500
H  19.57800 -1.59900 33.39000
H  20.15900 -2.24700 31.81200
H  19.82200 -3.30000 33.16000
H  15.86900 -2.50400 33.41100
H  14.94300 -1.15400 32.67600
H  15.50700 -1.29700 35.26900
H  15.34600 0.11400 34.46600
H  19.83500 -6.45500 29.70100
H  21.31400 -6.01700 28.92700
H  20.32200 -7.14100 28.09800
H  21.70300 -6.91200 26.59300
H  21.81300 -7.25900 24.81700
H  20.45600 -7.90400 25.65900
H  17.19000 -2.45300 22.58100
H  16.74600 0.40800 23.20100
H  18.62900 -0.07300 21.96400
H  18.92700 -1.71900 21.61600
H  19.59200 -1.08900 23.04400
H  14.29500 -0.95900 23.33100
H  15.22800 -1.73600 22.13800
H  13.71300 0.26700 21.38000
H  15.39200 0.06000 20.75500
H  15.15100 1.26900 21.99300
H  14.11900 3.92200 27.19800
H  12.73300 2.82600 27.42800
H  13.76200 2.84700 25.92600
H  14.87600 1.04400 32.03700
H  16.40500 4.41700 34.19700
H  17.14900 4.74700 32.65200
H  17.86700 3.43300 33.58800
Mg 47.30000 34.52000 26.60700
C  45.45700 33.35300 29.38800
C  47.61900 37.57000 28.28400
C  48.63700 35.71600 23.78600
C  46.34700 31.60500 24.90000
N  46.74200 35.25800 28.65800
C  46.05200 34.58800 29.69500
C  46.22100 35.42200 31.00600
C  46.48800 36.87000 30.45300
C  47.04000 36.58300 29.06100
C  45.23500 37.82300 30.35000
C  47.35700 34.82200 31.90700
C  46.97400 34.52500 33.30900
H  47.91000 34.98300 34.42900
N  48.13000 36.38800 26.17100
C  48.14100 37.51600 26.96600
C  48.70700 38.56800 26.19300
C  49.01400 38.02600 24.86000
C  48.60200 36.64700 24.92600
C  48.75900 39.98700 26.73500
C  49.76500 38.73500 23.68200
O  49.92400 38.20000 22.57800
C  50.41100 40.07400 23.83900
N  47.44500 33.78000 24.70300
C  48.12200 34.42700 23.70200
C  48.30300 33.56900 22.41600
C  47.79200 32.14800 22.85600
C  47.20400 32.52700 24.27400
C  47.47900 34.13900 21.27000
C  48.79100 31.06800 23.24200
C  49.85400 30.59400 22.14700
N  46.08300 32.77500 26.96500
C  45.86000 31.63200 26.22400
C  45.02400 30.74700 27.03300
C  44.74700 31.42400 28.26600
C  45.54700 32.61000 28.19400
C  44.56800 29.41600 26.54200
C  44.12900 31.25100 29.56400
O  43.44500 30.37500 30.12200
C  44.44500 32.58700 30.24900
C  44.82000 32.30500 31.71800
O  45.71000 31.55100 32.13600
O  43.89700 32.83500 32.54200
C  43.84400 32.43700 33.93400
H  47.64500 38.57600 28.70800
H  49.10600 35.95000 22.82800
H  46.18900 30.69500 24.31700
H  45.25600 35.44900 31.51300
H  47.20600 37.50100 30.97700
H  45.42200 38.65900 31.02400
H  44.29100 37.33200 30.58700
H  45.11300 38.24000 29.35000
H  48.22500 35.47900 31.94100
H  47.62900 33.87800 31.43600
H  47.03300 33.43800 33.36700
H  46.01200 34.96700 33.56900
H  48.23800 40.19900 27.66900
H  48.16900 40.57400 26.03100
H  49.73100 40.47900 26.77100
H  49.70600 40.80900 24.22700
H  50.76000 40.56800 22.93200
H  51.20900 39.80200 24.53000
H  49.37100 33.59300 22.20100
H  47.01000 31.68200 22.25700
H  47.99000 34.15700 20.30800
H  47.04400 35.13200 21.38600
H  46.68000 33.45300 20.98700
H  48.20000 30.22100 23.59000
H  49.26600 31.37200 24.17500
H  50.84600 30.61000 22.59800
H  49.89000 31.24200 21.27100
H  49.70200 29.56200 21.83300
H  45.03300 29.27500 25.56600
H  43.47900 29.45200 26.57600
H  44.95000 28.63500 27.19900
H  43.54600 33.20300 30.23200
H  44.58500 32.94400 34.55100
H  43.93400 31.36500 34.11300
H  42.86100 32.73100 34.30300

