158

Mg 55.16900 25.04700 43.64200
C  52.08700 26.71700 43.14000
C  53.51700 22.08800 42.94100
C  58.14600 23.63400 43.16600
C  56.64200 28.14000 44.40500
N  53.04300 24.49700 42.81800
C  51.95000 25.33100 42.79000
C  50.68900 24.57800 42.57800
C  51.11400 23.11900 42.80500
C  52.65200 23.18200 42.84700
C  50.49200 22.28700 43.92900
C  49.88700 24.80900 41.26200
C  50.61000 24.98600 39.96800
H  50.01600 24.26700 38.73400
N  55.78600 23.11900 43.29400
C  54.93100 22.04800 43.08200
C  55.77400 20.86200 42.93000
C  57.09700 21.28200 42.83300
C  57.08800 22.71900 43.10100
C  55.09900 19.48300 42.64400
C  58.24600 20.31600 42.47200
O  58.08700 19.12800 42.27100
C  59.63100 20.71300 42.20400
N  57.16200 25.76000 43.80100
C  58.22700 24.98700 43.53100
C  59.56000 25.74600 43.92300
C  59.06300 27.18800 44.21500
C  57.55900 27.07500 44.17700
C  60.35400 25.05400 45.09400
C  59.50400 28.25600 43.12900
C  59.01800 27.78700 41.62700
N  54.57600 27.13400 43.67000
C  55.20500 28.15300 44.31000
C  54.25100 29.22300 44.54700
C  53.04300 28.72200 44.11500
C  53.25600 27.42200 43.53800
C  54.36500 30.53100 45.27100
C  51.70300 29.06400 43.94300
O  51.05500 30.09500 44.17600
C  50.96000 27.81400 43.28000
C  50.35400 28.21300 42.04900
O  51.00100 28.38300 40.99200
O  49.02900 28.48000 42.23800
C  48.31500 29.16500 41.16000
H  53.09100 21.08900 43.05300
H  59.15100 23.24100 42.99600
H  57.18100 29.05700 44.65000
H  50.08800 24.94500 43.41000
H  50.90800 22.47200 41.95200
H  49.49400 22.60200 44.23300
H  51.03700 22.36700 44.87000
H  50.49200 21.24200 43.62000
H  49.22600 25.67300 41.32500
H  49.19700 23.96800 41.19100
H  51.59600 24.56200 40.15400
H  50.74600 26.03300 39.69900
H  55.81000 18.69500 42.89200
H  54.87500 19.46200 41.57700
H  54.15500 19.33100 43.16700
H  60.22800 19.88000 41.83200
H  60.08300 21.07800 43.12600
H  59.43400 21.45500 41.43000
H  60.19700 25.83500 43.04400
H  59.38200 27.59700 45.17400
H  59.86600 24.11300 45.34900
H  60.32300 25.69600 45.97400
H  61.38900 24.86200 44.80800
H  60.57200 28.47300 43.11800
H  58.92100 29.14400 43.37200
H  59.90000 27.46200 41.07500
H  58.57100 28.57800 41.02400
H  58.18800 27.08000 41.61900
H  54.09200 31.45800 44.76700
H  55.40300 30.56200 45.59900
H  53.78800 30.43200 46.19100
H  50.11500 27.58900 43.93000
H  47.62200 28.48300 40.66800
H  48.95000 29.67800 40.43800
H  47.60000 29.79700 41.68600
Mg 47.43300 25.15700 28.21100
C  48.68200 27.25800 30.68900
C  46.53400 22.90400 30.63100
C  46.60600 23.16100 25.73800
C  48.88500 27.25800 25.76900
N  47.54000 25.13000 30.42100
C  48.06200 26.12400 31.19400
C  47.72500 25.79700 32.67100
C  47.10900 24.34800 32.65600
C  47.11700 24.06600 31.12400
C  47.98700 23.31800 33.37800
C  46.86200 26.89300 33.40000
C  47.42000 27.47300 34.70600
H  46.37800 27.95400 35.75200
N  46.56600 23.32300 28.23500
C  46.23200 22.56400 29.30700
C  45.45400 21.38500 28.86600
C  45.45600 21.45800 27.39500
C  46.24200 22.69600 27.03900
C  44.90200 20.35500 29.79000
C  44.86500 20.43800 26.51600
O  44.92400 20.60300 25.30300
C  44.09200 19.25700 27.01100
N  47.49600 25.28600 26.08300
C  47.19000 24.29600 25.32200
C  47.43400 24.55300 23.84500
C  47.87800 26.01500 23.80000
C  48.06800 26.26800 25.30100
C  48.39500 23.52100 23.11900
C  46.79100 27.08600 23.30700
C  47.22300 28.05400 22.29300
N  48.61000 26.90000 28.19400
C  49.14700 27.60200 27.08800
C  49.91200 28.77000 27.59000
C  49.71500 28.69100 28.99400
C  48.93700 27.53600 29.32900
C  50.63300 29.83400 26.85800
C  49.96800 29.35600 30.30800
O  50.63600 30.40000 30.48400
C  49.28900 28.46700 31.44500
C  50.28600 27.94300 32.41400
O  50.97900 26.91500 32.33100
O  50.32800 28.70300 33.54500
C  51.22900 28.35700 34.72500
H  46.29400 22.21700 31.44500
H  46.21600 22.38400 25.07800
H  49.32100 27.92500 25.02100
H  48.60800 25.81300 33.31000
H  46.11400 24.34800 33.09900
H  47.43700 23.06000 34.28200
H  48.92900 23.78200 33.67200
H  48.13900 22.42300 32.77500
H  45.86100 26.54700 33.65600
H  46.76600 27.73800 32.71900
H  48.00000 28.37600 34.51600
H  48.13700 26.73500 35.06400
H  43.83200 20.16600 29.69900
H  44.99200 20.62200 30.84300
H  45.43500 19.43200 29.56400
H  43.29300 19.56300 27.68600
H  44.84500 18.53700 27.33200
H  43.48200 18.81400 26.22400
H  46.45700 24.45000 23.37400
H  48.83800 26.10500 23.29100
H  49.45200 23.78700 23.15200
H  48.01400 23.47100 22.09900
H  48.23500 22.50900 23.49300
H  46.32100 27.65600 24.10800
H  46.02300 26.42800 22.89900
H  46.41100 28.14400 21.57100
H  48.12100 27.56700 21.91300
H  47.52400 28.95500 22.82600
H  50.36300 30.87500 27.03400
H  50.44500 29.64100 25.80100
H  51.70800 29.66600 26.91700
H  48.51100 29.00900 31.98300
H  52.21900 28.05700 34.38100
H  50.74500 27.46400 35.12000
H  51.15400 29.19900 35.41300

