158

Mg 26.05400 1.21600 28.88400
C  27.95100 0.94000 31.77000
C  23.24300 1.50500 30.87200
C  24.12700 1.54500 26.05800
C  28.83800 0.63400 26.91200
N  25.67100 1.33300 31.10500
C  26.65200 1.19400 32.08600
C  26.07200 1.38300 33.48500
C  24.48000 1.32300 33.14400
C  24.44400 1.33300 31.60800
C  23.68300 0.13600 33.76800
C  26.63500 2.64100 34.17500
C  26.94700 2.41300 35.71900
H  26.47700 3.38500 36.82300
N  23.91200 1.38200 28.51600
C  22.98000 1.64300 29.50400
C  21.71000 1.83700 28.83800
C  21.95100 1.83600 27.41300
C  23.37900 1.62800 27.23100
C  20.38300 2.05600 29.64200
C  20.92200 2.04400 26.28500
O  21.21000 1.98700 25.10100
C  19.44600 2.16100 26.61700
N  26.39300 0.72100 26.71700
C  25.45000 1.14500 25.80500
C  26.06600 1.35900 24.41100
C  27.69400 1.14400 24.67500
C  27.65900 0.82000 26.15400
C  25.47200 0.37600 23.35300
C  28.58000 2.34200 24.35000
C  29.88300 2.07600 23.67500
N  28.05400 0.98000 29.22300
C  29.02600 0.62600 28.29800
C  30.28300 0.43900 29.07400
C  29.87500 0.57500 30.40200
C  28.55900 0.83900 30.43300
C  31.62200 0.20700 28.58000
C  30.36500 0.63200 31.77600
O  31.52100 0.58100 32.16900
C  29.12800 0.60900 32.69300
C  28.96000 -0.75400 33.31200
O  28.52300 -1.71900 32.81400
O  29.45800 -0.78600 34.58300
C  28.99300 -1.90900 35.44800
H  22.40400 1.46700 31.57000
H  23.49800 1.83800 25.21500
H  29.76100 0.39800 26.37800
H  26.33300 0.55500 34.14400
H  24.00800 2.28100 33.36100
H  23.44300 -0.56400 32.96800
H  22.81000 0.49900 34.31100
H  24.16800 -0.33500 34.62300
H  25.88500 3.42200 34.04900
H  27.50300 3.00800 33.62700
H  28.03500 2.36900 35.77800
H  26.58500 1.43000 36.02100
H  20.26500 3.13800 29.57400
H  20.35700 1.64900 30.65200
H  19.62100 1.46400 29.13400
H  18.85200 2.17500 25.70400
H  19.34700 3.13600 27.09400
H  19.00800 1.38900 27.25100
H  25.81400 2.37900 24.11700
H  28.00100 0.24500 24.14200
H  25.01400 -0.53500 23.73900
H  26.33500 0.15500 22.72600
H  24.69600 0.86900 22.76600
H  28.83200 2.78300 25.31400
H  27.88300 3.01700 23.85400
H  29.63600 2.21400 22.62300
H  30.19400 1.07100 23.96100
H  30.65800 2.76200 24.01800
H  31.57200 0.04400 27.50300
H  32.01400 -0.68700 29.06600
H  32.28700 1.04200 28.79900
H  29.35000 1.36100 33.45100
H  29.78000 -2.62400 35.21000
H  28.00700 -2.25100 35.13000
H  29.02400 -1.80300 36.53200
Mg 54.74100 24.17800 45.41100
C  52.14400 26.26500 44.44600
C  53.08700 21.49600 44.16900
C  57.56300 22.33500 45.99400
C  56.47200 27.06100 46.55500
N  53.02200 24.04600 44.08800
C  51.99800 24.95900 43.94800
C  50.78600 24.32100 43.17000
C  51.02500 22.87500 43.65100
C  52.53300 22.79100 43.85200
C  50.23100 22.30000 44.84800
C  50.74100 24.58400 41.63600
C  49.39900 24.44600 41.00600
H  49.37600 23.87300 39.58900
N  55.19300 22.14000 45.18000
C  54.37900 21.20600 44.62300
C  55.03900 19.98000 44.56500
C  56.40700 20.13600 44.94100
C  56.48000 21.57400 45.45700
C  54.39000 18.76100 44.03800
C  57.45400 19.13000 44.88100
O  57.21600 17.98900 44.44300
C  58.89900 19.39700 45.19700
N  56.82300 24.63200 45.95700
C  57.74700 23.70800 46.19500
C  59.04900 24.35200 46.62100
C  58.72000 25.85300 46.72800
C  57.26200 25.87200 46.46600
C  59.64900 23.74600 47.97600
C  59.47200 26.80600 45.76700
C  60.14900 28.07500 46.32400
N  54.41200 26.26700 45.55200
C  55.19000 27.26400 46.11500
C  54.37200 28.47800 46.23000
C  53.20100 28.13800 45.54100
C  53.31600 26.76100 45.16100
C  54.70600 29.69300 46.87600
C  51.95400 28.55300 45.11900
O  51.41600 29.67000 45.19200
C  51.28400 27.49800 44.30400
C  51.07700 28.02000 42.94700
O  51.96800 28.28600 42.12600
O  49.69900 28.16600 42.67700
C  49.40900 28.53800 41.28100
H  52.45900 20.62700 43.96100
H  58.52400 21.89900 46.27500
H  56.92800 27.99300 46.89500
H  49.84500 24.74500 43.52200
H  50.74000 22.18600 42.85600
H  49.42100 22.94900 45.18000
H  50.89500 22.04300 45.67300
H  49.79200 21.39100 44.43500
H  51.30800 23.79100 41.14800
H  51.22600 25.53400 41.41300
H  48.95300 25.43900 40.94500
H  48.70200 23.84500 41.58900
H  54.70000 18.58300 43.00900
H  53.30800 18.82800 43.92600
H  54.64300 17.87400 44.61900
H  59.25100 20.38000 44.88400
H  59.56900 18.63800 44.79200
H  59.02600 19.45100 46.27800
H  59.73700 24.19900 45.78900
H  58.96400 26.20000 47.73200
H  59.15800 22.77800 48.07100
H  59.33400 24.28400 48.87000
H  60.72100 23.56000 47.90400
H  58.72400 27.16000 45.05800
H  60.15300 26.31100 45.07500
H  59.60200 28.94700 45.96500
H  61.18700 27.90400 46.03800
H  60.14400 28.23900 47.40100
H  55.52500 29.64700 47.59300
H  53.82800 30.05600 47.41100
H  54.98700 30.43600 46.12900
H  50.28100 27.46200 44.72900
H  48.84800 29.47300 41.29800
H  48.58000 27.99700 40.82600
H  50.16000 28.46300 40.49500

