158

Mg 35.23500 1.44300 28.80500
C  33.09900 2.34800 31.44200
C  37.73000 1.02200 31.09500
C  37.12600 0.58900 26.26500
C  32.44200 1.63600 26.66900
N  35.29000 1.57400 31.09100
C  34.36300 2.07500 31.91000
C  34.86700 2.01200 33.38400
C  36.46700 1.79200 33.10400
C  36.49200 1.38700 31.69200
C  37.35100 3.13000 33.26300
C  34.11100 0.98900 34.31900
C  33.66200 1.63000 35.62900
H  34.65500 2.48600 36.51700
N  37.14300 0.86300 28.67700
C  38.07400 0.73200 29.69100
C  39.35400 0.43000 29.15400
C  39.17600 0.26400 27.72000
C  37.77500 0.57900 27.49900
C  40.64300 0.29100 29.99100
C  40.18100 -0.20100 26.68500
O  39.87200 -0.41900 25.48000
C  41.59100 -0.35500 27.04100
N  34.73900 0.94800 26.74800
C  35.77400 0.83000 25.91100
C  35.27300 0.81900 24.41300
C  33.74900 1.12900 24.57400
C  33.63500 1.19100 26.10200
C  36.02300 1.84300 23.44100
C  32.79600 0.05900 23.94100
C  31.94600 0.49600 22.74500
N  33.26200 2.01700 28.92900
C  32.27300 1.98400 28.02400
C  30.91700 2.28200 28.61300
C  31.25600 2.36600 29.96500
C  32.63200 2.24500 30.12600
C  29.70600 2.35200 27.84400
C  30.72800 2.64900 31.23200
O  29.61500 2.86900 31.52700
C  31.88400 2.72500 32.22400
C  31.92000 4.02400 32.97100
O  32.58500 4.96600 32.67000
O  31.04800 3.98900 34.09900
C  31.15200 5.12300 35.03100
H  38.52800 0.75000 31.78900
H  37.76700 0.41600 25.39700
H  31.51900 1.73500 26.09400
H  34.76500 3.02400 33.77600
H  36.76500 0.94000 33.71600
H  37.82800 3.44700 32.33600
H  38.16100 2.96400 33.97400
H  36.64500 3.89700 33.58300
H  34.77500 0.16300 34.57100
H  33.31000 0.64900 33.66200
H  33.30400 0.78400 36.21600
H  32.82700 2.28700 35.38800
H  41.45800 0.89500 29.59400
H  40.99600 -0.73400 30.10400
H  40.42500 0.56600 31.02300
H  41.52400 -0.99100 27.92300
H  42.00900 0.60400 27.34700
H  42.23200 -0.79200 26.27600
H  35.44100 -0.22700 24.15800
H  33.64700 2.12700 24.14800
H  35.40900 2.14400 22.59200
H  36.99500 1.52500 23.06400
H  36.24800 2.76900 23.97000
H  32.11100 -0.25500 24.72900
H  33.32400 -0.82800 23.59000
H  30.87100 0.58300 22.90500
H  32.07500 -0.14500 21.87200
H  32.35000 1.43500 22.36700
H  28.77600 2.13800 28.37100
H  29.66400 1.76000 26.93000
H  29.61200 3.32900 27.36900
H  31.59500 1.97300 32.95800
H  32.00200 4.96300 35.69400
H  30.24800 5.25300 35.62700
H  31.39700 5.97300 34.39400
Mg 46.49200 24.72400 27.88800
C  47.53800 26.71900 30.71300
C  45.35200 22.34600 30.18700
C  46.35300 22.50300 25.34500
C  48.12200 26.97200 25.85400
N  46.23500 24.60000 30.24100
C  46.77800 25.59300 31.11400
C  46.30300 25.30400 32.54700
C  45.60400 23.80500 32.40100
C  45.75100 23.55600 30.88300
C  46.19700 22.69200 33.33200
C  45.41500 26.37800 33.26700
C  45.94100 26.98000 34.59300
H  44.88900 27.09100 35.74500
N  45.73100 22.84100 27.74200
C  45.34900 22.06100 28.84900
C  44.94100 20.73200 28.31000
C  45.23500 20.80500 26.88700
C  45.75200 22.11100 26.61900
C  44.54700 19.57200 29.18700
C  44.97900 19.61200 25.83700
O  45.27500 19.67500 24.66500
C  44.45100 18.18100 26.37700
N  47.12700 24.71200 25.85200
C  46.92600 23.76200 24.99200
C  47.36700 24.14200 23.52500
C  47.86100 25.66500 23.77700
C  47.75500 25.75800 25.28200
C  48.54300 23.26900 22.98700
C  46.93200 26.73700 23.08600
C  47.59700 27.97500 22.46400
N  47.61000 26.44400 28.17300
C  48.16300 27.29200 27.25000
C  48.90900 28.39100 27.92100
C  48.61900 28.17800 29.22700
C  47.93400 26.95600 29.36700
C  49.79100 29.52700 27.34500
C  48.82300 28.78900 30.54300
O  49.38900 29.82000 30.84500
C  48.04000 27.84800 31.56700
C  48.92500 27.33700 32.65600
O  49.67500 26.41400 32.37900
O  48.80100 27.97000 33.88300
C  49.80200 27.54100 34.91100
H  45.00600 21.66200 30.96500
H  46.34600 21.75800 24.54700
H  48.58100 27.76600 25.26200
H  47.23300 25.13000 33.08800
H  44.54700 23.79300 32.66700
H  45.38600 22.01600 33.60600
H  46.55600 23.05100 34.29600
H  47.06500 22.17800 32.92100
H  44.46000 25.92600 33.53200
H  45.14000 27.12000 32.51800
H  46.28500 27.99200 34.38200
H  46.85500 26.47300 34.90500
H  43.48200 19.36300 29.08400
H  44.65000 19.85000 30.23600
H  45.16100 18.69800 28.96900
H  45.12400 17.78100 27.13600
H  44.63100 17.63300 25.45300
H  43.39600 18.10400 26.64100
H  46.47200 24.03300 22.91300
H  48.88400 25.80400 23.42900
H  49.28100 23.71100 22.31700
H  48.14300 22.45600 22.38100
H  49.02300 22.72800 23.80200
H  46.23400 27.04400 23.86500
H  46.36800 26.25100 22.29000
H  47.25200 28.90700 22.91300
H  47.29000 28.07400 21.42300
H  48.67400 27.83300 22.54900
H  49.13400 30.03900 26.64200
H  50.70800 29.10400 26.93500
H  49.99500 30.21500 28.16600
H  47.35100 28.47100 32.13800
H  49.62100 27.92100 35.91700
H  50.76000 27.95700 34.60200
H  49.86800 26.45300 34.87400

