158

Mg 7.92800 2.29700 27.87000
C  9.30200 1.15700 30.80900
C  5.88500 4.42000 29.80500
C  6.34200 3.28500 24.99700
C  9.64400 -0.15400 26.16300
N  7.63500 2.61600 30.11100
C  8.39700 2.13900 31.10700
C  8.16000 2.80900 32.41500
C  6.81700 3.65500 32.10900
C  6.69700 3.54200 30.56900
C  5.45800 3.13300 32.64900
C  9.29400 3.47500 33.13800
C  9.77800 2.98500 34.53000
H  8.73900 2.87200 35.60600
N  6.36700 3.69400 27.48900
C  5.70700 4.48100 28.39400
C  4.88900 5.36400 27.66600
C  5.08400 5.18000 26.25100
C  5.93300 4.00800 26.18600
C  4.16300 6.55300 28.35600
C  4.65300 6.03900 25.06400
O  4.84000 5.73200 23.88300
C  3.95300 7.37500 25.24600
N  7.80600 1.49800 25.97400
C  7.09600 2.11400 24.92300
C  7.41400 1.49900 23.60300
C  8.68000 0.57700 23.89000
C  8.74500 0.63600 25.45000
C  6.39500 0.88800 22.72500
C  9.94300 1.14100 23.14800
C  10.85500 2.03200 23.97900
N  9.24100 0.78100 28.34300
C  9.87200 -0.14700 27.56700
C  10.76600 -0.88800 28.32900
C  10.57100 -0.44300 29.60200
C  9.57400 0.51800 29.61600
C  11.59900 -2.03500 27.83500
C  11.02600 -0.57400 30.97300
O  11.88800 -1.26400 31.44700
C  10.15100 0.39000 31.84200
C  9.39400 -0.44100 32.79000
O  8.24800 -0.84500 32.67100
O  10.09200 -0.55000 33.97900
C  9.34800 -1.10900 35.19700
H  5.34800 5.07600 30.49400
H  5.79400 3.59500 24.10500
H  10.21300 -0.81100 25.50200
H  7.93400 1.93500 33.02600
H  6.79200 4.66000 32.53000
H  5.04900 2.60400 31.78800
H  4.82800 3.97900 32.92400
H  5.69700 2.48200 33.49000
H  9.00400 4.48900 33.41700
H  10.15400 3.55400 32.47400
H  10.59900 3.59000 34.91500
H  10.19200 1.99700 34.32800
H  4.54800 6.73400 29.36000
H  3.10200 6.30200 28.34100
H  4.38500 7.43900 27.76100
H  3.08300 7.27700 25.89600
H  3.57900 7.66400 24.26400
H  4.71900 8.05400 25.62000
H  7.60500 2.36800 22.97400
H  8.46300 -0.46500 23.65200
H  5.35600 1.02300 23.02500
H  6.65400 -0.16000 22.57400
H  6.50300 1.37400 21.75600
H  9.58900 1.53900 22.19700
H  10.52500 0.23900 22.95600
H  11.46000 2.73500 23.40700
H  11.51300 1.32900 24.49000
H  10.29900 2.63700 24.69500
H  11.98000 -2.03000 26.81400
H  11.06300 -2.97000 28.00100
H  12.48400 -2.07700 28.46900
H  10.79000 1.04200 32.43600
H  8.55800 -1.80200 34.91000
H  8.95200 -0.39500 35.91900
H  10.06200 -1.78100 35.67400
Mg -11.58100 17.21000 40.47000
C  -8.52900 15.40900 40.33700
C  -9.84000 20.11700 39.73200
C  -14.48700 18.77400 39.80800
C  -13.19500 14.06300 40.19700
N  -9.43600 17.64900 39.80300
C  -8.44600 16.78200 39.91700
C  -7.10300 17.48900 39.49700
C  -7.55200 19.00100 39.35700
C  -9.03100 18.96600 39.67700
C  -6.63700 19.92300 40.21400
C  -6.46900 16.91800 38.19500
C  -5.02600 16.34900 38.30000
H  -4.68900 15.13000 37.38600
N  -12.06500 19.19200 39.99400
C  -11.19800 20.24000 39.81300
C  -11.94500 21.46400 39.56500
C  -13.35200 21.09200 39.64100
C  -13.35000 19.62400 39.86400
C  -11.39200 22.85200 39.25600
C  -14.49000 22.09100 39.47600
O  -14.31500 23.29900 39.34600
C  -15.96400 21.65700 39.38800
N  -13.52700 16.51300 40.06100
C  -14.55700 17.34900 39.88800
C  -15.86900 16.61100 39.70800
C  -15.43400 15.15800 39.87900
C  -13.95400 15.22000 40.00400
C  -17.16300 17.03700 40.60000
C  -16.02100 14.22000 38.82900
C  -16.43800 12.84300 39.39700
N  -11.04300 15.16000 40.55600
C  -11.81000 13.97500 40.42200
C  -10.96000 12.80700 40.61000
C  -9.65800 13.37200 40.73000
C  -9.79000 14.78200 40.55400
C  -11.34100 11.39800 40.63100
C  -8.21300 13.05200 40.91400
O  -7.63900 12.01700 41.09300
C  -7.44200 14.38700 40.73100
C  -6.75300 14.79600 41.97600
O  -7.03000 15.62800 42.79600
O  -5.61900 13.98900 42.10600
C  -4.79200 14.24600 43.27600
H  -9.23300 21.01200 39.58500
H  -15.47300 19.22100 39.66000
H  -13.64200 13.07000 40.12000
H  -6.44900 17.23000 40.33000
H  -7.47000 19.34700 38.32700
H  -6.64800 19.47800 41.20900
H  -6.91400 20.96600 40.37000
H  -5.65500 19.94200 39.74100
H  -6.41900 17.74600 37.48800
H  -7.07500 16.10100 37.80200
H  -4.94600 15.97000 39.31800
H  -4.35800 17.18500 38.09200
H  -11.87200 23.63700 39.84100
H  -11.52800 22.94300 38.17800
H  -10.32200 22.85600 39.46000
H  -16.02900 21.08500 38.46200
H  -16.61700 22.52800 39.33700
H  -16.30600 21.06200 40.23500
H  -16.26200 16.84700 38.71900
H  -15.78700 14.78600 40.84100
H  -17.32300 18.11400 40.54200
H  -17.03600 16.68900 41.62600
H  -18.06100 16.60900 40.15500
H  -15.34800 14.14200 37.97500
H  -16.97900 14.52700 38.40900
H  -17.50600 12.77600 39.60300
H  -15.76500 12.64200 40.23000
H  -16.13200 12.12800 38.63200
H  -12.17500 11.20100 39.95600
H  -11.63100 11.21000 41.66500
H  -10.48000 10.80200 40.32900
H  -6.68000 14.40300 39.95200
H  -4.16300 15.13600 43.27900
H  -4.25100 13.31800 43.46600
H  -5.41200 14.31800 44.16900

