158

Mg 36.24000 49.69500 24.48300
C  36.27300 47.80700 27.23100
C  35.07000 52.37800 26.16400
C  35.73400 51.29100 21.47300
C  37.26600 46.75700 22.61900
N  35.59600 50.00400 26.36900
C  35.83100 49.09300 27.41600
C  35.57900 49.74700 28.76800
C  35.07700 51.14900 28.42500
C  35.26700 51.16700 26.92100
C  33.65800 51.42000 28.87400
C  36.81600 49.75000 29.74400
C  36.63300 49.30000 31.22900
H  35.19900 49.34300 31.74300
N  35.56000 51.61600 23.89000
C  35.22600 52.63100 24.75800
C  34.94900 53.85900 23.98300
C  35.09800 53.54700 22.57200
C  35.43200 52.08400 22.57600
C  34.64600 55.12300 24.71500
C  34.99400 54.48400 21.32700
O  35.10100 54.04600 20.19600
C  34.71000 55.89000 21.47000
N  36.48400 49.06600 22.40000
C  36.21200 49.93300 21.35500
C  36.39800 49.28200 19.92100
C  36.99700 47.89300 20.34100
C  36.80300 47.83700 21.85000
C  35.13700 49.30100 19.03700
C  38.49200 47.55500 19.90600
C  39.65800 48.10300 20.73500
N  36.58600 47.56600 24.79200
C  37.12600 46.57000 23.96700
C  37.46900 45.38700 24.80400
C  37.12200 45.78900 26.11700
C  36.56900 47.11400 26.03000
C  38.08700 44.08400 24.31500
C  37.18400 45.51200 27.50200
O  37.61600 44.50700 28.00600
C  36.63700 46.74900 28.35600
C  35.47800 46.35000 29.16600
O  34.33500 46.36300 28.83500
O  36.02800 45.87900 30.31600
C  35.02100 45.32200 31.28300
H  34.74500 53.24800 26.73800
H  35.70400 51.85900 20.54100
H  37.58000 45.92500 21.98400
H  34.79000 49.17300 29.25500
H  35.68600 51.96600 28.81000
H  33.60600 52.29900 29.51700
H  33.23000 50.52800 29.33100
H  33.09600 51.50700 27.94400
H  37.10800 50.79700 29.82000
H  37.60000 49.11000 29.33700
H  37.20700 49.97700 31.86300
H  36.95000 48.25800 31.26500
H  33.63400 55.42700 24.45000
H  35.28000 55.93300 24.35400
H  34.67700 55.05500 25.80200
H  35.73000 56.27500 21.47400
H  34.33800 56.28200 22.41700
H  34.22100 56.28700 20.58000
H  37.16000 49.85500 19.39200
H  36.41500 47.08800 19.89100
H  34.92700 50.20600 18.46800
H  34.32900 49.09200 19.73800
H  35.23900 48.47200 18.33600
H  38.66400 48.00300 18.92700
H  38.62000 46.47600 19.81500
H  40.25600 48.74200 20.08500
H  40.32300 47.33900 21.13800
H  39.40300 48.78600 21.54500
H  39.16900 44.09500 24.45300
H  37.78100 43.88800 23.28800
H  37.71500 43.34700 25.02700
H  37.45400 47.13900 28.96400
H  34.02900 45.11100 30.88500
H  35.00700 46.07800 32.06800
H  35.29000 44.35900 31.71800
Mg 1.94700 42.46800 25.53900
C  2.85600 42.55400 28.96300
C  -1.13800 41.18300 26.48400
C  1.46700 41.53400 22.32600
C  5.31400 43.34300 24.70800
N  0.96000 42.01400 27.55000
C  1.51400 42.30000 28.78900
C  0.45200 41.96000 29.93800
C  -0.71600 41.30100 29.15000
C  -0.31600 41.48600 27.60900
C  -1.01800 39.84000 29.54400
C  0.03200 43.37300 30.63300
C  -0.22800 43.30300 32.15900
H  -1.02500 42.12900 32.72800
N  0.30100 41.61100 24.57700
C  -0.85700 41.16200 25.09700
C  -1.67200 40.59300 24.06200
C  -0.93000 40.68800 22.80300
C  0.32500 41.31200 23.18500
C  -3.07100 40.01600 24.34300
C  -1.42100 40.35700 21.35900
O  -0.73800 40.48200 20.40400
C  -2.83200 39.99900 21.11100
N  3.15300 42.52200 23.78600
C  2.75200 42.04800 22.58100
C  3.72800 42.31300 21.40700
C  4.81700 43.20200 22.16200
C  4.42300 43.05200 23.67800
C  4.20100 41.05800 20.66000
C  4.87300 44.59000 21.65000
C  3.61100 45.44200 21.75600
N  3.69000 42.86000 26.55500
C  5.03600 43.14900 26.11900
C  5.89200 43.31300 27.22900
C  5.09200 43.04300 28.34600
C  3.72800 42.85700 27.86900
C  7.40100 43.64600 27.25000
C  5.19400 42.91200 29.78600
O  6.18500 42.98200 30.48700
C  3.64200 42.68400 30.24100
C  3.70700 41.43100 31.06000
O  3.98500 40.35300 30.56600
O  3.43800 41.63000 32.38900
C  3.72200 40.50400 33.25400
H  -2.10600 40.72500 26.69600
H  1.32400 41.21200 21.29300
H  6.36900 43.57500 24.55000
H  0.96900 41.26400 30.59900
H  -1.61500 41.90300 29.28300
H  -0.36500 39.48300 30.34100
H  -0.86900 39.30500 28.60600
H  -1.99700 39.74400 30.01300
H  -0.90700 43.68500 30.17700
H  0.81500 44.13100 30.60100
H  -0.75400 44.18100 32.53200
H  0.73800 43.30000 32.66300
H  -3.85500 40.74400 24.13700
H  -3.13500 39.58400 25.34100
H  -3.22600 39.11300 23.75200
H  -2.95000 38.93600 21.31800
H  -3.02000 40.06700 20.04000
H  -3.51100 40.67200 21.63400
H  3.26300 42.98400 20.68500
H  5.78700 42.77800 21.90200
H  3.49900 40.83300 19.85800
H  4.28400 40.28000 21.41800
H  5.16400 41.20800 20.17000
H  5.10800 44.43300 20.59700
H  5.66100 45.02500 22.26500
H  2.67800 44.87900 21.78400
H  3.57700 45.95000 20.79300
H  3.62900 46.11800 22.61100
H  7.78400 43.27600 28.20100
H  7.47200 44.72800 27.35800
H  7.98100 43.23200 26.42400
H  3.35600 43.56400 30.81600
H  4.78300 40.57600 33.49000
H  3.49800 39.49800 32.89800
H  3.05600 40.71200 34.09200

