158

Mg 0.77400 8.70200 26.38200
C  1.34400 10.49000 29.48900
C  0.39700 5.94800 28.28400
C  0.25700 7.12600 23.52100
C  1.08900 11.72900 24.73900
N  1.03600 8.18200 28.62600
C  1.09900 9.11300 29.72100
C  0.96400 8.33800 31.00300
C  0.98500 6.84200 30.69100
C  0.80100 6.96600 29.12100
C  2.29300 6.12100 31.18900
C  -0.30600 8.73900 31.83400
C  -0.27500 8.56700 33.40700
H  0.98400 8.04000 34.12300
N  0.49300 6.77900 25.89500
C  0.26900 5.80400 26.80100
C  -0.00100 4.57200 26.10700
C  0.00200 4.81900 24.71700
C  0.28700 6.29900 24.64300
C  -0.21900 3.19800 26.84900
C  -0.21200 3.90800 23.56500
O  -0.15700 4.26800 22.39300
C  -0.28900 2.47700 23.75400
N  0.70700 9.31100 24.42300
C  0.52300 8.51700 23.41600
C  0.58600 9.26600 22.10800
C  0.36200 10.80200 22.55900
C  0.75200 10.61200 24.01000
C  1.87500 8.98600 21.47200
C  -1.11200 11.31600 22.48300
C  -1.42200 12.67100 21.81700
N  1.12000 10.70800 26.89400
C  1.30000 11.77000 26.07000
C  1.61000 12.98000 26.86000
C  1.68500 12.53300 28.21000
C  1.28700 11.13000 28.15400
C  1.96200 14.31600 26.29600
C  2.02000 12.93500 29.56200
O  2.39500 14.01200 29.95000
C  1.58100 11.63300 30.54800
C  2.66600 11.49400 31.56700
O  3.66900 10.71700 31.43200
O  2.43700 12.34800 32.60900
C  3.29700 12.20900 33.71900
H  0.17900 5.09800 28.93200
H  -0.00700 6.73500 22.53600
H  1.23600 12.66500 24.19500
H  1.81000 8.62100 31.62900
H  0.19600 6.29200 31.20300
H  2.04400 5.32900 31.89600
H  3.02400 6.71200 31.74100
H  2.86700 5.64500 30.39400
H  -1.08900 8.10700 31.41500
H  -0.52500 9.77200 31.56300
H  -1.09600 7.90000 33.66900
H  -0.56600 9.55900 33.75400
H  -0.14500 2.30100 26.23400
H  -1.26300 3.28800 27.15000
H  0.30000 2.97900 27.78200
H  -1.18100 2.29800 24.35500
H  0.71500 2.22700 24.09600
H  -0.40700 2.08300 22.74500
H  -0.28700 8.88800 21.57500
H  1.08200 11.47500 22.09400
H  2.45700 8.22000 21.98500
H  2.56600 9.81800 21.33900
H  1.72600 8.57300 20.47500
H  -1.53800 11.41900 23.48100
H  -1.73900 10.52700 22.06800
H  -1.81800 12.47600 20.82000
H  -0.65500 13.44000 21.91400
H  -2.23600 13.15800 22.35500
H  2.87300 14.25200 25.70100
H  2.08500 14.97800 27.15300
H  1.08100 14.50700 25.68400
H  0.64800 11.92600 31.03000
H  4.25500 12.71400 33.59600
H  3.55500 11.17100 33.93200
H  2.82700 12.54900 34.64200
Mg 8.78500 4.49700 27.31600
C  10.28600 2.99500 29.98400
C  6.82100 6.29600 29.35300
C  7.12200 5.66100 24.43400
C  10.76400 2.62400 25.12300
N  8.62900 4.74900 29.48100
C  9.33900 3.96800 30.36600
C  9.02000 4.44800 31.77800
C  7.80500 5.44200 31.62500
C  7.71900 5.48200 30.04300
C  6.50100 5.16400 32.45500
C  10.27800 5.05900 32.55200
C  9.98100 5.58700 33.95700
H  11.05900 5.38200 35.04400
N  7.20400 5.74900 26.90500
C  6.66100 6.46700 27.90300
C  5.64600 7.31700 27.35200
C  5.85700 7.42300 25.96300
C  6.66900 6.12600 25.72100
C  4.70600 8.21000 28.31100
C  5.43200 8.49100 24.92400
O  5.77200 8.37200 23.71700
C  4.61700 9.70900 25.34400
N  8.75500 3.95300 24.99200
C  8.00800 4.62400 24.04800
C  8.63100 4.53200 22.65800
C  9.96900 3.69900 22.92400
C  9.79500 3.36400 24.39600
C  7.60000 3.83200 21.71100
C  11.27000 4.42900 22.47900
C  11.98500 5.33900 23.53600
N  10.17600 3.00100 27.42900
C  10.87800 2.28500 26.45200
C  11.66200 1.25900 27.13200
C  11.37200 1.42400 28.52500
C  10.57600 2.57800 28.65600
C  12.56300 0.24200 26.49100
C  11.72900 1.01300 29.91900
O  12.45300 0.12600 30.32400
C  11.02500 2.00200 30.84400
C  10.10400 1.37400 31.77800
O  8.99500 0.87800 31.50100
O  10.65300 1.26200 33.04600
C  9.84500 0.60000 34.11500
H  6.28400 6.99800 29.99400
H  6.74000 6.21000 23.57100
H  11.40800 2.08700 24.42400
H  8.65200 3.56300 32.29700
H  8.07900 6.41600 32.02900
H  5.62500 5.15300 31.80600
H  6.28900 5.92100 33.21000
H  6.65200 4.26600 33.05500
H  10.65700 5.86600 31.92500
H  11.02400 4.30500 32.80100
H  8.99000 5.25600 34.26700
H  10.02100 6.66900 33.83100
H  3.72700 8.27900 27.83600
H  5.05600 9.23300 28.45300
H  4.50500 7.74700 29.27700
H  3.69000 9.37600 25.81200
H  4.46700 10.42100 24.53300
H  5.05900 10.29000 26.15300
H  8.88000 5.56100 22.39800
H  9.85200 2.67100 22.58100
H  7.59700 4.30700 20.73000
H  6.59300 3.87600 22.12600
H  7.86000 2.78600 21.55100
H  11.06900 5.04000 21.59900
H  11.90300 3.58700 22.19700
H  11.65300 5.13400 24.55400
H  11.92700 6.40700 23.32900
H  13.06300 5.17600 23.52000
H  12.04900 -0.71900 26.46000
H  13.46000 0.16900 27.10500
H  12.92600 0.60000 25.52800
H  11.72800 2.53200 31.48700
H  9.03600 1.31500 34.25900
H  10.37100 0.37600 35.04300
H  9.51100 -0.35400 33.70700

