158

Mg 54.64500 23.64100 44.52200
C  52.33800 26.17200 43.40800
C  52.54000 21.33100 43.39900
C  57.03700 21.58800 45.02800
C  56.93600 26.39000 45.00300
N  52.79100 23.75500 43.30400
C  51.99700 24.85700 43.15100
C  50.67300 24.41300 42.58800
C  50.58700 22.94700 42.90800
C  52.05300 22.65600 43.17400
C  49.73800 22.56400 44.14300
C  50.44700 24.78400 41.04900
C  51.69900 24.67100 40.17300
H  51.50100 25.04100 38.64400
N  54.73400 21.68700 44.39600
C  53.78400 20.82100 43.86400
C  54.24100 19.44300 43.96000
C  55.57100 19.53000 44.48100
C  55.83200 20.97000 44.69500
C  53.40500 18.17100 43.58400
C  56.38900 18.30800 44.82000
O  56.15800 17.14800 44.30900
C  57.57600 18.36600 45.72900
N  56.72500 24.01400 44.84600
C  57.46000 22.92200 45.09900
C  58.97300 23.35300 45.30100
C  58.91900 24.88300 45.20200
C  57.45100 25.10200 45.04900
C  59.67000 22.86900 46.61800
C  59.72100 25.52000 44.04400
C  60.78200 26.64900 44.48600
N  54.62500 25.88500 44.32200
C  55.61100 26.84100 44.57200
C  55.15900 28.16300 44.19700
C  53.82300 27.98800 43.88800
C  53.55800 26.58300 43.89400
C  55.98800 29.34100 44.19400
C  52.58900 28.70100 43.56400
O  52.34600 29.88500 43.46300
C  51.53500 27.47200 43.26200
C  50.92600 27.81100 41.94200
O  51.49100 27.77400 40.86700
O  49.60100 28.20700 42.07900
C  48.84800 28.29700 40.88400
H  51.72700 20.63500 43.18400
H  57.77900 20.78900 45.09300
H  57.60600 27.25100 45.05500
H  49.99400 24.98600 43.22000
H  50.30100 22.38300 42.02000
H  49.38300 23.49100 44.59300
H  50.25100 21.97800 44.90500
H  48.90500 21.95800 43.78600
H  49.89400 25.71500 40.92800
H  49.80800 24.07200 40.52600
H  52.05300 23.64200 40.23600
H  52.50800 25.29900 40.54600
H  52.34300 18.41600 43.61400
H  53.56000 17.32900 44.25800
H  53.53900 17.84100 42.55400
H  57.41000 19.05800 46.55400
H  58.44500 18.65800 45.14000
H  57.76800 17.40500 46.20700
H  59.47200 22.92100 44.43300
H  59.12900 25.48900 46.08400
H  60.73400 22.85600 46.38300
H  59.34000 21.87000 46.90200
H  59.50100 23.54300 47.45800
H  59.09000 26.07100 43.34700
H  60.37300 24.76900 43.59700
H  61.23000 26.29000 45.41200
H  60.35000 27.63900 44.63300
H  61.48300 26.78400 43.66200
H  55.45300 30.09600 43.61900
H  56.93100 29.13200 43.68900
H  56.18600 29.77600 45.17400
H  50.91700 27.60900 44.14900
H  48.99600 27.46000 40.20200
H  49.15900 29.12400 40.24500
H  47.80000 28.09400 41.10400
Mg 26.55000 49.77400 26.90600
C  24.35200 51.10800 29.53600
C  28.89700 49.19900 29.36600
C  28.68500 48.94900 24.53200
C  24.28000 50.96800 24.61200
N  26.56900 50.06600 29.20800
C  25.56600 50.55600 30.03800
C  26.03400 50.42900 31.44500
C  27.53600 49.88100 31.45000
C  27.69300 49.59200 29.94100
C  28.62500 50.75700 32.04900
C  25.04400 49.38100 32.20400
C  24.34100 49.97000 33.51100
H  24.30800 49.06900 34.75500
N  28.52900 49.26400 26.95200
C  29.31700 48.95800 28.01200
C  30.60100 48.45300 27.64900
C  30.57300 48.53500 26.20300
C  29.23100 48.91400 25.83700
C  31.68300 47.74700 28.52900
C  31.67500 48.19400 25.22300
O  31.46800 48.29800 24.04500
C  32.99000 47.63200 25.73700
N  26.47800 49.94300 24.87200
C  27.42100 49.37500 24.09000
C  26.98500 49.24500 22.59000
C  25.55500 49.97800 22.58600
C  25.37800 50.33100 24.10700
C  28.03500 49.94900 21.58400
C  24.42200 49.14200 21.97700
C  24.07800 49.43200 20.53700
N  24.66000 50.78500 26.98300
C  23.82700 51.05500 25.93000
C  22.62600 51.70200 26.44900
C  22.77200 51.63300 27.83700
C  24.02300 51.09700 28.16000
C  21.54600 52.39500 25.58700
C  22.12100 51.95800 29.09700
O  21.01700 52.47200 29.28500
C  23.09800 51.65600 30.22000
C  23.42700 52.84100 31.06000
O  24.13800 53.81800 30.76900
O  22.89900 52.70100 32.33700
C  23.07300 53.63300 33.34700
H  29.50900 48.74700 30.14900
H  29.24700 48.42800 23.75400
H  23.51000 51.18200 23.86700
H  25.97300 51.42500 31.88200
H  27.71900 48.91400 31.91900
H  29.27800 51.11300 31.25300
H  29.21600 50.14500 32.73000
H  28.20000 51.64200 32.52300
H  25.69100 48.57700 32.55400
H  24.23900 49.12700 31.51400
H  23.29700 50.21100 33.31100
H  24.68700 50.96000 33.80700
H  31.64300 46.68100 28.30100
H  31.42400 47.98200 29.56100
H  32.66200 48.17300 28.31000
H  33.51500 48.30700 26.41400
H  33.65600 47.33400 24.92800
H  32.68900 46.71100 26.23600
H  26.94100 48.19900 22.28700
H  25.72000 50.91800 22.05900
H  28.92200 50.40100 22.02700
H  27.74600 50.69500 20.84400
H  28.45700 49.19500 20.92000
H  23.51400 49.36100 22.53900
H  24.63700 48.07700 22.05900
H  23.09300 49.90000 20.55200
H  24.02400 48.50500 19.96600
H  24.83800 50.06800 20.08400
H  20.57700 52.18000 26.03900
H  21.61600 52.22000 24.51400
H  21.73100 53.45800 25.74000
H  22.72400 50.82400 30.81700
H  23.61200 54.55200 33.11700
H  23.36400 53.23200 34.31800
H  22.01700 53.89300 33.42500

