158

Mg 35.89700 48.36300 26.21900
C  36.08500 46.51300 29.21700
C  34.33600 50.89500 28.03100
C  35.12300 49.80600 23.30300
C  36.69300 45.50300 24.50700
N  35.30500 48.66100 28.37300
C  35.52400 47.81900 29.40200
C  35.28900 48.45200 30.78500
C  34.49200 49.78200 30.35000
C  34.77500 49.86500 28.83500
C  32.92800 49.88500 30.76400
C  36.62700 48.84600 31.56700
C  36.91500 48.21300 32.90800
H  36.86300 49.23900 34.13800
N  34.91300 50.09500 25.75300
C  34.43500 51.04700 26.63800
C  33.98500 52.16700 25.92200
C  34.09900 51.90500 24.53900
C  34.76000 50.51900 24.45800
C  33.35700 53.40900 26.68500
C  33.67700 52.72500 23.31700
O  33.91100 52.44100 22.17200
C  32.91600 53.99100 23.57900
N  36.01800 47.79500 24.19900
C  35.70900 48.56000 23.13900
C  35.98900 47.93800 21.77400
C  36.56800 46.55600 22.22100
C  36.42400 46.65100 23.72300
C  34.74200 47.85600 20.96900
C  38.11800 46.37100 21.90600
C  38.47000 45.55300 20.71800
N  36.55000 46.41300 26.67000
C  36.79400 45.34300 25.86200
C  37.14200 44.19900 26.72200
C  36.91900 44.70000 28.04200
C  36.46600 45.98300 27.95900
C  37.36100 42.80900 26.20800
C  36.88700 44.23600 29.43200
O  37.16100 43.18300 29.90800
C  36.46500 45.48200 30.25900
C  35.42500 45.16300 31.21600
O  34.21300 45.16400 30.97600
O  35.99800 44.99800 32.49700
C  35.11900 44.95600 33.65300
H  33.90100 51.66600 28.67000
H  34.97100 50.35600 22.37200
H  36.92000 44.68800 23.81700
H  34.63400 47.81400 31.37900
H  34.97500 50.69800 30.69100
H  32.92200 50.57900 31.60500
H  32.62600 48.89200 31.09700
H  32.28100 50.19800 29.94500
H  36.66300 49.92600 31.70900
H  37.43600 48.66200 30.86000
H  37.94400 47.85500 32.86500
H  36.26000 47.35600 33.06700
H  33.47200 54.30700 26.07800
H  33.91800 53.52300 27.61200
H  32.28400 53.34000 26.87000
H  32.03800 53.89500 24.21800
H  32.56200 54.31800 22.60200
H  33.49700 54.77400 24.06700
H  36.72200 48.57600 21.28000
H  35.94900 45.74300 21.84100
H  34.40100 46.83800 20.77900
H  35.08500 48.30700 20.03800
H  33.92800 48.38100 21.46800
H  38.64500 46.00600 22.78800
H  38.55700 47.36000 21.77500
H  38.15200 44.51700 20.83200
H  39.54800 45.44000 20.60300
H  37.91000 45.82200 19.82200
H  36.84400 42.14600 26.90200
H  38.43000 42.59600 26.17700
H  37.01900 42.55700 25.20500
H  37.40100 45.70500 30.77100
H  34.10100 45.15600 33.32000
H  35.40000 45.75800 34.33500
H  35.24500 43.95200 34.05800
Mg 0.07400 43.46200 26.34600
C  1.87900 43.41800 29.23800
C  -2.74500 42.86600 28.16400
C  -1.44600 42.65400 23.44500
C  3.04600 43.91400 24.47600
N  -0.33700 43.06100 28.48800
C  0.50800 43.22100 29.47900
C  -0.19600 43.03600 30.80200
C  -1.62700 42.50600 30.44600
C  -1.59700 42.91800 28.97300
C  -2.01300 41.06000 30.73300
C  -0.27100 44.41600 31.50900
C  0.33100 44.52800 32.88400
H  -0.02100 43.43400 33.97300
N  -1.80600 42.92300 25.88400
C  -2.87700 42.81600 26.75500
C  -4.07300 42.51200 25.98600
C  -3.76500 42.50800 24.55800
C  -2.27600 42.66900 24.57400
C  -5.42900 42.46300 26.75600
C  -4.60400 42.33500 23.33700
O  -4.15100 42.28400 22.20100
C  -6.07500 42.49700 23.59300
N  0.68500 43.37700 24.16900
C  -0.11200 42.96900 23.22500
C  0.57800 42.86600 21.93900
C  2.01000 43.52600 22.20800
C  1.95700 43.60700 23.76600
C  0.68800 41.40700 21.38900
C  2.08300 44.96100 21.52100
C  3.47500 45.30300 21.06600
N  2.05500 43.62500 26.72300
C  3.19800 43.82900 25.92400
C  4.36500 43.99500 26.73600
C  3.93600 43.83500 28.03300
C  2.50400 43.64300 27.97200
C  5.78100 44.20800 26.25200
C  4.28300 43.77400 29.40300
O  5.45000 43.88200 29.86900
C  2.95400 43.58400 30.26800
C  3.31300 42.45100 31.07300
O  3.42300 41.32200 30.68400
O  3.65900 42.89100 32.34100
C  3.98900 41.86100 33.30100
H  -3.58900 42.77400 28.85000
H  -1.82700 42.43000 22.44600
H  3.93300 43.97600 23.84200
H  0.32300 42.33400 31.45500
H  -2.37500 43.05800 31.01400
H  -1.16700 40.56800 31.21400
H  -2.29400 40.54800 29.81300
H  -2.77100 41.13900 31.51300
H  -1.29600 44.77300 31.60900
H  0.30100 45.05900 30.83900
H  -0.07800 45.44000 33.31900
H  1.41200 44.63500 32.79400
H  -6.03800 43.32000 26.46900
H  -5.35500 42.64000 27.82900
H  -5.90700 41.50000 26.57800
H  -6.63200 42.45400 22.65700
H  -6.11300 43.44400 24.13100
H  -6.45000 41.79100 24.33400
H  0.04100 43.47200 21.21000
H  2.81700 42.84900 21.93100
H  0.80300 40.66700 22.18100
H  1.67700 41.37900 20.93100
H  -0.23100 41.22800 20.83200
H  1.76500 45.69700 22.26000
H  1.44800 45.07800 20.64300
H  3.60600 44.74600 20.13900
H  4.23600 44.86300 21.71100
H  3.76200 46.35400 21.02600
H  6.36500 43.29100 26.17200
H  6.29200 44.80400 27.00900
H  5.85900 44.71300 25.28900
H  2.75500 44.47500 30.86400
H  4.63700 41.11400 32.84100
H  3.06400 41.37700 33.61300
H  4.39700 42.26700 34.22600

