158

Mg 34.83100 2.47100 29.36600
C  32.38100 3.80500 31.63400
C  37.28500 2.92300 31.83800
C  37.15600 1.95800 27.03700
C  32.32000 2.50100 26.92700
N  34.82600 3.34000 31.43900
C  33.66100 3.55400 32.17100
C  33.98400 3.66500 33.70700
C  35.53500 3.55700 33.67400
C  35.91100 3.22500 32.25900
C  36.22400 4.84800 34.21200
C  33.28800 2.53900 34.54800
C  32.92600 2.80100 36.05900
H  33.97100 3.44000 36.93500
N  36.85200 2.31900 29.40200
C  37.67300 2.53500 30.52500
C  39.02400 2.14600 30.06100
C  39.00800 1.99900 28.65200
C  37.61500 2.13400 28.29500
C  40.18100 1.87900 31.00900
C  40.16900 1.62800 27.70300
O  39.98700 1.57100 26.48100
C  41.63600 1.33400 28.08000
N  34.78200 2.37800 27.22800
C  35.87900 2.06300 26.48000
C  35.47400 1.68100 25.04300
C  33.92200 1.54500 25.11900
C  33.62300 2.09500 26.52800
C  35.77500 2.71400 23.96500
C  33.41400 0.08900 24.94400
C  33.17800 -0.72900 26.21100
N  32.78500 3.01900 29.25700
C  31.92600 2.97700 28.16800
C  30.65200 3.53600 28.57400
C  30.76600 3.91300 29.96200
C  32.07200 3.53500 30.29300
C  29.38000 3.73800 27.67800
C  30.12000 4.40000 31.22000
O  28.99700 4.71500 31.43400
C  31.18700 4.32000 32.31900
C  31.50000 5.67200 32.94000
O  31.65700 6.70000 32.29000
O  31.31800 5.69400 34.32300
C  31.65700 6.88700 35.07800
H  38.08000 2.81300 32.57800
H  37.81300 1.53700 26.27300
H  31.51700 2.33000 26.20800
H  33.62200 4.58700 34.16100
H  35.84700 2.70600 34.28000
H  36.81600 4.47100 35.04600
H  35.61200 5.64000 34.64300
H  36.94700 5.30500 33.53700
H  33.90100 1.64200 34.46300
H  32.42900 2.16000 33.99600
H  32.66500 1.82500 36.46700
H  32.03200 3.42000 35.99100
H  39.83400 2.00800 32.03400
H  41.04400 2.51000 30.79700
H  40.55000 0.85400 31.01600
H  42.06300 1.88800 28.91600
H  42.16100 1.69800 27.19700
H  41.88100 0.29400 28.29500
H  35.91500 0.74100 24.71300
H  33.42800 2.23900 24.43900
H  36.77000 2.36800 23.68300
H  35.90500 3.76200 24.23400
H  35.07800 2.69400 23.12700
H  34.07900 -0.47700 24.29200
H  32.46300 0.21800 24.42700
H  33.78800 -0.29700 27.00500
H  33.48300 -1.77100 26.11400
H  32.11800 -0.65100 26.45300
H  28.50700 3.23300 28.09100
H  29.58800 3.60500 26.61600
H  29.13400 4.79400 27.56500
H  30.94600 3.68800 33.17400
H  31.46800 7.83900 34.58000
H  32.65400 6.86100 35.51700
H  30.94600 6.93400 35.90300
Mg 10.08200 47.30300 25.42300
C  8.17100 47.30900 28.38200
C  12.55400 48.97500 27.14200
C  11.86900 47.06500 22.66300
C  7.11900 46.60300 23.69400
N  10.33000 47.92500 27.60900
C  9.47400 47.81300 28.62400
C  9.95500 48.48200 29.90300
C  11.12700 49.39600 29.31700
C  11.35100 48.76600 27.90400
C  10.85000 50.90700 29.24200
C  10.54800 47.37300 30.91600
C  10.30200 47.34100 32.43500
H  10.51000 45.98700 33.26000
N  12.01200 47.92000 24.98300
C  12.92800 48.46700 25.85200
C  14.19600 48.49200 25.16900
C  14.01400 47.87300 23.90700
C  12.57100 47.59600 23.76700
C  15.43400 48.82900 25.81800
C  14.98400 47.63600 22.76100
O  14.61800 47.29100 21.68700
C  16.38900 47.99300 22.95200
N  9.52700 47.08000 23.43000
C  10.46900 47.00800 22.46200
C  9.92100 46.47300 21.17400
C  8.42400 46.30200 21.49700
C  8.32300 46.70800 22.91300
C  10.13900 47.38400 19.90400
C  7.77800 44.90900 21.20500
C  6.35400 45.04700 20.58800
N  8.06300 46.90000 25.87100
C  7.01000 46.62000 25.07300
C  5.81800 46.40200 25.84200
C  6.25000 46.59200 27.17900
C  7.59600 46.96000 27.12800
C  4.49500 46.13700 25.31800
C  5.80100 46.56200 28.57100
O  4.70000 46.25100 29.05900
C  7.04000 46.99500 29.43500
C  7.41600 45.87900 30.38000
O  8.21300 44.96200 30.14800
O  6.77300 46.04900 31.60200
C  6.93600 44.99400 32.57500
H  13.35700 49.48400 27.68000
H  12.43700 46.69200 21.80900
H  6.16500 46.34100 23.23300
H  9.09600 49.01300 30.31300
H  12.03800 49.42300 29.91500
H  9.83400 51.03700 29.61700
H  10.93100 51.11900 28.17600
H  11.44500 51.55200 29.88900
H  11.63700 47.36700 30.85500
H  10.31200 46.37400 30.54900
H  9.23300 47.52800 32.54300
H  10.77700 48.20400 32.90100
H  16.12800 47.99000 25.87400
H  15.26900 49.19300 26.83200
H  15.86700 49.74000 25.40500
H  16.88100 47.19300 23.50400
H  16.50600 48.95700 23.44700
H  16.80600 47.95800 21.94600
H  10.44400 45.55800 20.89500
H  7.86200 47.05500 20.94400
H  10.46500 48.38400 20.18900
H  9.23100 47.57300 19.33200
H  10.98300 47.05900 19.29500
H  7.90900 44.31700 22.11100
H  8.35100 44.41100 20.42400
H  5.65100 44.26700 20.88000
H  6.26400 44.92200 19.50900
H  5.89200 46.02200 20.74200
H  4.63600 45.73400 24.31500
H  3.96200 47.08800 25.30900
H  4.02100 45.37900 25.94200
H  6.70200 47.84400 30.02900
H  7.14200 45.28600 33.60500
H  7.77500 44.31100 32.44500
H  6.00500 44.43400 32.65500

