158

Mg 2.36900 -1.81400 44.02000
C  5.63500 -0.80100 43.32500
C  1.27400 1.10500 42.60100
C  -0.64300 -3.23600 43.62000
C  3.61700 -4.84600 45.34600
N  3.37500 -0.12100 42.92500
C  4.67100 0.18600 42.88300
C  4.88200 1.58000 42.36100
C  3.56300 2.26600 42.47000
C  2.65800 1.04600 42.72400
C  3.45600 3.39500 43.63800
C  5.52200 1.51200 40.92700
C  6.49900 2.68100 40.60900
H  6.31200 3.45500 39.25100
N  0.44700 -1.12300 43.35100
C  0.21400 0.13500 42.79600
C  -1.08300 0.25300 42.47200
C  -1.75200 -0.97400 42.88900
C  -0.68600 -1.86800 43.33900
C  -1.61400 1.45400 41.77700
C  -3.29500 -1.21800 42.72300
O  -4.06900 -0.31500 42.32500
C  -3.91300 -2.46800 43.08100
N  1.63400 -3.77500 44.44400
C  0.28800 -4.08300 44.23500
C  -0.00200 -5.50500 44.74100
C  1.29700 -5.92200 45.47100
C  2.26700 -4.80700 45.11700
C  -1.31700 -5.67200 45.52000
C  1.90400 -7.35600 44.95300
C  1.06700 -8.60300 45.25400
N  4.22000 -2.72100 44.24000
C  4.55000 -3.96800 44.84400
C  6.02200 -3.98000 44.86000
C  6.46300 -2.78200 44.31800
C  5.34700 -2.09400 43.94000
C  6.82500 -5.02400 45.53100
C  7.67600 -2.05400 43.95500
O  8.82300 -2.45800 44.08400
C  7.16600 -0.70600 43.31800
C  7.49600 0.38600 44.22400
O  7.24200 0.34100 45.41400
O  8.13300 1.38100 43.56900
C  8.34600 2.57500 44.47700
H  1.05100 2.06000 42.12100
H  -1.60600 -3.74800 43.56400
H  3.91400 -5.76900 45.84800
H  5.52600 2.17500 43.00800
H  3.42000 2.81400 41.53800
H  2.40200 3.29200 43.89900
H  3.66000 4.29500 43.05800
H  4.14900 3.35200 44.47800
H  4.71800 1.55800 40.19200
H  6.02600 0.58600 40.65100
H  7.48800 2.24000 40.73000
H  6.35100 3.31300 41.48500
H  -2.45700 1.19800 41.13400
H  -0.88300 1.82200 41.05800
H  -2.00300 2.21500 42.45300
H  -4.97500 -2.35300 43.29700
H  -3.53700 -2.98400 43.96400
H  -3.80700 -3.10700 42.20400
H  -0.11600 -6.05200 43.80500
H  1.07400 -5.91900 46.53800
H  -1.91000 -4.76100 45.60000
H  -1.09800 -5.95100 46.55100
H  -2.01500 -6.41700 45.13900
H  2.91100 -7.54700 45.32300
H  2.08700 -7.32000 43.87900
H  0.74500 -8.92700 44.26400
H  0.20500 -8.20800 45.79300
H  1.51500 -9.40300 45.84300
H  7.81700 -4.95500 45.08500
H  6.36000 -6.00700 45.46600
H  6.98800 -4.74100 46.57100
H  7.55900 -0.52700 42.31600
H  8.55600 2.44000 45.53800
H  7.45500 3.14200 44.21000
H  9.20100 3.09700 44.04600
Mg 35.92700 3.13900 30.17400
C  33.53100 4.06600 32.58600
C  38.37200 3.59600 32.66200
C  38.23500 2.98300 27.79900
C  33.39400 3.21400 27.78500
N  35.93200 3.87100 32.34700
C  34.83200 4.00500 33.14900
C  35.17100 3.97600 34.60600
C  36.69800 4.17300 34.60500
C  37.04600 3.93200 33.11000
C  37.17200 5.49500 35.14000
C  34.67100 2.66100 35.28600
C  33.93500 2.79300 36.64000
H  34.22900 3.97300 37.55500
N  38.02600 3.23300 30.25700
C  38.80800 3.24100 31.35600
C  40.15000 2.93300 31.05200
C  40.16400 2.92600 29.59200
C  38.75400 3.03800 29.13900
C  41.13100 2.48100 32.09800
C  41.35900 2.68600 28.71800
O  41.29000 2.59400 27.49200
C  42.73700 2.61200 29.31400
N  35.86600 3.30400 28.07700
C  36.92300 3.05300 27.32700
C  36.49900 3.04500 25.79000
C  34.96400 3.04300 25.80000
C  34.70500 3.15200 27.30200
C  37.17800 4.24700 24.98700
C  34.30900 1.77300 25.16800
C  33.74000 2.07600 23.81600
N  33.88500 3.44300 30.16900
C  33.00200 3.46500 29.13400
C  31.71000 3.89900 29.63000
C  31.81800 4.02400 31.01300
C  33.18000 3.79300 31.28000
C  30.47000 4.13400 28.70200
C  31.13600 4.25500 32.24100
O  29.91400 4.44000 32.39800
C  32.20400 4.14100 33.36000
C  32.14900 5.38800 34.18800
O  32.60500 6.51300 33.91600
O  31.20600 5.19900 35.14900
C  30.96100 6.36100 35.91300
H  39.09800 3.67800 33.47400
H  39.03200 2.94600 27.05300
H  32.63200 3.38100 27.02100
H  34.63700 4.82600 35.03100
H  37.24200 3.42700 35.18300
H  37.71100 5.36500 36.07900
H  36.35100 6.18900 35.31700
H  37.65700 6.14300 34.41000
H  35.63300 2.15700 35.38500
H  34.09100 1.98000 34.66400
H  34.16900 1.88900 37.20200
H  32.88500 2.65200 36.38500
H  41.74100 3.32100 32.43200
H  41.82300 1.72800 31.72200
H  40.65300 1.94500 32.91800
H  42.92400 1.64600 29.78500
H  42.95800 3.34700 30.08800
H  43.52200 2.79500 28.58000
H  36.73000 2.17600 25.17400
H  34.65800 4.02600 25.44100
H  37.81400 4.71500 25.73800
H  36.47400 4.93700 24.52300
H  37.93700 3.80400 24.34200
H  33.53100 1.41600 25.84200
H  35.07600 1.01000 25.04000
H  32.67700 2.11000 24.05600
H  34.16500 1.36900 23.10400
H  34.05900 3.01900 23.37100
H  29.77700 3.29300 28.68500
H  30.85100 4.42600 27.72400
H  29.96900 5.01600 29.10200
H  31.93400 3.20400 33.84800
H  30.50500 7.17300 35.34600
H  31.83800 6.77400 36.41100
H  30.26800 6.33200 36.75400

