158

Mg -1.97300 17.29400 26.22000
C  -1.90000 15.06200 28.96900
C  -2.61000 19.86900 28.59400
C  -2.24200 19.50300 23.69900
C  -1.94300 14.67100 24.04700
N  -2.23800 17.38900 28.47500
C  -2.12500 16.35400 29.38400
C  -2.35600 16.80600 30.87800
C  -2.92500 18.18800 30.61000
C  -2.58100 18.52800 29.13100
C  -4.45800 18.48100 31.09100
C  -1.11400 16.72100 31.72300
C  -1.01600 17.58600 32.95300
H  -0.55800 16.93100 34.30500
N  -2.26200 19.41800 26.14300
C  -2.40400 20.28000 27.20800
C  -2.50800 21.64200 26.66600
C  -2.54000 21.47500 25.24500
C  -2.18400 20.10700 25.00300
C  -2.80400 22.78000 27.56300
C  -2.58400 22.55700 24.17900
O  -2.30700 22.37100 23.05300
C  -2.89000 23.97900 24.61200
N  -2.11200 17.08600 24.19600
C  -2.17000 18.13800 23.35200
C  -2.21600 17.67900 21.93000
C  -2.25000 16.10000 22.05700
C  -1.99400 15.92600 23.52500
C  -3.34800 18.27800 21.04200
C  -1.38900 15.29600 21.15100
C  0.12900 15.35900 21.33100
N  -1.86200 15.27200 26.41600
C  -1.81100 14.27300 25.42100
C  -1.74700 12.96400 26.05800
C  -1.67500 13.21500 27.42900
C  -1.80900 14.67600 27.61600
C  -1.80500 11.67900 25.30000
C  -1.63300 12.59700 28.73500
O  -1.55600 11.36800 29.01400
C  -1.78800 13.76000 29.76100
C  -0.67200 13.68600 30.77800
O  0.34500 14.28000 30.51000
O  -0.98400 13.03400 31.98700
C  0.03400 12.92200 33.03300
H  -2.54200 20.56400 29.43400
H  -2.26700 20.12200 22.80000
H  -2.01700 13.84000 23.34300
H  -3.07000 16.21200 31.44800
H  -2.39600 18.91200 31.22900
H  -5.13000 18.86200 30.32200
H  -4.47600 19.32800 31.77700
H  -4.98400 17.73500 31.68700
H  -0.22400 16.78000 31.09600
H  -1.07100 15.74400 32.20500
H  -1.94100 18.12500 33.16100
H  -0.22700 18.28200 32.67100
H  -3.10200 22.45600 28.56100
H  -3.72800 23.23800 27.21000
H  -1.98200 23.49000 27.47500
H  -2.97500 24.56200 23.69500
H  -2.15700 24.24900 25.37300
H  -3.87800 24.17900 25.02700
H  -1.26000 18.02300 21.53400
H  -3.25900 15.76800 21.81100
H  -3.59700 17.50200 20.31800
H  -2.90900 19.11100 20.49200
H  -4.22000 18.59900 21.61100
H  -1.57500 15.68200 20.14900
H  -1.85700 14.32100 21.00900
H  0.35400 16.22600 21.95200
H  0.58200 15.53800 20.35600
H  0.49300 14.44400 21.79800
H  -1.01300 11.74300 24.55500
H  -2.81400 11.46900 24.94500
H  -1.37200 10.89100 25.91600
H  -2.69900 13.70500 30.35700
H  0.95000 13.38100 32.66100
H  0.33600 11.88600 33.18200
H  -0.37200 13.34400 33.95300
Mg 30.35100 57.59300 41.16400
C  27.34200 55.89800 40.21200
C  32.07200 54.81900 40.16800
C  32.95500 59.53100 41.42600
C  28.23500 60.50700 41.64100
N  29.74200 55.57800 40.27800
C  28.48500 55.16200 39.92500
C  28.58800 53.95100 39.15200
C  30.01600 53.35500 39.46900
C  30.68100 54.61000 40.08200
C  30.07500 52.21200 40.53200
C  28.26300 54.18700 37.61700
C  27.00800 53.50200 36.96400
H  26.47700 54.22200 35.65700
N  32.29000 57.24500 40.84200
C  32.83700 56.02300 40.45900
C  34.24400 56.16400 40.60900
C  34.52400 57.49700 41.14600
C  33.25600 58.13800 41.20100
C  35.33200 55.18500 40.06100
C  35.89700 58.04900 41.51000
O  36.87400 57.37800 41.30900
C  36.16100 59.40400 42.09400
N  30.53000 59.77000 41.54500
C  31.79500 60.27200 41.57300
C  31.76700 61.87300 41.60500
C  30.20500 62.16500 41.80600
C  29.62800 60.75000 41.66400
C  32.78100 62.58300 42.61500
C  29.50800 63.23000 40.87000
C  28.81600 64.43600 41.56100
N  28.24600 58.09300 41.15500
C  27.57000 59.26300 41.42200
C  26.12600 59.06700 41.48700
C  26.00200 57.72300 40.99000
C  27.33300 57.23700 40.78300
C  25.07200 60.09400 41.90000
C  25.04200 56.62400 40.60200
O  23.82900 56.55400 40.65400
C  25.82500 55.49500 39.98000
C  25.49100 54.16000 40.54600
O  25.96400 53.78400 41.64900
O  24.43800 53.49300 39.91300
C  24.21000 52.15800 40.44900
H  32.72500 53.96100 39.99200
H  33.79900 60.22200 41.47500
H  27.70700 61.43400 41.87500
H  27.90700 53.15000 39.43900
H  30.66500 53.00600 38.66600
H  30.94300 51.56600 40.40500
H  29.21200 51.55200 40.43700
H  30.16600 52.61100 41.54200
H  29.12900 53.71900 37.14700
H  28.31100 55.27400 37.56300
H  26.24900 53.50900 37.74600
H  27.28900 52.46600 36.77700
H  34.88500 54.45000 39.39300
H  35.95900 54.64300 40.76900
H  36.05300 55.71800 39.44100
H  35.41000 59.63000 42.85100
H  36.10100 60.18000 41.33100
H  37.17200 59.52700 42.48000
H  32.07100 62.13800 40.59300
H  29.99700 62.42100 42.84500
H  32.57000 62.36000 43.66100
H  32.65900 63.66600 42.59300
H  33.78100 62.23400 42.35700
H  28.77900 62.69000 40.26500
H  30.32100 63.61600 40.25600
H  27.74700 64.23000 41.50400
H  28.95500 65.39400 41.06000
H  29.12700 64.53200 42.60200
H  24.53000 60.51700 41.05400
H  25.55900 60.99200 42.28000
H  24.37200 59.63700 42.60000
H  25.67100 55.34800 38.91100
H  23.14000 52.11800 40.24600
H  24.23000 52.02000 41.53000
H  24.71900 51.40600 39.84700

