158

Mg 1.63400 8.26900 27.34700
C  1.92000 10.11800 30.28800
C  1.46900 5.49800 29.26900
C  1.53800 6.47000 24.58400
C  1.84600 11.25900 25.54700
N  1.73700 7.89600 29.58900
C  1.73700 8.78700 30.57900
C  1.41800 8.18800 31.93800
C  1.52600 6.65400 31.55200
C  1.51200 6.64500 30.02600
C  2.75900 6.02200 32.10500
C  -0.02400 8.57200 32.42400
C  -0.35600 8.63800 33.94900
H  0.74900 8.25800 34.98300
N  1.67500 6.22100 26.94300
C  1.47100 5.29800 27.88700
C  1.33700 3.96400 27.29600
C  1.45400 4.25600 25.92000
C  1.62700 5.68700 25.74200
C  1.16900 2.67800 28.13100
C  1.45600 3.33900 24.79400
O  1.63000 3.72600 23.63700
C  1.10800 1.85100 25.03800
N  1.76900 8.76700 25.37400
C  1.71400 7.87400 24.38100
C  1.73900 8.57700 22.96600
C  1.42900 10.03500 23.34600
C  1.75700 10.01100 24.86300
C  3.11800 8.16000 22.32500
C  -0.05300 10.50600 22.99300
C  -0.57000 10.41300 21.47200
N  1.82300 10.35000 27.78900
C  1.95900 11.42500 26.96100
C  2.15100 12.57000 27.68800
C  2.17000 12.17000 29.01600
C  2.03000 10.75900 29.00600
C  2.15100 13.94100 27.12700
C  2.39700 12.57500 30.39200
O  2.73300 13.62700 30.89100
C  2.03500 11.25700 31.21900
C  2.93800 11.24000 32.40900
O  3.99400 10.66700 32.60600
O  2.28800 12.00200 33.35900
C  3.03100 12.05400 34.67800
H  1.37600 4.58400 29.85900
H  1.35900 5.91800 23.65800
H  2.01100 12.07600 24.84200
H  2.11700 8.50500 32.71200
H  0.72000 6.03700 31.94900
H  3.65300 6.47400 31.67400
H  2.81500 5.03600 31.64400
H  2.91700 5.98000 33.18300
H  -0.79400 7.84200 32.17600
H  -0.20300 9.55600 31.99100
H  -1.17500 7.94000 34.12600
H  -0.69000 9.65500 34.15600
H  0.83700 1.75000 27.66600
H  0.47000 2.88700 28.94100
H  2.13100 2.48400 28.60400
H  1.32200 1.31500 24.11300
H  0.10300 1.81900 25.45900
H  1.81800 1.38800 25.72400
H  0.92400 8.04300 22.47800
H  2.19400 10.65000 22.87200
H  3.51700 8.95000 21.69000
H  2.66000 7.42400 21.66400
H  3.89900 7.86100 23.02500
H  -0.06900 11.55300 23.29500
H  -0.82400 10.07500 23.63300
H  0.16400 9.98000 20.79300
H  -1.08500 11.31200 21.13400
H  -1.44300 9.76000 21.47100
H  1.65100 14.10000 26.17100
H  3.19100 14.21200 26.94500
H  1.65000 14.72600 27.69300
H  1.01800 11.51200 31.51700
H  2.43900 12.74600 35.27800
H  4.03400 12.46200 34.55300
H  3.15100 11.09400 35.18100
Mg 55.71000 23.35700 45.37400
C  53.27500 25.90500 44.68200
C  53.52900 21.01300 44.02400
C  58.07500 21.16500 45.71500
C  57.83000 25.93800 46.51200
N  53.74900 23.53900 44.27900
C  52.93600 24.63000 44.17100
C  51.63700 24.18900 43.49900
C  51.55100 22.70000 43.73200
C  53.04900 22.33100 44.02000
C  50.52300 22.18000 44.82300
C  51.46400 24.68600 42.04300
C  50.02400 25.05900 41.54700
H  49.69800 24.67600 40.08400
N  55.83300 21.33800 44.82500
C  54.80900 20.54300 44.35500
C  55.28100 19.19800 44.29500
C  56.62900 19.18600 44.76600
C  56.93300 20.58400 45.09200
C  54.47200 18.05700 43.76700
C  57.46900 17.94300 44.79300
O  57.00600 16.81300 44.54200
C  58.96500 18.04800 45.10100
N  57.68000 23.51700 46.02000
C  58.38700 22.42800 46.13400
C  59.71600 22.69700 46.86900
C  59.72300 24.25100 46.92100
C  58.33100 24.61300 46.44500
C  59.85700 22.06000 48.24000
C  60.75800 24.99100 46.07000
C  61.32400 26.28600 46.65200
N  55.61900 25.49400 45.56900
C  56.50000 26.40600 46.10300
C  55.96600 27.75900 46.17600
C  54.68700 27.54300 45.68300
C  54.51700 26.21400 45.27900
C  56.56000 29.05000 46.58100
C  53.42500 28.20200 45.36900
O  53.05300 29.35500 45.49900
C  52.53700 27.12600 44.71200
C  52.26200 27.70600 43.39200
O  53.01800 27.89000 42.48000
O  50.91700 28.01300 43.24800
C  50.60000 28.88600 42.14800
H  52.76400 20.31000 43.68700
H  58.84900 20.45500 46.01200
H  58.50200 26.64600 47.00300
H  50.77700 24.55200 44.06100
H  51.24300 22.24500 42.79100
H  50.98400 21.44500 45.48200
H  49.69200 21.67200 44.33400
H  50.21300 22.93900 45.54100
H  51.81900 23.83400 41.46300
H  52.09600 25.57400 42.04400
H  49.94500 26.14600 41.53800
H  49.21000 24.56900 42.08100
H  55.10300 17.43300 43.13400
H  53.57200 18.37200 43.24000
H  54.20900 17.39600 44.59300
H  59.53600 18.69300 44.43200
H  59.40500 17.08600 44.84000
H  59.13300 18.44300 46.10300
H  60.47200 22.34800 46.16600
H  59.84200 24.64100 47.93200
H  58.99800 21.49800 48.60500
H  60.17000 22.76800 49.00800
H  60.62300 21.29700 48.10100
H  60.31300 25.26700 45.11400
H  61.62600 24.34700 45.93300
H  61.73700 26.84300 45.81100
H  62.18600 25.90100 47.19700
H  60.71100 26.84900 47.35500
H  56.04000 29.48500 47.43400
H  56.45000 29.64700 45.67600
H  57.64400 28.98400 46.66900
H  51.56800 26.99100 45.19300
H  51.29400 29.71600 42.01300
H  49.56900 29.21300 42.28100
H  50.53500 28.19000 41.31200

