158

Mg 26.88300 49.27000 26.33900
C  24.91000 50.62100 28.99300
C  29.20600 48.31200 28.74700
C  29.03900 48.71200 23.91600
C  24.60700 50.82400 24.05000
N  27.04500 49.53800 28.60600
C  26.08100 49.94500 29.47000
C  26.44700 49.62800 30.85900
C  27.94100 49.10500 30.83700
C  28.07900 48.88500 29.27900
C  28.94400 50.16900 31.38300
C  25.42700 48.54900 31.47600
C  24.80800 48.78500 32.86500
H  25.61700 49.54200 33.96700
N  28.88200 48.54800 26.30400
C  29.61400 48.10700 27.36600
C  30.88000 47.53500 26.87300
C  30.85300 47.68100 25.42200
C  29.57400 48.31000 25.11700
C  31.95900 46.96500 27.68400
C  31.89800 47.37400 24.29200
O  31.80300 47.60700 23.11500
C  33.28000 46.92000 24.69100
N  26.86300 49.76600 24.28300
C  27.83800 49.24600 23.51800
C  27.51000 49.35500 22.03100
C  26.02800 50.03300 22.08000
C  25.76400 50.17000 23.54400
C  28.57700 50.17300 21.21600
C  25.02300 49.05400 21.32300
C  24.79400 49.16700 19.75800
N  25.07600 50.39700 26.46900
C  24.33300 51.04800 25.43900
C  23.32700 51.85200 26.09300
C  23.47600 51.66400 27.49800
C  24.61900 50.79300 27.60600
C  22.34600 52.72700 25.40500
C  22.91600 52.02400 28.82500
O  21.98700 52.73300 29.22000
C  23.90100 51.39200 29.81000
C  24.51300 52.48300 30.63800
O  25.27800 53.39900 30.28800
O  23.99700 52.43700 31.92600
C  24.37200 53.52300 32.82800
H  29.98900 47.89300 29.38200
H  29.65900 48.43000 23.06100
H  24.01100 51.40900 23.34700
H  26.44000 50.50600 31.50500
H  28.09200 48.18100 31.39500
H  29.97800 49.86600 31.21900
H  28.84300 50.23600 32.46600
H  28.66000 51.12600 30.94500
H  25.95900 47.60000 31.54700
H  24.63700 48.45400 30.73200
H  24.55400 47.77200 33.17700
H  23.87500 49.30800 32.65100
H  31.90300 47.16200 28.75400
H  32.89900 47.25000 27.21100
H  31.88500 45.90100 27.45900
H  33.11700 46.06000 25.34100
H  33.84100 47.65900 25.26300
H  33.85200 46.67200 23.79600
H  27.43900 48.35600 21.60000
H  25.98300 50.99900 21.57500
H  28.73400 51.03000 21.87100
H  28.11100 50.42500 20.26400
H  29.53100 49.65800 21.10400
H  23.99300 49.13000 21.67000
H  25.33600 48.03500 21.54900
H  24.69800 48.18700 19.29100
H  25.46800 49.80900 19.19100
H  23.82100 49.60400 19.53200
H  21.64000 52.07600 24.88900
H  22.87000 53.27600 24.62200
H  21.78100 53.46100 25.97900
H  23.39600 50.67100 30.45300
H  23.68300 53.67200 33.66000
H  24.46200 54.45100 32.26400
H  25.32700 53.26500 33.28500
Mg -6.17300 25.51300 26.13500
C  -4.64300 26.68800 28.94900
C  -8.33500 23.84800 28.00500
C  -7.18300 23.85300 23.32100
C  -3.62900 27.10800 24.16100
N  -6.22400 25.10300 28.21100
C  -5.64300 25.82500 29.25000
C  -6.28700 25.42400 30.58800
C  -7.26000 24.24600 30.23800
C  -7.30400 24.38600 28.72400
C  -6.75800 22.83100 30.63300
C  -6.89900 26.62100 31.43000
C  -6.74500 26.60900 32.93600
H  -6.12400 25.33500 33.61600
N  -7.60900 24.03700 25.67800
C  -8.41000 23.51600 26.58700
C  -9.26400 22.57200 26.04300
C  -8.88300 22.46300 24.66800
C  -7.83300 23.44100 24.47100
C  -10.35700 21.81500 26.90400
C  -9.47900 21.58700 23.60400
O  -9.06500 21.70200 22.43700
C  -10.71500 20.83500 23.88800
N  -5.57900 25.58900 24.10600
C  -6.06900 24.68500 23.13300
C  -5.33600 24.74300 21.80800
C  -4.29500 25.87800 22.03000
C  -4.53100 26.27200 23.49900
C  -4.71200 23.38700 21.42800
C  -4.30600 27.02000 20.92200
C  -3.02400 27.38700 20.17600
N  -4.59600 26.79800 26.42000
C  -3.69200 27.35100 25.55500
C  -2.87500 28.32200 26.30400
C  -3.22400 28.05600 27.65900
C  -4.15000 27.06100 27.69700
C  -1.74600 29.21100 25.84300
C  -2.89500 28.42800 29.02800
O  -2.07500 29.27400 29.48000
C  -3.89300 27.55600 29.94100
C  -3.14600 26.80300 30.92500
O  -2.74700 25.63000 30.83300
O  -2.89100 27.51300 32.05900
C  -1.96400 27.00800 33.06600
H  -9.13600 23.49100 28.65600
H  -7.55600 23.34800 22.42800
H  -2.89300 27.70500 23.61900
H  -5.44100 25.12100 31.20600
H  -8.19100 24.42800 30.77500
H  -6.02100 23.08800 31.39400
H  -6.30200 22.40500 29.73900
H  -7.58500 22.23000 31.01000
H  -7.97800 26.64200 31.27700
H  -6.53100 27.53500 30.96400
H  -7.70800 26.77100 33.42100
H  -6.23100 27.54300 33.16300
H  -10.30700 22.14600 27.94200
H  -10.11300 20.75700 26.81400
H  -11.33100 22.09300 26.50300
H  -10.53800 19.92700 24.46500
H  -11.11300 20.55400 22.91300
H  -11.50200 21.45100 24.32200
H  -5.98400 25.11700 21.01500
H  -3.26900 25.51200 22.08400
H  -5.03500 22.64900 22.16100
H  -3.63200 23.27300 21.33400
H  -5.09100 23.13600 20.43700
H  -4.54600 27.96700 21.40400
H  -5.06600 26.83400 20.16300
H  -2.17700 26.79500 20.52200
H  -2.74000 28.43500 20.07900
H  -3.11200 27.28400 19.09400
H  -2.23800 30.16900 25.67100
H  -1.38500 28.94000 24.85100
H  -1.09800 29.34500 26.70900
H  -4.50600 28.23700 30.53000
H  -1.66600 25.96300 32.97700
H  -2.50600 27.12200 34.00500
H  -1.09100 27.64200 33.22200

