158

Mg 34.30700 3.34900 29.72500
C  32.18000 4.00100 32.45700
C  36.86000 3.35300 32.00600
C  36.38000 2.85200 27.20900
C  31.61200 3.62900 27.55600
N  34.42100 3.46400 31.97100
C  33.44200 3.71100 32.87300
C  33.94500 3.53200 34.33700
C  35.47400 3.47900 34.11500
C  35.59000 3.40600 32.59600
C  36.31600 4.70300 34.78200
C  33.29200 2.29500 35.06600
C  32.74700 2.54200 36.52900
H  33.60900 3.48300 37.48700
N  36.28400 3.09100 29.63400
C  37.20600 3.20600 30.62000
C  38.64700 3.00700 30.19300
C  38.51800 2.80100 28.74600
C  37.01700 2.85500 28.46900
C  39.81700 3.15200 31.10600
C  39.55100 2.60700 27.66100
O  39.31600 2.38300 26.48600
C  40.97800 2.72300 28.07400
N  34.06600 3.48400 27.64700
C  35.06000 3.08400 26.82300
C  34.57900 2.80800 25.43300
C  33.00900 2.90400 25.59500
C  32.85200 3.28600 27.01700
C  35.17500 3.88600 24.44900
C  32.35500 1.58100 25.14500
C  31.06400 1.74200 24.44000
N  32.30100 3.79600 29.87100
C  31.27500 3.87700 28.91900
C  30.02300 4.18900 29.55000
C  30.37500 4.29800 30.94700
C  31.70800 3.97900 31.06500
C  28.69600 4.40300 28.97300
C  29.86600 4.64100 32.29400
O  28.87500 5.20900 32.63300
C  31.01500 4.36400 33.26700
C  31.23700 5.62100 34.00500
O  31.51800 6.68700 33.48200
O  31.09700 5.48200 35.32700
C  31.49100 6.61200 36.17100
H  37.77400 3.36100 32.60400
H  37.01200 2.41800 26.43200
H  30.78200 3.57700 26.84800
H  33.75700 4.44300 34.90500
H  35.86300 2.55300 34.53900
H  37.07900 4.17600 35.35400
H  35.71800 5.32400 35.44900
H  36.87700 5.26800 34.03600
H  34.07100 1.54200 35.18200
H  32.47400 1.95100 34.43300
H  32.69500 1.62700 37.11900
H  31.67700 2.74300 36.47400
H  40.10600 4.19000 31.27600
H  40.76000 2.69300 30.80800
H  39.72300 2.56900 32.02200
H  41.55800 2.68500 27.15200
H  41.30900 1.88200 28.68300
H  41.10900 3.69100 28.55800
H  34.99600 1.82100 25.23300
H  32.52000 3.67900 25.00500
H  36.01000 4.44900 24.86600
H  34.37900 4.62100 24.33300
H  35.39100 3.38500 23.50600
H  32.14000 0.88200 25.95300
H  33.00600 1.02900 24.46700
H  30.40900 1.01100 24.91500
H  31.17700 1.57100 23.36900
H  30.59200 2.71000 24.60700
H  28.41000 5.42000 29.24200
H  27.97400 3.64900 29.28900
H  28.68600 4.20900 27.90000
H  30.65000 3.57300 33.92100
H  31.16000 6.37700 37.18300
H  31.16000 7.59900 35.84800
H  32.57700 6.51300 36.16700
Mg -6.52900 24.48200 25.88700
C  -4.91800 26.02300 28.53700
C  -8.59900 22.77400 28.16500
C  -7.82800 22.52100 23.45400
C  -4.40000 26.00500 23.72900
N  -6.71300 24.33300 28.02300
C  -5.97100 25.13000 28.91000
C  -6.38400 24.85800 30.38400
C  -7.24300 23.57800 30.22200
C  -7.59500 23.57100 28.72900
C  -6.52200 22.28000 30.70600
C  -7.21500 26.12900 30.80900
C  -7.03600 26.47400 32.33100
H  -6.39600 25.41200 33.21000
N  -8.13900 23.03900 25.84400
C  -8.89100 22.54400 26.86300
C  -9.84500 21.60400 26.32100
C  -9.58300 21.45900 24.93300
C  -8.49200 22.39600 24.66100
C  -10.87900 20.97100 27.20800
C  -10.31000 20.63700 23.94100
O  -10.02600 20.57100 22.79600
C  -11.53400 19.81700 24.39800
N  -5.94300 24.07900 23.99200
C  -6.72800 23.29700 23.11200
C  -6.43800 23.55200 21.64500
C  -5.36500 24.70400 21.68500
C  -5.21100 24.95400 23.23900
C  -5.88900 22.20400 21.05700
C  -5.79300 25.95100 20.89800
C  -4.91400 26.64800 19.94200
N  -4.96800 25.73800 26.02300
C  -4.20400 26.34500 25.04600
C  -3.24700 27.21300 25.68300
C  -3.38100 26.99000 27.05900
C  -4.52200 26.18300 27.20200
C  -2.29400 28.19400 25.02300
C  -2.89700 27.33900 28.41200
O  -1.97800 28.04200 28.75400
C  -3.89700 26.70800 29.43600
C  -3.02400 25.70400 30.08100
O  -2.81100 24.56500 29.67600
O  -2.42000 26.31700 31.13300
C  -1.41500 25.48100 31.78700
H  -9.22000 22.40100 28.98200
H  -8.31900 22.10000 22.57500
H  -3.71500 26.50800 23.04300
H  -5.48000 24.74800 30.98200
H  -8.17400 23.66900 30.78200
H  -6.86100 22.01800 31.70900
H  -5.44500 22.41900 30.61100
H  -6.81700 21.49900 30.00500
H  -8.25600 25.92300 30.55900
H  -6.95200 27.00800 30.22000
H  -8.02000 26.65100 32.76600
H  -6.31700 27.28900 32.41800
H  -11.80500 21.54700 27.21400
H  -10.53500 20.93500 28.24200
H  -10.99900 19.91900 26.94700
H  -11.22400 18.92500 24.94200
H  -12.14800 19.37700 23.61200
H  -12.22100 20.40300 25.00800
H  -7.35300 23.86800 21.14400
H  -4.32800 24.43300 21.49100
H  -5.02000 22.53300 20.48700
H  -6.59100 21.96100 20.26000
H  -5.65300 21.38300 21.73400
H  -6.09500 26.73400 21.59400
H  -6.70800 25.67500 20.37300
H  -3.92800 26.19300 20.03600
H  -4.95900 27.73200 20.04800
H  -5.42700 26.48700 18.99400
H  -2.11100 27.97000 23.97200
H  -1.28100 28.08000 25.41000
H  -2.64100 29.22700 24.99900
H  -4.33900 27.46500 30.08400
H  -1.63400 25.25000 32.83000
H  -0.62100 26.22300 31.86500
H  -1.18900 24.48700 31.40200

