158

Mg 24.66400 -8.29300 47.45300
C  27.11100 -6.19700 46.16600
C  22.59400 -7.30900 44.77500
C  22.65400 -10.96800 47.96000
C  27.18200 -9.86400 49.30700
N  24.86200 -7.06300 45.64100
C  25.93400 -6.16700 45.42300
C  25.63600 -5.24800 44.22000
C  24.14300 -5.54100 43.84200
C  23.84200 -6.74200 44.78800
C  23.19000 -4.30800 44.07200
C  26.72200 -5.31800 43.09000
C  27.55000 -3.96600 42.74300
H  27.64900 -3.52900 41.24400
N  22.77400 -8.90400 46.66600
C  22.08600 -8.33900 45.59800
C  20.76700 -9.00000 45.51200
C  20.70900 -9.93200 46.51000
C  22.09000 -9.96600 47.15700
C  19.79900 -8.59700 44.40500
C  19.50900 -10.75400 46.86500
O  18.54900 -10.75700 46.13700
C  19.41200 -11.72600 48.00400
N  24.79000 -10.08500 48.65000
C  23.83100 -11.00500 48.75800
C  24.22500 -12.24600 49.49600
C  25.72600 -11.94600 49.86800
C  25.90600 -10.47400 49.29100
C  23.32300 -12.56600 50.77600
C  26.72100 -12.96800 49.29400
C  27.42300 -13.80300 50.40000
N  26.70500 -7.92900 47.91400
C  27.57600 -8.71300 48.60100
C  28.86200 -8.11300 48.48300
C  28.72300 -7.05700 47.60300
C  27.39100 -7.08100 47.23400
C  30.21400 -8.55000 48.97600
C  29.44700 -6.03500 46.93900
O  30.55600 -5.60800 47.07000
C  28.40600 -5.40600 45.99700
C  28.23800 -3.99000 46.36900
O  27.57300 -3.55000 47.30400
O  28.88700 -3.17800 45.46700
C  28.71100 -1.71400 45.67500
H  21.90900 -6.74200 44.14000
H  21.95700 -11.78100 48.17400
H  27.99900 -10.42600 49.76400
H  25.66800 -4.28700 44.73400
H  24.09000 -5.86500 42.80200
H  22.79600 -4.13000 45.07200
H  22.26600 -4.31200 43.49400
H  23.69900 -3.39100 43.77600
H  26.43100 -5.62400 42.08500
H  27.41500 -6.12500 43.32800
H  28.54200 -4.25300 43.09200
H  27.14000 -3.17100 43.36500
H  18.75400 -8.57900 44.71200
H  19.87500 -9.30000 43.57500
H  19.96700 -7.68900 43.82700
H  19.83800 -11.16000 48.83200
H  19.95600 -12.62400 47.71200
H  18.40200 -11.98400 48.32500
H  24.25100 -13.06800 48.78200
H  25.74800 -11.78000 50.94500
H  22.70400 -13.41300 50.48000
H  22.57600 -11.79800 50.97200
H  23.86500 -12.90100 51.66000
H  27.49300 -12.48700 48.69300
H  26.14900 -13.60400 48.61900
H  26.72200 -14.41500 50.96800
H  27.99600 -13.11000 51.01400
H  28.15900 -14.45600 49.93100
H  30.26700 -9.42600 49.62200
H  30.72800 -7.73000 49.47900
H  30.75700 -8.71400 48.04600
H  28.77400 -5.62400 44.99400
H  29.53700 -1.21000 45.17400
H  28.73600 -1.54700 46.75100
H  27.73700 -1.35100 45.34500
Mg 16.39200 51.94800 25.22800
C  18.27400 51.07600 28.01900
C  13.80200 53.09600 27.20800
C  14.40300 52.25000 22.47700
C  18.83400 50.44200 23.13300
N  16.03000 52.00900 27.32900
C  17.02100 51.74400 28.27800
C  16.47000 52.01800 29.67000
C  15.06600 52.60600 29.39100
C  14.86200 52.47700 27.85100
C  13.87800 51.82900 30.16900
C  17.39000 52.99600 30.48700
C  17.85400 52.56300 31.91500
H  16.90100 51.79800 32.76200
N  14.41400 52.79400 24.88300
C  13.54800 53.27600 25.78000
C  12.34800 53.85000 25.09200
C  12.56200 53.61900 23.73500
C  13.88900 52.93800 23.59400
C  11.17200 54.36900 25.90100
C  11.55500 53.95800 22.62100
O  11.82900 53.62400 21.45600
C  10.11200 54.48500 22.88500
N  16.59300 51.40900 23.15400
C  15.58400 51.58200 22.20500
C  16.02100 51.05600 20.77500
C  17.51500 50.76800 21.02000
C  17.67200 50.91100 22.51200
C  15.22800 49.86300 20.21100
C  18.53100 51.59200 20.19700
C  18.45700 53.05700 20.56600
N  18.17300 50.90000 25.47200
C  19.13300 50.48600 24.52700
C  20.27900 49.90500 25.23300
C  20.01100 50.16000 26.60600
C  18.74900 50.69400 26.67900
C  21.42500 49.29500 24.64500
C  20.52000 50.05400 27.99700
O  21.63600 49.70100 28.39000
C  19.38500 50.56200 28.99000
C  18.91000 49.45800 29.93500
O  17.78500 48.94800 29.81400
O  19.82900 49.09900 30.83100
C  19.34100 48.16600 31.90800
H  12.96200 53.52700 27.75600
H  13.80800 52.30000 21.56300
H  19.61700 49.92800 22.57100
H  16.39900 51.14600 30.31900
H  14.98400 53.64600 29.70800
H  12.93900 51.92500 29.62400
H  13.70500 52.36700 31.10100
H  14.15500 50.82200 30.48000
H  16.85000 53.94200 30.46600
H  18.29100 53.17600 29.90100
H  17.94000 53.45600 32.53400
H  18.82800 52.07700 31.84700
H  11.29600 54.32100 26.98300
H  10.36300 53.69000 25.63300
H  11.01500 55.42700 25.68700
H  9.30900 53.77000 23.06100
H  9.82500 55.06600 22.00800
H  10.24800 55.32400 23.56800
H  15.94200 51.89900 20.08900
H  17.73400 49.77600 20.62500
H  14.51600 49.61300 20.99700
H  15.79300 48.93900 20.08700
H  14.58200 50.15800 19.38400
H  18.32800 51.52400 19.12800
H  19.58700 51.35400 20.32400
H  18.58600 53.25500 21.63000
H  17.52700 53.50300 20.21200
H  19.25300 53.61800 20.07600
H  21.76500 49.77000 23.72600
H  21.35000 48.21600 24.51100
H  22.17600 49.52000 25.40200
H  19.74500 51.35500 29.64600
H  20.11800 47.59400 32.41400
H  18.69600 47.34600 31.59400
H  18.79600 48.72500 32.66900

