158

Mg 2.07900 -1.85400 44.06900
C  5.52300 -1.04500 43.72800
C  1.37100 1.11100 42.34000
C  -1.18700 -2.97900 43.56500
C  2.88800 -4.99800 45.24600
N  3.31600 -0.29500 42.95000
C  4.70100 -0.10000 42.99700
C  5.16100 1.16200 42.29500
C  3.78700 1.91900 42.21300
C  2.71600 0.84700 42.49300
C  3.61500 3.10900 43.16900
C  5.78900 0.79800 40.88800
C  7.12400 1.50000 40.60000
H  7.18300 2.48700 39.41600
N  0.33200 -1.04200 43.11700
C  0.22200 0.24500 42.57000
C  -1.18200 0.47000 42.21400
C  -1.90400 -0.65300 42.71100
C  -0.91300 -1.62900 43.09200
C  -1.56600 1.71600 41.54300
C  -3.35400 -0.69700 42.75200
O  -4.06600 0.14000 42.26500
C  -4.10600 -1.75300 43.58800
N  0.96800 -3.81400 44.32100
C  -0.35700 -3.90300 44.15100
C  -0.81100 -5.27100 44.66900
C  0.48400 -5.96500 45.14700
C  1.55300 -4.86800 44.88900
C  -1.95900 -5.20000 45.70500
C  0.79200 -7.33100 44.52200
C  1.20600 -8.55100 45.38100
N  3.77700 -2.84900 44.54100
C  3.93000 -4.05200 45.11700
C  5.34300 -4.19100 45.40600
C  5.99200 -3.06700 44.89200
C  5.00700 -2.23200 44.38500
C  5.95300 -5.40300 46.05300
C  7.31600 -2.39400 44.64700
O  8.41300 -2.74400 44.96000
C  7.02700 -0.98700 44.00700
C  7.35500 0.00700 45.08300
O  7.02900 -0.06700 46.28600
O  7.89400 1.13000 44.52800
C  8.03000 2.26800 45.42100
H  1.14600 1.96600 41.69900
H  -2.19100 -3.39700 43.46500
H  3.05900 -5.91600 45.81200
H  5.77100 1.63700 43.06300
H  3.52100 2.30900 41.23000
H  2.65400 3.07100 43.68200
H  3.70100 3.98400 42.52500
H  4.37900 3.00600 43.93900
H  5.00500 1.12700 40.20700
H  5.84100 -0.28300 40.75400
H  7.73200 0.61800 40.40000
H  7.59000 1.94400 41.48000
H  -2.48600 1.50400 40.99800
H  -0.99500 2.02800 40.66900
H  -1.81600 2.57700 42.16400
H  -5.00000 -1.21800 43.90700
H  -3.55300 -1.87700 44.51900
H  -4.35600 -2.61000 42.96200
H  -1.24000 -5.85400 43.85400
H  0.50200 -6.06900 46.23200
H  -2.02300 -4.14400 45.97000
H  -1.81700 -5.87100 46.55100
H  -2.88700 -5.42000 45.17600
H  1.53800 -7.19300 43.73800
H  -0.11700 -7.59700 43.98300
H  0.55100 -9.39800 45.17700
H  1.17500 -8.31000 46.44400
H  2.20000 -8.93100 45.14600
H  5.61900 -6.26400 45.47400
H  5.60200 -5.44200 47.08400
H  7.02300 -5.19200 46.05900
H  7.62700 -0.80200 43.11600
H  7.40100 2.31900 46.31000
H  7.70300 3.11400 44.81600
H  9.06800 2.40200 45.72600
Mg 16.05100 52.23300 26.17400
C  18.06400 51.02100 29.06100
C  13.77200 53.23600 28.63500
C  14.49200 53.63600 23.71100
C  18.75300 51.32700 24.14100
N  15.84900 51.97700 28.47900
C  16.84100 51.59000 29.47900
C  16.37400 51.82200 30.89400
C  14.90400 52.30600 30.72500
C  14.81700 52.54600 29.21200
C  13.82000 51.41600 31.35000
C  17.26800 52.87300 31.66000
C  17.37000 52.86200 33.16300
H  16.44000 51.90700 33.92300
N  14.18500 53.13200 26.14800
C  13.43300 53.50400 27.24100
C  12.28300 54.26900 26.66700
C  12.49100 54.43800 25.27200
C  13.76100 53.75700 24.99700
C  11.07000 54.70100 27.46600
C  11.71400 55.19400 24.22400
O  12.02500 55.27900 23.07400
C  10.34200 55.84800 24.58800
N  16.51300 52.36700 24.29100
C  15.72100 53.04800 23.37600
C  16.39500 53.31700 22.00700
C  17.81700 52.71600 22.22100
C  17.73400 52.13800 23.66700
C  15.72000 52.62200 20.77700
C  18.99000 53.77200 22.11200
C  20.32700 53.44900 21.43800
N  17.89700 51.17100 26.42500
C  18.86800 50.89900 25.49100
C  19.92800 50.18800 26.12700
C  19.70600 50.28400 27.52800
C  18.43400 50.84100 27.66000
C  21.15500 49.70900 25.33900
C  20.26600 49.88000 28.82000
O  21.23400 49.22900 29.13400
C  19.26500 50.54800 29.88200
C  19.14300 49.52400 30.98200
O  18.57000 48.44900 30.92400
O  19.65100 50.14400 32.07700
C  19.54900 49.25800 33.25500
H  13.04200 53.74700 29.26700
H  14.06200 54.16200 22.85600
H  19.56700 51.16100 23.43300
H  16.46000 50.81600 31.30400
H  14.69800 53.29800 31.12600
H  13.51700 50.66200 30.62300
H  13.01000 52.02100 31.75800
H  14.23700 50.89400 32.21200
H  17.14900 53.90900 31.34300
H  18.28800 52.68000 31.32600
H  17.10600 53.89100 33.41000
H  18.37300 52.59100 33.49100
H  11.11900 55.78600 27.55400
H  11.10700 54.32500 28.48800
H  10.13200 54.36500 27.02300
H  9.90500 56.12300 23.62800
H  10.48100 56.71900 25.22800
H  9.64000 55.05700 24.85000
H  16.35600 54.40000 21.88400
H  17.85900 51.88300 21.51900
H  16.44200 52.02400 20.22100
H  15.37400 53.32200 20.01700
H  14.93400 51.99900 21.20300
H  19.21300 54.16100 23.10500
H  18.57000 54.62300 21.57700
H  20.38400 52.37500 21.26400
H  21.11800 53.67700 22.15300
H  20.42900 53.99400 20.50000
H  21.90100 49.79400 26.12900
H  21.29400 50.31600 24.44500
H  20.99400 48.67300 25.04200
H  19.78200 51.45100 30.20800
H  20.32300 48.49400 33.17500
H  18.62400 48.68700 33.33800
H  19.63400 49.78800 34.20400

