158

Mg 26.09900 49.37800 25.93400
C  24.13400 51.01200 28.36200
C  28.57900 48.95000 28.20500
C  28.12700 48.48100 23.43300
C  23.69800 50.51700 23.45600
N  26.27700 49.79000 28.05700
C  25.28100 50.36800 28.80300
C  25.61400 50.16800 30.25800
C  27.19200 49.79200 30.15500
C  27.44400 49.56100 28.72100
C  28.22000 50.77500 30.78100
C  24.67200 49.19000 31.10100
C  24.11000 49.76800 32.40100
H  25.13800 50.11800 33.46800
N  28.02800 48.62000 25.84200
C  28.92900 48.56500 26.85000
C  30.14200 47.99400 26.41800
C  30.05400 47.95500 24.99100
C  28.68700 48.38300 24.65800
C  31.31100 47.74100 27.38000
C  31.22400 47.69000 23.95300
O  30.98200 47.78900 22.75400
C  32.57900 47.45300 24.38500
N  25.89900 49.54100 23.78700
C  26.84900 48.90900 22.98800
C  26.40000 48.92700 21.46800
C  24.90500 49.42900 21.58700
C  24.78000 49.82000 23.02200
C  27.33800 49.81600 20.58400
C  23.87500 48.23100 21.33300
C  23.93200 46.95100 22.24600
N  24.31100 50.55700 25.89100
C  23.41800 50.85100 24.85400
C  22.33600 51.61900 25.44400
C  22.52600 51.66400 26.79500
C  23.76800 51.10400 27.03200
C  21.19300 52.12800 24.68600
C  21.96900 52.08800 28.03800
O  20.93500 52.68500 28.19600
C  22.90400 51.51800 29.12700
C  23.28300 52.61700 30.07900
O  24.35000 53.19100 30.13800
O  22.42500 52.60800 31.13600
C  22.80500 53.52900 32.22300
H  29.37200 48.74800 28.92800
H  28.74900 48.11900 22.61100
H  23.08900 50.92400 22.64600
H  25.57800 51.14000 30.75000
H  27.27300 48.85600 30.70800
H  27.68200 51.36700 31.52100
H  28.85400 51.28800 30.05700
H  28.88300 50.14900 31.37800
H  25.34000 48.36500 31.34700
H  23.75800 48.85300 30.61100
H  23.40500 49.06300 32.84000
H  23.62200 50.71200 32.15800
H  31.90800 46.94700 26.93200
H  31.07200 47.36800 28.37600
H  31.89100 48.65000 27.54000
H  33.13800 47.70200 23.48300
H  32.62100 46.38400 24.59300
H  32.85400 48.09800 25.22000
H  26.48100 47.92100 21.05600
H  24.74100 50.30800 20.96400
H  28.34200 49.73800 20.99900
H  26.91400 50.81700 20.50500
H  27.26600 49.30400 19.62400
H  24.04900 47.84000 20.33000
H  22.86000 48.63000 21.33000
H  23.96900 46.12600 21.53500
H  23.01500 46.82700 22.82100
H  24.78600 46.93300 22.92400
H  21.57500 52.99600 24.14700
H  20.35800 52.38900 25.33600
H  20.96500 51.37000 23.93700
H  22.44900 50.85100 29.86000
H  23.40000 52.95500 32.93300
H  21.88600 53.77500 32.75400
H  23.36000 54.44600 32.02600
Mg -11.07400 17.45200 42.84300
C  -7.72200 17.72200 43.26400
C  -11.37900 20.98400 42.72100
C  -14.28100 17.26600 41.55700
C  -10.56700 14.03000 42.18700
N  -9.69600 19.13500 43.04300
C  -8.34200 18.99100 43.21800
C  -7.74000 20.40700 43.20100
C  -8.96900 21.33000 43.39400
C  -10.12300 20.51700 43.05300
C  -9.16400 21.89800 44.87500
C  -7.04600 20.66800 41.83700
C  -5.64200 21.24600 41.76600
H  -4.60100 20.32800 40.96100
N  -12.66000 18.93400 42.37800
C  -12.50500 20.26100 42.33200
C  -13.79900 20.87100 42.05300
C  -14.73500 19.79200 41.82900
C  -13.88800 18.60600 41.85500
C  -14.07900 22.35500 41.99100
C  -16.22200 19.91900 41.51500
O  -16.71400 21.01300 41.34900
C  -17.14800 18.76800 41.35700
N  -12.19200 15.95200 41.72200
C  -13.57700 16.04000 41.49700
C  -14.20600 14.64800 41.35700
C  -13.02000 13.69200 41.69600
C  -11.86000 14.55300 41.85000
C  -15.42400 14.51400 42.27000
C  -12.73200 12.52900 40.64600
C  -12.07200 13.09100 39.35700
N  -9.52700 16.07300 42.80500
C  -9.42100 14.72800 42.54700
C  -8.11900 14.24600 42.87000
C  -7.35600 15.38800 43.17800
C  -8.29500 16.46500 43.05900
C  -7.61400 12.85500 42.73700
C  -6.06500 15.87900 43.51400
O  -4.94500 15.38900 43.50500
C  -6.23400 17.43900 43.51300
C  -5.64100 18.06900 44.71500
O  -6.20300 18.26500 45.82100
O  -4.40900 18.63900 44.39800
C  -3.73700 19.33600 45.58500
H  -11.48200 22.05700 42.89700
H  -15.31900 17.02600 41.31800
H  -10.48900 12.94200 42.13300
H  -6.90500 20.59000 43.87800
H  -9.00000 22.17000 42.70000
H  -8.94000 22.96200 44.94700
H  -8.41000 21.42400 45.50200
H  -10.16400 21.79900 45.29700
H  -7.69800 21.20400 41.14700
H  -7.01500 19.69900 41.33900
H  -5.27900 21.52600 42.75500
H  -5.59600 22.10500 41.09800
H  -14.48500 22.72700 41.05000
H  -13.27100 23.00100 42.33600
H  -14.79200 22.56000 42.79000
H  -18.15500 19.18300 41.37200
H  -17.04400 18.10100 42.21300
H  -16.92200 18.38400 40.36200
H  -14.53300 14.63000 40.31700
H  -13.15200 13.24700 42.68200
H  -15.32300 14.93500 43.27000
H  -15.43900 13.42700 42.35000
H  -16.30200 14.91600 41.76400
H  -13.71000 12.14800 40.35400
H  -12.20800 11.67800 41.08000
H  -12.75900 13.15700 38.51400
H  -11.26000 12.48500 38.95400
H  -11.73800 14.12500 39.44900
H  -6.66600 12.69400 43.25000
H  -7.45400 12.59100 41.69100
H  -8.41400 12.28400 43.20800
H  -5.64600 17.76100 42.65400
H  -2.87000 19.93600 45.30900
H  -3.55200 18.67200 46.42900
H  -4.46600 20.01100 46.03200

