158

Mg 46.67800 24.39400 28.95100
C  47.24100 26.92100 31.40600
C  45.69800 22.36500 31.49100
C  46.65100 22.00500 26.67800
C  48.18300 26.56500 26.54100
N  46.51400 24.63100 31.23700
C  46.64600 25.77100 31.96600
C  46.12200 25.56400 33.42000
C  45.86000 24.01900 33.41600
C  45.97600 23.59900 31.95700
C  46.88000 23.15400 34.21800
C  44.97500 26.57800 33.85900
C  45.27700 27.20800 35.22400
H  44.31200 27.13300 36.36900
N  45.98300 22.49300 29.05900
C  45.60600 21.85100 30.17600
C  45.08900 20.60000 29.69900
C  45.41300 20.38000 28.37900
C  46.02700 21.64700 27.94600
C  44.44000 19.64400 30.55600
C  45.22800 19.25500 27.44400
O  45.55000 19.31600 26.20800
C  44.76400 17.97000 28.03400
N  47.48300 24.28600 26.96200
C  47.20100 23.21900 26.15800
C  47.59700 23.38100 24.67200
C  47.75900 24.93800 24.65600
C  47.78500 25.32000 26.12700
C  48.93400 22.63500 24.43400
C  46.60300 25.64900 23.97800
C  46.72100 26.17300 22.51200
N  47.57700 26.25600 28.91800
C  48.19900 27.00600 27.86700
C  48.63800 28.23500 28.44300
C  48.37100 28.21700 29.77700
C  47.67100 27.04300 30.05000
C  49.16100 29.35400 27.66100
C  48.50700 28.96200 31.03600
O  49.12400 29.94300 31.35000
C  47.85600 28.09700 32.16000
C  48.94300 27.62900 33.17100
O  49.88900 26.92500 32.88500
O  48.58900 28.16500 34.36600
C  49.35300 27.77400 35.54300
H  45.39700 21.67200 32.28000
H  46.58100 21.30700 25.84100
H  48.30500 27.27300 25.71900
H  47.04900 25.75000 33.96300
H  44.85600 23.86400 33.81100
H  47.55200 22.53000 33.62900
H  46.27700 22.51200 34.86000
H  47.37300 23.82500 34.92200
H  44.02000 26.05600 33.92300
H  45.05900 27.39300 33.13900
H  45.84700 28.13400 35.14500
H  46.00100 26.55600 35.71100
H  45.01000 18.71900 30.47000
H  43.40800 19.46300 30.25500
H  44.48300 19.88500 31.61800
H  45.46000 17.62100 28.79700
H  44.84100 17.23700 27.23000
H  43.75000 18.03900 28.42800
H  46.73900 23.02900 24.09900
H  48.70400 25.23300 24.20000
H  49.13300 21.80000 25.10500
H  49.83700 23.24200 24.49600
H  48.87900 22.34400 23.38500
H  46.28600 26.45300 24.64200
H  45.78000 24.93400 23.99800
H  47.71600 25.87300 22.18400
H  46.71000 27.25100 22.35100
H  45.93100 25.73000 21.90500
H  48.40500 30.02700 27.25600
H  49.67200 28.98500 26.77200
H  49.83300 29.83300 28.37300
H  47.08400 28.77500 32.52400
H  49.89700 28.61400 35.97500
H  50.01600 26.95300 35.27100
H  48.69700 27.60100 36.39700
Mg 36.72500 49.75900 24.66200
C  36.32600 48.03600 27.71200
C  35.92400 52.68800 26.25800
C  36.71100 51.34800 21.66400
C  37.18100 46.74600 23.17400
N  35.91200 50.22800 26.76000
C  36.14200 49.43300 27.84000
C  35.85500 50.19900 29.11600
C  35.63900 51.63900 28.64900
C  35.82200 51.53900 27.05600
C  34.30200 52.32100 29.08600
C  37.06900 50.09400 30.18200
C  36.68100 49.88300 31.75200
H  35.19100 49.77500 32.13100
N  36.32000 51.74900 24.04100
C  36.10700 52.79000 24.89700
C  36.28600 54.04000 24.14100
C  36.30000 53.63700 22.74100
C  36.45500 52.19500 22.76500
C  36.49900 55.44700 24.75900
C  36.34700 54.44200 21.48800
O  36.47000 54.02900 20.34700
C  36.05100 55.95900 21.67800
N  36.66600 49.11800 22.68700
C  36.81200 49.96700 21.57200
C  37.00100 49.17300 20.31100
C  37.42600 47.76200 20.91300
C  37.06500 47.86900 22.40500
C  35.73800 49.22700 19.39500
C  38.80600 47.45300 20.47200
C  39.13800 45.96600 19.96400
N  36.64400 47.80600 25.23400
C  37.00000 46.66000 24.52600
C  36.99400 45.52600 25.40900
C  36.82300 46.06200 26.65500
C  36.51500 47.43100 26.52500
C  37.41200 44.13700 24.95500
C  36.90000 45.71400 28.09100
O  37.10000 44.68000 28.68800
C  36.44700 46.97900 28.80900
C  35.19900 46.68900 29.45200
O  34.07500 46.60600 28.95000
O  35.43400 46.44700 30.73500
C  34.28100 45.83200 31.49500
H  35.95200 53.56700 26.90600
H  36.83400 51.83500 20.69400
H  37.58800 45.83700 22.72800
H  34.87000 49.86700 29.44500
H  36.44400 52.31400 28.94100
H  34.43800 52.75800 30.07500
H  33.50000 51.58800 29.17500
H  33.91900 53.16100 28.50600
H  37.57300 51.06000 30.20600
H  37.88200 49.43400 29.88100
H  37.20400 50.70000 32.24900
H  37.23300 49.03100 32.14900
H  35.56400 56.00200 24.68900
H  37.21800 55.96700 24.12600
H  36.82400 55.35600 25.79600
H  36.87100 56.67500 21.73800
H  35.24800 56.14100 22.39300
H  35.56200 56.24200 20.74600
H  37.87300 49.63500 19.84800
H  36.69100 47.04000 20.55600
H  36.10000 49.79000 18.53400
H  34.87900 49.75900 19.80300
H  35.29100 48.27900 19.09800
H  39.36400 47.67700 21.38100
H  39.21800 48.20000 19.79300
H  39.86700 45.59700 20.68500
H  39.57000 45.98000 18.96300
H  38.26600 45.31800 20.04400
H  36.69300 43.60800 24.33000
H  37.79100 43.47400 25.73300
H  38.31700 44.37200 24.39400
H  37.13800 47.29000 29.59300
H  33.86000 44.92200 31.06800
H  33.46400 46.50000 31.76900
H  34.76200 45.48000 32.40800

