158

Mg -1.43000 17.81700 27.40900
C  -1.99800 15.85000 30.04700
C  -2.41800 20.48000 29.28700
C  -1.01000 19.74600 24.66700
C  -1.23700 14.99200 25.38800
N  -2.20100 18.14200 29.42300
C  -2.33100 17.17800 30.37900
C  -2.69700 17.75100 31.80900
C  -3.11600 19.22800 31.39600
C  -2.54100 19.29100 29.95300
C  -4.68300 19.47200 31.37400
C  -1.51300 17.63500 32.79500
C  -1.87800 16.88100 34.11000
H  -0.79600 16.73600 35.23800
N  -1.47900 19.88500 27.07400
C  -1.94700 20.84300 28.00800
C  -1.88700 22.17900 27.36300
C  -1.52800 21.91400 25.99300
C  -1.28800 20.48800 25.85500
C  -2.25200 23.50200 28.09200
C  -1.47000 22.98100 24.88700
O  -1.09100 22.73900 23.74800
C  -1.97100 24.34100 25.17200
N  -1.16100 17.47100 25.38300
C  -1.00700 18.42000 24.36400
C  -0.93600 17.84700 22.97800
C  -0.68800 16.34600 23.33900
C  -1.12800 16.23000 24.79700
C  -2.32800 18.08500 22.22400
C  0.80800 15.97900 23.19200
C  1.80900 16.52100 24.26000
N  -1.61000 15.82400 27.59000
C  -1.40200 14.75900 26.74800
C  -1.62900 13.54200 27.47100
C  -1.77100 13.91500 28.78500
C  -1.73700 15.31400 28.77900
C  -1.69500 12.18000 26.83400
C  -1.91500 13.33600 30.11400
O  -1.97900 12.14700 30.43700
C  -2.01900 14.57500 31.01300
C  -0.79800 14.50900 31.76400
O  0.25100 14.86800 31.30500
O  -0.97100 13.87100 32.97500
C  0.37300 13.75500 33.67600
H  -2.74300 21.38700 29.80100
H  -0.97300 20.48900 23.86700
H  -1.24200 14.12900 24.71800
H  -3.56800 17.21300 32.18400
H  -2.60200 20.01500 31.94800
H  -4.95500 19.74800 32.39300
H  -5.13700 18.50500 31.15700
H  -5.00400 20.17600 30.60600
H  -1.20400 18.63700 33.09200
H  -0.62300 17.26200 32.28700
H  -2.16100 15.91900 33.68400
H  -2.77900 17.28800 34.57000
H  -2.46100 23.23900 29.12800
H  -3.17700 23.95600 27.73400
H  -1.47400 24.24600 27.91700
H  -3.04100 24.28600 25.37100
H  -1.84800 24.84900 24.21600
H  -1.44100 24.91400 25.93300
H  -0.05300 18.10500 22.39200
H  -1.27200 15.59900 22.80100
H  -2.95000 18.64100 22.92500
H  -2.93800 17.19000 22.10500
H  -2.29200 18.65100 21.29300
H  1.16600 16.36100 22.23600
H  0.84700 14.89200 23.12700
H  1.31700 16.97700 25.11900
H  2.42200 17.27900 23.77200
H  2.38700 15.74300 24.75700
H  -2.71200 11.98600 26.49500
H  -1.36300 11.53200 27.64500
H  -1.00100 11.98500 26.01600
H  -2.92600 14.59200 31.61800
H  0.68600 14.72000 34.07400
H  1.09400 13.38500 32.94800
H  0.30200 12.99900 34.45800
Mg 26.86200 50.38100 26.73900
C  25.08000 51.85100 29.29800
C  28.97900 49.03500 28.94700
C  28.50200 48.97900 24.11800
C  24.51900 51.83300 24.48400
N  26.94200 50.33400 28.79900
C  26.05500 50.93800 29.69300
C  26.39100 50.66000 31.22600
C  27.80500 49.97000 31.01800
C  27.90000 49.75100 29.50000
C  29.07500 50.65200 31.73600
C  25.30600 49.64500 31.83100
C  24.73100 49.86200 33.30600
H  25.40600 50.78300 34.24400
N  28.70200 49.31900 26.58000
C  29.36000 48.78500 27.60700
C  30.49200 48.05400 27.10900
C  30.34600 47.91400 25.73200
C  29.12900 48.70300 25.42200
C  31.47200 47.45000 28.11700
C  31.26500 47.25300 24.72400
O  31.29000 47.51200 23.58400
C  32.29300 46.30700 25.28800
N  26.74400 50.65000 24.53100
C  27.46500 49.76200 23.73000
C  26.90100 49.78300 22.26600
C  25.55400 50.60100 22.45500
C  25.57900 51.06400 23.94200
C  27.85000 50.47200 21.30400
C  24.13500 49.91700 22.10900
C  23.06100 50.84400 21.45900
N  25.20100 51.65100 26.79200
C  24.29600 52.14600 25.79600
C  23.27600 52.93700 26.40100
C  23.57500 52.78700 27.77500
C  24.74200 52.10900 27.93600
C  22.22100 53.71300 25.71100
C  23.04000 53.21900 29.06500
O  22.01100 53.78300 29.34800
C  23.99100 52.53600 30.14500
C  24.56700 53.57000 31.09000
O  25.53000 54.26200 30.92500
O  23.68600 53.67600 32.15000
C  23.91600 54.87800 32.96900
H  29.56800 48.58600 29.75000
H  29.03200 48.46400 23.31300
H  23.71200 52.16900 23.82900
H  26.51200 51.60400 31.75700
H  27.79700 48.92700 31.33400
H  28.81600 51.65200 32.08600
H  29.99800 50.67500 31.15600
H  29.28300 50.01200 32.59300
H  25.71700 48.63600 31.87300
H  24.40600 49.62900 31.21700
H  24.52600 48.89300 33.76200
H  23.75100 50.29000 33.09700
H  32.50800 47.44000 27.77800
H  31.05700 46.46600 28.33300
H  31.50800 47.99100 29.06200
H  31.75600 45.58200 25.90000
H  33.11800 46.72500 25.86400
H  32.75800 45.79000 24.44800
H  26.74600 48.76100 21.91900
H  25.62200 51.49000 21.82900
H  27.47500 51.43100 20.94700
H  28.13700 49.81100 20.48700
H  28.74100 50.69100 21.89400
H  23.78000 49.58900 23.08600
H  24.27900 49.03500 21.48500
H  22.89900 50.60300 20.40800
H  23.34000 51.88400 21.63000
H  22.15700 50.55100 21.99300
H  21.36800 53.82600 26.38000
H  21.84200 53.34600 24.75700
H  22.62000 54.70200 25.48500
H  23.36200 51.89000 30.75800
H  24.56600 54.70400 33.82600
H  22.94300 55.19100 33.34800
H  24.30700 55.69700 32.36500

