158

Mg 36.28900 48.78900 26.18200
C  36.63100 46.78800 29.05600
C  35.00900 51.24700 28.08200
C  35.79100 50.50500 23.31800
C  37.32100 45.90500 24.22100
N  35.82400 48.95500 28.35800
C  36.12000 48.05600 29.34200
C  36.02600 48.71100 30.73600
C  35.25200 50.03400 30.33300
C  35.40400 50.14300 28.81800
C  33.80900 50.11600 30.76900
C  37.42100 48.93200 31.36100
C  37.54900 49.25200 32.88700
H  36.28400 49.37700 33.81600
N  35.52200 50.68900 25.71900
C  35.06100 51.56500 26.74400
C  34.69300 52.81600 26.00400
C  35.03300 52.59200 24.64600
C  35.42000 51.21400 24.47700
C  34.28800 54.05600 26.67700
C  34.96400 53.57700 23.43100
O  35.30600 53.29600 22.30000
C  34.48300 54.94300 23.54100
N  36.46200 48.26500 24.03500
C  36.29700 49.23700 23.10200
C  36.64100 48.69400 21.74800
C  37.30900 47.28100 22.06200
C  36.99900 47.05900 23.51900
C  35.41300 48.65200 20.74400
C  38.81000 47.27400 21.88700
C  39.43100 46.33100 20.79500
N  36.85200 46.81800 26.54400
C  37.29100 45.78100 25.66900
C  37.51400 44.61800 26.42900
C  37.29100 44.98800 27.80200
C  36.91700 46.34300 27.80300
C  37.92800 43.29800 25.85300
C  37.40700 44.45700 29.05500
O  37.89600 43.40900 29.42900
C  36.96900 45.61000 29.99500
C  35.87800 45.25200 30.98300
O  34.75600 44.89400 30.66500
O  36.25900 45.53500 32.21500
C  35.14200 45.53500 33.18000
H  34.76500 52.16300 28.62400
H  35.96600 51.10100 22.42000
H  37.71700 45.02300 23.71300
H  35.37100 48.05800 31.31400
H  35.75300 50.88600 30.79400
H  33.53200 49.12300 31.12500
H  33.22800 50.40400 29.89300
H  33.64000 50.85600 31.55100
H  37.90900 49.69800 30.75800
H  37.92900 47.97400 31.25300
H  38.05900 50.20400 33.03800
H  38.13100 48.47100 33.37600
H  33.78300 53.97500 27.63900
H  33.49700 54.55400 26.11700
H  35.21000 54.63800 26.68500
H  35.00400 55.43400 24.36300
H  33.44600 54.90600 23.87400
H  34.59700 55.42700 22.57100
H  37.31500 49.42900 21.30800
H  36.82900 46.52800 21.43600
H  35.01400 47.64100 20.82000
H  35.59200 48.98700 19.72200
H  34.62000 49.27900 21.15200
H  39.33500 47.05300 22.81500
H  39.17100 48.26800 21.62300
H  40.05500 46.98700 20.18800
H  38.66500 45.95100 20.11800
H  39.99400 45.46800 21.15000
H  38.91700 43.53600 25.46000
H  37.37800 43.10500 24.93200
H  37.78500 42.47000 26.54700
H  37.75400 45.81500 30.72300
H  35.40400 45.98400 34.13800
H  34.90100 44.49700 33.41000
H  34.36200 46.12100 32.69500
Mg -1.46200 35.21300 26.80500
C  -3.24500 33.41200 29.25500
C  -0.33300 37.26000 29.46900
C  0.07600 37.11700 24.65600
C  -2.76000 33.19000 24.44900
N  -1.89100 35.43900 29.14600
C  -2.45600 34.45200 29.89200
C  -2.25600 34.71800 31.43200
C  -1.42600 35.98600 31.39000
C  -1.19000 36.28500 29.91800
C  -2.10300 37.08800 32.27300
C  -1.67200 33.59300 32.26600
C  -2.52700 33.03000 33.45900
H  -1.80700 33.01900 34.83600
N  -0.27300 36.94500 27.00200
C  0.11700 37.55900 28.14800
C  0.98600 38.60700 27.84700
C  1.20500 38.53400 26.44100
C  0.32700 37.48100 25.94000
C  1.59000 39.61300 28.84800
C  2.16000 39.33700 25.56900
O  2.23900 39.09000 24.37900
C  3.07700 40.34600 26.18800
N  -1.53400 35.20200 24.75900
C  -0.71800 36.18700 24.10900
C  -0.83200 35.91300 22.62800
C  -1.66200 34.52200 22.51400
C  -2.00300 34.24500 23.96200
C  -1.56800 37.03300 21.86800
C  -0.86500 33.44100 21.76300
C  0.35900 32.83400 22.53800
N  -2.87200 33.72200 26.79300
C  -3.25800 32.99500 25.72100
C  -3.92400 31.83400 26.16100
C  -4.04700 31.95600 27.58400
C  -3.35000 33.14600 27.89500
C  -4.28000 30.69200 25.23400
C  -4.46900 31.31800 28.84200
O  -5.09400 30.28500 29.06800
C  -3.94000 32.26100 29.94500
C  -5.04000 32.81300 30.70500
O  -5.85500 33.66900 30.32000
O  -5.16500 32.24900 31.90600
C  -6.25700 32.58400 32.78300
H  0.11100 37.79800 30.30900
H  0.32000 37.87000 23.90400
H  -2.91100 32.40100 23.70900
H  -3.28700 34.82100 31.77000
H  -0.41100 35.81100 31.74800
H  -1.34900 37.42200 32.98700
H  -2.99900 36.76900 32.80500
H  -2.35400 37.84100 31.52600
H  -0.67900 33.84800 32.63800
H  -1.39200 32.81400 31.55800
H  -2.79700 32.01300 33.17400
H  -3.40000 33.66100 33.62900
H  1.19900 39.42300 29.84800
H  1.44900 40.66900 28.61600
H  2.66400 39.45700 28.94600
H  3.67200 39.85300 26.95600
H  2.45600 41.13300 26.61500
H  3.75100 40.78500 25.45200
H  0.19200 35.78300 22.27900
H  -2.57700 34.61700 21.93000
H  -1.81100 37.93500 22.43000
H  -2.47100 36.67600 21.37200
H  -0.95800 37.34600 21.02000
H  -0.56200 33.77200 20.77000
H  -1.55900 32.60000 21.78900
H  -0.06100 31.83700 22.67000
H  0.41500 33.39800 23.46900
H  1.33800 32.75300 22.06500
H  -4.33300 29.82100 25.88700
H  -3.49400 30.50400 24.50300
H  -5.17500 30.78800 24.61800
H  -3.22900 31.69400 30.54500
H  -6.11400 32.20900 33.79700
H  -7.20900 32.15700 32.46700
H  -6.24800 33.66300 32.93900

