158

Mg 24.68600 1.27000 29.70900
C  26.88000 1.18400 32.36800
C  22.06600 1.20500 31.97100
C  22.48700 1.33100 27.13100
C  27.24900 0.57400 27.47700
N  24.56400 1.41200 31.91200
C  25.54000 1.41500 32.81700
C  25.08200 1.57900 34.28100
C  23.51500 1.48500 34.10200
C  23.34200 1.39400 32.54300
C  22.77700 0.42600 34.90900
C  25.58500 2.82600 35.07400
C  24.69700 3.14000 36.33600
H  25.37700 3.47900 37.68400
N  22.57500 1.27800 29.55400
C  21.65500 1.16800 30.61700
C  20.33900 1.17700 30.11000
C  20.47800 1.21400 28.69700
C  21.88700 1.27300 28.36100
C  19.17600 1.01400 31.06600
C  19.42600 1.14800 27.67500
O  19.55300 1.34100 26.40800
C  18.01400 0.95900 28.08100
N  24.93400 1.25400 27.67800
C  23.87600 1.37000 26.77500
C  24.35100 1.40400 25.31600
C  25.86500 1.16300 25.40600
C  26.03900 0.94600 26.89900
C  23.60800 0.47900 24.33100
C  26.75500 2.17200 24.63800
C  27.23400 3.40800 25.29800
N  26.67700 0.89700 29.82600
C  27.62500 0.60000 28.88000
C  28.91500 0.46400 29.52600
C  28.71900 0.75500 30.84700
C  27.32100 0.94700 30.98100
C  30.22800 0.16300 28.83400
C  29.28400 0.85500 32.14600
O  30.46900 0.69500 32.45300
C  28.14900 1.23500 33.17000
C  28.15400 0.23800 34.25100
O  27.95600 -1.00500 34.14600
O  28.53400 0.82700 35.40800
C  28.94400 -0.03600 36.54200
H  21.27400 1.12900 32.71800
H  21.82300 1.30300 26.26500
H  28.12200 0.40500 26.84300
H  25.42200 0.75100 34.90300
H  23.07600 2.43400 34.40900
H  21.85900 0.72900 35.41200
H  23.43500 0.16200 35.73700
H  22.57500 -0.44700 34.28900
H  25.27400 3.54200 34.31200
H  26.64000 2.92000 35.33000
H  24.00000 2.33300 36.55900
H  24.12400 4.04100 36.11200
H  18.52700 1.89000 31.09000
H  19.44700 0.89400 32.11500
H  18.64600 0.12600 30.72100
H  17.64600 1.86200 28.56800
H  18.00200 0.11200 28.76700
H  17.36300 0.79600 27.22200
H  24.16200 2.41600 24.95700
H  26.26100 0.27300 24.91700
H  23.06600 -0.23200 24.95400
H  24.27400 -0.01600 23.62400
H  22.88600 1.10800 23.81100
H  26.22800 2.54200 23.75800
H  27.61700 1.58800 24.31600
H  27.51100 3.22800 26.33700
H  26.45800 4.16300 25.17200
H  28.03900 3.82700 24.69500
H  30.36500 0.87000 28.01600
H  30.11800 -0.87700 28.52400
H  31.07100 0.28500 29.51400
H  28.32700 2.23700 33.56100
H  29.19600 -1.06200 36.27300
H  28.18500 -0.12000 37.31900
H  29.89000 0.28300 36.98000
Mg 29.36700 58.89400 41.26000
C  26.76300 56.91000 39.99600
C  31.56700 56.86600 39.84100
C  31.65800 61.37600 41.66200
C  26.83600 61.18700 42.38200
N  29.15000 57.17600 39.88600
C  28.05600 56.48100 39.62100
C  28.34000 55.34400 38.64300
C  29.87500 55.16300 38.85300
C  30.24400 56.45800 39.63200
C  30.25800 53.79500 39.67600
C  27.85300 55.77800 37.25700
C  26.99800 54.77100 36.45500
H  27.34400 54.50100 34.99000
N  31.32700 59.12100 40.73700
C  32.10600 58.13500 40.26700
C  33.46600 58.53500 40.22600
C  33.57300 59.85300 40.82100
C  32.17700 60.16300 41.12800
C  34.55000 57.75200 39.40700
C  34.77700 60.72500 41.07100
O  35.92600 60.31200 40.78200
C  34.68300 62.05700 41.60500
N  29.27200 60.96800 42.00600
C  30.36300 61.76000 42.08800
C  29.94000 63.12800 42.56300
C  28.45700 63.06700 42.82000
C  28.16600 61.67900 42.32600
C  30.70300 63.77100 43.65000
C  27.59400 64.24100 42.14400
C  26.54300 64.70600 43.15200
N  27.20000 58.92800 41.41900
C  26.34100 59.91300 41.91100
C  25.01900 59.41500 41.74500
C  25.09000 58.26500 41.02600
C  26.47700 58.08600 40.76600
C  23.68100 60.08800 42.17200
C  24.40200 57.16700 40.44100
O  23.23200 56.94900 40.46300
C  25.42000 56.27400 39.68900
C  25.26600 54.98600 40.27100
O  25.79300 54.63300 41.35400
O  24.60500 54.16500 39.36300
C  24.85700 52.71100 39.52700
H  32.22700 56.04600 39.55000
H  32.28700 62.25400 41.82200
H  26.08200 61.86300 42.79100
H  27.88100 54.44400 39.05300
H  30.34900 55.17500 37.87200
H  29.35400 53.29800 40.02700
H  30.77000 54.00000 40.61700
H  30.77700 53.09300 39.02300
H  28.72100 55.95200 36.62200
H  27.29400 56.69000 37.46400
H  25.98400 55.16900 36.46900
H  26.87500 53.83700 37.00400
H  34.63600 56.74500 39.81500
H  35.56700 58.14600 39.39700
H  34.26200 57.64600 38.36100
H  34.22900 62.74600 40.89400
H  35.72400 62.38000 41.64500
H  34.26100 62.08300 42.60900
H  30.01400 63.84000 41.74100
H  28.25600 63.01900 43.89100
H  31.69300 63.33200 43.77100
H  30.25800 63.53400 44.61600
H  30.85600 64.84300 43.52900
H  27.03700 63.95100 41.25300
H  28.17600 65.13200 41.90600
H  25.57100 64.51100 42.70000
H  26.68600 65.78500 43.22100
H  26.58400 64.29500 44.16100
H  22.91000 59.36700 41.89900
H  23.53800 60.94000 41.50800
H  23.52500 60.44400 43.19000
H  25.19700 56.29700 38.62300
H  24.06700 52.25600 40.12400
H  25.69400 52.51500 40.19700
H  25.07400 52.11500 38.64000

