158

Mg 54.23500 24.67100 43.45900
C  51.66300 27.05300 43.29300
C  51.85700 22.23600 43.00600
C  56.72900 22.53900 42.87500
C  56.64400 27.35200 43.57400
N  52.02600 24.70000 43.13000
C  51.22500 25.79200 43.03800
C  49.77700 25.30300 42.91800
C  49.79800 23.76500 43.37400
C  51.28700 23.51700 43.17900
C  49.46000 23.56100 44.86900
C  49.11700 25.52300 41.47400
C  49.82400 24.95800 40.22300
H  50.40200 25.89800 39.18600
N  54.31500 22.56800 43.04600
C  53.19400 21.75900 42.96600
C  53.65100 20.39300 42.71100
C  55.09200 20.46700 42.64100
C  55.41800 21.87400 42.91500
C  52.75500 19.30400 42.37500
C  56.04000 19.28800 42.16600
O  55.58300 18.20400 41.91500
C  57.46700 19.47900 41.91500
N  56.40800 24.96100 42.95600
C  57.20500 23.86500 42.98700
C  58.64800 24.24500 42.94200
C  58.57700 25.86700 42.97800
C  57.13200 26.10000 43.17800
C  59.41300 23.69900 44.13400
C  59.11900 26.57100 41.68900
C  59.93100 27.79900 41.83800
N  54.24800 26.77900 43.43300
C  55.27000 27.74700 43.59600
C  54.67400 29.05400 43.82700
C  53.28500 28.81600 43.61900
C  53.02600 27.45400 43.39800
C  55.27500 30.35200 44.05000
C  51.95000 29.48000 43.66800
O  51.60800 30.64200 43.85500
C  50.85800 28.30800 43.21300
C  50.48600 28.78400 41.87400
O  51.17400 28.59500 40.89800
O  49.20600 29.35500 41.83900
C  48.69300 29.75600 40.55700
H  51.11000 21.51000 42.67500
H  57.51800 21.79500 43.00300
H  57.38600 28.14600 43.68300
H  49.21900 25.85800 43.67200
H  49.12200 23.16100 42.76900
H  48.60400 24.18100 45.13400
H  50.31800 23.89200 45.45400
H  49.31500 22.52000 45.15600
H  48.84800 26.56900 41.33100
H  48.17200 24.97900 41.49000
H  49.09900 24.29600 39.74900
H  50.64000 24.37200 40.64700
H  52.70900 19.20500 41.29100
H  51.79100 19.69100 42.70500
H  52.98100 18.43800 42.99700
H  57.58200 20.42000 41.37800
H  57.87400 18.63500 41.35800
H  57.89400 19.51000 42.91800
H  59.04200 23.82900 42.01400
H  59.18700 26.17600 43.82600
H  59.44100 24.44100 44.93200
H  60.38800 23.29800 43.85700
H  58.90900 22.82900 44.55400
H  58.18600 26.82300 41.18500
H  59.60500 25.78300 41.11300
H  60.28900 27.89900 42.86200
H  59.37100 28.68200 41.52700
H  60.86600 27.73200 41.28300
H  54.49700 31.05200 43.74300
H  56.14600 30.51200 43.41500
H  55.47300 30.47600 45.11500
H  50.09000 28.42200 43.97800
H  48.94300 29.08200 39.73800
H  48.91500 30.78000 40.25900
H  47.60900 29.69300 40.65400
Mg 16.95600 53.06000 26.61700
C  18.85600 51.47500 29.03500
C  14.50200 53.61600 28.90600
C  14.96800 54.19400 24.11300
C  19.32600 52.01600 24.14000
N  16.60400 52.48900 28.64200
C  17.60000 51.96100 29.45700
C  17.27300 52.27200 30.89800
C  15.78900 52.63000 30.82800
C  15.53600 52.81700 29.35400
C  14.86500 51.61600 31.45900
C  18.17600 53.39700 31.50300
C  18.63200 53.18400 32.91500
H  17.67100 52.38000 33.82400
N  15.06700 53.95600 26.52200
C  14.23900 54.16000 27.63200
C  13.04800 54.87700 27.23600
C  13.09300 54.96800 25.81900
C  14.41200 54.38800 25.37300
C  11.98100 55.22500 28.26900
C  12.09200 55.62100 24.85100
O  12.39600 55.64900 23.64600
C  10.89300 56.44000 25.37100
N  17.11400 52.97700 24.42200
C  16.11700 53.55900 23.66800
C  16.44900 53.29600 22.14400
C  17.99800 52.95100 22.18800
C  18.18000 52.63200 23.66400
C  15.48400 52.28100 21.47800
C  19.01700 53.94800 21.59500
C  19.51900 55.20900 22.35500
N  18.75900 51.84200 26.53900
C  19.65300 51.60600 25.47300
C  20.76800 50.79000 26.05100
C  20.47000 50.84500 27.45200
C  19.25200 51.41800 27.69000
C  21.90900 50.22000 25.26600
C  21.06100 50.40500 28.73100
O  22.11900 49.84100 28.95900
C  20.00900 50.90300 29.81500
C  19.65600 49.80000 30.60800
O  19.07500 48.77900 30.25000
O  19.99400 50.00700 31.89600
C  19.54800 48.95400 32.76500
H  13.75200 53.79900 29.67800
H  14.35200 54.51100 23.26800
H  20.01300 51.76000 23.33000
H  17.48800 51.39200 31.50500
H  15.69100 53.62500 31.26200
H  14.14100 52.12500 32.09600
H  15.33100 50.76700 31.95900
H  14.35400 51.22100 30.58000
H  17.73300 54.37500 31.31400
H  19.07200 53.51000 30.89200
H  18.66500 54.10700 33.49400
H  19.56700 52.63400 33.02200
H  11.15500 54.52300 28.38000
H  11.50500 56.15400 27.95700
H  12.46300 55.49600 29.20900
H  10.26000 55.91800 26.08800
H  10.27200 56.66700 24.50400
H  11.27500 57.34100 25.85000
H  16.37300 54.28400 21.68900
H  18.24000 51.98800 21.74000
H  16.13200 51.48800 21.10500
H  14.85100 52.57900 20.64300
H  14.87500 51.74700 22.20900
H  18.50500 54.33600 20.71400
H  19.84700 53.27000 21.39500
H  18.81800 55.49300 23.14000
H  19.43700 56.06800 21.68900
H  20.56500 55.09200 22.63800
H  22.49700 51.12500 25.10900
H  21.79100 49.69800 24.31600
H  22.52700 49.66300 25.97000
H  20.51700 51.69800 30.36000
H  20.38800 48.26200 32.82900
H  18.56600 48.52100 32.57300
H  19.43800 49.49400 33.70600

