158

Mg 47.13800 24.76300 28.03700
C  48.08400 27.00600 30.48400
C  45.84700 22.68800 30.61200
C  46.69400 22.37300 25.68300
C  49.00000 26.66200 25.69500
N  47.06100 24.82000 30.26400
C  47.41100 25.92300 31.03400
C  46.90800 25.81500 32.49000
C  46.33400 24.31800 32.50800
C  46.34200 23.93500 31.03400
C  47.09400 23.39300 33.47400
C  45.91500 26.91800 33.01200
C  46.17800 27.36900 34.43200
H  46.69400 26.42400 35.52900
N  46.34300 22.83700 28.13000
C  45.84100 22.18600 29.26900
C  45.29000 20.92900 28.83000
C  45.53200 20.79400 27.40600
C  46.21900 22.05000 27.04400
C  44.74900 19.79900 29.74300
C  45.11700 19.66200 26.43900
O  45.50400 19.69500 25.26300
C  44.14800 18.60300 26.86900
N  47.80900 24.59300 25.89800
C  47.35000 23.50900 25.15500
C  47.97900 23.62900 23.82000
C  48.59700 25.06000 23.81800
C  48.38300 25.49600 25.17800
C  49.08500 22.48400 23.54300
C  47.91600 26.07200 22.86000
C  46.54200 26.79200 23.28900
N  48.24000 26.47500 28.00300
C  48.91800 27.19600 27.06300
C  49.44200 28.46300 27.62900
C  49.06400 28.41500 28.94800
C  48.38500 27.18700 29.12800
C  50.07400 29.62700 26.91700
C  49.27200 29.18300 30.13000
O  49.79400 30.21700 30.46500
C  48.61200 28.31400 31.21700
C  49.52300 28.06600 32.36600
O  50.20800 27.09100 32.51800
O  49.30200 29.08000 33.31600
C  49.98300 28.90100 34.57900
H  45.39800 22.09100 31.40800
H  46.61500 21.68500 24.83900
H  49.52800 27.30800 24.99000
H  47.85500 25.79500 33.03000
H  45.26600 24.42200 32.70300
H  47.71300 22.67200 32.94000
H  46.50400 22.75000 34.12800
H  47.75600 23.97300 34.11600
H  44.86400 26.63300 32.95100
H  46.07600 27.75400 32.33200
H  45.26300 27.73500 34.89700
H  46.83900 28.23500 34.41600
H  45.08500 20.06000 30.74700
H  45.27000 18.93300 29.33500
H  43.67400 19.77800 29.56300
H  44.24600 18.07300 27.81600
H  44.08600 17.84100 26.09300
H  43.19500 19.13200 26.87900
H  47.11100 23.55600 23.16400
H  49.65500 25.01600 23.56100
H  49.09100 21.75400 24.35200
H  50.03600 23.01600 23.57100
H  48.82100 21.97400 22.61600
H  47.64400 25.47200 21.99100
H  48.65900 26.80200 22.53800
H  45.80300 26.76100 22.48800
H  46.82800 27.83600 23.41300
H  46.12800 26.38500 24.21200
H  49.32400 30.41700 26.86000
H  50.44900 29.33900 25.93500
H  51.02600 29.83800 27.40200
H  47.75100 28.87900 31.57400
H  51.03500 28.62600 34.50700
H  49.48500 28.13400 35.17200
H  49.94100 29.81300 35.17400
Mg -11.83900 16.73100 41.68000
C  -8.15900 16.33000 41.39700
C  -11.23500 20.02700 40.91400
C  -14.99200 16.89000 41.01300
C  -12.01800 13.14900 41.67700
N  -9.88100 17.95800 41.12900
C  -8.55900 17.64900 41.23900
C  -7.70200 18.91100 41.08800
C  -8.69600 20.07100 41.35100
C  -10.04100 19.30500 41.22000
C  -8.38100 20.74200 42.67800
C  -7.07100 19.02900 39.61800
C  -5.52100 18.82000 39.49400
H  -5.13800 17.92600 38.34200
N  -12.93100 18.35800 41.12800
C  -12.51000 19.59900 40.78900
C  -13.70500 20.37500 40.45100
C  -14.87600 19.54800 40.53100
C  -14.34700 18.20700 40.88700
C  -13.68100 21.87900 40.19100
C  -16.29400 19.94500 40.35500
O  -16.58600 21.10700 40.08500
C  -17.40000 18.95700 40.54500
N  -13.31800 15.21500 41.42900
C  -14.52200 15.59300 41.32900
C  -15.52900 14.38600 41.57800
C  -14.54700 13.16800 41.64500
C  -13.21600 13.87500 41.48000
C  -16.43800 14.60600 42.78900
C  -14.86600 12.11300 40.59400
C  -14.53800 10.66200 40.99100
N  -10.44600 15.15700 41.75200
C  -10.73100 13.77400 41.84800
C  -9.42900 13.11900 42.13600
C  -8.45800 14.06100 42.04500
C  -9.08300 15.29600 41.74800
C  -9.31000 11.69100 42.46000
C  -7.01400 14.22800 42.01400
O  -6.12500 13.43700 42.16900
C  -6.73800 15.77400 41.59700
C  -6.17100 16.41300 42.77800
O  -6.78100 16.73200 43.81800
O  -4.78900 16.51100 42.62500
C  -3.97000 17.15800 43.68300
H  -11.09100 21.08200 40.67300
H  -16.07600 17.01800 40.96800
H  -12.01300 12.06400 41.55400
H  -6.88500 18.82900 41.80400
H  -8.61800 20.86600 40.60800
H  -7.62200 21.51700 42.57600
H  -8.12600 19.94200 43.37200
H  -9.25700 21.26100 43.06800
H  -7.28100 20.07200 39.38500
H  -7.51400 18.34800 38.89100
H  -5.12400 18.36400 40.40100
H  -5.04000 19.77700 39.29300
H  -14.46900 22.21500 39.51600
H  -12.67800 22.01100 39.78500
H  -13.77100 22.45500 41.11300
H  -18.38300 19.41500 40.43900
H  -17.35200 18.56100 41.55900
H  -17.33400 18.11100 39.86100
H  -16.17500 14.55600 40.71700
H  -14.49900 12.69200 42.62500
H  -16.20700 15.58000 43.21900
H  -16.30500 13.89100 43.60100
H  -17.46300 14.61600 42.42000
H  -14.32100 12.39000 39.69200
H  -15.91000 12.23000 40.30500
H  -13.77600 10.58800 41.76600
H  -14.20100 10.09400 40.12400
H  -15.44500 10.29800 41.47400
H  -8.69800 11.25500 41.67000
H  -10.31900 11.27900 42.43800
H  -8.83300 11.48600 43.41900
H  -6.05200 15.86300 40.75500
H  -3.82000 16.35700 44.40700
H  -4.51800 17.95900 44.17800
H  -2.96100 17.43500 43.37900

