158

Mg 16.41100 -2.19700 27.96200
C  15.57500 -0.27800 30.71100
C  18.46000 -4.07700 29.93800
C  17.56200 -3.74400 25.24600
C  14.42800 -0.13800 26.01700
N  16.96600 -2.20500 30.08000
C  16.60400 -1.19300 30.96800
C  17.18300 -1.54400 32.33600
C  18.32500 -2.61300 31.98800
C  17.84200 -3.04800 30.62200
C  19.80900 -2.06900 32.18800
C  16.14800 -2.17000 33.33100
C  16.42800 -1.93500 34.82300
H  17.50500 -1.00000 35.31100
N  17.75800 -3.84100 27.62800
C  18.49100 -4.46500 28.53500
C  19.29700 -5.48200 27.91400
C  18.84500 -5.53200 26.50200
C  18.06900 -4.34500 26.40600
C  20.34500 -6.34500 28.72600
C  19.29800 -6.46000 25.32900
O  18.87500 -6.27200 24.21200
C  20.29900 -7.54400 25.61900
N  16.12200 -1.85400 25.90400
C  16.79700 -2.61600 25.00800
C  16.39300 -2.13800 23.61300
C  15.37900 -0.96000 23.83000
C  15.31200 -0.90300 25.29000
C  17.78600 -1.68600 22.92100
C  14.04900 -1.25500 23.07300
C  13.72100 -0.45700 21.81600
N  15.19600 -0.55000 28.20400
C  14.30900 0.10400 27.35000
C  13.59700 1.14800 28.06100
C  14.02900 1.01400 29.37000
C  15.01500 0.00400 29.40500
C  12.58600 2.12700 27.53800
C  13.91700 1.49200 30.69900
O  13.13200 2.35500 31.10800
C  14.81600 0.63300 31.64200
C  15.66700 1.57000 32.29300
O  16.70700 2.02900 31.88500
O  14.98200 2.02900 33.42100
C  15.57100 3.23700 33.99000
H  19.12500 -4.62100 30.61200
H  18.03400 -4.17000 24.35900
H  13.65200 0.38900 25.45700
H  17.51800 -0.60200 32.76900
H  18.20500 -3.44900 32.67700
H  20.19800 -1.98100 31.17400
H  20.44500 -2.70000 32.80900
H  19.81600 -1.10600 32.69900
H  16.16000 -3.25200 33.19900
H  15.13200 -1.95300 33.00200
H  16.49800 -2.93700 35.24700
H  15.53800 -1.41000 35.17000
H  19.98100 -7.35500 28.91300
H  20.65900 -5.87900 29.66100
H  21.26600 -6.45600 28.15400
H  20.17800 -8.06500 26.56800
H  21.31000 -7.13700 25.66400
H  20.30800 -8.27000 24.80600
H  15.99800 -3.01000 23.09000
H  15.85100 -0.02200 23.53700
H  18.53800 -1.62700 23.70700
H  17.76700 -0.63000 22.65200
H  18.27100 -2.23200 22.11200
H  13.34800 -1.16000 23.90200
H  14.01000 -2.32100 22.85100
H  12.81900 0.07800 22.11300
H  13.76300 -1.05600 20.90700
H  14.57400 0.20300 21.65900
H  12.12900 2.63400 28.38800
H  11.83700 1.63600 26.91800
H  13.04200 2.79600 26.80800
H  14.08300 0.17300 32.30600
H  15.28200 4.05300 33.32800
H  16.65800 3.14900 34.00100
H  15.24600 3.38500 35.02000
Mg -5.19200 25.22200 26.30500
C  -3.89200 26.54200 29.04500
C  -7.27800 23.16200 28.22000
C  -6.41600 23.83600 23.43500
C  -3.03400 27.22000 24.19900
N  -5.39500 24.76600 28.35900
C  -4.84900 25.53100 29.29900
C  -5.34100 25.12000 30.72400
C  -6.14800 23.83100 30.40700
C  -6.23200 23.87400 28.89100
C  -5.47200 22.52700 31.01700
C  -6.11300 26.25400 31.46100
C  -6.16400 26.22300 32.98900
H  -5.51300 25.03400 33.72600
N  -6.69400 23.75100 25.85000
C  -7.44300 23.06000 26.77700
C  -8.43500 22.20200 26.07200
C  -8.18400 22.45000 24.68900
C  -7.07100 23.40100 24.60800
C  -9.45000 21.27300 26.73100
C  -8.96600 21.92500 23.46300
O  -8.69200 22.19300 22.30100
C  -10.15400 21.04800 23.65500
N  -4.69700 25.39200 24.03700
C  -5.38600 24.73700 23.12200
C  -4.82000 24.96400 21.74400
C  -3.93200 26.27500 21.92700
C  -3.93200 26.39800 23.46100
C  -4.01000 23.65900 21.28700
C  -4.51800 27.60400 21.32500
C  -3.66000 28.44800 20.35200
N  -3.72000 26.60900 26.55500
C  -2.95300 27.30000 25.63700
C  -2.03300 28.15200 26.45700
C  -2.37800 27.94700 27.77900
C  -3.42900 26.98600 27.79300
C  -1.02100 29.06900 25.96700
C  -2.13700 28.27300 29.15100
O  -1.32500 29.10000 29.57700
C  -3.14300 27.40500 29.98800
C  -2.15700 26.61900 30.80800
O  -1.22100 25.98600 30.34600
O  -2.39800 26.83400 32.16600
C  -1.34500 26.41900 33.13100
H  -7.96500 22.58700 28.84500
H  -6.84600 23.39700 22.53200
H  -2.36900 27.83500 23.59000
H  -4.43100 24.84700 31.25800
H  -7.13200 23.87500 30.87300
H  -4.62600 22.26200 30.38300
H  -6.14000 21.66600 30.99200
H  -5.24100 22.73200 32.06300
H  -7.10800 26.25600 31.01600
H  -5.60900 27.15600 31.11600
H  -7.22300 26.36600 33.20400
H  -5.67200 27.11600 33.37400
H  -9.11400 20.27100 26.46400
H  -10.49000 21.53700 26.53700
H  -9.21000 21.41000 27.78500
H  -10.73100 20.94400 22.73600
H  -10.87600 21.56500 24.28700
H  -9.90100 20.13900 24.19900
H  -5.69000 25.21600 21.13800
H  -2.90800 26.20700 21.56100
H  -3.17400 24.04700 20.70400
H  -4.79900 23.09100 20.79400
H  -3.56800 23.12100 22.12500
H  -4.93500 28.22300 22.12000
H  -5.40200 27.31600 20.75600
H  -2.67500 28.47500 20.81900
H  -4.11300 29.43800 20.29300
H  -3.55100 27.96800 19.38000
H  -0.55600 28.76100 25.03000
H  -0.20700 29.14400 26.68800
H  -1.45400 30.07000 25.97200
H  -3.74700 28.09400 30.57900
H  -1.68600 26.12800 34.12400
H  -0.69600 27.26500 33.35700
H  -0.77200 25.59900 32.69800

