158

Mg 0.04900 7.77700 26.01100
C  1.15400 9.71600 28.56200
C  0.07000 4.98300 28.06300
C  -0.35000 5.85200 23.20500
C  0.60800 10.46500 23.84900
N  0.48200 7.41300 28.07300
C  0.84800 8.39500 28.95200
C  0.86500 7.78500 30.39400
C  0.74800 6.27800 30.10500
C  0.37500 6.20800 28.69900
C  2.07600 5.55000 30.42200
C  -0.42100 8.33800 31.11200
C  -0.40000 8.00800 32.62900
H  0.85700 7.95100 33.38200
N  -0.21200 5.67300 25.70300
C  -0.27300 4.73400 26.68900
C  -0.58700 3.46500 26.07400
C  -0.65500 3.63300 24.64300
C  -0.43100 5.11600 24.46900
C  -0.78500 2.18100 26.90100
C  -0.86200 2.60300 23.51000
O  -1.14600 2.80900 22.32600
C  -0.78200 1.13700 23.81700
N  0.25400 8.07900 23.77300
C  -0.00500 7.14800 22.86900
C  -0.23100 7.71600 21.44900
C  0.12200 9.22400 21.66500
C  0.31300 9.29500 23.15600
C  0.63200 7.12100 20.32500
C  -1.01400 10.23800 21.11900
C  -2.27500 10.43700 22.00400
N  0.68000 9.69300 26.09600
C  0.74800 10.70600 25.19000
C  1.12000 11.99600 25.79600
C  1.34200 11.64300 27.17700
C  1.07000 10.22800 27.29600
C  1.22900 13.30800 25.13900
C  1.64200 12.15800 28.37000
O  2.12000 13.25100 28.65200
C  1.50100 10.94700 29.40000
C  2.66600 10.76500 30.22600
O  3.75100 10.34300 29.86900
O  2.40700 11.21000 31.46000
C  3.52600 11.19900 32.42700
H  -0.07000 4.15800 28.76500
H  -0.51000 5.24900 22.30900
H  0.67500 11.29000 23.13700
H  1.76600 8.06100 30.94200
H  -0.03700 5.87200 30.74200
H  1.94300 5.02600 31.36900
H  2.84200 6.32500 30.44400
H  2.29100 4.84700 29.61800
H  -1.27200 7.86000 30.62700
H  -0.55700 9.41400 31.00100
H  -0.93000 7.06600 32.76900
H  -0.96500 8.74300 33.20200
H  -1.40100 2.36400 27.78200
H  0.18700 1.71400 27.06400
H  -1.30000 1.42800 26.30500
H  -1.61000 0.67400 24.35300
H  0.10700 0.97300 24.42600
H  -0.59500 0.60100 22.88600
H  -1.28000 7.54400 21.20700
H  1.06200 9.36900 21.13100
H  0.03200 6.45500 19.70500
H  1.46500 6.54000 20.72100
H  0.96800 7.80300 19.54300
H  -1.57900 9.91100 20.24600
H  -0.44100 11.16300 21.06200
H  -3.23700 10.38200 21.49500
H  -2.22000 11.40700 22.49900
H  -2.35300 9.67500 22.77900
H  0.60700 14.00300 25.70500
H  0.75700 13.17300 24.16600
H  2.29000 13.55200 25.17400
H  0.60100 11.23100 29.94500
H  3.41600 12.21900 32.79500
H  4.56900 11.12200 32.11800
H  3.35400 10.51500 33.25800
Mg -11.23100 37.91900 41.88800
C  -9.67400 35.03800 40.85100
C  -8.64700 39.88600 40.63500
C  -13.08600 40.86900 42.36500
C  -14.02800 36.07300 43.02300
N  -9.35800 37.47400 40.91300
C  -8.93900 36.26400 40.48700
C  -7.53600 36.39100 39.80300
C  -7.10900 37.82400 40.20200
C  -8.44600 38.44900 40.61900
C  -5.96700 37.90500 41.35700
C  -7.53600 35.94400 38.26900
C  -6.45100 34.89100 37.91500
H  -5.47500 35.29400 36.80100
N  -10.90500 40.07000 41.53400
C  -9.79300 40.66200 41.03500
C  -9.95300 42.09200 40.87600
C  -11.19300 42.41800 41.48300
C  -11.80300 41.09700 41.84800
C  -8.83900 42.98300 40.35900
C  -11.67600 43.83300 41.76400
O  -11.06500 44.83600 41.39400
C  -12.95000 44.20400 42.40600
N  -13.36400 38.35700 42.46600
C  -13.75700 39.66500 42.65600
C  -15.00600 39.74200 43.45300
C  -15.42600 38.19900 43.71600
C  -14.29100 37.47500 42.97500
C  -14.91400 40.56000 44.81700
C  -16.83600 37.83900 43.17000
C  -17.62400 37.06200 44.21500
N  -11.78700 35.94700 42.06100
C  -12.95000 35.31000 42.45500
C  -12.65700 33.87600 42.34700
C  -11.40500 33.70600 41.77800
C  -10.95900 35.04000 41.61000
C  -13.64100 32.81200 42.70300
C  -10.46900 32.76600 41.26900
O  -10.45500 31.56800 41.36300
C  -9.36700 33.56900 40.58300
C  -8.04000 33.11100 41.08000
O  -7.12500 32.82500 40.32600
O  -7.98100 33.09800 42.45800
C  -6.67100 32.83200 43.02500
H  -7.73800 40.36300 40.26300
H  -13.73400 41.74400 42.45300
H  -14.71700 35.52200 43.66600
H  -6.91800 35.64600 40.30500
H  -6.73600 38.25000 39.27100
H  -6.38500 38.50400 42.16500
H  -5.05400 38.43600 41.08900
H  -5.76700 36.86900 41.63300
H  -7.46400 36.77400 37.56600
H  -8.53700 35.54000 38.11800
H  -6.97800 33.95800 37.71600
H  -5.84700 34.73600 38.80900
H  -8.67200 43.85600 40.99100
H  -8.95000 43.26000 39.31100
H  -7.86300 42.50400 40.44300
H  -12.97500 45.26800 42.64600
H  -13.06100 43.86700 43.43700
H  -13.81600 43.95700 41.79200
H  -15.67800 40.25700 42.76700
H  -15.37900 37.87800 44.75700
H  -15.38400 41.53300 44.67600
H  -13.88500 40.88000 44.97500
H  -15.41600 40.01700 45.61900
H  -16.62200 37.32200 42.23400
H  -17.36500 38.70600 42.77600
H  -17.30000 37.23500 45.24100
H  -17.27500 36.04400 44.04500
H  -18.69400 37.16900 44.03200
H  -13.25200 31.82000 42.47200
H  -14.58100 32.98800 42.17900
H  -13.72900 32.89300 43.78600
H  -9.44200 33.31800 39.52500
H  -5.99500 33.68700 42.99600
H  -6.24100 32.05200 42.39600
H  -6.77100 32.53600 44.06900

