158

Mg 1.11400 7.08100 25.40600
C  1.54500 8.62800 28.50000
C  0.93500 4.00300 27.11900
C  0.85700 5.53300 22.40000
C  1.45400 10.21000 23.83200
N  1.41300 6.40400 27.52800
C  1.32100 7.25200 28.65600
C  1.23900 6.51800 29.96100
C  1.33500 4.98300 29.51100
C  1.20200 5.09600 27.93100
C  2.68300 4.35500 29.96100
C  0.11900 6.93700 30.89300
C  0.55900 7.06400 32.31200
H  1.93700 6.47300 32.87000
N  0.90000 5.01000 24.80900
C  0.79200 3.95900 25.73600
C  0.48300 2.74500 24.91400
C  0.50200 3.15900 23.50100
C  0.75500 4.64400 23.52400
C  0.14700 1.39300 25.50300
C  0.30700 2.27700 22.22500
O  0.36500 2.81300 21.10700
C  -0.02200 0.80000 22.29500
N  1.37700 7.80400 23.46800
C  1.13000 6.95100 22.34400
C  1.01600 7.75100 21.06400
C  0.99900 9.19900 21.59800
C  1.28700 9.13300 23.04200
C  2.19800 7.51200 20.03500
C  -0.28700 9.96000 21.26300
C  -0.34300 10.49200 19.80900
N  1.65000 9.07600 25.95300
C  1.70600 10.21000 25.24100
C  1.91600 11.33800 26.13000
C  1.88400 10.74800 27.44200
C  1.65400 9.36700 27.26600
C  2.16600 12.82800 25.82900
C  1.95400 11.06500 28.89700
O  2.31500 12.08100 29.48500
C  1.72000 9.66400 29.66500
C  2.84300 9.49100 30.58500
O  4.01700 9.20600 30.33900
O  2.35100 10.03800 31.76000
C  3.42200 10.45200 32.68300
H  0.76400 3.06400 27.65000
H  0.82800 5.14600 21.37900
H  1.48600 11.22100 23.42100
H  2.18000 6.82100 30.42100
H  0.51700 4.36300 29.87700
H  3.33000 3.97100 29.17200
H  2.51500 3.47800 30.58500
H  3.35100 5.10300 30.38900
H  -0.62500 6.14800 30.78600
H  -0.36800 7.87300 30.61900
H  -0.28300 6.78200 32.94300
H  0.65400 8.13000 32.51800
H  0.98500 0.75200 25.23200
H  -0.82500 1.02200 25.17800
H  0.11300 1.45500 26.59100
H  0.74900 0.13100 22.67800
H  -0.21400 0.54500 21.25300
H  -0.96000 0.62800 22.82200
H  0.11200 7.64000 20.46500
H  1.83000 9.68000 21.08100
H  3.06600 8.15600 20.17700
H  1.85800 7.52100 18.99900
H  2.59800 6.51400 20.21000
H  -0.48600 10.77000 21.96500
H  -1.08200 9.22800 21.40900
H  0.64800 10.39600 19.36600
H  -0.75500 11.49800 19.88500
H  -0.96300 9.84700 19.18500
H  2.93300 13.31200 26.43400
H  1.26500 13.37900 26.09900
H  2.44500 12.94200 24.78100
H  0.74500 9.75800 30.14300
H  3.20800 11.46400 33.03000
H  4.42200 10.48200 32.25200
H  3.41700 9.81500 33.56800
Mg 25.10500 -0.86300 29.09400
C  27.00100 -0.82400 32.04000
C  22.19800 -0.50000 31.24300
C  23.07200 -1.03000 26.44400
C  27.88300 -1.87500 27.27700
N  24.64900 -0.55100 31.36600
C  25.68300 -0.54100 32.30700
C  25.16400 -0.18100 33.66300
C  23.55700 -0.39200 33.40100
C  23.42500 -0.45800 31.88600
C  22.98400 -1.56900 34.22600
C  25.64200 1.25100 34.07800
C  26.64300 1.37600 35.26700
H  26.15600 1.98200 36.59800
N  22.95700 -0.61200 28.82900
C  21.98400 -0.51900 29.82200
C  20.73100 -0.27300 29.15100
C  20.91900 -0.39200 27.76300
C  22.39100 -0.71500 27.63400
C  19.40400 -0.22500 29.81000
C  19.89100 -0.27300 26.57900
O  20.24800 -0.47800 25.42200
C  18.51800 0.31400 26.86900
N  25.42200 -1.71900 27.12600
C  24.41900 -1.38800 26.18600
C  24.99600 -1.45600 24.74000
C  26.54400 -1.39900 25.05400
C  26.65800 -1.70000 26.55100
C  24.59500 -2.58300 23.81100
C  27.31000 -0.16900 24.48600
C  27.80700 0.98000 25.34900
N  27.07400 -1.32800 29.51300
C  28.11900 -1.69400 28.67500
C  29.34700 -1.75900 29.49400
C  28.95700 -1.42100 30.78300
C  27.53800 -1.23000 30.78100
C  30.72400 -2.11200 29.06000
C  29.40700 -1.20900 32.16000
O  30.57100 -1.17800 32.50900
C  28.22600 -0.86900 33.05700
C  28.04600 -1.87100 34.05600
O  27.40300 -2.89500 33.85300
O  28.72500 -1.46200 35.16300
C  28.52400 -2.37000 36.34300
H  21.37200 -0.48100 31.95700
H  22.39700 -0.90200 25.59600
H  28.84800 -1.95500 26.77400
H  25.52600 -0.89900 34.40000
H  23.04700 0.52700 33.69100
H  22.38800 -1.19400 35.05800
H  23.77900 -2.22500 34.58000
H  22.31100 -2.17900 33.62400
H  24.82700 1.87400 34.44500
H  25.94300 1.79900 33.18500
H  27.41500 2.06200 34.92000
H  27.17200 0.46300 35.53900
H  19.50500 -0.71700 30.77700
H  18.70300 -0.66400 29.10000
H  19.13300 0.81900 29.97000
H  18.27700 0.84400 25.94800
H  18.63500 1.10300 27.61200
H  17.84100 -0.47600 27.19100
H  24.69600 -0.48500 24.34600
H  27.13700 -2.18100 24.58000
H  24.45400 -2.37800 22.74900
H  23.72700 -3.04000 24.28600
H  25.41400 -3.30100 23.77600
H  26.76200 0.19700 23.61800
H  28.08500 -0.77000 24.01100
H  27.36500 0.90500 26.34300
H  27.46400 1.92000 24.91700
H  28.89400 0.94600 25.42100
H  30.63900 -2.48200 28.03800
H  31.15200 -2.95300 29.60600
H  31.30600 -1.19200 29.02600
H  28.39600 0.12600 33.46800
H  28.52700 -3.38700 35.95100
H  27.61200 -2.07700 36.86300
H  29.38500 -2.30600 37.00800

