158

Mg 27.13700 51.20200 26.00900
C  25.15700 52.21100 28.77200
C  29.46400 49.89700 28.15300
C  28.76700 50.18000 23.42700
C  24.99100 53.01000 24.00500
N  27.25500 51.14100 28.18000
C  26.35000 51.53200 29.15800
C  26.93500 51.34100 30.55600
C  28.36300 50.64800 30.28700
C  28.38700 50.67800 28.75200
C  29.57400 51.29800 31.02000
C  25.93600 50.55100 31.56500
C  25.62800 51.35300 32.84500
H  26.73900 51.59800 33.91400
N  28.92900 50.19000 25.81700
C  29.75000 49.69200 26.79100
C  30.83500 49.00300 26.15800
C  30.56900 48.89700 24.79100
C  29.39500 49.78100 24.65500
C  31.91500 48.43300 26.98500
C  31.29400 48.21900 23.61500
O  30.90100 48.09800 22.48600
C  32.48900 47.39500 24.07500
N  27.10800 51.73900 23.98000
C  27.81300 51.00200 23.08900
C  27.25800 51.20300 21.63900
C  26.13800 52.20600 21.82300
C  26.05400 52.31500 23.37800
C  28.37400 51.63100 20.63400
C  24.84100 51.72600 21.01000
C  24.09400 50.54100 21.49800
N  25.36900 52.43000 26.26200
C  24.53400 53.04500 25.33300
C  23.25400 53.43300 25.94200
C  23.52100 53.22400 27.29500
C  24.78400 52.57100 27.43800
C  22.11100 54.10700 25.25600
C  22.93800 53.35100 28.66100
O  21.83600 53.74900 28.97000
C  24.07500 52.86000 29.67100
C  24.79900 54.00300 30.25100
O  25.57400 54.68700 29.65700
O  24.28800 54.27400 31.49700
C  24.73700 55.51400 32.15400
H  30.16600 49.45500 28.86200
H  29.10400 49.53500 22.61200
H  24.34600 53.61500 23.36500
H  27.06500 52.28700 31.08200
H  28.24300 49.64300 30.69200
H  30.34500 50.55000 31.20900
H  29.17300 51.79300 31.90400
H  29.86600 52.12100 30.36700
H  26.39000 49.58400 31.78000
H  25.00800 50.27500 31.06400
H  24.73900 51.04700 33.39700
H  25.44900 52.37600 32.51100
H  31.93500 48.97400 27.93100
H  32.90000 48.54800 26.53400
H  31.74300 47.36000 27.07900
H  33.16700 48.06100 24.60900
H  32.90000 46.81900 23.24700
H  32.15600 46.65600 24.80300
H  26.77200 50.36100 21.14600
H  26.45900 53.19800 21.50400
H  28.20500 52.64500 20.27100
H  28.26800 50.94500 19.79400
H  29.37200 51.69300 21.06900
H  25.22300 51.54100 20.00600
H  24.05000 52.47500 20.96700
H  24.08600 49.95900 20.57700
H  23.09400 50.79900 21.84700
H  24.77400 50.05900 22.20100
H  22.33900 55.13400 24.97200
H  21.35800 54.16000 26.04200
H  21.73200 53.59600 24.37100
H  23.77000 52.15100 30.44100
H  24.27800 55.75700 33.11300
H  24.59300 56.42000 31.56600
H  25.82600 55.49500 32.14100
Mg -10.43100 16.52400 41.22800
C  -6.89100 16.21900 41.77700
C  -9.88300 19.83100 40.65800
C  -13.62700 16.77600 40.31500
C  -10.59400 13.07300 41.14900
N  -8.58100 17.78800 41.12100
C  -7.27500 17.49300 41.47600
C  -6.39800 18.74800 41.35100
C  -7.45700 19.84000 41.59900
C  -8.71900 19.16400 41.02100
C  -7.60800 20.50600 43.06500
C  -5.79100 18.78300 39.96100
C  -4.33500 18.37900 39.77000
H  -3.97200 17.16300 38.86500
N  -11.67300 18.18600 40.67400
C  -11.24700 19.46500 40.51100
C  -12.38600 20.23200 40.02800
C  -13.50400 19.32900 39.89200
C  -12.98300 18.06000 40.24600
C  -12.39200 21.72700 39.88200
C  -14.96500 19.72100 39.29600
O  -15.14700 20.84800 38.88000
C  -15.99700 18.71900 38.88900
N  -11.92500 15.19300 40.71300
C  -13.19000 15.50700 40.56600
C  -14.08300 14.25800 40.46300
C  -13.12000 13.10900 40.80200
C  -11.78500 13.82900 40.85900
C  -15.33400 14.30200 41.39300
C  -13.28100 11.83000 39.86500
C  -13.70200 10.45600 40.40800
N  -9.05400 14.89100 41.50100
C  -9.24300 13.55200 41.41500
C  -7.99800 12.82700 41.67000
C  -7.08400 13.90100 41.93400
C  -7.76900 15.10200 41.70800
C  -7.84900 11.30600 41.80600
C  -5.68200 14.18400 42.23500
O  -4.77800 13.39000 42.52400
C  -5.50300 15.72600 42.25900
C  -5.04100 16.12800 43.56200
O  -3.90200 16.43300 43.77100
O  -6.01100 16.01800 44.46800
C  -5.74900 16.53900 45.83400
H  -9.69400 20.90000 40.53900
H  -14.68600 16.87100 40.06400
H  -10.79500 12.01600 41.33600
H  -5.55100 18.85000 42.03000
H  -7.13500 20.67400 40.97500
H  -8.37800 19.96600 43.61700
H  -7.79200 21.57600 42.96700
H  -6.76900 20.35300 43.74300
H  -5.82100 19.81500 39.61300
H  -6.32600 18.06600 39.33800
H  -4.00800 18.20700 40.79600
H  -3.86400 19.28600 39.38900
H  -13.26200 22.12500 40.40500
H  -12.54000 21.87500 38.81200
H  -11.45600 22.24200 40.09500
H  -15.60500 17.78700 38.48300
H  -16.74100 19.26900 38.31300
H  -16.42900 18.50500 39.86700
H  -14.39400 14.11300 39.42900
H  -13.22900 12.78000 41.83500
H  -15.20600 15.14200 42.07600
H  -15.57900 13.35900 41.88100
H  -16.20000 14.46500 40.75200
H  -12.31700 11.68700 39.37700
H  -14.10900 11.96200 39.16900
H  -14.70100 10.13400 40.11200
H  -13.77100 10.52400 41.49300
H  -13.01300 9.69500 40.04000
H  -6.90000 11.01500 42.25600
H  -7.82300 10.90200 40.79400
H  -8.69500 10.84900 42.32100
H  -4.64800 15.91300 41.60900
H  -4.71100 16.73900 46.10000
H  -6.23900 15.76700 46.42700
H  -6.26800 17.48200 46.00700

