158

Mg 34.83800 2.91500 30.04000
C  32.56300 4.22000 32.53900
C  37.35000 3.29200 32.24400
C  36.82000 2.11100 27.56000
C  32.14700 3.13700 27.88800
N  34.91800 3.74300 32.14800
C  33.88100 4.00100 32.98900
C  34.35400 4.12800 34.44900
C  35.91300 4.10500 34.28100
C  36.06300 3.69100 32.81400
C  36.57800 5.42100 34.59600
C  33.85900 2.93700 35.32600
C  33.74400 3.05700 36.84000
H  34.40700 4.29900 37.31800
N  36.84400 2.71800 29.88200
C  37.70300 2.90700 30.91800
C  39.08100 2.61200 30.44000
C  38.92500 2.18800 29.08100
C  37.49100 2.28100 28.77900
C  40.17300 2.75800 31.29000
C  39.98600 1.58600 28.05900
O  39.78200 1.41900 26.84800
C  41.29900 1.01300 28.58800
N  34.59900 3.00100 27.98300
C  35.50100 2.37000 27.14900
C  34.97100 2.32600 25.69600
C  33.44100 2.33100 25.97600
C  33.42500 2.88200 27.36300
C  35.40800 3.43600 24.75400
C  32.60500 1.04000 25.73400
C  31.47900 1.19300 24.64700
N  32.75800 3.48200 30.16600
C  31.79100 3.44900 29.19400
C  30.48900 3.89700 29.78900
C  30.80500 4.13400 31.09100
C  32.19200 4.00200 31.22000
C  29.21800 4.07600 29.03000
C  30.17500 4.61100 32.25500
O  29.05300 4.96500 32.55700
C  31.33700 4.67700 33.27200
C  31.44800 5.99900 33.90600
O  32.19900 6.89200 33.52900
O  30.72300 6.03500 35.11100
C  30.91100 7.23100 35.96900
H  38.20200 3.44800 32.90900
H  37.40100 1.97700 26.64500
H  31.23400 3.15000 27.28900
H  34.10000 5.12400 34.81400
H  36.39800 3.32600 34.87000
H  36.89400 5.36900 35.63800
H  35.91300 6.26100 34.39300
H  37.42800 5.65900 33.95700
H  34.53700 2.10100 35.15600
H  32.89500 2.62200 34.92700
H  34.29000 2.23100 37.29600
H  32.71400 3.01100 37.19200
H  40.28400 3.80700 31.56300
H  41.10700 2.43400 30.82900
H  39.95600 2.14200 32.16200
H  41.34300 0.49000 29.54300
H  41.83700 1.93700 28.80400
H  41.89800 0.41100 27.90400
H  35.11900 1.32700 25.28500
H  32.90600 3.15400 25.50100
H  35.94500 4.16700 25.35800
H  34.61000 3.95900 24.22800
H  36.08300 3.08000 23.97500
H  32.06300 0.80600 26.65000
H  33.22500 0.23500 25.33900
H  31.43800 2.20500 24.24600
H  30.47300 1.02400 25.03100
H  31.77900 0.60100 23.78200
H  28.43700 3.37100 29.31300
H  29.40400 4.08100 27.95600
H  28.82200 5.05900 29.28300
H  31.11000 4.01300 34.10600
H  31.77500 7.04100 36.60600
H  30.07300 7.33600 36.65800
H  30.98400 8.16100 35.40500
Mg 16.99100 52.63600 26.43000
C  18.86000 51.05700 28.90000
C  14.63800 53.33500 28.87900
C  14.94900 53.89600 24.11600
C  19.15400 51.42500 24.00800
N  16.85900 52.38300 28.66800
C  17.72900 51.72400 29.46100
C  17.50100 52.06800 30.93000
C  16.00200 52.48900 30.90200
C  15.77900 52.81200 29.35700
C  15.04800 51.30500 31.37100
C  18.45800 53.11800 31.60600
C  19.01700 52.78700 33.04400
H  17.87400 52.33200 33.93400
N  15.08100 53.49700 26.49200
C  14.26600 53.71800 27.54400
C  13.05400 54.34800 27.14800
C  13.18900 54.64800 25.77500
C  14.48800 54.05400 25.39600
C  11.96200 54.74000 28.13900
C  12.22900 55.36700 24.84900
O  12.45000 55.56800 23.64800
C  10.92500 55.91700 25.36600
N  16.97300 52.47800 24.33100
C  16.13000 53.23300 23.63600
C  16.67500 53.42600 22.14500
C  17.96900 52.69300 22.18800
C  18.07500 52.16600 23.63400
C  15.77600 52.83900 21.01100
C  19.23700 53.54500 21.68600
C  20.22500 54.00100 22.83200
N  18.64600 51.38200 26.36700
C  19.43400 50.94900 25.32400
C  20.49700 50.13500 25.81400
C  20.31900 50.11700 27.22700
C  19.16000 50.89100 27.54100
C  21.57400 49.36800 24.94100
C  20.88200 49.70200 28.47000
O  21.82400 48.97800 28.70600
C  19.96600 50.34200 29.63300
C  19.44900 49.21700 30.45200
O  18.59300 48.42200 30.08200
O  20.18800 49.16700 31.63700
C  19.72200 48.08600 32.47900
H  13.98200 53.54600 29.72700
H  14.40100 54.35600 23.29100
H  19.99000 51.21000 23.33900
H  17.61300 51.15100 31.50900
H  15.79000 53.39900 31.46400
H  15.58500 50.39600 31.64400
H  14.39300 50.95700 30.57200
H  14.50300 51.61700 32.26100
H  17.89900 54.05300 31.61500
H  19.25700 53.25700 30.87700
H  19.53000 53.69400 33.36400
H  19.79200 52.03400 32.90100
H  10.96300 54.53400 27.75600
H  11.98900 55.82500 28.23600
H  12.12600 54.19900 29.07100
H  10.52700 56.51900 24.54900
H  11.13400 56.51200 26.25500
H  10.35200 55.02500 25.61700
H  16.83400 54.50400 22.12400
H  17.89800 51.80100 21.56600
H  14.77000 53.25700 21.02600
H  15.57800 51.81600 21.32900
H  16.18100 52.94800 20.00400
H  18.86800 54.41100 21.13700
H  19.65100 52.79600 21.01100
H  19.68200 54.05000 23.77600
H  20.58400 55.01900 22.68400
H  21.13000 53.39400 22.82900
H  21.03200 48.96000 24.08800
H  22.02400 48.46000 25.34300
H  22.34600 50.09600 24.69200
H  20.55000 51.03200 30.24200
H  18.63700 48.01000 32.55100
H  20.08800 48.22100 33.49600
H  20.08500 47.10900 32.16000

