158

Mg 8.88600 2.85300 27.02600
C  10.12700 1.48300 30.05000
C  6.96100 4.90000 28.75600
C  7.34100 3.61100 24.15800
C  10.67100 0.22500 25.31600
N  8.39000 2.88200 29.24200
C  9.14500 2.47900 30.29500
C  8.70700 3.09100 31.64900
C  7.64000 4.13300 31.17600
C  7.62900 3.98200 29.57400
C  6.22700 4.13800 31.87300
C  9.95800 3.58200 32.40000
C  9.92500 4.56000 33.59500
H  10.49000 3.98500 34.89800
N  7.39600 4.12200 26.53100
C  6.71000 4.89700 27.38400
C  5.80100 5.75400 26.64900
C  5.95200 5.40200 25.27700
C  6.89900 4.33100 25.25800
C  4.95700 6.80600 27.31200
C  5.22500 5.88500 24.08200
O  5.41300 5.50400 22.93800
C  4.18500 6.86000 24.28200
N  9.00700 1.99600 25.06600
C  8.30900 2.59300 24.00400
C  8.73700 2.01300 22.67100
C  9.65700 0.81200 23.11600
C  9.83800 1.07200 24.59100
C  7.63700 1.70600 21.54900
C  10.94200 0.67900 22.23800
C  10.93600 -0.27100 21.07600
N  10.19700 1.23900 27.53200
C  10.85700 0.34300 26.70200
C  11.69900 -0.54600 27.56400
C  11.46300 -0.14900 28.90500
C  10.46700 0.90500 28.82200
C  12.69700 -1.47900 27.08000
C  11.78600 -0.39100 30.25800
O  12.54900 -1.25700 30.74300
C  10.86900 0.57500 31.07700
C  9.99000 -0.21600 31.99100
O  8.96400 -0.79900 31.63400
O  10.48700 -0.18100 33.29900
C  9.51000 -0.73300 34.17100
H  6.43300 5.58400 29.42200
H  6.82600 3.83100 23.22100
H  11.18400 -0.61800 24.85000
H  8.19400 2.39500 32.31400
H  8.08400 5.10700 31.37900
H  6.39400 4.65300 32.81900
H  5.92000 3.11600 32.09300
H  5.43600 4.68500 31.35900
H  10.66700 4.08300 31.74200
H  10.41800 2.65500 32.74500
H  8.85600 4.71600 33.74300
H  10.47800 5.42300 33.22500
H  3.92100 6.48300 27.21600
H  5.07800 7.71500 26.72300
H  5.26800 7.05900 28.32600
H  3.72300 7.26700 23.38200
H  4.47500 7.79800 24.75600
H  3.45100 6.43400 24.96500
H  9.23600 2.91500 22.31500
H  8.96800 -0.02000 22.97000
H  6.71900 1.33100 22.00200
H  7.94700 1.00000 20.77800
H  7.35600 2.64200 21.06700
H  11.80400 0.45300 22.86600
H  11.13200 1.69500 21.89200
H  11.79000 -0.94700 21.11200
H  11.06200 0.23800 20.12100
H  10.00300 -0.83500 21.05200
H  12.95700 -1.18400 26.06300
H  12.41200 -2.52100 26.93500
H  13.56500 -1.43900 27.73800
H  11.45800 1.12100 31.81300
H  8.58400 -0.22600 33.90100
H  9.65400 -0.32600 35.17200
H  9.45200 -1.82000 34.13600
Mg -11.29000 16.19200 42.08100
C  -7.85900 16.00700 41.98800
C  -11.22600 19.43100 41.01600
C  -14.67500 16.21700 41.99200
C  -11.41800 12.64600 42.89800
N  -9.69600 17.45400 41.35400
C  -8.31000 17.19600 41.39900
C  -7.54700 18.36800 40.70700
C  -8.67000 19.49000 40.70100
C  -9.94900 18.78200 41.07100
C  -8.33300 20.57800 41.72000
C  -7.02600 18.05800 39.28500
C  -5.50200 17.86800 39.15100
H  -4.87600 18.52500 37.87100
N  -12.78200 17.69200 41.54100
C  -12.50900 18.94600 41.23200
C  -13.72700 19.69600 41.02100
C  -14.81600 18.75500 41.24700
C  -14.12900 17.48600 41.67000
C  -13.80400 21.14500 40.55800
C  -16.23700 19.08200 40.99200
O  -16.61600 20.12200 40.56100
C  -17.35600 18.01100 41.29800
N  -12.80500 14.60000 42.34900
C  -14.14600 14.96600 42.27100
C  -15.02900 13.70900 42.53400
C  -13.99500 12.52100 42.68600
C  -12.65200 13.28500 42.64000
C  -15.98400 13.93500 43.73600
C  -14.02800 11.54000 41.40400
C  -14.33500 10.13400 41.82500
N  -9.89500 14.61900 42.52600
C  -10.09400 13.28200 42.80100
C  -8.76600 12.69800 43.04400
C  -7.85100 13.75300 42.77300
C  -8.62300 14.85400 42.42900
C  -8.50100 11.31900 43.32100
C  -6.47200 14.14400 42.61300
O  -5.45400 13.49800 42.89300
C  -6.38600 15.64700 42.15200
C  -5.68600 16.36700 43.26200
O  -5.98600 16.30700 44.46100
O  -4.48900 16.92100 42.79500
C  -3.49700 17.30900 43.80900
H  -11.10700 20.43300 40.60000
H  -15.75800 16.19100 42.13400
H  -11.55100 11.60100 43.18800
H  -6.64100 18.72000 41.20100
H  -8.72300 19.95400 39.71600
H  -9.16500 20.80500 42.38700
H  -8.05200 21.46100 41.14600
H  -7.48500 20.27900 42.33700
H  -7.25300 18.77400 38.49500
H  -7.49600 17.20800 38.79100
H  -5.26200 16.81600 39.29900
H  -5.06700 18.42400 39.98200
H  -14.40500 21.82200 41.16500
H  -14.22500 21.24900 39.55800
H  -12.87200 21.68800 40.71800
H  -18.36300 18.37300 41.09000
H  -17.21500 17.72000 42.33900
H  -17.29100 17.18900 40.58600
H  -15.76800 13.48400 41.76500
H  -13.95100 12.05200 43.66800
H  -16.99400 13.79900 43.34900
H  -15.82100 14.97000 44.03900
H  -15.68200 13.23400 44.51400
H  -13.08900 11.48900 40.85400
H  -14.76200 11.90200 40.68400
H  -14.30100 9.98400 42.90500
H  -13.55600 9.48400 41.42600
H  -15.33500 9.89100 41.46500
H  -7.74000 11.04200 42.59200
H  -9.39700 10.70700 43.42500
H  -8.07700 11.33200 44.32500
H  -5.82400 15.71000 41.22000
H  -3.23700 18.36600 43.75000
H  -2.52500 16.84500 43.64200
H  -3.85900 17.02400 44.79800

