158

Mg 1.04200 7.69600 25.88500
C  1.84600 9.98600 28.52600
C  1.26300 5.14200 28.11800
C  0.21700 5.67700 23.41000
C  1.44500 10.39300 23.72700
N  1.34600 7.66300 28.11700
C  1.67900 8.64400 29.02900
C  1.75700 8.11800 30.46300
C  1.66300 6.57800 30.28100
C  1.39900 6.40400 28.73700
C  3.03500 5.87200 30.56200
C  0.65300 8.78800 31.31800
C  0.86300 8.70400 32.84400
H  2.12300 8.00800 33.39000
N  0.82300 5.65600 25.79800
C  0.84600 4.80000 26.84400
C  0.56500 3.46500 26.38800
C  0.29900 3.60200 24.94900
C  0.40500 5.05300 24.65400
C  0.68200 2.20700 27.33100
C  -0.08700 2.52700 23.93100
O  0.02100 2.64700 22.70300
C  -0.38500 1.21400 24.42300
N  1.07300 7.96500 23.80400
C  0.47900 7.02200 23.06900
C  0.47000 7.46300 21.54700
C  0.81300 8.99600 21.68600
C  1.04800 9.17100 23.16800
C  1.38500 6.56100 20.65000
C  -0.31400 9.97300 21.10700
C  -1.67500 9.97300 21.77900
N  1.43400 9.85500 26.04000
C  1.59300 10.75000 25.06000
C  1.82400 12.05100 25.63300
C  2.02300 11.79000 26.97100
C  1.73900 10.41400 27.19800
C  2.04500 13.35900 24.89100
C  2.39500 12.42200 28.22600
O  2.79200 13.54800 28.55700
C  2.24300 11.25000 29.29800
C  3.58400 10.99500 29.93600
O  4.52900 10.48700 29.38300
O  3.58400 11.40700 31.21700
C  4.87500 11.33800 31.96700
H  1.41500 4.30500 28.80300
H  -0.08700 5.06700 22.55700
H  1.55100 11.18900 22.98700
H  2.69800 8.34600 30.96300
H  0.80000 6.20600 30.83300
H  3.50300 5.51600 29.64400
H  2.95100 4.95900 31.15300
H  3.72400 6.46600 31.16200
H  -0.32300 8.34600 31.11500
H  0.41100 9.80800 31.01900
H  0.02000 8.12200 33.21400
H  0.67400 9.71200 33.21400
H  -0.33400 1.91900 27.60300
H  1.06200 2.38400 28.33700
H  1.28700 1.42400 26.87400
H  0.49300 0.69200 24.80300
H  -0.93300 0.58300 23.72200
H  -1.10100 1.40000 25.22300
H  -0.55100 7.33100 21.19000
H  1.75900 9.28800 21.23100
H  1.73500 5.67600 21.18200
H  2.26500 7.13900 20.36600
H  0.81500 6.21600 19.78800
H  -0.52500 9.71600 20.06800
H  -0.04500 11.02900 21.13500
H  -1.69300 10.75100 22.54200
H  -1.75900 9.04900 22.35100
H  -2.45700 9.97900 21.01900
H  2.42500 13.44400 23.87200
H  2.70600 13.95600 25.52000
H  1.05700 13.82000 24.90100
H  1.45800 11.54100 29.99600
H  4.78700 12.10600 32.73500
H  5.64900 11.66100 31.27100
H  5.10800 10.33200 32.31700
Mg 26.81500 -1.28800 29.39800
C  28.70000 -1.13500 32.24900
C  23.91800 -1.19500 31.29300
C  25.14500 -1.29500 26.48200
C  29.79800 -1.81400 27.53400
N  26.46600 -1.17800 31.53800
C  27.33200 -1.05700 32.57700
C  26.60400 -0.87800 34.00200
C  25.11900 -0.87400 33.56000
C  25.12700 -1.07600 32.00800
C  24.29400 -1.89700 34.40800
C  27.08900 0.33600 34.95500
C  26.65900 0.01900 36.41800
H  27.12900 0.91800 37.58400
N  24.88500 -1.25100 28.97800
C  23.78400 -1.32200 29.88400
C  22.63900 -1.39400 29.17100
C  22.93600 -1.29800 27.76700
C  24.38400 -1.20400 27.65800
C  21.32100 -1.67700 29.84400
C  22.01600 -1.32200 26.54500
O  22.39300 -1.01500 25.43200
C  20.46900 -1.66000 26.73700
N  27.41300 -1.56500 27.25500
C  26.52700 -1.42000 26.25600
C  27.25700 -1.45200 24.87600
C  28.70900 -1.35700 25.27200
C  28.71300 -1.55500 26.76800
C  26.83600 -2.61800 23.89600
C  29.35200 0.01100 25.03700
C  28.64100 1.29700 25.60700
N  28.78900 -1.65400 29.83600
C  29.86000 -1.87100 28.96600
C  31.08400 -1.89100 29.71400
C  30.67900 -1.58700 31.02400
C  29.29400 -1.44300 30.99000
C  32.51800 -2.03300 29.20600
C  31.09700 -1.34800 32.40700
O  32.22800 -1.42900 32.81300
C  29.85800 -0.92700 33.21700
C  29.78800 -1.84800 34.39900
O  29.52800 -3.05600 34.25200
O  30.10700 -1.13300 35.51600
C  30.23000 -1.93000 36.72700
H  23.01400 -1.01600 31.87800
H  24.65500 -1.26300 25.50600
H  30.68800 -1.91400 26.91000
H  26.79400 -1.77400 34.59200
H  24.68500 0.09000 33.82600
H  24.00300 -2.58400 33.61300
H  23.37600 -1.46700 34.80800
H  24.83600 -2.46000 35.16900
H  26.38700 1.16400 34.85200
H  28.14600 0.60000 34.92400
H  26.93500 -0.99800 36.69700
H  25.58000 0.17800 36.40600
H  20.66000 -0.91200 29.43600
H  21.33000 -1.59900 30.93200
H  21.02300 -2.66300 29.49000
H  20.07100 -2.03200 25.79300
H  20.03800 -0.74100 27.13400
H  20.23300 -2.47700 27.41900
H  26.96800 -0.55900 24.32100
H  29.31600 -2.20700 24.96200
H  26.08300 -3.23700 24.38300
H  27.70400 -3.24100 23.68100
H  26.37400 -2.20300 23.00100
H  29.49300 0.09400 23.96000
H  30.39600 0.00400 25.35400
H  29.40000 1.71200 26.27000
H  27.81800 0.96200 26.23900
H  28.32600 1.97200 24.81200
H  32.87100 -2.99900 29.56700
H  33.14500 -1.22800 29.58800
H  32.64800 -1.86400 28.13700
H  30.07500 0.12300 33.41500
H  30.08800 -3.00300 36.60400
H  29.48800 -1.57400 37.44100
H  31.27500 -1.80000 37.00900

