158

Mg 49.95500 44.76000 42.97000
C  46.66800 45.43800 41.94500
C  49.36200 41.38000 42.39500
C  53.38100 44.17400 42.56500
C  50.60300 48.15000 42.49900
N  48.18600 43.48900 42.53000
C  47.02100 44.07400 42.01000
C  46.04700 42.93700 41.63800
C  46.73800 41.65600 42.29400
C  48.17400 42.13300 42.47100
C  46.22000 41.24300 43.68200
C  45.90300 42.87300 40.12100
C  44.45900 43.00700 39.67500
H  44.11600 43.97200 38.54300
N  51.25100 43.04000 42.64700
C  50.77200 41.77200 42.38400
C  51.92800 40.93000 42.16200
C  53.12300 41.69700 42.23900
C  52.63300 43.03000 42.50400
C  51.79800 39.40000 41.82700
C  54.58100 41.25100 42.02000
O  54.71000 40.05900 41.79900
C  55.85700 41.99600 42.31400
N  51.74700 46.03500 42.61500
C  53.02300 45.55500 42.62100
C  54.08100 46.67100 42.67100
C  53.20600 47.96700 42.18800
C  51.76200 47.39000 42.49000
C  54.60500 46.62800 44.09300
C  53.17200 48.43300 40.64500
C  53.15400 49.96200 40.34200
N  48.84200 46.52000 42.66100
C  49.24200 47.82200 42.53000
C  48.09200 48.65700 42.24400
C  47.07100 47.75500 42.03000
C  47.56300 46.44700 42.29500
C  48.10200 50.05900 41.79700
C  45.69700 47.70200 41.60800
O  44.82400 48.55300 41.38700
C  45.35400 46.14900 41.54100
C  44.18800 45.79000 42.41000
O  44.32200 45.73400 43.64100
O  43.05500 45.45200 41.69400
C  41.78800 45.32100 42.39600
H  49.29500 40.29500 42.28700
H  54.45200 44.03800 42.39700
H  50.77200 49.22100 42.37100
H  45.07500 43.12600 42.09400
H  46.95100 40.81900 41.62800
H  47.00400 41.48700 44.39800
H  46.19100 40.15300 43.71100
H  45.41000 41.87500 44.04700
H  46.41200 42.01100 39.69100
H  46.34800 43.74500 39.64100
H  43.83400 43.25300 40.53400
H  44.20300 42.00100 39.34200
H  52.47000 39.09200 41.02600
H  50.81500 39.30500 41.36600
H  51.78400 38.88500 42.78800
H  56.12900 42.59300 41.44400
H  56.67100 41.27300 42.35600
H  55.89000 42.48400 43.28800
H  54.86600 46.39600 41.96600
H  53.60200 48.81100 42.75300
H  55.68600 46.49200 44.10600
H  54.10100 45.88100 44.70700
H  54.48300 47.52200 44.70400
H  52.22600 48.09100 40.22700
H  53.88000 47.86400 40.04100
H  52.86100 50.16800 39.31200
H  54.14800 50.39800 40.45000
H  52.42300 50.50700 40.93800
H  48.37900 50.66400 42.65900
H  47.19800 50.42800 41.31100
H  48.94700 50.14800 41.11400
H  45.14600 45.99900 40.48100
H  41.72800 46.01300 43.23700
H  41.84000 44.26400 42.65700
H  40.94800 45.36500 41.70300
Mg -4.39600 25.12200 26.29700
C  -3.23800 26.90500 29.10800
C  -6.25900 23.25400 28.37400
C  -5.47600 23.38600 23.54700
C  -2.76100 27.27600 24.25600
N  -4.74600 25.15700 28.51200
C  -4.13600 25.88000 29.50900
C  -4.77400 25.61800 30.84200
C  -5.49400 24.23600 30.53600
C  -5.60600 24.26800 29.05900
C  -4.65000 23.09200 31.02700
C  -5.68900 26.82600 31.20600
C  -5.76300 27.00500 32.73400
H  -5.39900 25.86700 33.62900
N  -5.63100 23.42900 26.00200
C  -6.34600 22.91300 26.96900
C  -7.28700 21.91000 26.42000
C  -7.04600 21.90900 24.95600
C  -5.95200 22.91600 24.76600
C  -8.27500 21.21200 27.30900
C  -7.67100 21.00000 23.95800
O  -7.30500 20.85900 22.79400
C  -8.90300 20.23200 24.36800
N  -4.14500 25.25800 24.17000
C  -4.63400 24.43000 23.23100
C  -4.26000 24.79200 21.77700
C  -3.57700 26.18000 22.09500
C  -3.49100 26.27500 23.61400
C  -3.31400 23.72400 21.03300
C  -4.28100 27.42400 21.55100
C  -3.68600 28.13400 20.32700
N  -3.10200 26.62700 26.60300
C  -2.48700 27.39600 25.63800
C  -1.63500 28.39200 26.30000
C  -1.95500 28.27100 27.63800
C  -2.79500 27.17700 27.75000
C  -0.78200 29.40900 25.58800
C  -1.76600 28.84800 28.98100
O  -1.10900 29.89100 29.33100
C  -2.40800 27.79100 29.96000
C  -1.27600 27.11800 30.78600
O  -0.51000 26.20000 30.33500
O  -1.43700 27.44300 32.07200
C  -0.79000 26.59900 33.02300
H  -6.83900 22.66200 29.08600
H  -5.87200 22.85200 22.68100
H  -2.19900 27.93700 23.59300
H  -3.93000 25.47300 31.51600
H  -6.51700 24.13900 30.89900
H  -5.21700 22.42300 31.67400
H  -3.67200 23.33500 31.44300
H  -4.41300 22.39300 30.22500
H  -6.72600 26.66000 30.91300
H  -5.33800 27.72700 30.70300
H  -6.77600 27.29300 33.01300
H  -5.14500 27.87900 32.94100
H  -7.95600 21.00500 28.33100
H  -8.34000 20.17400 26.98200
H  -9.12200 21.89400 27.22600
H  -9.59300 20.69400 25.07300
H  -8.51800 19.26700 24.69900
H  -9.52200 19.91100 23.53000
H  -5.17800 24.88000 21.19600
H  -2.59900 26.13700 21.61600
H  -3.28600 22.83400 21.66200
H  -2.29100 24.09600 20.97400
H  -3.87300 23.57100 20.11000
H  -4.39400 28.23500 22.27100
H  -5.25600 27.23000 21.10500
H  -4.38000 28.55100 19.59700
H  -3.02700 27.39500 19.87100
H  -3.01400 28.93700 20.63000
H  0.20200 29.01200 25.83600
H  -0.85900 30.38700 26.06300
H  -1.07300 29.36400 24.53900
H  -2.97600 28.24300 30.77400
H  0.12300 27.07800 33.37800
H  -0.51500 25.61700 32.63700
H  -1.40500 26.46400 33.91200

