158

Mg 25.79600 -8.03000 47.56100
C  27.66600 -5.51600 46.41200
C  23.36100 -7.19700 45.18100
C  24.02300 -10.84100 48.40000
C  28.27500 -8.92400 49.94800
N  25.65000 -6.57100 45.86600
C  26.53000 -5.59800 45.67800
C  26.11800 -4.65500 44.50500
C  24.62600 -5.16800 44.11900
C  24.46100 -6.33700 45.17300
C  23.53300 -4.08100 44.19700
C  27.14000 -4.73500 43.37800
C  27.62000 -3.35100 42.81100
H  27.21600 -3.02200 41.38400
N  23.86400 -8.86900 46.93700
C  23.03100 -8.29300 46.01300
C  21.75500 -9.04100 46.05100
C  21.98800 -10.13700 46.96100
C  23.31600 -10.02000 47.50700
C  20.58500 -8.62900 45.11300
C  20.89100 -11.16400 47.18300
O  19.76900 -10.94300 46.80000
C  21.10400 -12.40200 48.03700
N  26.16900 -9.63500 48.87300
C  25.24000 -10.62700 49.09700
C  25.53900 -11.45900 50.29700
C  27.00500 -11.08000 50.63000
C  27.18200 -9.83600 49.74500
C  24.49400 -11.14900 51.47500
C  28.03400 -12.13400 50.15200
C  28.28900 -13.23500 51.17500
N  27.72600 -7.48900 48.05800
C  28.50900 -7.77600 49.13400
C  29.65200 -6.78800 49.11900
C  29.29500 -5.85800 48.08500
C  28.18300 -6.35900 47.47400
C  30.75000 -6.72100 50.11100
C  29.81300 -4.70700 47.42300
O  30.80700 -4.05500 47.57400
C  28.74100 -4.34700 46.35600
C  28.12300 -3.03000 46.64500
O  27.35300 -2.81800 47.59900
O  28.34100 -2.22000 45.58000
C  27.68000 -0.93800 45.72400
H  22.58800 -6.87000 44.48200
H  23.51900 -11.71500 48.81700
H  28.91100 -9.15000 50.80600
H  26.17500 -3.59300 44.74700
H  24.52300 -5.72000 43.18500
H  22.95300 -4.16700 43.27900
H  24.05900 -3.12800 44.13500
H  22.87200 -4.20600 45.05500
H  26.60700 -5.33100 42.63700
H  28.02000 -5.26200 43.74700
H  28.68300 -3.24500 43.03000
H  27.12900 -2.52700 43.32800
H  20.05800 -9.53000 44.80000
H  20.89800 -8.03000 44.25800
H  19.85400 -8.02500 45.65100
H  21.89800 -13.10900 47.79800
H  20.15200 -12.88600 47.81900
H  21.06100 -12.23100 49.11300
H  25.50900 -12.46200 49.87100
H  27.07300 -10.81900 51.68600
H  23.96600 -12.08600 51.65300
H  23.74600 -10.43400 51.13200
H  25.00800 -10.86700 52.39400
H  28.97300 -11.60800 49.98400
H  27.77000 -12.59500 49.19900
H  29.28700 -13.12200 51.59700
H  28.32500 -14.24100 50.75700
H  27.64200 -13.14200 52.04700
H  30.39000 -7.06500 51.08100
H  31.12400 -5.69900 50.04500
H  31.56800 -7.37100 49.80200
H  29.32100 -4.30700 45.43400
H  26.61400 -1.16100 45.67800
H  28.04900 -0.20200 45.01000
H  28.01300 -0.51800 46.67300
Mg 25.63300 0.05700 28.85600
C  27.37000 0.24100 31.83200
C  22.78300 0.28600 30.58600
C  24.09900 0.14600 25.81600
C  28.63900 -0.67000 27.29400
N  25.21100 0.24200 31.03400
C  26.02000 0.41200 32.02900
C  25.25700 0.66300 33.34200
C  23.78800 0.64000 32.91100
C  23.92400 0.36000 31.44100
C  22.92300 -0.42600 33.56300
C  25.69100 1.92900 34.13500
C  26.22500 1.71800 35.55200
H  25.39500 2.39700 36.64400
N  23.74600 0.15300 28.28900
C  22.70500 0.20000 29.17600
C  21.45300 0.21500 28.36400
C  21.84300 0.26300 26.99400
C  23.33200 0.20000 26.98200
C  20.09200 0.23800 29.01000
C  20.95400 0.47700 25.76500
O  21.36400 0.43600 24.62000
C  19.45100 0.87500 25.90400
N  26.31500 -0.13300 26.76300
C  25.47600 -0.06100 25.71200
C  26.24700 -0.02900 24.41800
C  27.64400 -0.49200 24.85400
C  27.54000 -0.49700 26.40000
C  25.53900 -0.95400 23.37800
C  28.80900 0.37800 24.31500
C  28.69500 1.87600 24.43200
N  27.54300 -0.29600 29.41000
C  28.68500 -0.63400 28.68500
C  29.82300 -0.87800 29.54600
C  29.30500 -0.49600 30.78700
C  27.95200 -0.11900 30.62600
C  31.07500 -1.48700 29.08400
C  29.75900 -0.42900 32.17600
O  30.83500 -0.73800 32.61100
C  28.44100 0.09700 32.90200
C  28.11900 -1.05400 33.83000
O  27.65100 -2.15000 33.44400
O  28.49700 -0.71500 35.06700
C  28.58900 -1.82700 36.07800
H  21.80400 0.53900 31.00000
H  23.70600 0.35300 24.81800
H  29.58300 -0.88400 26.78900
H  25.36500 -0.27400 33.88800
H  23.41700 1.65500 33.05400
H  23.01800 -0.25000 34.63500
H  23.27000 -1.44600 33.39800
H  21.84900 -0.43700 33.37700
H  24.94500 2.72400 34.13900
H  26.50100 2.40900 33.58600
H  27.22800 2.14100 35.61700
H  26.45100 0.67400 35.77300
H  19.60000 1.16000 28.70100
H  20.02800 0.20600 30.09700
H  19.50300 -0.60400 28.64600
H  18.96800 0.01700 26.37100
H  19.11500 1.16700 24.90900
H  19.36500 1.72100 26.58700
H  26.23300 0.98100 24.00800
H  27.86800 -1.54900 24.71500
H  25.25300 -1.84500 23.93700
H  26.18100 -1.33100 22.58100
H  24.71600 -0.48200 22.84100
H  28.91000 -0.02300 23.30700
H  29.59900 0.06200 24.99600
H  27.84200 2.28100 24.97600
H  28.76100 2.41800 23.48900
H  29.62400 2.18200 24.91300
H  31.82700 -1.38100 29.86600
H  31.45200 -1.01300 28.17800
H  30.76000 -2.52100 28.94200
H  28.59000 0.97700 33.52800
H  28.50400 -2.83900 35.68000
H  27.76900 -1.55800 36.74300
H  29.44400 -1.86100 36.75300

