158

Mg 47.74300 45.22700 43.17200
C  44.27500 44.93900 43.18400
C  47.90700 41.78200 43.02600
C  51.00400 45.49200 42.48000
C  47.33900 48.73100 42.73300
N  46.25100 43.58100 42.90800
C  44.86600 43.69700 43.10800
C  44.23200 42.26700 43.19000
C  45.45900 41.34400 43.47900
C  46.59600 42.28000 43.11800
C  45.57900 40.90000 44.94700
C  43.46500 41.85000 41.91500
C  43.47200 42.79500 40.71700
H  42.84800 42.36800 39.35800
N  49.20200 43.85900 42.70400
C  49.08800 42.51000 42.76800
C  50.40500 41.90500 42.47900
C  51.35000 42.92000 42.30100
C  50.53500 44.17600 42.48900
C  50.55000 40.41000 42.26500
C  52.87000 42.74800 41.90300
O  53.36500 41.64000 41.96300
C  53.70200 43.94200 41.58200
N  48.94300 46.84100 42.49800
C  50.26600 46.65000 42.47500
C  50.95200 47.98600 42.71000
C  49.83500 49.06900 42.55100
C  48.58700 48.18200 42.61400
C  51.70200 48.08100 44.10200
C  49.97400 49.80700 41.17300
C  49.74000 51.31000 41.29400
N  46.24600 46.60800 43.02100
C  46.20300 47.99600 42.92700
C  44.81000 48.44500 43.01900
C  44.05800 47.27000 43.05100
C  44.92200 46.20900 43.12600
C  44.41500 49.86400 43.05400
C  42.67900 46.79700 43.22400
O  41.63200 47.44000 43.20300
C  42.77900 45.28600 43.25200
C  42.21800 44.88400 44.53900
O  42.59100 45.26500 45.62100
O  41.20200 43.90500 44.37800
C  40.59600 43.47200 45.59800
H  48.02700 40.73100 43.29700
H  52.07700 45.69000 42.43900
H  47.21900 49.79600 42.52600
H  43.63900 42.22400 44.10400
H  45.45500 40.53400 42.75000
H  44.69900 40.29100 45.15700
H  45.54000 41.74900 45.62900
H  46.59000 40.49600 45.00300
H  42.42800 41.73600 42.22900
H  43.90300 40.90900 41.58100
H  44.47100 43.10700 40.41100
H  42.90200 43.67500 41.01300
H  50.65200 40.34200 41.18200
H  49.77400 39.73300 42.62300
H  51.53200 40.04900 42.57000
H  53.23900 44.43100 40.72500
H  54.73200 43.61200 41.44400
H  53.66100 44.56100 42.47900
H  51.69600 48.05500 41.91600
H  49.83000 49.77200 43.38400
H  51.51300 48.90300 44.79300
H  52.72100 48.09800 43.71700
H  51.59700 47.12500 44.61500
H  49.22300 49.36900 40.51500
H  50.96200 49.72200 40.71900
H  48.79000 51.48100 40.78700
H  50.51700 51.77000 40.68400
H  49.68600 51.53700 42.35900
H  45.06700 50.41800 43.72900
H  43.40100 50.03300 43.41600
H  44.54200 50.23900 42.03800
H  42.19700 44.96500 42.38900
H  40.04200 44.32500 45.98900
H  41.26100 43.13500 46.39400
H  40.01600 42.60800 45.27200
Mg -5.57300 25.24900 26.22100
C  -3.79000 26.69500 28.85700
C  -6.88200 23.00800 28.28700
C  -7.03200 23.83300 23.47400
C  -3.71100 27.27100 24.00100
N  -5.46700 25.07500 28.36800
C  -4.69300 25.72900 29.25000
C  -5.11200 25.29700 30.70200
C  -5.82700 23.90400 30.45400
C  -6.18000 24.05600 28.97300
C  -4.98500 22.65200 30.80200
C  -6.10500 26.35700 31.32400
C  -5.86400 26.63100 32.84500
H  -5.35700 25.30700 33.71000
N  -6.97100 23.78900 25.97900
C  -7.30200 22.86700 26.95800
C  -8.21800 21.88000 26.40100
C  -8.30800 22.16500 24.98900
C  -7.42900 23.33500 24.77500
C  -8.73800 20.72500 27.17100
C  -9.04000 21.49600 23.91900
O  -9.12200 21.85300 22.72700
C  -9.69000 20.23100 24.24400
N  -5.40000 25.44700 24.03200
C  -6.12100 24.79100 23.14300
C  -5.82200 25.17400 21.65700
C  -4.95200 26.41400 21.90900
C  -4.64400 26.38800 23.39000
C  -5.06300 24.02800 20.88600
C  -5.61300 27.76300 21.46100
C  -5.43300 28.14600 20.00500
N  -3.98200 26.67800 26.36500
C  -3.33600 27.37800 25.33000
C  -2.36600 28.22700 26.00100
C  -2.55600 28.02500 27.37400
C  -3.48100 27.05600 27.53400
C  -1.40400 29.31000 25.34200
C  -2.06100 28.41100 28.68700
O  -1.28700 29.29200 29.02000
C  -2.87600 27.51100 29.73200
C  -2.01300 26.66300 30.62800
O  -1.57000 25.55500 30.34400
O  -1.83900 27.22400 31.82700
C  -1.07600 26.58900 32.86400
H  -7.24500 22.15600 28.86600
H  -7.40700 23.30800 22.59300
H  -3.37900 27.99800 23.25700
H  -4.20700 25.15700 31.29400
H  -6.81100 23.79500 30.90900
H  -5.56600 21.93500 31.38100
H  -4.07100 22.99800 31.28500
H  -4.63500 22.23200 29.85900
H  -7.13100 25.99100 31.28400
H  -6.14400 27.33800 30.85100
H  -6.74900 27.10000 33.27400
H  -5.05500 27.35900 32.91500
H  -9.82000 20.82000 27.26000
H  -8.42400 20.58500 28.20500
H  -8.48500 19.78800 26.67500
H  -8.95600 19.50800 24.59800
H  -10.27600 19.83000 23.41700
H  -10.39100 20.45100 25.04900
H  -6.70600 25.50800 21.11200
H  -4.02600 26.38200 21.33600
H  -4.05000 24.34900 20.64300
H  -5.76000 23.81900 20.07500
H  -4.98400 23.11900 21.48200
H  -5.12000 28.63200 21.89700
H  -6.65500 27.91000 21.74400
H  -6.47500 28.30900 19.72700
H  -5.06200 27.28800 19.44400
H  -4.98900 29.12100 19.80300
H  -0.78600 28.97200 24.51100
H  -0.76600 29.75100 26.10800
H  -2.00200 30.09700 24.88300
H  -3.44400 28.17000 30.38900
H  -0.70000 25.57500 32.73100
H  -1.68800 26.67500 33.76200
H  -0.24300 27.29200 32.85100

