158

Mg -1.24200 33.93600 26.76200
C  -3.13900 32.17600 29.28200
C  -0.24000 36.07700 29.17800
C  0.25600 35.63500 24.37300
C  -2.74000 31.81000 24.29500
N  -1.60500 34.04500 28.94900
C  -2.33500 33.22200 29.77600
C  -2.14700 33.68900 31.22500
C  -1.45300 35.04700 31.14900
C  -1.01700 35.07600 29.65300
C  -2.34200 36.23000 31.64500
C  -1.47600 32.65200 32.11000
C  -2.24400 31.90300 33.26000
H  -1.68300 32.17400 34.69200
N  -0.24900 35.66500 26.70700
C  0.19800 36.32100 27.85500
C  1.02600 37.40600 27.44600
C  1.11800 37.38200 26.00000
C  0.40700 36.20300 25.64000
C  1.80000 38.33600 28.44800
C  1.91300 38.32900 25.16000
O  1.89700 38.24000 23.97100
C  2.83000 39.42500 25.81600
N  -1.42200 33.90500 24.58700
C  -0.44700 34.55600 23.93400
C  -0.30200 34.11100 22.48200
C  -1.01000 32.66200 22.58800
C  -1.79900 32.74200 23.90700
C  -1.00200 35.09200 21.49100
C  -0.03200 31.50800 22.55300
C  -0.47700 30.29000 21.64400
N  -2.64200 32.34500 26.70400
C  -3.14300 31.59500 25.63400
C  -4.03900 30.51200 26.16600
C  -4.08200 30.75600 27.59400
C  -3.23400 31.88100 27.86200
C  -4.74800 29.42400 25.37200
C  -4.63900 30.27900 28.81900
O  -5.44600 29.36300 29.03400
C  -3.98600 31.14500 30.00600
C  -5.09700 31.80100 30.69400
O  -5.61600 32.82800 30.29600
O  -5.33900 31.18500 31.90500
C  -6.44600 31.71400 32.69200
H  0.21000 36.71500 29.94100
H  0.90900 36.05900 23.60800
H  -2.97300 30.98700 23.61600
H  -3.14700 33.86700 31.62000
H  -0.50600 35.02400 31.68800
H  -3.32000 35.96600 32.04700
H  -2.41900 37.01100 30.88800
H  -1.78800 36.76700 32.41500
H  -0.63300 33.10200 32.63500
H  -1.11800 31.93800 31.36800
H  -2.30600 30.84200 33.01700
H  -3.23100 32.34300 33.40100
H  2.87500 38.17100 28.51000
H  1.54400 38.19500 29.49800
H  1.63500 39.40600 28.31500
H  2.16700 40.08900 26.37100
H  3.28900 39.95400 24.98100
H  3.65800 39.00500 26.38600
H  0.77600 34.06800 22.32800
H  -1.69800 32.55800 21.74800
H  -1.67900 35.80600 21.96100
H  -1.60700 34.60000 20.72900
H  -0.19100 35.57800 20.94900
H  0.20600 31.19900 23.57100
H  0.86600 31.84300 22.03300
H  -0.57600 29.37600 22.23000
H  0.30900 30.15300 20.90200
H  -1.45900 30.43300 21.19300
H  -4.75100 28.42900 25.81800
H  -4.19300 29.36300 24.43600
H  -5.76100 29.72000 25.09700
H  -3.43900 30.34800 30.50900
H  -6.02900 32.40100 33.43000
H  -6.92700 30.82500 33.10100
H  -7.14800 32.29400 32.09400
Mg -4.43200 24.43200 25.64000
C  -3.48600 26.15500 28.63900
C  -6.59600 22.58700 27.36000
C  -5.09600 22.79300 22.74900
C  -2.05100 26.45100 23.87500
N  -4.88300 24.42800 27.79900
C  -4.50900 25.18300 28.90000
C  -5.29100 24.77800 30.15200
C  -6.06400 23.45700 29.65400
C  -5.85400 23.50700 28.15600
C  -5.65000 22.14400 30.38900
C  -6.21700 25.87800 30.70500
C  -6.13500 26.03400 32.27400
H  -5.81500 24.79000 33.08800
N  -5.69200 22.98600 25.11900
C  -6.55800 22.38400 25.95600
C  -7.35900 21.34800 25.20200
C  -6.81400 21.43800 23.88400
C  -5.76800 22.39400 23.86400
C  -8.51500 20.50900 25.81900
C  -7.23500 20.57500 22.71100
O  -6.78200 20.68200 21.56300
C  -8.00800 19.31700 22.89900
N  -3.85200 24.69800 23.60900
C  -4.14800 23.76800 22.69900
C  -3.29100 23.98700 21.33500
C  -2.50700 25.30500 21.70000
C  -2.88400 25.59800 23.11100
C  -2.54600 22.69000 20.91600
C  -2.71500 26.47200 20.68200
C  -1.45800 26.83900 19.94300
N  -2.93800 25.94000 26.07300
C  -2.08700 26.63800 25.28400
C  -1.31500 27.57400 26.13100
C  -1.79600 27.36600 27.42800
C  -2.85400 26.40200 27.35600
C  -0.30600 28.51100 25.53700
C  -1.79400 27.92500 28.81800
O  -1.21600 28.93800 29.28200
C  -2.88800 27.04400 29.68600
C  -2.23200 26.40200 30.82300
O  -1.45700 25.46400 30.70100
O  -2.52600 27.05800 31.95500
C  -1.90400 26.50000 33.20300
H  -7.26500 21.97900 27.97200
H  -5.08200 22.32200 21.76400
H  -1.25200 27.02300 23.39700
H  -4.58500 24.37900 30.88000
H  -7.14300 23.40300 29.79800
H  -5.09100 21.53800 29.67600
H  -6.54900 21.56900 30.61100
H  -5.16500 22.41900 31.32600
H  -7.18900 25.86600 30.21300
H  -5.73600 26.81200 30.41500
H  -7.11700 26.38100 32.59300
H  -5.43600 26.81100 32.58500
H  -8.28700 19.45600 25.98000
H  -9.41100 20.63900 25.21200
H  -8.68500 20.88100 26.82900
H  -7.99200 18.72100 21.98600
H  -9.04400 19.58600 23.10400
H  -7.64500 18.80100 23.78800
H  -3.93900 24.20900 20.48700
H  -1.46100 25.01000 21.61100
H  -2.69100 22.55600 19.84400
H  -2.90900 21.85500 21.51500
H  -1.50400 22.65700 21.23500
H  -3.06000 27.34200 21.24100
H  -3.47100 26.24900 19.92800
H  -0.64100 26.11700 19.94300
H  -1.17700 27.83400 20.28700
H  -1.90700 26.95000 18.95600
H  -0.79200 29.47600 25.39500
H  -0.10200 28.39100 24.47300
H  0.64200 28.55700 26.07400
H  -3.65300 27.70600 30.09200
H  -0.82500 26.40700 33.08500
H  -2.32900 25.57200 33.58600
H  -2.16000 27.15100 34.03900

