158

Mg 35.30400 0.90400 29.36200
C  33.35700 2.11200 32.01800
C  37.94700 0.92000 31.58000
C  37.18200 -0.40300 26.97000
C  32.66600 1.48800 27.13700
N  35.55000 1.31700 31.61800
C  34.61700 1.76200 32.45700
C  35.08700 1.79100 33.93100
C  36.66900 1.79800 33.75400
C  36.76700 1.32500 32.24300
C  37.41000 3.13600 34.08500
C  34.50000 0.54800 34.64400
C  34.08400 0.67400 36.13500
H  35.03200 1.48700 37.04900
N  37.32900 0.28800 29.27600
C  38.18500 0.30000 30.32500
C  39.45900 -0.33100 29.88800
C  39.26900 -0.72000 28.58900
C  37.90000 -0.28200 28.17000
C  40.69000 -0.47900 30.88100
C  40.19400 -1.51600 27.64200
O  39.99100 -1.55400 26.43700
C  41.51000 -2.07600 28.05400
N  34.90500 0.43400 27.36600
C  35.89200 -0.00600 26.53100
C  35.39000 -0.12400 25.06700
C  33.86300 0.27700 25.18400
C  33.78100 0.74200 26.65500
C  36.24500 0.85900 24.11400
C  32.86000 -0.86400 24.75500
C  32.37100 -0.64000 23.31700
N  33.41100 1.65700 29.50300
C  32.39700 1.78600 28.52900
C  31.21600 2.37400 29.17300
C  31.63400 2.56300 30.54100
C  32.91600 2.07000 30.66700
C  29.95800 2.58900 28.48300
C  31.10800 3.03400 31.83900
O  29.99200 3.54100 32.13200
C  32.17800 2.63800 32.91900
C  32.56000 3.85300 33.68800
O  33.49800 4.57100 33.48800
O  31.83300 3.96500 34.86500
C  32.37300 4.60100 36.04100
H  38.83300 0.93200 32.21800
H  37.80400 -0.79700 26.16300
H  31.90400 1.52000 26.35500
H  34.71500 2.62300 34.53000
H  37.07700 0.91300 34.24300
H  37.82900 3.55600 33.17000
H  38.20500 2.84300 34.77100
H  36.65000 3.76700 34.54700
H  35.26900 -0.22500 34.66700
H  33.56200 0.29200 34.15300
H  34.06400 -0.33800 36.54000
H  33.05000 0.97900 36.29900
H  41.44100 -1.22400 30.61900
H  40.47500 -0.62400 31.94000
H  41.33100 0.39800 30.78300
H  42.16600 -1.22800 28.25300
H  41.81600 -2.68100 27.20000
H  41.35100 -2.61400 28.98800
H  35.52300 -1.15900 24.75200
H  33.60100 1.11800 24.54200
H  37.07300 0.98000 24.81200
H  35.75900 1.83400 24.14000
H  36.56900 0.37900 23.19100
H  31.99500 -0.72300 25.40400
H  33.11200 -1.91100 24.92500
H  31.33200 -0.92400 23.14800
H  32.84100 -1.26600 22.55900
H  32.56300 0.36500 22.94300
H  29.82100 1.84700 27.69600
H  29.89400 3.58500 28.04600
H  29.16100 2.43900 29.21100
H  31.95400 1.89000 33.67900
H  31.63300 5.25000 36.51000
H  33.15400 5.34700 35.89400
H  32.70000 3.84100 36.75000
Mg 47.73400 15.12200 28.03800
C  45.56100 14.86800 30.79600
C  49.78700 16.89800 30.10100
C  49.62700 16.02200 25.43400
C  45.39700 13.46000 26.10800
N  47.53500 15.95500 30.11500
C  46.65800 15.62700 31.05600
C  47.06200 16.18800 32.43300
C  48.27400 17.07200 32.09800
C  48.60900 16.58900 30.67300
C  47.99600 18.61800 32.06100
C  47.40900 15.06400 33.45300
C  46.76500 15.35300 34.85200
H  47.84600 15.90800 35.82800
N  49.51000 16.17900 27.80000
C  50.24400 16.80800 28.72700
C  51.52300 17.16200 28.21400
C  51.47000 17.00500 26.83000
C  50.16700 16.35500 26.62300
C  52.61900 17.62400 29.13600
C  52.53500 17.25900 25.76300
O  52.38400 16.94000 24.61600
C  53.86200 17.76000 26.13500
N  47.51800 14.79900 25.99800
C  48.42300 15.21100 25.15800
C  48.20400 14.44700 23.78600
C  46.81000 13.77300 23.96900
C  46.53300 14.07900 25.45900
C  48.38300 15.40400 22.45500
C  46.81200 12.19900 23.63500
C  47.74900 11.36300 24.47100
N  45.79300 14.39000 28.30500
C  45.04000 13.65400 27.49100
C  44.01400 13.02700 28.28200
C  44.09200 13.53000 29.57100
C  45.19900 14.42000 29.52700
C  42.98400 12.06200 27.84500
C  43.52600 13.44900 30.89400
O  42.66000 12.72400 31.34700
C  44.45200 14.47700 31.78100
C  43.70000 15.76600 32.14800
O  43.43200 16.65800 31.33200
O  43.52900 15.83700 33.48800
C  42.83000 16.98200 34.07200
H  50.41900 17.46400 30.78900
H  50.26700 16.22600 24.57300
H  44.73600 12.77600 25.57300
H  46.17900 16.78900 32.65100
H  49.04800 16.80900 32.82000
H  47.78300 18.99900 31.06200
H  48.86800 19.06000 32.54400
H  47.09100 18.94500 32.57300
H  48.48300 14.92400 33.57300
H  47.19700 14.11700 32.95700
H  46.47500 14.35600 35.18200
H  45.93800 16.06300 34.81800
H  53.42700 18.01000 28.51600
H  52.93500 16.72400 29.66400
H  52.26000 18.39000 29.82300
H  53.86400 18.74200 26.60900
H  54.42100 17.82100 25.20100
H  54.49000 17.21600 26.84000
H  49.00800 13.71200 23.78700
H  46.02400 14.21400 23.35600
H  49.06900 14.86600 21.80100
H  48.74800 16.37900 22.77800
H  47.41700 15.43600 21.95200
H  47.13200 12.25500 22.59500
H  45.77400 11.87600 23.55500
H  48.58600 10.99900 23.87400
H  47.23800 10.47500 24.84300
H  48.13800 11.79900 25.39100
H  43.12200 11.45700 26.94900
H  42.02500 12.55600 27.68200
H  42.82100 11.31600 28.62200
H  44.87700 14.11200 32.71600
H  43.48000 17.54100 34.74600
H  41.93500 16.67300 34.61200
H  42.59200 17.76100 33.34800

