158

Mg 47.29400 45.25400 41.75000
C  43.98500 44.02600 42.39600
C  48.26400 41.98400 41.49000
C  50.20300 46.40600 40.40200
C  45.86500 48.45700 41.69600
N  46.20900 43.25800 41.72800
C  44.88600 42.99300 42.05500
C  44.54400 41.50700 42.16800
C  46.01200 40.92800 42.25700
C  46.91400 42.11100 41.88100
C  46.48600 40.44500 43.63000
C  43.69200 40.94000 41.04900
C  43.39600 41.83400 39.76900
H  43.47500 41.19500 38.36300
N  48.98600 44.31300 41.10600
C  49.22100 42.94300 41.11800
C  50.59900 42.74600 40.72000
C  51.07600 44.03900 40.27800
C  50.03800 44.99000 40.53100
C  51.30000 41.48500 40.61600
C  52.38200 44.18700 39.50100
O  53.16500 43.29500 39.29300
C  52.70600 45.55100 38.78500
N  47.94900 47.12100 41.12900
C  49.28900 47.37900 40.71800
C  49.52400 48.92500 40.77300
C  48.11400 49.44900 41.38100
C  47.20200 48.29100 41.27800
C  50.70200 49.25900 41.66200
C  47.80400 50.88100 40.89600
C  47.28200 51.77200 42.02400
N  45.32800 46.13600 41.96800
C  44.97100 47.49600 41.94100
C  43.57100 47.62800 42.35700
C  43.10300 46.24900 42.53000
C  44.19700 45.42500 42.28800
C  42.83100 48.89200 42.45500
C  41.97100 45.42900 42.84200
O  40.81700 45.70900 43.04000
C  42.54700 43.94800 42.82800
C  42.47700 43.53100 44.22000
O  42.80800 44.22400 45.18500
O  41.98900 42.25200 44.15700
C  41.93100 41.60500 45.52400
H  48.54400 40.93100 41.55900
H  51.17300 46.81800 40.11600
H  45.49600 49.46200 41.90800
H  43.99300 41.53700 43.10800
H  46.17900 40.13900 41.52300
H  46.69700 41.23600 44.35000
H  47.36100 39.80500 43.52400
H  45.67000 39.85700 44.05100
H  42.77400 40.50100 41.43900
H  44.29300 40.07200 40.77900
H  43.97100 42.75200 39.88900
H  42.35800 42.16800 39.78500
H  51.29700 41.05500 39.61400
H  50.74300 40.68800 41.10800
H  52.24500 41.32800 41.13700
H  52.03900 46.11900 38.13700
H  53.48600 45.09600 38.17500
H  53.16600 46.17200 39.55400
H  49.67300 49.31600 39.76700
H  48.30400 49.58000 42.44600
H  51.55300 48.83700 41.12800
H  50.59200 48.69500 42.58900
H  50.72200 50.30600 41.96300
H  47.22700 50.96100 39.97500
H  48.77900 51.27100 40.60500
H  48.02700 52.56700 42.02200
H  47.31300 51.44900 43.06400
H  46.26000 52.13500 41.91200
H  43.34500 49.69300 42.98600
H  41.88500 48.66600 42.94600
H  42.64000 49.22600 41.43500
H  41.89000 43.33700 42.20900
H  41.81600 40.54600 45.29500
H  41.21700 42.03600 46.22600
H  42.90100 41.70200 46.01200
Mg 8.33500 48.17100 28.00400
C  6.54500 47.69900 30.97600
C  11.16000 48.44000 29.80600
C  9.88800 48.99600 25.16800
C  5.20500 48.81700 26.31200
N  8.77400 47.99700 30.19900
C  7.92500 47.76100 31.28700
C  8.66400 47.70200 32.66400
C  10.13900 48.14400 32.22200
C  10.05800 48.27200 30.64000
C  10.68800 49.50900 32.76400
C  8.59100 46.40100 33.51300
C  8.54700 46.64300 35.09900
H  9.18000 45.52600 35.92900
N  10.22700 48.53000 27.58700
C  11.30600 48.54100 28.46800
C  12.57600 48.58000 27.76800
C  12.21700 48.76000 26.40600
C  10.73600 48.74700 26.29300
C  13.91600 48.41800 28.46600
C  13.10900 48.96500 25.16000
O  12.69400 49.20200 24.03900
C  14.53400 48.93600 25.17000
N  7.65100 48.73100 26.05600
C  8.48800 48.92900 25.04400
C  7.74000 49.24800 23.72500
C  6.27200 49.07600 24.07000
C  6.38500 48.83400 25.51000
C  8.11100 50.62000 22.95400
C  5.55000 47.94600 23.32800
C  5.67000 47.91000 21.81200
N  6.29000 48.16200 28.42700
C  5.17300 48.52700 27.66000
C  4.04000 48.35200 28.49800
C  4.52700 48.08800 29.80200
C  5.91400 47.98300 29.73300
C  2.60300 48.28300 27.95300
C  4.09400 47.85200 31.16200
O  2.97600 47.79700 31.68400
C  5.38500 47.52800 31.94200
C  5.35000 46.22400 32.54700
O  5.55700 45.16300 31.95500
O  5.07400 46.29500 33.89700
C  4.83600 45.05400 34.57000
H  12.07500 48.24900 30.37100
H  10.32300 49.31900 24.21900
H  4.26700 49.04000 25.79900
H  8.19900 48.42100 33.33800
H  10.78300 47.31500 32.51500
H  11.43000 49.28600 33.53000
H  9.96300 50.12400 33.29700
H  11.26100 50.10000 32.05000
H  9.38400 45.66600 33.37500
H  7.69400 45.85300 33.22100
H  7.50600 46.67300 35.42200
H  8.99900 47.61300 35.31000
H  14.35400 47.51000 28.05100
H  13.90500 48.35500 29.55400
H  14.52700 49.29100 28.23600
H  14.90000 49.63800 25.91800
H  15.01900 49.26500 24.25200
H  14.82000 47.90900 25.39800
H  7.95700 48.44700 23.01800
H  5.91300 50.06600 23.78900
H  8.47900 50.33900 21.96800
H  8.84800 51.23600 23.46900
H  7.24500 51.27900 22.88800
H  4.47300 48.03800 23.46700
H  5.74200 46.95000 23.72700
H  6.03800 46.94200 21.47400
H  6.41900 48.67400 21.60300
H  4.70500 48.15200 21.36600
H  2.07300 49.23500 27.95300
H  1.95700 47.60600 28.51200
H  2.58600 48.05300 26.88800
H  5.55300 48.24700 32.74400
H  4.76300 45.36200 35.61300
H  5.64600 44.32600 34.52500
H  3.90300 44.61200 34.22000

