158

Mg 1.43900 -1.92400 43.33900
C  4.87000 -1.35000 42.67000
C  0.61400 0.94000 41.71500
C  -1.80500 -3.11900 43.08200
C  2.38900 -5.32500 44.23600
N  2.61000 -0.61000 42.12500
C  3.93600 -0.52000 42.12300
C  4.33100 0.63900 41.14400
C  3.07900 1.52500 41.29400
C  1.97800 0.52200 41.64900
C  3.21800 2.77700 42.23700
C  4.64500 0.08800 39.73300
C  6.02400 0.55100 39.25000
H  6.14000 1.19600 37.88800
N  -0.32500 -1.11300 42.73200
C  -0.47700 0.11200 42.10000
C  -1.89600 0.33400 41.85500
C  -2.57500 -0.80100 42.42500
C  -1.55200 -1.79500 42.73600
C  -2.47200 1.69500 41.39600
C  -4.08500 -0.85200 42.58500
O  -4.81400 0.08200 42.35900
C  -4.77600 -2.05400 43.26200
N  0.46900 -4.06700 43.45900
C  -0.91000 -4.18700 43.39500
C  -1.29800 -5.64400 43.62600
C  0.08000 -6.37800 43.75300
C  1.06900 -5.21600 43.81000
C  -2.29900 -5.92400 44.74500
C  0.29700 -7.39300 42.60300
C  0.69200 -8.78400 43.06700
N  3.23600 -3.10600 43.54700
C  3.39700 -4.38200 44.03700
C  4.85200 -4.58400 44.16400
C  5.48500 -3.41500 43.69400
C  4.44900 -2.55600 43.33100
C  5.43700 -5.86100 44.70100
C  6.71300 -2.70100 43.48600
O  7.87600 -3.00500 43.74000
C  6.37300 -1.43700 42.58500
C  7.06000 -0.28300 43.05200
O  7.99600 0.26900 42.58600
O  6.51600 0.17200 44.28300
C  7.13700 1.26700 44.94400
H  0.53000 1.99400 41.44500
H  -2.82300 -3.51300 43.04300
H  2.75500 -6.31100 44.52900
H  5.23900 1.13600 41.48600
H  2.93100 1.96400 40.30800
H  2.48000 2.68700 43.03400
H  3.12300 3.77500 41.80900
H  4.15300 2.64700 42.78200
H  3.90400 0.54600 39.07800
H  4.47300 -0.98500 39.64600
H  6.71200 -0.29300 39.21600
H  6.52600 1.17700 39.98800
H  -3.28900 1.60900 40.67900
H  -1.64400 2.25400 40.96000
H  -2.85800 2.26800 42.23800
H  -5.78900 -1.70400 43.46000
H  -4.38800 -2.25900 44.26000
H  -4.78200 -2.94800 42.63700
H  -1.91000 -5.95700 42.78000
H  0.22200 -6.92000 44.68700
H  -3.16800 -6.52100 44.46800
H  -2.80300 -5.04800 45.15400
H  -1.86200 -6.45800 45.58900
H  1.12600 -7.04100 41.99100
H  -0.55100 -7.41000 41.91900
H  -0.17700 -9.43300 42.96000
H  1.03400 -8.78100 44.10200
H  1.48500 -9.30300 42.52900
H  4.80300 -6.11400 45.55000
H  6.33600 -5.73500 45.30400
H  5.55600 -6.66500 43.97600
H  6.81100 -1.50300 41.58900
H  8.05400 0.89000 45.39600
H  6.37200 1.65600 45.61600
H  7.44600 2.02800 44.22700
Mg -4.90700 25.67600 26.06800
C  -3.86200 27.08300 29.16500
C  -6.52800 23.20600 27.97100
C  -5.52800 24.09200 23.15300
C  -2.90900 27.92200 24.43400
N  -5.11900 25.12100 28.29900
C  -4.62100 25.87300 29.40900
C  -5.10800 25.26900 30.70100
C  -5.75700 23.93000 30.29700
C  -5.74400 24.03100 28.75800
C  -5.09500 22.60500 30.92400
C  -5.91700 26.27800 31.45700
C  -5.66800 26.49000 32.93100
H  -5.29000 25.34900 33.92800
N  -6.03400 24.02800 25.61000
C  -6.73900 23.19900 26.52000
C  -7.47600 22.19300 25.73500
C  -7.23800 22.47400 24.32500
C  -6.25800 23.56000 24.27100
C  -8.35100 21.14900 26.48500
C  -7.81400 21.80600 23.10300
O  -7.63400 22.24100 21.94700
C  -8.81500 20.84600 23.42000
N  -4.23000 25.90200 24.14800
C  -4.66000 25.16900 23.09800
C  -4.04000 25.59500 21.74500
C  -3.33400 26.92400 22.15900
C  -3.53000 26.94400 23.66300
C  -3.12400 24.58100 21.07600
C  -4.00300 28.20500 21.56100
C  -3.30100 28.72500 20.37200
N  -3.61300 27.17400 26.70000
C  -2.89800 27.99500 25.85000
C  -2.29900 29.03500 26.63000
C  -2.68600 28.72500 27.99900
C  -3.47000 27.58800 27.95800
C  -1.48500 30.20300 26.19300
C  -2.40600 29.04100 29.38900
O  -1.69100 29.88500 29.89900
C  -3.18500 27.96800 30.22000
C  -2.27300 27.23500 31.10000
O  -1.64900 26.26600 30.75300
O  -2.05400 27.92600 32.30500
C  -1.35900 27.15700 33.36100
H  -7.04800 22.48600 28.60700
H  -5.71200 23.55100 22.22300
H  -2.52600 28.76500 23.85500
H  -4.22200 25.13300 31.32100
H  -6.80900 23.93200 30.58400
H  -4.59500 22.83800 31.86500
H  -4.28400 22.24100 30.29300
H  -5.85800 21.82900 30.97200
H  -6.96300 25.99000 31.35500
H  -5.87800 27.26500 30.99700
H  -6.61600 26.88200 33.29700
H  -4.89000 27.25400 32.91000
H  -9.39900 21.34300 26.71300
H  -7.96800 20.93800 27.48400
H  -8.34100 20.24000 25.88400
H  -9.34400 21.33400 24.23800
H  -8.31100 19.92400 23.71100
H  -9.46000 20.68100 22.55600
H  -4.87700 25.88600 21.11000
H  -2.27900 26.89000 21.89000
H  -2.07400 24.78300 21.28800
H  -3.31200 24.51500 20.00400
H  -3.38400 23.58500 21.43400
H  -3.93800 29.03400 22.26500
H  -5.06900 28.12300 21.35100
H  -2.70900 27.93800 19.90500
H  -2.59400 29.46300 20.75100
H  -3.96500 29.07400 19.58100
H  -0.40500 30.05500 26.19300
H  -1.69100 30.94200 26.96800
H  -1.83300 30.63200 25.25300
H  -4.01800 28.48600 30.69500
H  -0.27900 27.22000 33.23200
H  -1.69500 26.12000 33.33900
H  -1.62700 27.54600 34.34300

