158

Mg 34.95100 3.21700 30.39600
C  32.70500 4.38800 32.75200
C  37.36600 2.97600 32.72100
C  36.97000 2.02700 27.98400
C  32.40200 3.62900 27.92400
N  34.89700 3.49700 32.51900
C  33.91300 3.98900 33.31700
C  34.28200 3.87400 34.80800
C  35.87100 3.76300 34.76800
C  36.06200 3.39000 33.21300
C  36.63500 5.06100 35.11600
C  33.57300 2.69200 35.51700
C  33.74100 2.59900 37.00300
H  34.57800 3.52400 37.82700
N  36.91100 2.71100 30.37100
C  37.74600 2.59800 31.46500
C  39.09400 2.13000 31.01600
C  38.92700 1.86400 29.62500
C  37.56400 2.24400 29.23200
C  40.26500 2.05800 31.97600
C  40.02200 1.32100 28.65000
O  39.88500 1.27900 27.41200
C  41.26800 0.76200 29.14300
N  34.66700 2.72900 28.24500
C  35.65700 2.20400 27.49600
C  35.19500 1.87800 26.07800
C  33.73400 2.51500 26.06200
C  33.55600 3.05300 27.50100
C  35.99900 2.32900 24.93600
C  32.61200 1.56800 25.52600
C  32.10400 1.77200 24.08000
N  32.90700 3.82000 30.32800
C  32.03400 4.02300 29.24100
C  30.77200 4.46000 29.77300
C  30.96400 4.67800 31.14100
C  32.30800 4.29600 31.44100
C  29.60300 4.78000 28.95900
C  30.34800 5.16700 32.36900
O  29.22000 5.48300 32.64400
C  31.48800 4.82800 33.45900
C  31.74500 6.03400 34.26700
O  32.00900 7.14300 33.88400
O  31.45700 5.75900 35.57400
C  31.51700 6.90100 36.59300
H  38.16800 2.84700 33.45100
H  37.57500 1.49100 27.25000
H  31.62100 3.81600 27.18500
H  33.89700 4.76200 35.30900
H  36.24300 2.94000 35.37900
H  35.98200 5.93200 35.06400
H  37.37400 5.19300 34.32600
H  37.22600 4.89700 36.01700
H  34.11600 1.80300 35.19500
H  32.54300 2.59100 35.17500
H  33.96600 1.57400 37.29600
H  32.73700 2.84100 37.35300
H  41.15300 2.49600 31.52100
H  40.58700 1.07000 32.30700
H  40.16500 2.73100 32.82800
H  40.98000 0.01000 29.87800
H  41.91900 1.51100 29.59400
H  41.76300 0.11300 28.42000
H  35.18500 0.79400 26.20000
H  33.74100 3.39600 25.42000
H  36.65200 3.18500 25.10400
H  35.35000 2.53400 24.08400
H  36.68600 1.49400 24.80100
H  31.76300 1.38600 26.18500
H  33.05600 0.57300 25.49400
H  32.45600 0.83400 23.65100
H  32.62900 2.64900 23.70300
H  31.03900 1.92600 23.90500
H  29.02000 3.88800 28.73100
H  29.99700 5.12000 28.00200
H  29.05000 5.67000 29.26200
H  31.21400 4.02600 34.14400
H  30.93300 6.63600 37.47500
H  31.17900 7.84400 36.16500
H  32.52900 7.06000 36.96600
Mg 5.22100 54.91100 41.60100
C  3.99300 51.58200 41.19500
C  8.31100 53.91000 40.37700
C  6.22200 58.18700 41.69900
C  1.95400 55.74000 42.69300
N  6.09900 52.97400 40.91300
C  5.36400 51.83300 40.70000
C  6.17100 50.88900 39.85800
C  7.65800 51.38000 40.10700
C  7.37400 52.83700 40.41600
C  8.48100 50.56100 41.14600
C  5.77100 51.02200 38.37700
C  5.54400 49.75800 37.47000
H  6.08900 49.76300 36.06100
N  6.85200 55.91000 40.94200
C  8.06400 55.27000 40.68600
C  9.12300 56.23100 40.55600
C  8.61600 57.54100 40.94400
C  7.17000 57.26400 41.23400
C  10.54800 55.89000 40.16800
C  9.45600 58.76000 41.16700
O  10.63800 58.65900 40.90000
C  8.83500 60.05900 41.68400
N  4.21700 56.68500 41.86700
C  4.87500 57.88300 42.01800
C  3.99200 58.98200 42.63800
C  2.58800 58.15300 42.83100
C  2.94600 56.75700 42.45300
C  4.51600 59.85600 43.86700
C  1.36300 58.74100 42.10800
C  0.11300 59.16400 42.98000
N  3.37700 53.88600 41.97700
C  2.16200 54.34000 42.45100
C  1.22500 53.24500 42.68800
C  1.92600 52.14300 42.29300
C  3.18900 52.58500 41.78800
C  -0.16900 53.34300 43.26900
C  1.86800 50.70800 42.09200
O  0.98600 49.89800 42.33200
C  3.26100 50.25200 41.43200
C  2.96700 49.26000 40.26700
O  2.43900 49.58700 39.21600
O  3.35300 48.01700 40.63900
C  2.77200 46.89100 39.84800
H  9.27400 53.51100 40.05200
H  6.54800 59.22100 41.83100
H  0.94400 55.90900 43.07400
H  6.15300 49.89700 40.30900
H  8.24500 51.31900 39.19100
H  9.41100 50.18000 40.72500
H  7.93100 49.68900 41.50100
H  8.77800 51.11600 42.03500
H  6.41400 51.79100 37.95100
H  4.83400 51.57900 38.40200
H  4.48800 49.61200 37.24400
H  6.12000 48.98300 37.97600
H  11.18200 55.73900 41.04100
H  10.89700 56.75100 39.59600
H  10.60500 55.03000 39.50100
H  9.70300 60.71400 41.77000
H  8.48700 59.94800 42.71100
H  8.12400 60.53100 41.00700
H  3.81800 59.73100 41.86600
H  2.37900 58.06900 43.89800
H  3.77000 59.85200 44.66200
H  4.71300 60.87300 43.52900
H  5.49400 59.48700 44.17500
H  1.05900 58.04700 41.32400
H  1.72300 59.69600 41.72700
H  0.13500 58.59300 43.90800
H  -0.83200 59.14400 42.43700
H  0.10500 60.20700 43.29800
H  -0.16300 52.81700 44.22400
H  -0.92400 52.90600 42.61500
H  -0.33200 54.37400 43.58200
H  3.84100 49.64900 42.13000
H  1.83600 46.55400 40.29500
H  3.44000 46.03000 39.86200
H  2.47300 47.27500 38.87300

