158

Mg 24.92400 -5.83500 46.30400
C  26.33800 -2.85700 44.85800
C  22.16700 -5.30000 44.30100
C  24.00600 -8.85300 47.09600
C  27.98800 -6.26700 47.89600
N  24.37500 -4.22500 44.67600
C  25.06300 -3.15300 44.32600
C  24.37700 -2.45000 43.23600
C  22.90600 -3.03500 43.31200
C  23.11700 -4.24400 44.14300
C  21.86500 -2.03800 43.97500
C  25.07700 -2.73900 41.86400
C  25.21000 -1.54600 40.97000
H  24.99000 -1.65100 39.44200
N  23.25600 -6.86700 45.90600
C  22.25000 -6.50200 45.02300
C  21.25400 -7.55200 44.96500
C  21.76300 -8.63800 45.69200
C  23.11400 -8.21400 46.18700
C  19.86100 -7.50500 44.19100
C  21.09100 -9.99500 45.94500
O  19.96200 -10.04300 45.62100
C  21.93500 -11.23400 46.44600
N  25.89000 -7.26800 47.33200
C  25.22200 -8.40600 47.55100
C  26.07500 -9.23500 48.61700
C  27.34800 -8.39100 48.83200
C  27.07900 -7.24800 47.96800
C  25.32700 -9.78900 49.89400
C  28.64900 -9.20700 48.49400
C  29.61200 -9.38200 49.65900
N  26.78800 -4.70400 46.43100
C  27.93400 -5.03800 47.15100
C  28.95500 -4.05400 47.00500
C  28.32900 -3.17100 46.02800
C  27.05700 -3.64300 45.72300
C  30.30600 -3.99800 47.66600
C  28.65400 -1.94700 45.31800
O  29.61300 -1.18300 45.33100
C  27.28900 -1.69100 44.50700
C  26.76000 -0.27600 44.89000
O  25.54700 -0.04700 45.17800
O  27.77500 0.72000 44.85500
C  27.32800 2.07200 45.32700
H  21.29300 -5.24100 43.64900
H  23.67500 -9.81400 47.49500
H  28.87300 -6.28600 48.53500
H  24.38900 -1.37100 43.39500
H  22.66400 -3.32200 42.28900
H  21.61200 -1.30900 43.20500
H  22.34500 -1.49400 44.78800
H  21.05100 -2.69100 44.28700
H  24.54900 -3.57300 41.40100
H  26.07600 -3.13900 42.03400
H  26.29000 -1.40200 40.99600
H  24.63400 -0.67600 41.28500
H  18.98700 -7.80100 44.77100
H  19.92300 -8.19300 43.34700
H  19.67300 -6.58000 43.64500
H  21.36600 -12.10500 46.12000
H  21.94700 -11.21200 47.53500
H  22.86500 -11.28800 45.88000
H  26.29200 -10.07300 47.95500
H  27.50800 -8.09100 49.86800
H  25.53000 -10.79800 50.25300
H  24.25800 -9.67900 49.71300
H  25.43300 -9.14800 50.77000
H  29.12000 -8.77800 47.60900
H  28.45800 -10.22500 48.15400
H  29.96700 -10.41300 49.64900
H  29.19100 -9.20400 50.64900
H  30.43200 -8.68000 49.50900
H  30.27100 -3.28000 48.48500
H  31.07100 -3.51800 47.05600
H  30.58900 -4.99700 48.00000
H  27.48800 -1.58100 43.44100
H  27.23300 2.21600 46.40300
H  26.35900 2.41100 44.96000
H  27.98900 2.81800 44.88400
Mg 30.58200 58.27100 40.10800
C  28.01500 56.39500 38.70900
C  32.69100 55.74200 39.32400
C  33.16400 60.45300 40.38300
C  28.42400 60.86500 40.63900
N  30.32400 56.35100 39.05700
C  29.24100 55.68700 38.68000
C  29.53300 54.27900 38.04800
C  30.85700 53.96500 38.81000
C  31.35100 55.42700 39.22300
C  30.74200 53.02700 40.00900
C  29.71700 54.25800 36.48200
C  28.56700 53.73700 35.61100
H  27.85600 54.75100 34.65900
N  32.64800 58.13600 39.86900
C  33.35200 56.98800 39.53300
C  34.75100 57.20300 39.61200
C  34.86000 58.56700 40.06500
C  33.50400 59.13000 40.12700
C  35.76100 56.06600 39.43200
C  36.18000 59.23600 40.50300
O  37.27400 58.62900 40.39500
C  36.25600 60.61800 41.04800
N  30.76600 60.32900 40.61900
C  31.94000 61.03400 40.66900
C  31.77700 62.54700 40.84300
C  30.23500 62.58300 41.26100
C  29.76500 61.15200 40.74500
C  32.71000 63.06200 41.93100
C  29.42800 63.76100 40.62700
C  28.37600 64.50700 41.51500
N  28.58800 58.60700 39.82800
C  27.82500 59.68100 40.10000
C  26.51900 59.47800 39.63600
C  26.52300 58.16100 39.08100
C  27.86400 57.69900 39.17400
C  25.34600 60.36400 39.83800
C  25.66200 57.15600 38.52000
O  24.47500 57.21000 38.17900
C  26.64500 55.98000 38.25800
C  26.07100 54.79800 38.98900
O  26.56400 54.36300 40.05300
O  24.89200 54.38700 38.47900
C  24.18700 53.49500 39.38500
H  33.25900 54.81100 39.27200
H  33.90500 61.25500 40.42200
H  27.70800 61.68400 40.74400
H  28.71200 53.64600 38.38500
H  31.62400 53.48600 38.20200
H  30.78900 53.56200 40.95800
H  31.38700 52.15300 40.10800
H  29.73600 52.60900 40.02700
H  30.55300 53.58800 36.28200
H  30.06300 55.24500 36.17500
H  27.81100 53.37200 36.30500
H  28.92200 52.92500 34.97600
H  35.58000 55.21800 40.09300
H  36.75400 56.42600 39.70300
H  35.64100 55.87600 38.36500
H  37.25500 60.83700 41.42600
H  35.54900 60.76900 41.86400
H  35.98200 61.18800 40.16100
H  31.92700 63.07800 39.90300
H  30.11300 62.71400 42.33600
H  32.79400 64.09600 41.59500
H  33.60500 62.45500 42.06500
H  32.18000 63.09600 42.88300
H  29.01500 63.36800 39.69800
H  30.15000 64.53100 40.35700
H  28.18800 65.53900 41.22100
H  28.71700 64.42700 42.54700
H  27.39800 64.03800 41.40400
H  25.65400 61.40500 39.73800
H  24.84400 60.21400 40.79400
H  24.66700 60.29600 38.98800
H  26.72800 55.66500 37.21800
H  23.23700 53.39300 38.85900
H  24.03600 53.99000 40.34400
H  24.70000 52.53400 39.42300

