158

Mg 39.89400 8.99800 29.16100
C  41.88900 10.30000 31.84000
C  37.88800 7.57900 31.52100
C  38.47800 7.44100 26.62800
C  42.56700 9.96700 26.96800
N  39.93400 9.00900 31.41800
C  40.73900 9.64500 32.30000
C  40.24400 9.47400 33.74100
C  39.02800 8.52400 33.62700
C  38.97400 8.27000 32.08700
C  38.87800 7.21000 34.42900
C  39.87800 10.86000 34.34600
C  38.74200 11.01200 35.39800
H  39.14300 11.79600 36.60700
N  38.34000 7.79900 29.02400
C  37.57100 7.43800 30.11100
C  36.48300 6.62000 29.61100
C  36.53400 6.69000 28.17200
C  37.86900 7.22500 27.87200
C  35.49100 5.85700 30.47300
C  35.56500 6.11000 27.15300
O  35.93200 5.98700 26.01900
C  34.17000 5.63100 27.46400
N  40.44200 8.67900 27.17700
C  39.63900 8.06000 26.26900
C  40.05300 8.27900 24.80500
C  41.39400 9.10500 24.89600
C  41.54200 9.25300 26.42900
C  40.20900 6.96100 24.03200
C  41.27000 10.50100 24.13000
C  40.09300 11.42500 24.50200
N  41.84800 9.97800 29.31900
C  42.82700 10.22500 28.36300
C  43.95500 10.97700 28.94900
C  43.61300 11.00600 30.31500
C  42.36300 10.41100 30.47100
C  45.22000 11.43400 28.31200
C  44.00000 11.47500 31.66400
O  44.93300 12.14800 32.07400
C  42.95700 11.04400 32.59600
C  43.50400 10.25800 33.70100
O  43.55600 9.03300 33.79500
O  43.64800 11.07400 34.81100
C  43.99100 10.56400 36.17100
H  37.10300 7.21900 32.19000
H  37.83800 7.13500 25.79800
H  43.33500 10.39000 26.31700
H  41.05600 9.01000 34.30100
H  38.13800 9.12100 33.82200
H  39.39900 6.42300 33.88300
H  37.82200 7.00300 34.60000
H  39.39000 7.29900 35.38700
H  39.96000 11.58700 33.53700
H  40.77400 11.00100 34.95000
H  38.39800 10.07100 35.82800
H  37.91000 11.50400 34.89300
H  35.58500 4.90100 29.95800
H  34.47700 6.24900 30.39000
H  35.68000 5.68200 31.53200
H  33.80900 6.45700 28.07700
H  34.26800 4.62800 27.87900
H  33.59800 5.57800 26.53700
H  39.23500 8.84000 24.35300
H  42.31600 8.70300 24.47500
H  39.61300 7.02100 23.12200
H  39.84500 6.17000 24.68800
H  41.22000 6.66600 23.75100
H  41.15000 10.35200 23.05700
H  42.15000 11.08700 24.39600
H  40.37700 12.44400 24.76600
H  39.69100 11.20500 25.49100
H  39.33100 11.34600 23.72700
H  45.25400 11.32000 27.22800
H  46.09200 11.02900 28.82600
H  45.23900 12.49400 28.56400
H  42.43000 11.91600 32.98200
H  43.06600 10.60000 36.74500
H  44.73000 11.16200 36.70500
H  44.23600 9.50300 36.12100
Mg 6.84700 55.10300 42.08700
C  6.08400 51.64600 41.49200
C  10.07900 54.33800 41.01200
C  7.45200 58.43200 41.97900
C  3.62200 55.57800 42.72300
N  7.96800 53.23300 41.34400
C  7.51900 51.92100 41.29600
C  8.60600 50.94300 40.97700
C  9.90300 51.73800 41.21500
C  9.31200 53.19600 41.20300
C  10.61900 51.40700 42.59200
C  8.56000 50.29200 39.50500
C  8.71100 51.29900 38.29100
H  8.00100 51.14700 36.96700
N  8.57100 56.26700 41.57700
C  9.73800 55.73900 41.08100
C  10.64500 56.89900 40.68700
C  9.91800 58.14200 41.08500
C  8.56900 57.64400 41.61900
C  11.93300 56.68800 39.92500
C  10.39600 59.58300 40.85800
O  11.52100 59.73100 40.42400
C  9.60100 60.77600 41.08000
N  5.79200 56.67800 42.42900
C  6.14000 58.02100 42.40500
C  5.03700 59.02700 42.74700
C  3.85400 58.02100 43.00200
C  4.45200 56.66000 42.62600
C  5.52500 59.95800 43.91700
C  2.53000 58.52200 42.26200
C  1.41400 59.04400 43.12300
N  5.13200 53.88800 42.17200
C  3.89600 54.25000 42.53300
C  3.08500 53.00700 42.68300
C  3.96900 51.94600 42.37500
C  5.14600 52.54600 42.00100
C  1.57700 52.94900 43.05800
C  4.04200 50.50200 42.28100
O  3.26800 49.58300 42.60500
C  5.43200 50.29000 41.62000
C  5.26100 49.60300 40.34100
O  4.60100 49.94900 39.34700
O  6.10800 48.54000 40.28200
C  5.97000 47.65800 39.09900
H  11.04000 54.07200 40.56500
H  7.55900 59.51700 41.90300
H  2.55800 55.75400 42.89200
H  8.41800 50.17400 41.72600
H  10.56000 51.53200 40.37000
H  10.16700 50.55300 43.09700
H  10.44000 52.23300 43.28000
H  11.68700 51.29400 42.40100
H  7.62900 49.75500 39.32200
H  9.35000 49.55000 39.39400
H  9.74500 51.15400 37.97900
H  8.74100 52.36500 38.51900
H  11.88300 55.90600 39.16800
H  12.70400 56.45100 40.65800
H  12.11100 57.62000 39.38800
H  8.81200 60.85600 40.33200
H  10.10400 61.72500 40.89500
H  9.21500 60.85200 42.09600
H  4.84100 59.62800 41.86000
H  3.82300 58.07200 44.09000
H  6.43600 59.81900 44.49900
H  4.58800 60.04300 44.46600
H  5.54800 60.97100 43.51300
H  2.21700 57.66300 41.66800
H  2.80900 59.35300 41.61500
H  1.47500 60.13200 43.11300
H  1.51200 58.66400 44.14000
H  0.38600 58.80000 42.85800
H  1.15700 53.85700 43.48900
H  1.34900 52.11900 43.72700
H  1.08300 52.66100 42.13000
H  6.01500 49.66200 42.29400
H  5.99500 48.19500 38.15100
H  5.08200 47.08100 39.35400
H  6.77100 46.91800 39.12100

