158

Mg 51.91300 24.52000 45.28800
C  49.13200 26.49300 44.59700
C  50.22700 21.77000 44.09800
C  54.94200 22.76000 45.36000
C  53.73300 27.34900 46.35500
N  49.95000 24.16500 44.26400
C  48.95200 25.13100 44.11400
C  47.77000 24.51500 43.32900
C  47.94800 22.99300 43.63100
C  49.45200 22.93200 44.02600
C  47.03000 22.66800 44.74900
C  47.73600 24.93000 41.77900
C  49.14000 25.30200 41.20900
H  49.13200 25.48500 39.66600
N  52.53900 22.53900 44.81100
C  51.62000 21.57000 44.42900
C  52.39900 20.31500 44.37600
C  53.74100 20.59300 44.49100
C  53.81400 22.03100 44.94000
C  51.78400 19.03600 43.93500
C  54.90800 19.64600 44.27100
O  54.62400 18.59600 43.70900
C  56.38300 19.90700 44.54500
N  54.09000 25.01600 45.61700
C  55.05400 24.11600 45.65100
C  56.47200 24.69200 45.97000
C  56.09700 26.20000 46.32800
C  54.53900 26.22800 46.02600
C  57.23000 23.84600 47.13700
C  56.88500 27.20200 45.38900
C  57.65300 28.21600 46.12800
N  51.50300 26.53000 45.53500
C  52.32900 27.56500 45.97700
C  51.44800 28.74000 46.19300
C  50.21200 28.33700 45.63600
C  50.30800 27.01100 45.26700
C  51.88800 30.08200 46.77700
C  48.86900 28.76400 45.32600
O  48.40200 29.91000 45.44600
C  48.11600 27.66800 44.58800
C  47.68000 28.10500 43.29400
O  48.38200 28.31200 42.31200
O  46.32400 28.26100 43.38100
C  45.70000 28.86700 42.22500
H  49.63500 20.86200 43.96200
H  55.85000 22.16900 45.49100
H  54.27100 28.14000 46.88100
H  46.88800 24.94900 43.80000
H  47.73200 22.36500 42.76700
H  47.29600 21.66100 45.07000
H  46.02900 22.71900 44.32000
H  46.92300 23.37300 45.57300
H  46.99100 25.72400 41.71800
H  47.39400 24.10600 41.15300
H  49.76200 24.42200 41.37600
H  49.57600 26.19000 41.66600
H  51.41300 19.01800 42.91100
H  50.92800 18.76800 44.55400
H  52.50600 18.26100 44.19100
H  57.09700 19.20300 44.11700
H  56.55100 20.07100 45.60900
H  56.62200 20.82600 44.01000
H  57.04800 24.57000 45.05200
H  56.34900 26.50300 47.34400
H  56.45300 23.28400 47.65500
H  57.76400 24.56400 47.76000
H  57.91800 23.16800 46.63200
H  56.16200 27.84900 44.89300
H  57.52000 26.70400 44.65600
H  57.26200 29.21400 45.92800
H  58.71600 28.12100 45.91000
H  57.50100 28.14300 47.20500
H  51.06100 30.79100 46.73200
H  52.79500 30.34100 46.23000
H  52.16600 30.07700 47.83100
H  47.25000 27.50000 45.22800
H  44.62400 29.01800 42.31000
H  45.95000 28.36600 41.28900
H  46.06900 29.88200 42.08100
Mg 25.39900 51.29300 26.22400
C  23.49600 52.57800 28.82800
C  27.78200 50.17700 28.53800
C  27.65400 50.83400 23.70500
C  23.22200 52.64500 23.95900
N  25.55300 51.36300 28.38800
C  24.63000 51.88600 29.27800
C  25.06000 51.63100 30.71600
C  26.49500 51.00900 30.56400
C  26.63100 50.86800 29.05200
C  27.73500 51.78400 31.18100
C  24.06100 50.77400 31.54600
C  23.72200 51.33700 32.90900
H  24.96800 51.45200 33.84100
N  27.38500 50.55900 26.15300
C  28.16600 50.07100 27.16400
C  29.19200 49.33400 26.67200
C  29.24700 49.60800 25.22000
C  28.03600 50.40600 24.97700
C  30.01300 48.38600 27.47500
C  30.16000 48.99900 24.18800
O  30.07100 49.20300 22.97200
C  31.14400 47.95000 24.58900
N  25.46500 51.80500 24.13500
C  26.48600 51.45000 23.31300
C  26.19700 51.86800 21.89200
C  24.71700 52.18500 21.95600
C  24.38200 52.17700 23.43700
C  26.98100 53.06500 21.23100
C  23.87400 51.33700 21.01300
C  23.13600 50.07500 21.63600
N  23.56900 52.31800 26.30000
C  22.83500 52.86800 25.35100
C  21.58700 53.53000 25.88300
C  21.77900 53.39100 27.26200
C  23.06300 52.74400 27.42400
C  20.49400 54.20800 25.14700
C  21.26100 53.68300 28.55200
O  20.29300 54.33000 28.92700
C  22.31200 53.22500 29.55400
C  22.67200 54.23700 30.48800
O  23.59500 55.04700 30.33200
O  21.75900 54.33300 31.46000
C  21.72000 55.64900 32.27000
H  28.57900 49.96400 29.25500
H  28.16300 50.46200 22.81300
H  22.52200 52.98900 23.19500
H  25.01400 52.58100 31.24800
H  26.58600 50.13500 31.20900
H  27.16100 52.61000 31.60100
H  28.43700 52.12400 30.42000
H  28.30600 51.12000 31.83000
H  24.48600 49.78100 31.69500
H  23.21400 50.49600 30.91900
H  22.90500 50.82200 33.41500
H  23.34200 52.34500 32.74000
H  31.05200 48.70900 27.53300
H  30.05300 47.34300 27.16400
H  29.74300 48.33000 28.53000
H  31.71000 48.25900 25.46800
H  31.82100 47.66300 23.78500
H  30.58900 47.05700 24.87700
H  26.38300 51.08100 21.16200
H  24.57200 53.24800 21.76200
H  27.79800 52.69000 20.61500
H  27.37800 53.69100 22.03000
H  26.45500 53.65700 20.48300
H  24.39300 51.04700 20.10000
H  23.08500 51.95500 20.58300
H  22.09100 50.31900 21.82700
H  23.64800 49.76500 22.54700
H  23.19600 49.20800 20.97700
H  20.45100 53.90900 24.09900
H  20.82500 55.24600 25.15600
H  19.46800 54.05000 25.47900
H  21.93900 52.40300 30.16600
H  21.98300 56.49300 31.63200
H  22.39200 55.50800 33.11600
H  20.72800 55.76200 32.70800

