158

Mg 2.10500 -1.84600 44.69800
C  5.38100 -0.66600 44.38500
C  0.99000 0.92100 43.03000
C  -0.82300 -3.45600 44.16300
C  3.48200 -4.94400 45.79400
N  3.10500 -0.22500 43.72500
C  4.39400 0.15600 43.80000
C  4.54900 1.59900 43.31800
C  3.15900 2.12000 43.35100
C  2.37400 0.84500 43.31600
C  2.65400 2.91400 44.55800
C  5.35500 1.71400 41.96200
C  6.88800 2.06900 41.99100
H  7.82300 1.40500 41.08200
N  0.32200 -1.38000 43.69800
C  0.05300 -0.10600 43.11600
C  -1.23900 -0.11200 42.54700
C  -1.78700 -1.41200 42.87100
C  -0.74200 -2.15100 43.58500
C  -1.74600 1.09500 41.77600
C  -3.25200 -1.81000 42.59200
O  -3.98300 -1.14900 41.86300
C  -3.92000 -2.96400 43.27000
N  1.39300 -4.05800 44.72400
C  0.12300 -4.37400 44.65200
C  -0.09200 -5.87100 45.03200
C  1.32000 -6.36300 45.53100
C  2.11000 -5.01400 45.35300
C  -1.09500 -6.11300 46.14100
C  1.86600 -7.54100 44.73800
C  2.53700 -8.75600 45.41600
N  4.03500 -2.60400 45.26700
C  4.41800 -3.86000 45.65400
C  5.89500 -3.90300 45.86800
C  6.30700 -2.57800 45.46900
C  5.15100 -1.93500 44.98000
C  6.70500 -5.03700 46.21400
C  7.44400 -1.63800 45.28200
O  8.63800 -1.80100 45.48200
C  6.81300 -0.37400 44.72200
C  7.01000 0.74000 45.85300
O  6.15600 1.09800 46.66700
O  8.08500 1.40900 45.47500
C  8.16200 2.78500 46.05500
H  0.60900 1.86400 42.63300
H  -1.76100 -3.99700 44.02100
H  3.86900 -5.92000 46.09700
H  5.11500 2.05600 44.13000
H  3.05000 2.65100 42.40500
H  1.79400 3.51700 44.26600
H  3.43300 3.56400 44.95500
H  2.33400 2.23600 45.34900
H  4.88600 2.57300 41.48200
H  5.21500 0.74700 41.47700
H  7.30100 1.96400 42.99400
H  7.02600 3.12400 41.75200
H  -1.35400 1.01300 40.76200
H  -1.50400 2.03400 42.27400
H  -2.83200 1.07900 41.68700
H  -3.62100 -3.87000 42.74200
H  -5.00500 -2.87300 43.22700
H  -3.61100 -2.93400 44.31500
H  -0.39600 -6.39500 44.12600
H  1.29100 -6.59600 46.59500
H  -0.74800 -6.93700 46.76300
H  -2.02500 -6.47000 45.69900
H  -1.22600 -5.15600 46.64600
H  2.61100 -7.17200 44.03300
H  1.06000 -7.92700 44.11400
H  2.08400 -8.83000 46.40400
H  3.62700 -8.73300 45.43800
H  2.25600 -9.66400 44.88100
H  6.57900 -5.72100 45.37400
H  6.25500 -5.35200 47.15500
H  7.77600 -4.85600 46.30700
H  7.36000 0.02600 43.86700
H  9.20800 3.01700 45.85400
H  7.82000 3.00900 47.06600
H  7.53000 3.32800 45.35300
Mg 48.47700 34.96600 27.42000
C  46.29500 33.50400 29.74900
C  48.83900 37.68800 29.33800
C  49.89900 36.53400 24.78500
C  47.81900 32.20100 25.30300
N  47.65700 35.51300 29.30400
C  46.94200 34.68800 30.22900
C  47.09200 35.27300 31.60800
C  47.63600 36.74600 31.30400
C  48.14200 36.61300 29.90000
C  46.51000 37.80200 31.50700
C  48.10000 34.32400 32.44500
C  48.18200 34.39700 33.96900
H  47.20100 35.33400 34.68000
N  49.11800 36.90100 27.14500
C  49.20900 37.87500 28.02400
C  49.71200 39.02600 27.46000
C  50.06900 38.71100 26.12300
C  49.69700 37.32500 25.95500
C  49.83600 40.35700 28.20000
C  50.73600 39.69400 25.19400
O  50.92000 39.39200 23.99400
C  51.40200 41.04200 25.73300
N  48.88200 34.49100 25.35900
C  49.49400 35.28300 24.48700
C  49.83600 34.58700 23.15400
C  49.04500 33.21800 23.27700
C  48.58100 33.24500 24.73200
C  49.58900 35.31700 21.89400
C  49.85200 31.93100 22.89500
C  49.40400 31.05700 21.63400
N  47.39000 33.16800 27.51500
C  47.18600 32.15900 26.56800
C  46.20000 31.20000 27.01800
C  45.91000 31.58700 28.29400
C  46.56600 32.84200 28.51900
C  45.76100 29.90700 26.36500
C  45.08100 31.29600 29.44800
O  44.34200 30.40200 29.73600
C  45.21500 32.60900 30.39600
C  45.47000 32.13100 31.76600
O  46.29400 31.27300 32.16200
O  44.58300 32.65600 32.58800
C  44.51600 32.06700 33.89600
H  49.05500 38.50300 30.03200
H  50.53100 37.04600 24.05600
H  47.70800 31.34600 24.63300
H  46.09800 35.23800 32.05400
H  48.39300 36.95500 32.06000
H  45.60600 37.36100 31.92600
H  46.39000 38.48500 30.66500
H  46.88200 38.51500 32.24400
H  49.09000 34.44400 32.00600
H  47.98800 33.31400 32.05000
H  49.17600 34.72300 34.27600
H  47.92100 33.43300 34.40400
H  49.50800 41.25000 27.66700
H  50.89400 40.43700 28.44800
H  49.29000 40.44000 29.13900
H  52.19100 41.33000 25.03800
H  51.96500 40.81000 26.63700
H  50.74100 41.90000 25.85800
H  50.90400 34.37200 23.11900
H  48.14400 33.22400 22.66500
H  48.97200 34.68500 21.25600
H  50.49600 35.48100 21.31200
H  49.07500 36.26100 22.07200
H  50.04200 31.27700 23.74600
H  50.86800 32.23400 22.64200
H  49.37500 30.04100 22.03000
H  50.14200 31.16700 20.84000
H  48.43000 31.34700 21.24100
H  46.01600 29.02500 26.95200
H  46.00600 30.07800 25.31700
H  44.67300 29.84300 26.37800
H  44.22700 33.06800 30.42700
H  44.74500 31.00600 33.80300
H  43.55800 32.19100 34.40100
H  45.31000 32.57500 34.44400

