158

Mg 24.17800 -4.35800 46.06900
C  26.59900 -2.40200 44.72400
C  21.98700 -3.18100 43.68300
C  22.25300 -6.92600 46.76600
C  26.65500 -5.70400 48.39900
N  24.30500 -2.95400 44.46700
C  25.36500 -2.21900 44.11700
C  25.03100 -1.30800 42.87500
C  23.47000 -1.23400 43.03900
C  23.22100 -2.52800 43.85100
C  23.04600 0.03600 43.85600
C  25.65400 -1.91400 41.60100
C  26.15100 -0.85800 40.60200
H  25.55000 -0.87500 39.15500
N  22.29700 -4.89600 45.29200
C  21.57600 -4.32200 44.29500
C  20.42400 -5.11500 44.19700
C  20.50500 -6.28200 44.95200
C  21.72600 -6.09600 45.71300
C  19.34500 -4.77300 43.11300
C  19.49700 -7.39100 44.94000
O  18.56500 -7.43800 44.10900
C  19.59200 -8.55200 45.89900
N  24.54800 -6.09900 47.39000
C  23.48200 -6.90800 47.53500
C  23.65800 -7.86800 48.75200
C  24.96700 -7.33500 49.40300
C  25.44400 -6.38500 48.33800
C  22.39400 -7.92600 49.67900
C  26.01800 -8.47800 49.61100
C  27.02300 -8.38000 50.75800
N  26.21600 -4.04400 46.56900
C  27.05600 -4.67400 47.48000
C  28.41400 -4.09500 47.34300
C  28.26700 -3.16300 46.29600
C  26.90300 -3.27600 45.83100
C  29.59900 -4.56000 48.16900
C  28.99400 -2.24500 45.49600
O  30.16600 -1.85100 45.59100
C  27.96500 -1.69600 44.46100
C  27.89000 -0.24000 44.70500
O  27.07600 0.35700 45.44100
O  28.83400 0.36000 43.96000
C  29.14600 1.78300 44.08300
H  21.33800 -2.71900 42.93600
H  21.62200 -7.77600 47.03500
H  27.42400 -6.01300 49.10900
H  25.53100 -0.37300 43.12700
H  23.07400 -1.28900 42.02500
H  23.80700 0.81600 43.88700
H  22.77600 -0.27000 44.86700
H  22.17300 0.47700 43.37500
H  24.85600 -2.45000 41.08500
H  26.35400 -2.74500 41.68500
H  27.23700 -0.88700 40.69100
H  25.77000 0.05400 41.06200
H  18.38700 -5.04400 43.55800
H  19.49000 -5.32000 42.18200
H  19.26100 -3.71300 42.87100
H  18.89300 -9.33300 45.59900
H  19.27000 -8.39400 46.92900
H  20.55500 -9.06000 45.84800
H  23.85300 -8.84200 48.30400
H  24.72100 -6.74400 50.28400
H  21.61800 -7.25000 49.32300
H  22.46500 -7.59600 50.71500
H  21.97300 -8.92400 49.80200
H  26.54800 -8.48100 48.65900
H  25.57600 -9.46300 49.76100
H  26.82700 -9.05400 51.59100
H  27.03300 -7.34600 51.10300
H  27.99600 -8.68900 50.37600
H  29.91900 -5.51100 47.74200
H  29.37300 -4.71900 49.22300
H  30.44000 -3.87000 48.09300
H  28.27500 -1.84400 43.42600
H  30.08700 2.07800 43.61900
H  29.26700 1.99800 45.14400
H  28.29000 2.35700 43.72800
Mg 7.21200 55.59300 40.57100
C  6.05600 52.25500 40.27400
C  10.39000 54.46800 39.78000
C  8.28600 58.86400 40.25100
C  3.95300 56.59600 40.96200
N  8.01700 53.58800 39.83200
C  7.38000 52.34800 39.96300
C  8.43100 51.27700 39.67900
C  9.80000 52.03100 39.81600
C  9.40500 53.47400 39.77200
C  10.66100 51.64000 41.02400
C  8.32200 50.62500 38.26500
C  7.89500 51.55900 37.07200
H  6.43400 51.44000 36.52100
N  9.05500 56.53400 40.07500
C  10.25000 55.89300 39.80100
C  11.27200 56.87600 39.50600
C  10.72000 58.12900 39.69400
C  9.32800 57.87000 40.13200
C  12.70500 56.54800 39.19200
C  11.46100 59.43500 39.50000
O  12.65700 59.49800 39.36000
C  10.76800 60.72500 39.64700
N  6.17600 57.43900 40.46700
C  6.88400 58.61700 40.48100
C  5.83000 59.76800 40.53600
C  4.44700 59.06500 40.94900
C  4.87200 57.59400 40.84300
C  6.17300 60.93200 41.52000
C  3.29200 59.54600 40.03900
C  2.08300 60.15700 40.80000
N  5.41600 54.63000 40.62300
C  4.19900 55.22500 40.90700
C  3.19200 54.20800 41.12400
C  3.91400 52.99300 40.92200
C  5.22800 53.33700 40.63600
C  1.67200 54.33700 41.35200
C  3.91200 51.54000 40.92100
O  2.96000 50.86100 41.18200
C  5.30000 51.00400 40.45300
C  5.11300 50.09100 39.33000
O  4.41900 50.42400 38.38500
O  5.59500 48.79400 39.54500
C  5.33000 47.81500 38.53700
H  11.40300 54.06000 39.75400
H  8.53000 59.91800 40.10300
H  2.90400 56.82300 41.16100
H  8.40900 50.48800 40.43100
H  10.46300 51.69600 39.01800
H  11.55300 51.12000 40.67500
H  10.11500 51.02100 41.73600
H  11.03900 52.49900 41.57800
H  7.64100 49.77500 38.31500
H  9.30900 50.27200 37.96600
H  8.49900 51.29600 36.20300
H  8.05700 52.62400 37.24200
H  12.83100 55.48800 38.97000
H  13.33900 56.91900 39.99800
H  12.94600 57.08200 38.27300
H  11.50000 61.51200 39.46400
H  10.34700 60.74100 40.65200
H  10.02500 60.61700 38.85700
H  5.82100 60.01800 39.47500
H  4.27000 59.19500 42.01700
H  6.44600 61.87000 41.03500
H  7.05500 60.61200 42.07400
H  5.32300 61.13800 42.17000
H  3.10600 58.71700 39.35600
H  3.60300 60.36300 39.38700
H  1.38900 59.32300 40.69800
H  1.73500 61.08700 40.35000
H  2.18500 60.23200 41.88200
H  1.15100 53.49700 41.81100
H  1.10400 54.44200 40.42800
H  1.40000 55.22600 41.92100
H  5.60300 50.45200 41.34200
H  6.05100 46.99800 38.49900
H  5.12600 48.16000 37.52300
H  4.37400 47.41500 38.87600

