158

Mg 43.86200 4.36100 48.29700
C  41.66400 6.82800 47.45800
C  41.41500 2.05000 47.66800
C  46.25100 1.86300 48.36000
C  46.52700 6.69200 48.27900
N  41.80300 4.49800 47.32600
C  41.07700 5.59400 47.38200
C  39.60100 5.26100 46.89000
C  39.54100 3.74400 47.23600
C  40.98400 3.43200 47.46500
C  38.69200 3.35300 48.51600
C  39.36100 5.60000 45.37200
C  38.38500 6.77600 45.06500
H  37.51100 6.76400 43.79800
N  43.85900 2.27300 48.09600
C  42.73400 1.55500 47.89100
C  43.11100 0.11900 47.97300
C  44.51400 0.07600 48.18800
C  44.91500 1.41700 48.23800
C  42.09700 -0.99000 47.72400
C  45.31700 -1.24700 48.26900
O  44.74300 -2.31600 48.28900
C  46.79500 -1.27000 48.33200
N  46.07800 4.28600 48.48500
C  46.80700 3.14000 48.48500
C  48.24200 3.53300 48.93300
C  48.38400 5.02500 48.69700
C  46.91200 5.38400 48.49300
C  48.69500 3.12900 50.41500
C  49.30500 5.34600 47.55300
C  50.39700 6.38000 47.72000
N  44.08900 6.32800 48.11700
C  45.18600 7.19400 48.12700
C  44.76400 8.58100 47.84100
C  43.38600 8.47700 47.58000
C  43.04700 7.12100 47.81300
C  45.66700 9.68400 47.67600
C  42.16300 9.21700 47.29500
O  42.03600 10.36900 47.09400
C  40.99000 8.22400 47.31900
C  40.03300 8.52800 48.42900
O  40.22700 8.10100 49.57200
O  38.95400 9.21800 48.01400
C  37.79400 9.21300 48.89800
H  40.67500 1.25400 47.77700
H  47.04900 1.12500 48.47000
H  47.35800 7.37700 48.09900
H  38.96800 5.90600 47.49900
H  39.39800 3.15000 46.33300
H  39.30900 3.04800 49.36100
H  37.95400 2.56100 48.38900
H  38.10700 4.20800 48.85400
H  38.86600 4.75500 44.89300
H  40.23200 5.79400 44.74600
H  39.08700 7.58600 44.86800
H  37.69500 7.09100 45.84700
H  42.33900 -1.51200 46.79900
H  41.06000 -0.65500 47.68400
H  42.18500 -1.72200 48.52700
H  47.08100 -0.83200 49.28800
H  47.10500 -0.62300 47.51100
H  47.24700 -2.26100 48.28000
H  48.80500 2.89900 48.24800
H  48.61500 5.57900 49.60700
H  49.38700 2.29100 50.32700
H  47.79500 2.87400 50.97400
H  49.15300 3.97700 50.92400
H  48.64900 5.77400 46.79500
H  49.70500 4.42200 47.13500
H  50.71400 6.23900 48.75300
H  50.12400 7.41900 47.53400
H  51.18400 6.12700 47.00900
H  46.25800 9.77000 48.58800
H  45.06600 10.58900 47.59200
H  46.36900 9.53100 46.85700
H  40.41200 8.31100 46.39900
H  37.62100 10.26000 49.14700
H  37.89100 8.62800 49.81300
H  36.91500 8.85200 48.36400
Mg 48.44400 34.58400 27.27800
C  46.19200 33.48800 29.79800
C  49.29100 37.28400 29.22500
C  49.76300 36.03400 24.57600
C  46.93000 32.12200 25.13600
N  47.79200 35.26300 29.30400
C  46.92500 34.67100 30.14500
C  46.97500 35.41000 31.49600
C  47.62900 36.79900 31.11100
C  48.35000 36.45300 29.86600
C  46.61400 37.95400 30.87300
C  47.83700 34.54000 32.52000
C  47.28700 34.37800 33.92600
H  48.22500 34.87900 35.04300
N  49.46100 36.31300 26.97900
C  49.74600 37.28400 27.86800
C  50.55900 38.22700 27.20900
C  50.75300 37.92500 25.85900
C  49.94700 36.71900 25.74500
C  51.07500 39.46600 27.91000
C  51.45400 38.65700 24.77400
O  51.54400 38.14500 23.66200
C  52.17800 40.01800 25.09900
N  48.30000 34.14300 25.24700
C  49.05600 34.87800 24.32900
C  48.76000 34.37700 22.87400
C  48.16300 33.00900 23.18600
C  47.76400 33.08000 24.60300
C  47.84200 35.38400 22.13800
C  49.06900 31.76500 22.86200
C  50.15700 31.35100 23.83500
N  47.08200 32.96000 27.46500
C  46.62200 32.02000 26.50400
C  45.74600 31.00400 27.15900
C  45.50600 31.62100 28.42400
C  46.35500 32.75900 28.51400
C  45.20400 29.75100 26.52100
C  44.70800 31.48200 29.54700
O  43.89300 30.59100 29.80000
C  45.12100 32.67300 30.52400
C  45.55300 32.01600 31.80900
O  46.50200 31.26600 32.06600
O  44.55100 32.21200 32.74600
C  44.75000 31.77400 34.17900
H  49.48500 38.18600 29.80900
H  50.17400 36.40200 23.63400
H  46.66100 31.27100 24.50700
H  45.99900 35.55600 31.95800
H  48.37500 37.21800 31.78700
H  46.76100 38.80600 31.53600
H  45.57300 37.65900 31.00100
H  46.59400 38.31700 29.84500
H  48.87600 34.86600 32.55800
H  48.04200 33.59100 32.02400
H  47.18100 33.33700 34.23300
H  46.28800 34.81200 33.98600
H  50.34500 40.21500 27.59900
H  52.10000 39.60900 27.56800
H  51.12700 39.27900 28.98200
H  51.41300 40.61900 25.58900
H  52.60000 40.45500 24.19400
H  53.01100 39.77400 25.75800
H  49.65300 34.21000 22.27100
H  47.29700 32.90200 22.53300
H  47.74900 36.36400 22.60600
H  46.87900 34.91000 21.95000
H  48.27700 35.51700 21.14700
H  49.50700 32.10600 21.92500
H  48.44800 30.90000 22.62600
H  49.78200 30.42700 24.27600
H  50.40200 32.00900 24.66800
H  51.14200 31.20100 23.39300
H  45.87600 28.94500 26.81600
H  45.19800 29.85900 25.43600
H  44.20200 29.68500 26.94600
H  44.30500 33.36600 30.72700
H  45.35900 30.87000 34.20600
H  43.70100 31.58800 34.40700
H  45.13500 32.60900 34.76400

