158

Mg -12.84700 16.17000 41.38100
C  -9.88400 14.37800 40.70100
C  -11.45600 18.81800 39.70700
C  -15.79800 17.62700 41.74200
C  -14.17200 13.02600 42.36800
N  -10.96900 16.47000 40.14500
C  -9.94400 15.63800 40.16300
C  -8.66000 16.31400 39.53700
C  -9.09600 17.80900 39.20500
C  -10.57200 17.75300 39.72700
C  -8.31400 18.92000 39.90900
C  -8.10700 15.63500 38.23300
C  -6.55500 15.36900 38.23500
H  -5.62600 16.06200 37.26100
N  -13.55900 17.99000 40.86100
C  -12.78800 18.98800 40.30700
C  -13.55100 20.16100 40.27000
C  -14.82000 19.81900 40.86700
C  -14.76800 18.43100 41.25200
C  -13.10300 21.47800 39.69500
C  -15.95100 20.84500 40.95600
O  -15.83800 21.91400 40.36500
C  -17.24600 20.65200 41.75000
N  -14.75300 15.37600 41.62400
C  -15.81400 16.25200 41.91400
C  -17.03900 15.46400 42.33600
C  -16.43200 14.09100 42.73800
C  -15.01700 14.14800 42.16900
C  -17.73500 16.16600 43.55100
C  -17.33200 12.87700 42.33100
C  -17.61000 11.86800 43.42800
N  -12.18000 14.03200 41.55500
C  -12.79200 12.91200 42.06900
C  -11.86300 11.82200 42.23000
C  -10.71000 12.34300 41.59700
C  -10.96300 13.69000 41.27000
C  -12.12400 10.50600 42.89900
C  -9.32600 12.05400 41.33900
O  -8.68300 11.08300 41.66800
C  -8.66600 13.33700 40.61600
C  -7.44000 13.78700 41.40400
O  -7.42100 14.52200 42.39900
O  -6.35500 12.96800 41.04800
C  -4.98700 13.03300 41.62400
H  -10.99500 19.66200 39.19000
H  -16.75100 18.15900 41.76800
H  -14.60500 12.08800 42.72300
H  -7.86300 16.29000 40.28100
H  -9.10900 18.06900 38.14600
H  -8.81000 19.81700 40.28100
H  -7.52700 19.30200 39.26000
H  -7.79200 18.37700 40.69700
H  -8.16300 16.27300 37.35100
H  -8.53300 14.66400 37.97900
H  -6.42900 14.30100 38.05900
H  -6.17400 15.41400 39.25500
H  -13.53100 21.58900 38.69900
H  -12.02600 21.52500 39.53000
H  -13.34900 22.22800 40.44700
H  -16.87900 20.40700 42.74700
H  -17.91200 19.89100 41.34200
H  -17.68600 21.65000 41.76800
H  -17.69500 15.37300 41.47000
H  -16.29500 14.20000 43.81400
H  -17.97600 15.43500 44.32200
H  -18.67200 16.62200 43.23300
H  -17.09500 17.01300 43.79800
H  -16.78800 12.43700 41.49500
H  -18.23800 13.26400 41.86400
H  -16.97400 10.99600 43.27600
H  -18.60900 11.45000 43.31100
H  -17.67000 12.32300 44.41700
H  -11.26100 10.33200 43.54100
H  -12.26400 9.65300 42.23400
H  -12.97800 10.56500 43.57400
H  -8.45600 13.14400 39.56400
H  -4.67300 12.02000 41.87700
H  -5.01800 13.61800 42.54400
H  -4.28800 13.49400 40.92600
Mg -5.33400 25.23300 25.45300
C  -3.87100 26.63500 28.25700
C  -7.07100 23.17400 27.54400
C  -6.19000 23.42100 22.70700
C  -3.27500 27.20200 23.53400
N  -5.28700 24.85300 27.65400
C  -4.71500 25.59600 28.62400
C  -5.04300 25.17600 30.02600
C  -5.95100 23.93400 29.79000
C  -6.09200 23.92600 28.22700
C  -5.54400 22.54500 30.31600
C  -5.71900 26.29500 30.88500
C  -5.30600 26.44200 32.38000
H  -4.58600 25.27500 33.05900
N  -6.68900 23.62600 25.15100
C  -7.32200 22.99000 26.12900
C  -8.28600 22.09600 25.52800
C  -7.86600 22.03600 24.14400
C  -6.93000 23.09200 23.89300
C  -9.27800 21.27800 26.34100
C  -8.37400 21.09500 23.01200
O  -8.00800 21.19100 21.85200
C  -9.47900 20.11900 23.34700
N  -4.96300 25.41800 23.40700
C  -5.26700 24.48900 22.50200
C  -4.63200 24.77300 21.19700
C  -3.78400 26.08400 21.41800
C  -4.02900 26.22200 22.89500
C  -3.82200 23.52600 20.58000
C  -4.36300 27.35700 20.68000
C  -3.46400 27.92700 19.60700
N  -3.93800 26.69300 25.73600
C  -3.16800 27.39400 24.84700
C  -2.25800 28.28400 25.55400
C  -2.54200 28.07300 26.94400
C  -3.51300 27.05200 26.96900
C  -1.24900 29.13700 24.97200
C  -2.30500 28.52100 28.31800
O  -1.59900 29.43300 28.80100
C  -2.98500 27.42900 29.19700
C  -1.83600 26.69200 29.85600
O  -0.96000 26.08100 29.26800
O  -1.81200 26.82500 31.18500
C  -0.64700 26.28400 31.95300
H  -7.64900 22.58000 28.25500
H  -6.31900 22.82200 21.80400
H  -2.58400 27.70800 22.85600
H  -4.11100 24.90200 30.52100
H  -6.98500 23.98600 30.13000
H  -6.51000 22.13400 30.61100
H  -4.80300 22.51700 31.11500
H  -5.22700 21.88500 29.50900
H  -6.77800 26.04600 30.95700
H  -5.61100 27.27900 30.42900
H  -6.26100 26.51400 32.90000
H  -4.81300 27.38400 32.61900
H  -9.05300 20.21300 26.39100
H  -10.32100 21.34400 26.03200
H  -9.35500 21.65200 27.36200
H  -9.72900 19.52400 22.46900
H  -10.28000 20.83800 23.52100
H  -9.18700 19.52300 24.21100
H  -5.51900 24.97500 20.59800
H  -2.70800 25.92700 21.35000
H  -3.65800 22.81900 21.39300
H  -2.86000 23.89800 20.22600
H  -4.38300 23.08500 19.75500
H  -4.72300 28.15200 21.33400
H  -5.26300 27.02100 20.16500
H  -2.94300 28.85600 19.83700
H  -4.12100 28.10000 18.75500
H  -2.62100 27.26100 19.42200
H  -0.39000 29.42000 25.58100
H  -1.79000 29.99900 24.58300
H  -0.77000 28.65300 24.12100
H  -3.48900 28.05500 29.93300
H  0.31100 26.70200 31.64400
H  -0.63000 25.19800 31.86200
H  -0.82800 26.50500 33.00500

