158

Mg -11.24800 16.31800 42.55000
C  -8.02000 16.96600 42.89300
C  -11.97100 19.44000 41.65000
C  -14.42000 15.37900 42.24000
C  -10.40400 12.81800 42.40300
N  -10.17200 17.96100 42.05400
C  -8.79600 18.00000 42.31000
C  -8.32500 19.41700 42.05300
C  -9.62700 20.25700 41.82500
C  -10.67500 19.17400 41.85800
C  -9.92700 21.38400 42.86100
C  -7.34800 19.57000 40.83600
C  -6.20200 20.56500 40.93600
H  -4.90600 20.00200 40.39100
N  -13.04400 17.29600 42.07200
C  -13.12900 18.59500 41.76700
C  -14.50400 18.98800 41.57700
C  -15.26300 17.79500 41.74700
C  -14.29100 16.75400 41.96400
C  -14.97700 20.42300 41.40800
C  -16.77800 17.73600 41.58000
O  -17.42700 18.76500 41.35400
C  -17.56300 16.49200 41.81800
N  -12.28000 14.32300 42.18200
C  -13.57300 14.28400 42.39800
C  -13.97900 12.85600 42.71100
C  -12.77700 12.12500 42.07600
C  -11.69400 13.11300 42.18900
C  -14.22200 12.43400 44.13300
C  -13.06300 11.56900 40.73000
C  -13.51800 10.07500 40.63600
N  -9.56200 15.11000 42.77600
C  -9.40200 13.68900 42.75100
C  -7.99500 13.42000 43.03700
C  -7.43600 14.70100 43.19200
C  -8.44600 15.68800 43.06600
C  -7.30100 12.04300 43.12000
C  -6.17500 15.50800 43.55600
O  -5.01700 15.10900 43.83600
C  -6.64000 16.98400 43.36800
C  -6.50200 17.71800 44.64200
O  -7.08800 17.36000 45.63300
O  -5.72800 18.84700 44.51700
C  -5.36900 19.36600 45.85500
H  -12.21300 20.49500 41.50800
H  -15.45400 15.07700 42.41700
H  -10.24900 11.74000 42.47600
H  -7.83100 19.77200 42.95700
H  -9.76800 20.76600 40.87100
H  -10.40200 20.98100 43.75500
H  -10.55300 22.15300 42.40900
H  -9.06700 21.93300 43.24500
H  -7.87500 19.90500 39.94200
H  -6.99700 18.57000 40.58200
H  -5.99200 20.73000 41.99200
H  -6.41900 21.52200 40.46100
H  -14.14600 21.12600 41.34600
H  -15.55900 20.58500 42.31500
H  -15.49200 20.58400 40.46100
H  -18.64100 16.65600 41.81100
H  -17.24300 16.17400 42.81000
H  -17.30500 15.73200 41.08100
H  -14.91300 12.68700 42.17600
H  -12.54000 11.25900 42.69400
H  -15.22700 12.03600 44.27000
H  -14.00900 13.21000 44.86700
H  -13.60100 11.59400 44.44600
H  -12.11800 11.57900 40.18700
H  -13.81900 12.23200 40.30900
H  -13.11800 9.65900 41.56000
H  -13.22300 9.50600 39.75500
H  -14.60600 10.12300 40.58000
H  -8.10500 11.30800 43.16500
H  -6.76100 11.97200 44.06400
H  -6.73000 11.79300 42.22500
H  -5.83800 17.41500 42.76800
H  -4.87600 18.64100 46.50200
H  -6.22600 19.84100 46.33300
H  -4.60800 20.12400 45.67000
Mg -5.23100 25.48000 25.10600
C  -3.66500 26.91100 28.02700
C  -6.66600 23.27000 27.14400
C  -6.49600 24.31700 22.30900
C  -3.02300 27.65600 23.23100
N  -5.05900 25.08500 27.28900
C  -4.41900 25.78400 28.31600
C  -4.95100 25.34000 29.68600
C  -5.87400 24.15300 29.36000
C  -5.74400 24.05900 27.84400
C  -5.47300 22.76900 29.95100
C  -5.68900 26.55700 30.33200
C  -5.73500 26.53500 31.87100
H  -5.17000 25.30600 32.56500
N  -6.46800 24.05300 24.79500
C  -7.04000 23.25700 25.73900
C  -8.05200 22.53100 25.17500
C  -8.09300 22.81800 23.77200
C  -6.98700 23.76300 23.58900
C  -8.87900 21.60700 25.95900
C  -9.09400 22.37300 22.71400
O  -8.96300 22.61700 21.53800
C  -10.41500 21.73400 23.10000
N  -4.79100 25.94400 23.16400
C  -5.41100 25.24800 22.17600
C  -4.83000 25.58800 20.75700
C  -4.17300 26.95700 21.10600
C  -3.86300 26.80100 22.59000
C  -3.83000 24.46100 20.21500
C  -4.96900 28.22000 20.92600
C  -4.18500 29.42600 20.39900
N  -3.73700 27.06900 25.51300
C  -2.84900 27.74000 24.62100
C  -1.93300 28.66300 25.37500
C  -2.17900 28.28900 26.72100
C  -3.35900 27.41400 26.76900
C  -0.97400 29.63200 24.72600
C  -1.85300 28.49800 28.10100
O  -0.97200 29.26200 28.56000
C  -2.73600 27.68100 29.02000
C  -1.96000 26.77600 29.91000
O  -1.52800 25.64100 29.61300
O  -1.81300 27.45400 31.12200
C  -0.81900 26.91000 31.99800
H  -7.11800 22.57500 27.85500
H  -6.93700 23.75700 21.48200
H  -2.39300 28.35600 22.67800
H  -4.05800 25.00900 30.21700
H  -6.83600 24.48900 29.74700
H  -4.59800 22.85100 30.59500
H  -5.31500 22.00400 29.19100
H  -6.34900 22.45700 30.52100
H  -6.68600 26.63000 29.89600
H  -5.26200 27.51500 30.03400
H  -6.78100 26.60600 32.16800
H  -5.39600 27.49200 32.26700
H  -8.82600 20.59900 25.54700
H  -9.83100 22.13300 25.89500
H  -8.59100 21.60600 27.01000
H  -10.20600 20.68900 23.32600
H  -11.05400 21.76700 22.21700
H  -10.88600 22.23000 23.94900
H  -5.66100 25.71100 20.06300
H  -3.23300 27.11900 20.57800
H  -3.32600 24.00300 21.06600
H  -3.03300 24.96300 19.66700
H  -4.45200 23.77800 19.63700
H  -5.26000 28.59000 21.90900
H  -5.94200 28.17400 20.43700
H  -3.35100 29.13000 19.76200
H  -3.89500 30.06300 21.23400
H  -4.91600 30.05700 19.89300
H  -1.42800 30.61600 24.84300
H  -0.84200 29.49400 23.65300
H  0.01200 29.65400 25.19100
H  -3.24900 28.39100 29.66900
H  -1.31400 26.35000 32.79100
H  -0.11500 27.65300 32.37500
H  -0.20900 26.17600 31.47200

