158

Mg 48.66800 35.41000 26.77000
C  46.56100 33.79300 29.23400
C  49.12100 38.01700 28.96100
C  50.08200 36.99700 24.29600
C  48.00600 32.73700 24.64400
N  48.00100 35.75400 28.85300
C  47.17000 35.00600 29.70500
C  47.46100 35.55200 31.12900
C  47.77000 37.06100 30.84000
C  48.31600 36.90800 29.39400
C  46.46900 37.97700 30.96600
C  48.67500 34.86100 31.91600
C  48.75500 34.68400 33.39600
H  48.05700 35.68100 34.40400
N  49.48600 37.25700 26.64700
C  49.64100 38.14500 27.65200
C  50.41000 39.29000 27.14500
C  50.74000 39.02100 25.82700
C  50.04500 37.73200 25.52500
C  50.71100 40.55300 27.91000
C  51.59100 39.81700 24.81800
O  51.67700 39.45100 23.63800
C  52.21000 41.08200 25.32200
N  48.91800 34.95100 24.69700
C  49.53400 35.80800 23.87300
C  49.51700 35.25500 22.45400
C  49.15300 33.80800 22.70000
C  48.65800 33.81000 24.14500
C  48.53300 36.04500 21.46900
C  50.38400 32.82700 22.53600
C  50.04400 31.39100 22.04200
N  47.60100 33.53400 26.90200
C  47.43300 32.54500 25.89900
C  46.72300 31.44100 26.44900
C  46.34000 31.87700 27.70800
C  46.90900 33.13600 27.98800
C  46.34000 30.11700 25.76500
C  45.52900 31.55700 28.85800
O  44.94000 30.49800 29.15000
C  45.51100 32.88200 29.80200
C  45.71000 32.37100 31.20900
O  46.64600 31.65900 31.59500
O  44.69800 32.88000 32.08000
C  44.89400 32.57700 33.52300
H  49.16000 38.82900 29.69000
H  50.59800 37.47100 23.45800
H  48.09900 31.83000 24.04200
H  46.56400 35.38000 31.72300
H  48.57600 37.50500 31.42500
H  46.65600 38.89100 30.40200
H  46.36600 38.19300 32.03000
H  45.52600 37.52600 30.65800
H  49.61800 35.29800 31.58800
H  48.82000 33.83900 31.56500
H  49.82200 34.71100 33.61400
H  48.42200 33.74200 33.83100
H  51.76800 40.60100 28.17100
H  50.11200 40.55600 28.82000
H  50.36400 41.38900 27.30300
H  52.86800 40.94300 26.18000
H  51.50000 41.89200 25.48200
H  52.97700 41.23800 24.56300
H  50.51500 35.28100 22.01500
H  48.34100 33.55200 22.02000
H  48.11700 36.86100 22.05900
H  47.73200 35.43200 21.05500
H  49.09900 36.49600 20.65400
H  50.84800 32.77200 23.52100
H  51.03100 33.20200 21.74200
H  49.05500 31.34000 21.58700
H  50.11400 30.69000 22.87400
H  50.83900 31.04900 21.37900
H  45.88300 30.27300 24.78700
H  45.67700 29.46800 26.33800
H  47.21800 29.49900 25.57900
H  44.54100 33.37500 29.73800
H  44.22200 31.79900 33.88600
H  44.65100 33.49600 34.05700
H  45.91300 32.29100 33.78400
Mg 1.77000 42.66100 25.89900
C  2.78800 42.50200 29.34100
C  -1.25900 41.19500 26.87800
C  0.97200 42.35000 22.55700
C  4.95400 43.59000 25.07100
N  0.85800 42.01900 27.89200
C  1.41400 42.19000 29.17600
C  0.32500 41.75800 30.26400
C  -0.86100 41.15000 29.40100
C  -0.43100 41.53200 27.95300
C  -1.17800 39.61300 29.63400
C  -0.09200 42.97000 31.14800
C  -0.04700 42.79500 32.71700
H  -0.65600 41.56500 33.44800
N  0.11400 41.90300 24.88900
C  -1.02900 41.40200 25.47700
C  -1.95200 41.05900 24.41800
C  -1.41800 41.46200 23.11800
C  -0.02800 41.95600 23.49600
C  -3.29200 40.48700 24.63900
C  -1.96000 41.38800 21.67900
O  -1.37200 41.91400 20.78000
C  -3.20600 40.62800 21.43000
N  2.91500 42.78400 24.08200
C  2.30900 42.68700 22.82500
C  3.30700 43.20400 21.76100
C  4.40400 43.91400 22.57000
C  4.11500 43.34200 24.00500
C  3.80300 42.18400 20.69300
C  4.26500 45.47900 22.53700
C  2.94900 46.15500 22.75600
N  3.53300 43.06800 26.97800
C  4.79100 43.38300 26.43900
C  5.75900 43.40200 27.56700
C  5.00400 43.08200 28.72400
C  3.66700 42.92500 28.31400
C  7.19600 43.64900 27.43900
C  5.03800 42.93300 30.20400
O  5.96000 43.00400 30.98000
C  3.64100 42.51900 30.66100
C  3.70400 41.12800 31.24900
O  4.33300 40.20000 30.84000
O  3.09800 41.13200 32.50200
C  3.12800 39.82100 33.11900
H  -2.14600 40.59900 27.10200
H  0.69700 42.34400 21.50000
H  5.94900 43.98500 24.85400
H  0.82400 40.98600 30.85000
H  -1.73700 41.75800 29.62800
H  -2.18100 39.42200 30.01600
H  -0.47400 39.24400 30.38000
H  -1.02400 39.10600 28.68100
H  -1.12000 43.25400 30.92200
H  0.52600 43.85800 31.01800
H  -0.47300 43.71400 33.12100
H  0.97500 42.86700 33.08900
H  -3.54900 39.61300 24.04100
H  -4.07200 41.24500 24.56300
H  -3.31400 39.97400 25.60000
H  -3.30300 40.56500 20.34600
H  -4.02400 40.88600 22.10200
H  -2.97400 39.58400 21.64100
H  2.93600 43.97700 21.08800
H  5.44900 43.74000 22.31300
H  3.91500 41.21500 21.17800
H  4.64100 42.58100 20.11900
H  3.02400 41.92900 19.97500
H  4.57200 45.67000 21.50900
H  4.99000 45.81900 23.27700
H  3.00500 46.80500 23.62900
H  2.14900 45.44800 22.97400
H  2.69500 46.74100 21.87300
H  7.34000 44.71700 27.60300
H  7.42300 43.40800 26.40000
H  7.77200 43.13000 28.20500
H  3.28900 43.17900 31.45400
H  3.05400 40.06100 34.18000
H  4.02600 39.22100 32.97200
H  2.30800 39.19400 32.77100

