158

Mg 41.45800 41.14000 25.98800
C  40.65900 43.44500 28.43600
C  42.49800 38.97500 28.49400
C  42.50500 39.05700 23.55400
C  41.11000 43.68300 23.49200
N  41.71600 41.29200 28.21700
C  41.11800 42.22200 28.93700
C  41.17700 41.87800 30.44300
C  41.81900 40.46700 30.42400
C  42.06500 40.21100 29.01600
C  43.08100 40.38700 31.24600
C  39.74700 41.81700 31.07500
C  39.73300 41.72400 32.63000
H  39.24200 43.00800 33.47600
N  42.10800 39.20000 26.04700
C  42.49500 38.45200 27.15200
C  42.87800 37.18300 26.65200
C  42.69100 37.14300 25.27400
C  42.49800 38.54300 24.90800
C  43.25700 35.99800 27.57800
C  42.66500 35.87700 24.36000
O  42.35400 36.02800 23.18400
C  42.84500 34.40900 24.91000
N  41.83300 41.37400 23.84100
C  42.19200 40.33100 23.04900
C  42.18000 40.79200 21.49600
C  41.63100 42.22100 21.52300
C  41.50700 42.46600 23.01500
C  43.57700 40.61500 20.88100
C  40.31100 42.43700 20.77900
C  39.03100 41.90700 21.51100
N  40.96700 43.15300 25.91500
C  40.94000 44.05700 24.85800
C  40.52200 45.36700 25.38500
C  40.35400 45.17100 26.83600
C  40.71900 43.79100 27.06800
C  40.27600 46.64100 24.63800
C  39.98800 45.82800 28.11900
O  39.72100 47.01600 28.45300
C  40.16400 44.72700 29.21100
C  41.20400 45.22200 30.14800
O  42.31400 45.62700 29.83600
O  40.70800 45.17100 31.35200
C  41.64200 45.43400 32.50700
H  42.85900 38.23600 29.21300
H  42.83900 38.23900 22.91300
H  41.07400 44.47800 22.74400
H  41.75600 42.58500 31.03700
H  41.16000 39.63100 30.65600
H  42.97100 39.71000 32.09300
H  43.20300 41.40100 31.62700
H  43.98000 40.16000 30.67400
H  39.35400 40.82100 30.86900
H  39.07500 42.60000 30.72400
H  40.69600 41.39800 33.02400
H  38.97900 41.01000 32.96000
H  42.47900 35.25000 27.73100
H  43.23300 36.33800 28.61300
H  44.25100 35.63700 27.31400
H  43.65600 34.39200 25.63700
H  43.23300 33.83400 24.06800
H  41.91700 33.96400 25.26800
H  41.45300 40.16600 20.97900
H  42.36000 42.92000 21.11500
H  44.33300 40.58000 21.66500
H  44.05400 41.32800 20.20900
H  43.64200 39.66900 20.34300
H  40.29000 41.89900 19.83100
H  40.17000 43.50100 20.58700
H  38.34800 42.72000 21.75900
H  39.23500 41.26800 22.37000
H  38.52400 41.28200 20.77600
H  41.19000 47.23500 24.66000
H  39.51700 47.22600 25.15700
H  39.89400 46.37000 23.65400
H  39.18500 44.54900 29.65700
H  41.15100 45.17000 33.44400
H  41.99200 46.45800 32.38300
H  42.45300 44.72700 32.32900
Mg -2.26300 35.03300 26.69200
C  -3.87600 32.94900 29.16500
C  -0.77600 36.64600 29.25500
C  -1.12400 37.04800 24.39300
C  -3.95900 33.05200 24.25400
N  -2.48500 34.80100 28.99000
C  -3.08500 33.89200 29.79800
C  -2.77300 34.06500 31.24500
C  -1.76600 35.27600 31.27400
C  -1.63200 35.61500 29.73700
C  -2.28200 36.44200 32.14400
C  -2.07400 32.89700 31.87900
C  -2.72100 32.20800 33.09000
H  -1.81500 31.93800 34.26400
N  -1.11800 36.72300 26.83700
C  -0.57500 37.17500 27.95400
C  0.39700 38.20500 27.61300
C  0.33900 38.32500 26.21000
C  -0.72500 37.42300 25.75100
C  1.15300 39.09900 28.62400
C  1.14900 39.12600 25.32200
O  0.95500 39.10100 24.10900
C  2.21700 40.11100 25.81200
N  -2.59800 35.10100 24.69700
C  -1.95500 36.05100 23.90900
C  -2.13500 35.78100 22.39400
C  -2.83000 34.33900 22.32200
C  -3.07900 34.08400 23.88800
C  -2.92000 36.93900 21.64300
C  -1.90800 33.27100 21.70400
C  -0.75400 32.85700 22.54600
N  -3.74500 33.40800 26.67500
C  -4.28000 32.69200 25.61100
C  -5.07400 31.60200 26.08900
C  -4.96300 31.68000 27.49000
C  -4.09500 32.75200 27.75500
C  -5.80700 30.64100 25.25600
C  -5.31400 31.00000 28.73800
O  -6.03400 30.02700 28.99400
C  -4.64400 31.81100 29.82400
C  -5.67800 32.28000 30.77300
O  -6.24100 33.37000 30.68200
O  -5.95700 31.32800 31.76700
C  -6.72000 31.87300 32.93700
H  -0.11600 37.07600 30.01100
H  -0.64000 37.56300 23.56000
H  -4.20900 32.28900 23.51400
H  -3.74200 34.30300 31.68500
H  -0.76200 35.02400 31.61500
H  -1.76300 37.36100 31.87400
H  -1.94100 36.08900 33.11700
H  -3.37100 36.49900 32.17000
H  -1.09300 33.12900 32.29500
H  -1.87000 32.05100 31.22400
H  -3.11800 31.21500 32.87700
H  -3.59600 32.75100 33.44800
H  0.68500 40.07300 28.76700
H  2.20000 39.30600 28.40100
H  1.09500 38.62200 29.60200
H  2.62500 40.76500 25.04200
H  3.04100 39.63900 26.34800
H  1.75700 40.80900 26.51100
H  -1.09000 35.65400 22.11200
H  -3.65300 34.48000 21.62200
H  -2.99600 37.78200 22.33000
H  -3.95700 36.65900 21.45800
H  -2.39000 37.45300 20.84200
H  -1.45200 33.57900 20.76400
H  -2.59300 32.43700 21.55200
H  -0.81900 31.77600 22.66300
H  -0.81400 33.43900 23.46600
H  0.20200 33.00200 22.04300
H  -5.19600 30.35300 24.40100
H  -6.69400 31.20500 24.96800
H  -6.04300 29.75800 25.84900
H  -3.91800 31.22300 30.38700
H  -6.18100 32.70200 33.39500
H  -6.91100 31.02700 33.59700
H  -7.73600 32.23300 32.77400

