158

Mg 47.71500 25.16900 28.31800
C  48.89300 27.14800 30.98500
C  46.85100 22.70100 30.57900
C  47.42500 23.04900 25.74000
C  49.07500 27.46700 26.07800
N  47.78100 25.05400 30.52700
C  48.33600 25.92000 31.43000
C  48.16300 25.39900 32.88700
C  47.42700 24.03800 32.68900
C  47.33400 23.92800 31.16600
C  48.12200 22.85000 33.40400
C  47.50400 26.33900 33.93400
C  46.47200 25.96700 34.94500
H  46.57000 26.55300 36.39500
N  47.13300 23.22100 28.18600
C  46.77100 22.35200 29.20500
C  46.24400 21.12300 28.69300
C  46.51400 21.15000 27.29800
C  46.98900 22.53700 26.99800
C  45.67000 20.06800 29.55400
C  46.31000 20.10500 26.23700
O  46.66700 20.26800 25.08700
C  45.82800 18.75800 26.72700
N  48.38000 25.18600 26.19000
C  47.91700 24.24300 25.30500
C  48.09500 24.60200 23.82600
C  48.42100 26.10200 23.96200
C  48.62100 26.29500 25.48900
C  49.24300 23.70800 23.27400
C  47.31800 27.04000 23.37300
C  46.04100 27.00800 24.13000
N  48.71100 26.96800 28.40100
C  49.15700 27.83800 27.38700
C  49.66100 28.98100 28.03000
C  49.45400 28.81300 29.34200
C  49.05700 27.47800 29.59600
C  50.22500 30.18900 27.49700
C  49.59500 29.52200 30.64000
O  49.96800 30.66900 30.89100
C  49.28000 28.40500 31.72100
C  50.53000 28.14700 32.46700
O  51.51200 27.61700 32.03600
O  50.37600 28.55700 33.74200
C  51.42400 28.16200 34.74200
H  46.36500 22.04800 31.30800
H  47.26500 22.37700 24.89400
H  49.31600 28.20700 25.31200
H  49.15800 25.18900 33.27800
H  46.43200 24.12400 33.12600
H  48.33000 23.17300 34.42400
H  48.98700 22.48000 32.85400
H  47.40000 22.03400 33.43800
H  47.21500 27.20600 33.34100
H  48.35400 26.55200 34.58300
H  46.44000 24.88500 35.08000
H  45.46000 26.23800 34.64500
H  44.59300 20.05600 29.38900
H  45.90200 20.17600 30.61400
H  46.09400 19.12500 29.20800
H  46.47300 18.10300 27.31400
H  45.50500 18.18000 25.86100
H  44.85600 18.94900 27.18000
H  47.13900 24.46800 23.31900
H  49.37600 26.36400 23.50700
H  49.73100 24.16100 22.41100
H  48.79700 22.76000 22.97300
H  50.02900 23.54400 24.01100
H  47.07200 26.89200 22.32100
H  47.82300 27.98300 23.58300
H  46.08400 26.45700 25.07000
H  45.33400 26.39800 23.56600
H  45.65900 28.01000 24.32400
H  51.10600 30.35900 28.11600
H  49.48500 30.98000 27.61600
H  50.60100 30.01900 26.48800
H  48.49600 28.66600 32.43100
H  52.32300 27.99200 34.15000
H  51.10600 27.21800 35.18600
H  51.58000 29.03400 35.37800
Mg 48.66500 35.56100 28.45200
C  46.92000 33.65700 30.68600
C  48.87900 38.16000 30.87500
C  49.86500 37.66900 26.10100
C  47.86000 33.29600 25.91600
N  47.96000 35.87100 30.43700
C  47.40100 34.87300 31.16700
C  47.64300 35.19500 32.64600
C  47.65000 36.78600 32.63000
C  48.21200 37.00500 31.21200
C  46.26600 37.52000 32.71600
C  48.94700 34.58100 33.20500
C  49.31900 34.69400 34.70300
H  48.32100 35.32300 35.74200
N  49.40800 37.50300 28.46800
C  49.43200 38.33900 29.55800
C  50.17200 39.63500 29.16400
C  50.56900 39.43500 27.78800
C  49.97000 38.11100 27.42300
C  50.53100 40.76700 30.08000
C  51.22600 40.44600 26.80600
O  51.53400 40.24900 25.60300
C  51.45500 41.90200 27.24400
N  48.80200 35.51600 26.32500
C  49.37900 36.48900 25.59400
C  49.34600 36.12800 24.14600
C  48.93400 34.62300 24.10500
C  48.51000 34.45900 25.54100
C  48.42700 37.09300 23.35000
C  50.20800 33.75300 23.76500
C  50.71000 33.79800 22.30800
N  47.66100 33.81800 28.25400
C  47.52500 32.93500 27.24600
C  46.90600 31.69300 27.70700
C  46.62200 31.88500 29.10600
C  47.07000 33.23500 29.32100
C  46.51300 30.50200 26.83100
C  46.03900 31.34200 30.32500
O  45.38400 30.29600 30.56900
C  46.09800 32.54400 31.27300
C  46.46200 32.12700 32.61000
O  47.21500 31.23900 32.86900
O  45.70200 32.81400 33.49200
C  45.71200 32.34000 34.92700
H  49.13700 38.91100 31.62400
H  50.21000 38.32400 25.29800
H  47.72100 32.55100 25.13000
H  46.77000 34.85300 33.20200
H  48.24600 37.21600 33.43500
H  46.14600 38.15400 31.83800
H  46.17100 38.04500 33.66600
H  45.41700 36.85800 32.88800
H  49.75900 34.99800 32.60800
H  49.08600 33.53400 32.93700
H  50.27400 35.17600 34.91100
H  49.43400 33.70600 35.14800
H  50.13200 41.76600 29.90300
H  51.60400 40.82800 30.26000
H  50.14700 40.68500 31.09700
H  52.02600 42.44500 26.49000
H  52.13300 41.86200 28.09700
H  50.53700 42.39800 27.56000
H  50.38500 36.17100 23.81900
H  48.17300 34.26400 23.41100
H  47.76300 37.66000 24.00300
H  47.80400 36.52700 22.65800
H  49.09800 37.73400 22.78000
H  49.92700 32.73000 24.01300
H  50.94900 34.10100 24.48400
H  50.45600 34.67000 21.70500
H  50.29500 32.97000 21.73400
H  51.77800 33.59000 22.23600
H  45.82700 30.75700 26.02300
H  46.23200 29.66500 27.46900
H  47.49400 30.25900 26.42200
H  45.04700 32.83100 31.31400
H  45.51300 33.18000 35.59300
H  46.68200 31.90600 35.17000
H  44.92400 31.63900 35.20100

