158

Mg 36.31600 49.74200 24.92000
C  36.65100 48.05500 28.01800
C  35.00200 52.30200 26.75000
C  35.56700 51.18000 22.02400
C  37.32600 46.87300 23.34300
N  35.78700 50.11900 27.13900
C  36.14000 49.32700 28.19900
C  35.83900 49.96200 29.55200
C  35.02700 51.22900 29.11000
C  35.25700 51.24800 27.58100
C  33.56200 51.18500 29.46800
C  37.04300 50.27600 30.49800
C  36.83800 50.03200 32.00800
H  35.43800 50.24400 32.58300
N  35.57800 51.52500 24.42900
C  35.07200 52.43600 25.34000
C  34.74400 53.64600 24.65600
C  34.94300 53.37800 23.21900
C  35.33300 51.96700 23.17900
C  33.99100 54.85000 25.28500
C  34.60700 54.23500 22.02800
O  34.68100 53.89400 20.84300
C  34.34900 55.71800 22.19500
N  36.29700 49.11700 22.97300
C  35.98900 49.91500 21.91800
C  36.21200 49.22800 20.52700
C  37.10800 47.97700 21.00000
C  36.99200 48.02100 22.54700
C  34.87800 48.89600 19.90400
C  38.49900 48.03600 20.33000
C  39.81500 48.01800 21.21900
N  36.94400 47.82800 25.50700
C  37.30600 46.76100 24.73500
C  37.68500 45.60700 25.52600
C  37.43600 46.08200 26.83900
C  36.92300 47.44300 26.78000
C  38.15100 44.35300 25.08900
C  37.31000 45.66100 28.22400
O  37.64700 44.59100 28.69200
C  36.89300 46.94000 28.93900
C  35.73300 46.56800 29.85400
O  34.55800 46.43100 29.54400
O  36.24900 46.18500 31.08300
C  35.23900 45.45700 31.97100
H  34.55900 53.17100 27.24200
H  35.35300 51.71500 21.09600
H  37.62700 45.91200 22.92100
H  35.20800 49.25200 30.08800
H  35.46600 52.16900 29.44400
H  33.16100 50.22800 29.80000
H  32.94100 51.61300 28.68000
H  33.35900 51.82600 30.32600
H  37.32900 51.31900 30.36000
H  37.83200 49.62500 30.12300
H  37.51600 50.75100 32.46700
H  37.22800 49.04900 32.27100
H  34.43200 55.80100 24.98500
H  33.94200 54.92600 26.37100
H  32.95900 54.68300 24.97900
H  34.33000 56.17500 21.20500
H  35.05500 56.29900 22.78900
H  33.37100 55.77800 22.67200
H  36.75300 49.92900 19.89100
H  36.55800 47.07100 20.74400
H  34.86500 49.21800 18.86300
H  34.08900 49.46300 20.39800
H  34.63700 47.83600 19.82500
H  38.47800 48.84300 19.59700
H  38.52700 47.09800 19.77500
H  40.37900 47.18600 20.79800
H  39.59400 47.91700 22.28200
H  40.37200 48.94700 21.10300
H  37.31200 43.74200 24.75500
H  38.64500 43.75100 25.85200
H  38.84500 44.63000 24.29600
H  37.69000 47.31300 29.58200
H  34.78700 44.59900 31.47200
H  34.48000 46.15000 32.33500
H  35.77100 45.18100 32.88100
Mg -12.05700 16.63700 41.57200
C  -9.07000 14.87100 40.81900
C  -10.43400 19.47900 40.00700
C  -14.95100 18.17700 41.63200
C  -13.47500 13.66200 42.75900
N  -10.00400 17.15700 40.60300
C  -8.99700 16.27900 40.42900
C  -7.73400 16.91200 39.80000
C  -8.12500 18.38400 39.48900
C  -9.61800 18.35100 40.05100
C  -7.23100 19.48700 40.20900
C  -7.24100 16.17400 38.48500
C  -5.72200 16.15600 38.18800
H  -5.23100 16.97000 37.02700
N  -12.58100 18.52200 40.98600
C  -11.81900 19.57100 40.39500
C  -12.71100 20.62400 40.11400
C  -13.94500 20.41000 40.66300
C  -13.88300 19.00200 41.10600
C  -12.24800 21.79400 39.26700
C  -15.14200 21.38900 40.96000
O  -15.16100 22.56800 40.44300
C  -16.33600 21.05000 41.78900
N  -13.94700 15.98700 42.11000
C  -14.99300 16.85500 42.08500
C  -16.35500 16.01900 42.38200
C  -15.75600 14.54900 42.68800
C  -14.25800 14.75600 42.60200
C  -17.24900 16.71400 43.44400
C  -16.40400 13.46200 41.81100
C  -17.29400 12.53200 42.58200
N  -11.41700 14.72800 42.01100
C  -12.08600 13.60700 42.53100
C  -11.18800 12.53100 42.61200
C  -10.00700 13.02500 42.01600
C  -10.24600 14.29500 41.52400
C  -11.30500 11.20400 43.21500
C  -8.63200 12.53300 41.66800
O  -8.21000 11.40300 41.86100
C  -7.96800 13.80000 40.87400
C  -6.82100 14.24100 41.68900
O  -6.78200 14.58500 42.87800
O  -5.81200 14.28900 40.76700
C  -4.48500 14.48000 41.41800
H  -10.02400 20.32200 39.44800
H  -15.82600 18.68200 41.21800
H  -13.97700 12.82800 43.25400
H  -6.89300 16.86900 40.49200
H  -8.26900 18.71800 38.46200
H  -7.83000 20.16500 40.81700
H  -6.56900 20.00900 39.51900
H  -6.47400 19.03100 40.84700
H  -7.61900 16.66800 37.58900
H  -7.51500 15.12300 38.38800
H  -5.32600 15.14100 38.21700
H  -5.18300 16.49500 39.07300
H  -13.06400 21.96300 38.56400
H  -11.37800 21.46400 38.69900
H  -11.99200 22.68300 39.84400
H  -16.79600 22.00900 42.02800
H  -16.10300 20.54000 42.72400
H  -16.94600 20.51700 41.06000
H  -16.91700 15.99600 41.44800
H  -15.95400 14.27000 43.72300
H  -17.24500 17.79800 43.32600
H  -17.05900 16.41000 44.47300
H  -18.27600 16.50500 43.14400
H  -15.65400 12.85600 41.30300
H  -16.96400 13.95600 41.01700
H  -18.33400 12.61800 42.26800
H  -17.29000 12.84800 43.62500
H  -16.92400 11.51000 42.49600
H  -12.01900 11.32500 44.03000
H  -10.35500 10.90100 43.65600
H  -11.65200 10.43000 42.53000
H  -7.69800 13.25000 39.97300
H  -3.75700 14.36800 40.61400
H  -4.35000 13.81600 42.27200
H  -4.24300 15.48700 41.75700

