158

Mg 23.86200 -7.51100 47.17000
C  26.49600 -5.32600 46.08900
C  21.90700 -6.16400 44.85000
C  21.74300 -9.94700 47.93700
C  26.41400 -9.26800 49.08400
N  24.26700 -5.92900 45.47200
C  25.29000 -5.05700 45.41500
C  25.00600 -3.96600 44.35600
C  23.45900 -4.21100 44.10800
C  23.19900 -5.56400 44.79300
C  22.55300 -3.08000 44.59700
C  25.89500 -4.06700 43.03500
C  26.24600 -2.76200 42.44200
H  27.00800 -2.79300 41.09100
N  22.04400 -8.00400 46.46200
C  21.34400 -7.18700 45.61900
C  19.93800 -7.56600 45.74500
C  19.89500 -8.71700 46.57600
C  21.22700 -8.92900 47.07000
C  18.98500 -6.82100 44.90200
C  18.62900 -9.47800 47.01900
O  17.54000 -9.11800 46.60700
C  18.57100 -10.45100 48.06900
N  24.06700 -9.30700 48.36900
C  22.94100 -10.10700 48.50100
C  23.24500 -11.31700 49.34200
C  24.82000 -11.19500 49.58000
C  25.17600 -9.85700 48.98100
C  22.37600 -11.42000 50.67000
C  25.79500 -12.37400 49.15900
C  26.77700 -12.82000 50.28000
N  25.91900 -7.19000 47.65900
C  26.79800 -8.06900 48.36500
C  28.13800 -7.53600 48.38800
C  28.01800 -6.30200 47.53300
C  26.68600 -6.27300 47.05900
C  29.39200 -7.96300 49.13000
C  28.78600 -5.29700 46.87700
O  29.97600 -4.99000 46.87500
C  27.86000 -4.63800 45.93400
C  27.76300 -3.17500 46.11400
O  27.08100 -2.61800 46.93600
O  28.56500 -2.55900 45.14000
C  28.81400 -1.16200 45.25100
H  21.16200 -5.61100 44.27400
H  21.04900 -10.78100 48.05700
H  27.26300 -9.67300 49.63900
H  25.07300 -3.01200 44.88000
H  23.25400 -4.26300 43.03800
H  21.81000 -2.94500 43.81100
H  23.08500 -2.15000 44.79600
H  22.15500 -3.37800 45.56700
H  25.38800 -4.67900 42.28800
H  26.74800 -4.74300 43.09900
H  26.79300 -2.30700 43.26800
H  25.24700 -2.42100 42.17000
H  19.09000 -5.74700 45.05700
H  17.94500 -7.06600 45.11400
H  19.14500 -6.98500 43.83700
H  19.07100 -11.35600 47.72600
H  17.53600 -10.63900 48.35300
H  19.05700 -10.10700 48.98200
H  23.08000 -12.11400 48.61700
H  24.99900 -11.17300 50.65500
H  21.55100 -10.72600 50.82900
H  22.97500 -11.25600 51.56600
H  21.99200 -12.42300 50.85700
H  26.37300 -12.09500 48.27800
H  25.20600 -13.25600 48.90800
H  27.56000 -13.40100 49.79300
H  26.27500 -13.50400 50.96400
H  27.21600 -12.04900 50.91300
H  29.19900 -8.86800 49.70600
H  29.70100 -7.16800 49.80900
H  30.21900 -8.13400 48.44200
H  28.21800 -4.87100 44.93100
H  29.55600 -0.81400 44.53200
H  29.26200 -0.95200 46.22200
H  27.87000 -0.63200 45.12200
Mg 46.75900 34.63800 28.67900
C  45.19300 32.35100 30.72500
C  46.71800 36.89200 31.19100
C  47.83100 36.91700 26.45800
C  46.04100 32.41400 25.85900
N  46.16600 34.53600 30.71600
C  45.47900 33.52800 31.43500
C  45.30800 33.87700 32.91500
C  45.27800 35.43000 32.75300
C  46.15800 35.62000 31.48500
C  43.82900 35.99200 32.63500
C  46.41200 33.20000 33.90200
C  47.40900 33.94300 34.76000
H  46.91200 34.47700 36.15800
N  47.53300 36.57300 28.92400
C  47.46800 37.36100 30.04500
C  48.16400 38.53800 29.88900
C  48.49100 38.58500 28.48600
C  47.92700 37.37400 27.86000
C  48.46700 39.40800 31.04100
C  49.25100 39.59600 27.71100
O  49.55500 39.38600 26.52200
C  49.63300 40.95200 28.32000
N  46.89800 34.61800 26.47700
C  47.35500 35.72400 25.85700
C  47.39100 35.49900 24.32500
C  46.81800 34.06500 24.19800
C  46.63000 33.61800 25.60100
C  46.79300 36.65200 23.46000
C  47.61000 33.08600 23.25600
C  46.85200 32.56100 22.02000
N  45.86900 32.75500 28.33200
C  45.67400 31.93400 27.16900
C  44.90500 30.76400 27.49700
C  44.76700 30.83100 28.94300
C  45.22100 32.08200 29.34200
C  44.47200 29.71300 26.61800
C  44.27400 30.18600 30.14900
O  43.80900 29.10200 30.30300
C  44.37300 31.24600 31.25300
C  44.70900 30.63300 32.60300
O  45.73400 30.12500 32.97500
O  43.59400 30.86900 33.39900
C  43.79200 30.40700 34.81500
H  46.56700 37.68400 31.92800
H  48.15600 37.68800 25.75700
H  45.68000 31.78900 25.04000
H  44.40200 33.55900 33.43000
H  45.76100 35.94900 33.58100
H  43.31400 35.72600 33.55800
H  43.28300 35.61500 31.77100
H  43.89100 37.08000 32.64600
H  46.97600 32.48700 33.30200
H  45.76800 32.84000 34.70500
H  47.55100 34.88000 34.22200
H  48.39000 33.46800 34.76300
H  47.72200 40.20200 31.08500
H  49.37600 39.99400 30.90200
H  48.70800 39.00300 32.02400
H  48.87000 41.47800 28.89400
H  49.91200 41.51100 27.42700
H  50.45900 40.72300 28.99300
H  48.44700 35.42000 24.06600
H  45.75300 34.09400 23.97100
H  46.11200 37.28100 24.03200
H  46.12600 36.12100 22.78100
H  47.57900 37.15400 22.89500
H  47.90300 32.14400 23.72000
H  48.54300 33.55800 22.94900
H  47.54200 32.47400 21.18100
H  46.02600 33.12800 21.58900
H  46.56200 31.53500 22.24500
H  45.33900 29.24600 26.15000
H  43.80800 30.14000 25.86700
H  44.05900 28.84500 27.13200
H  43.38500 31.70000 31.33300
H  43.74600 29.32800 34.96000
H  43.08100 31.02500 35.36200
H  44.82100 30.52000 35.15600

