158

Mg -1.81300 34.04500 26.58500
C  -3.56600 32.07100 28.70700
C  -0.24300 35.64200 29.17800
C  -0.32900 36.24800 24.30400
C  -3.44200 32.49700 23.85800
N  -1.98600 33.86300 28.69700
C  -2.67000 32.91600 29.34600
C  -2.30700 32.93900 30.85300
C  -1.35300 34.16700 30.93900
C  -1.15800 34.56900 29.54900
C  -1.87100 35.29900 31.90300
C  -1.76600 31.63600 31.47400
C  -2.42500 31.20400 32.83300
H  -1.54800 30.84200 34.07500
N  -0.49200 35.72400 26.72200
C  0.12700 36.17400 27.89200
C  1.03000 37.17500 27.62100
C  1.11400 37.21200 26.16500
C  0.03400 36.35400 25.64000
C  1.80500 38.03900 28.76400
C  2.14100 38.06800 25.31300
O  2.08900 38.09700 24.08400
C  3.14100 38.91000 25.93100
N  -2.00700 34.49200 24.38200
C  -1.27800 35.42500 23.68300
C  -1.33200 35.13200 22.13900
C  -2.28300 33.96000 22.08700
C  -2.58300 33.58200 23.56500
C  -1.87400 36.36900 21.36100
C  -1.67900 32.87000 21.19400
C  -0.78900 31.75300 21.93200
N  -3.24800 32.57500 26.25200
C  -3.84600 31.99700 25.09900
C  -4.75100 30.94600 25.47700
C  -4.63400 30.92900 26.90000
C  -3.80700 31.94200 27.29500
C  -5.53600 30.05100 24.52700
C  -5.18200 30.25100 28.12000
O  -6.02200 29.27900 28.25200
C  -4.44800 30.97400 29.35300
C  -5.49900 31.43300 30.32700
O  -6.14500 32.47700 30.28300
O  -5.52600 30.53500 31.32600
C  -6.31700 30.90900 32.54900
H  0.39800 36.09300 29.93800
H  0.24800 36.84900 23.59700
H  -3.97900 32.10900 22.99000
H  -3.26600 33.15900 31.32200
H  -0.39500 33.71400 31.19600
H  -2.91300 35.10300 32.15900
H  -1.79200 36.23600 31.35200
H  -1.21500 35.29400 32.77300
H  -0.71800 31.85100 31.68400
H  -1.80400 30.87000 30.70000
H  -2.96900 30.27800 32.65300
H  -3.13900 31.99900 33.05000
H  2.81100 37.64900 28.91500
H  1.25800 38.05400 29.70700
H  1.85300 39.05400 28.37000
H  2.57300 39.71100 26.40400
H  3.65900 39.44600 25.13500
H  3.77500 38.33100 26.60300
H  -0.27000 34.92500 22.01100
H  -3.23400 34.15200 21.59000
H  -2.86100 36.15400 20.95200
H  -1.15100 36.69200 20.61300
H  -1.97800 37.26800 21.96800
H  -1.11200 33.24900 20.34400
H  -2.54400 32.34600 20.78800
H  -0.41200 32.28400 22.80600
H  0.15800 31.62200 21.40900
H  -1.33200 30.80900 21.97400
H  -6.24200 29.43000 25.07900
H  -4.86700 29.43500 23.92500
H  -6.11300 30.66800 23.83800
H  -3.80600 30.22000 29.80700
H  -5.69600 31.44300 33.26900
H  -6.85700 30.02600 32.88900
H  -7.17900 31.49700 32.23400
Mg -11.57700 16.18000 42.44200
C  -8.17700 17.16600 42.30700
C  -12.40500 19.50600 42.22700
C  -14.85100 15.24400 42.07900
C  -10.59900 12.84900 42.29200
N  -10.38300 18.12500 42.37300
C  -9.05700 18.27400 42.28600
C  -8.65600 19.71100 41.98400
C  -10.06600 20.46500 42.34800
C  -11.05600 19.33000 42.30100
C  -9.94400 21.21900 43.73300
C  -8.19100 19.84300 40.42000
C  -7.04500 20.79300 40.10600
H  -6.02400 20.18900 39.09100
N  -13.39400 17.18600 42.33800
C  -13.48700 18.62700 42.22500
C  -14.87700 18.93200 42.12900
C  -15.61500 17.71000 42.15900
C  -14.64800 16.63000 42.21300
C  -15.32900 20.25700 41.99500
C  -17.17700 17.63900 42.22600
O  -17.83200 18.66200 42.29800
C  -17.97000 16.28600 42.36100
N  -12.56900 14.34300 42.31900
C  -13.91200 14.21100 42.18400
C  -14.29400 12.75800 42.28000
C  -12.99000 11.97400 42.00600
C  -11.96300 13.09600 42.27300
C  -14.78900 12.52200 43.62600
C  -12.86000 11.47900 40.52100
C  -13.60200 10.20400 40.35100
N  -9.75900 15.20300 42.15600
C  -9.49100 13.79900 42.22200
C  -8.07100 13.52600 42.24800
C  -7.52900 14.84400 42.24500
C  -8.61200 15.81200 42.24600
C  -7.40500 12.18700 42.45000
C  -6.28900 15.62500 42.36300
O  -5.11800 15.28800 42.41400
C  -6.68000 17.12600 42.42300
C  -6.22800 17.59400 43.81900
O  -6.01100 16.88300 44.82200
O  -5.91700 18.96000 43.87300
C  -5.36300 19.56000 45.11400
H  -12.62400 20.56700 42.09300
H  -15.88600 14.92000 41.95400
H  -10.17900 11.84600 42.18800
H  -7.82800 19.96600 42.64400
H  -10.26400 21.23400 41.60200
H  -10.63300 20.79800 44.46500
H  -10.23500 22.25800 43.57700
H  -8.93100 21.08000 44.11100
H  -9.03400 20.13100 39.79100
H  -7.85600 18.86100 40.08800
H  -6.49200 21.01500 41.01800
H  -7.48900 21.76100 39.87200
H  -14.56900 21.03800 42.02000
H  -15.95500 20.52500 42.84600
H  -15.83800 20.35400 41.03600
H  -18.95200 16.51100 42.77700
H  -17.42000 15.71900 43.11200
H  -18.08400 15.80400 41.39000
H  -15.05500 12.36700 41.60500
H  -12.87500 11.18800 42.75300
H  -15.22000 13.41100 44.08500
H  -14.12600 12.12800 44.39700
H  -15.56200 11.75600 43.57200
H  -11.83800 11.26200 40.20800
H  -13.26000 12.31400 39.94500
H  -14.47800 10.43100 39.74300
H  -13.84100 9.80300 41.33600
H  -12.99700 9.40100 39.92900
H  -7.31700 11.94200 43.50800
H  -6.46200 12.07500 41.91500
H  -7.99500 11.33500 42.11100
H  -6.13200 17.52200 41.56800
H  -5.56700 20.63000 45.11100
H  -4.27600 19.63800 45.13400
H  -5.72300 19.16200 46.06400

