158

Mg 49.38100 34.59000 27.22000
C  47.42600 33.81600 29.98100
C  50.00900 37.56600 28.70100
C  51.16100 35.64300 24.37200
C  48.24100 31.95500 25.49400
N  48.82200 35.45300 29.27800
C  48.05600 35.00000 30.27600
C  47.82900 35.98400 31.39500
C  48.49000 37.26300 30.81300
C  49.13900 36.75400 29.50100
C  47.63000 38.56400 30.62900
C  48.48500 35.54300 32.75100
C  47.43500 35.38300 33.86000
H  47.30800 36.64000 34.77400
N  50.52200 36.29400 26.67900
C  50.69200 37.37900 27.46600
C  51.55600 38.28300 26.81200
C  51.95000 37.79100 25.55300
C  51.23100 36.49100 25.50900
C  51.88600 39.61800 27.39900
C  52.78900 38.47100 24.49200
O  53.03400 37.94700 23.42100
C  53.40100 39.76800 24.74300
N  49.57800 33.99900 25.21400
C  50.46800 34.49300 24.25900
C  50.40000 33.67700 22.95300
C  49.62800 32.41700 23.40200
C  49.09200 32.78800 24.76900
C  49.81700 34.55500 21.79400
C  50.40500 31.06400 23.37900
C  50.38900 30.29400 22.02600
N  48.15300 33.11800 27.61300
C  47.85300 32.03400 26.86900
C  47.04800 31.09900 27.61200
C  46.73100 31.87800 28.73300
C  47.52500 33.06300 28.77800
C  46.57500 29.75200 27.17800
C  45.88100 31.92700 29.92500
O  45.04700 31.11600 30.33900
C  46.19600 33.17800 30.72300
C  46.68200 32.65600 31.95000
O  47.83300 32.31100 32.16300
O  45.59800 32.43200 32.83000
C  45.86700 31.98000 34.20600
H  50.14500 38.58500 29.06700
H  51.81300 35.78300 23.50800
H  47.88200 31.04900 25.00300
H  46.74800 36.08600 31.49000
H  49.38100 37.46000 31.40900
H  48.30700 39.37500 30.89700
H  46.73500 38.52200 31.25000
H  47.19900 38.46700 29.63200
H  49.07200 36.33100 33.22400
H  49.11100 34.65900 32.63700
H  47.75700 34.62500 34.57400
H  46.46100 35.10000 33.46100
H  52.81800 39.65300 27.96400
H  51.08400 39.89800 28.08200
H  51.84000 40.46800 26.71800
H  54.17600 39.78400 25.50900
H  52.59900 40.50200 24.82500
H  53.89600 40.04000 23.81000
H  51.42300 33.42900 22.67200
H  48.73800 32.38200 22.77400
H  49.53200 35.54800 22.14200
H  48.89400 34.10900 21.42300
H  50.57500 34.59700 21.01200
H  50.04900 30.36300 24.13400
H  51.44600 31.27500 23.62300
H  49.89600 29.32400 22.08800
H  51.39400 30.25500 21.60600
H  49.84100 30.86500 21.27600
H  46.71000 29.11200 28.05000
H  47.33200 29.43900 26.45900
H  45.50500 29.70900 26.97400
H  45.33300 33.83300 30.84200
H  45.20000 31.12700 34.33200
H  45.56000 32.72900 34.93500
H  46.90800 31.68500 34.34500
Mg -10.08800 38.68100 40.88200
C  -8.53200 35.58900 40.07300
C  -7.41700 40.24300 39.09500
C  -11.94200 41.42600 40.58500
C  -12.94100 36.84300 41.80200
N  -8.14400 38.01900 39.82900
C  -7.76000 36.69200 39.64400
C  -6.39400 36.58400 38.82600
C  -6.00200 38.10100 38.64100
C  -7.29100 38.85400 39.16100
C  -4.69600 38.62400 39.42600
C  -6.45000 35.87500 37.49800
C  -7.73900 35.97600 36.55000
H  -7.48300 36.37500 35.15100
N  -9.62400 40.65100 40.25000
C  -8.52700 41.06600 39.52900
C  -8.69100 42.41900 39.22000
C  -10.07200 42.77600 39.55900
C  -10.61300 41.58000 40.12900
C  -7.58900 43.16700 38.54700
C  -10.70600 44.13500 39.26100
O  -10.05200 44.94000 38.73200
C  -12.22000 44.38300 39.53900
N  -12.28200 39.04000 41.04300
C  -12.66100 40.31100 41.04100
C  -14.18000 40.52900 41.31600
C  -14.58900 39.02600 41.81200
C  -13.17500 38.25900 41.58000
C  -14.48800 41.57200 42.44700
C  -15.73200 38.47400 40.86300
C  -16.87200 37.74800 41.54400
N  -10.59300 36.73200 41.11300
C  -11.81200 36.13100 41.48900
C  -11.62100 34.68200 41.54300
C  -10.39800 34.45400 40.90700
C  -9.77700 35.71400 40.75300
C  -12.63100 33.53300 42.00100
C  -9.51700 33.36800 40.36500
O  -9.74900 32.14800 40.32400
C  -8.30200 34.11300 39.76700
C  -7.02600 33.68800 40.45800
O  -6.82400 33.85300 41.64300
O  -6.28500 32.98000 39.63300
C  -5.05000 32.27200 40.08900
H  -6.59900 40.83400 38.68000
H  -12.48800 42.36600 40.68400
H  -13.82500 36.22000 41.95400
H  -5.68100 36.14400 39.52300
H  -5.93100 38.33300 37.57800
H  -4.42300 37.87800 40.17200
H  -4.96800 39.52000 39.98400
H  -3.85600 38.84700 38.76700
H  -6.43200 34.80000 37.67500
H  -5.47900 36.10500 37.05700
H  -8.34000 36.77500 36.98300
H  -8.27000 35.02400 36.52500
H  -7.58700 44.23800 38.74900
H  -7.46300 42.92500 37.49200
H  -6.61900 42.93900 38.98900
H  -12.48500 44.60400 40.57300
H  -12.80100 43.55500 39.13300
H  -12.53600 45.24500 38.95000
H  -14.71400 40.73200 40.38800
H  -14.88300 38.92400 42.85700
H  -14.63200 42.51100 41.91300
H  -13.53800 41.79300 42.93300
H  -15.21000 41.39000 43.24300
H  -15.35300 37.71500 40.17800
H  -16.25600 39.24500 40.29800
H  -17.55700 37.50200 40.73200
H  -17.30500 38.34200 42.35000
H  -16.52100 36.80100 41.95400
H  -12.79000 33.57400 43.07800
H  -12.34900 32.50600 41.76600
H  -13.65800 33.66600 41.66200
H  -8.20000 33.93100 38.69800
H  -5.10200 31.67700 41.00000
H  -4.26300 32.99000 40.32100
H  -4.71000 31.64100 39.26800

