158

Mg 46.20600 16.15200 28.24000
C  44.15400 15.64000 31.01700
C  48.43800 17.96000 30.13500
C  48.08100 16.73500 25.42600
C  43.84000 14.44400 26.15100
N  46.22300 16.65600 30.30700
C  45.31300 16.33300 31.32700
C  45.82200 16.98500 32.65200
C  47.10400 17.77300 32.26300
C  47.28600 17.40400 30.77900
C  47.04300 19.34600 32.37600
C  45.97800 15.98700 33.79500
C  45.59100 16.43200 35.21100
H  45.45800 18.02400 35.47900
N  47.98400 17.24300 27.85000
C  48.82600 17.81200 28.78900
C  50.10500 18.18300 28.16800
C  49.90200 17.94200 26.73900
C  48.57300 17.25100 26.58900
C  51.32900 18.73000 28.99200
C  50.82200 18.29700 25.61000
O  50.60300 18.01800 24.44000
C  52.08800 18.92800 25.85100
N  46.04600 15.59600 26.16500
C  47.01600 15.95000 25.28800
C  46.66300 15.34700 23.88400
C  45.27300 14.64400 24.07600
C  45.04200 14.82600 25.64000
C  46.81100 16.30300 22.71600
C  45.20500 13.15200 23.62500
C  45.95300 12.19800 24.57300
N  44.42700 15.12500 28.48900
C  43.51800 14.54100 27.58800
C  42.31300 14.06500 28.29400
C  42.50300 14.57200 29.66200
C  43.80100 15.11800 29.75900
C  41.13300 13.43400 27.68900
C  41.90600 14.61500 31.00800
O  40.84100 14.11400 31.41900
C  43.02800 15.36300 31.91800
C  42.48200 16.45300 32.71100
O  42.33200 17.62900 32.35500
O  42.16700 15.96300 33.97900
C  41.35600 16.78900 34.90600
H  49.15700 18.54300 30.71400
H  48.67400 16.81600 24.51200
H  43.18100 13.97700 25.41600
H  45.04000 17.67700 32.96200
H  47.91400 17.43100 32.90700
H  46.24300 19.81100 32.95200
H  47.05900 19.81500 31.39300
H  47.99500 19.60100 32.84300
H  47.00200 15.64200 33.93600
H  45.34900 15.16000 33.46800
H  46.38600 16.15800 35.90400
H  44.70300 15.88400 35.52700
H  51.21700 18.60600 30.06900
H  51.32300 19.76500 28.65200
H  52.21700 18.16200 28.71200
H  52.07100 19.82300 26.47300
H  52.61100 19.14200 24.91900
H  52.68200 18.18300 26.38100
H  47.39600 14.57600 23.64700
H  44.46600 15.19700 23.59500
H  45.85100 16.41000 22.21100
H  47.55600 16.07300 21.95400
H  46.99900 17.31400 23.07600
H  45.56300 13.02000 22.60400
H  44.16100 12.86300 23.50800
H  45.25400 11.66800 25.22000
H  46.78700 12.60500 25.14500
H  46.29000 11.39900 23.91200
H  40.79300 12.70100 28.42000
H  41.41700 13.10800 26.68800
H  40.34300 14.16500 27.51900
H  43.22900 14.56700 32.63400
H  40.41500 17.12200 34.46900
H  41.88200 17.64000 35.34000
H  40.91100 16.20700 35.71300
Mg 6.56000 53.02200 42.21600
C  6.37100 49.53000 41.74500
C  9.82800 52.95100 41.05100
C  6.51600 56.46300 42.16300
C  3.23100 52.94300 43.21400
N  7.95700 51.42000 41.48800
C  7.66100 50.07500 41.34000
C  8.92900 49.37300 40.84100
C  10.11300 50.43200 41.04000
C  9.30600 51.68800 41.33200
C  11.12700 50.04400 42.14900
C  8.88900 48.79500 39.37700
C  8.69100 49.77300 38.21700
H  7.76800 49.40700 37.07400
N  7.95000 54.54500 41.65900
C  9.26400 54.24300 41.22700
C  9.88000 55.51600 41.02500
C  8.89000 56.47000 41.13200
C  7.73500 55.84600 41.72800
C  11.34600 55.60500 40.55600
C  9.08300 57.92500 40.72000
O  10.19900 58.39900 40.38200
C  8.03200 58.96000 40.74100
N  5.08000 54.47300 42.58300
C  5.31400 55.80500 42.58600
C  3.99400 56.51700 42.81400
C  3.06700 55.44700 43.35900
C  3.80300 54.19000 42.95700
C  4.09000 57.68800 43.89200
C  1.65600 55.58600 42.63700
C  0.52300 56.12900 43.52700
N  5.08400 51.55400 42.43600
C  3.80400 51.69700 42.90500
C  3.24600 50.42900 43.18800
C  4.19000 49.57900 42.55700
C  5.29000 50.29500 42.19900
C  1.86900 50.13000 43.82800
C  4.32100 48.16400 42.23400
O  3.55200 47.22800 42.34300
C  5.92200 48.10500 41.67900
C  5.82800 47.58600 40.22400
O  5.39700 48.23300 39.26300
O  6.31300 46.24900 40.21900
C  6.49000 45.53400 38.98600
H  10.87600 52.88000 40.75100
H  6.51200 57.53700 42.36100
H  2.18700 52.84900 43.52300
H  9.10300 48.55300 41.53800
H  10.60900 50.56400 40.07900
H  11.12800 50.85100 42.88000
H  12.11300 50.01200 41.68400
H  10.92100 49.16800 42.76400
H  8.30400 47.87800 39.32100
H  9.91200 48.51100 39.12600
H  9.62100 50.16100 37.80100
H  8.25500 50.66300 38.67100
H  11.82200 56.52300 40.90000
H  11.22100 55.49000 39.47900
H  11.85100 54.69400 40.87900
H  7.07500 58.49300 40.50900
H  8.27100 59.83100 40.13000
H  7.83000 59.29300 41.75900
H  3.75800 56.98500 41.85800
H  2.98500 55.52800 44.44300
H  4.99000 57.65200 44.50700
H  3.21900 57.74000 44.54500
H  4.24300 58.68900 43.48800
H  1.34100 54.60300 42.28700
H  1.72500 56.25900 41.78300
H  0.78700 56.22900 44.58000
H  -0.41300 55.57500 43.59000
H  0.34700 57.17800 43.28900
H  1.60000 49.13900 43.46200
H  1.10300 50.77700 43.40100
H  1.96900 50.20400 44.91100
H  6.51600 47.43800 42.30400
H  7.47500 45.07100 38.94600
H  6.30200 46.14200 38.10100
H  5.71400 44.77100 39.05800

