158

Mg 47.03400 24.99800 28.47200
C  48.02700 27.35700 30.82100
C  46.56900 22.71600 31.07600
C  46.15000 22.61100 26.16100
C  48.37500 27.02200 25.96500
N  47.28200 25.10600 30.69900
C  47.48700 26.22900 31.39300
C  47.40900 25.98800 32.90800
C  47.18100 24.41800 32.94300
C  46.94700 24.00400 31.47900
C  48.25200 23.63900 33.71000
C  46.22400 26.75200 33.56900
C  45.56800 26.25800 34.84800
H  45.34100 27.17800 36.03600
N  46.32500 23.00000 28.61500
C  46.15600 22.21400 29.80700
C  45.68500 20.89900 29.48300
C  45.55600 20.83800 28.04200
C  45.97200 22.17600 27.56400
C  45.62800 19.67600 30.48100
C  45.18800 19.60000 27.14600
O  45.26200 19.74600 25.97100
C  44.78200 18.29500 27.72900
N  47.29500 24.84500 26.41000
C  46.74600 23.77800 25.68700
C  46.90200 24.07400 24.19700
C  47.29600 25.55000 24.15900
C  47.73700 25.82100 25.62300
C  47.75900 23.02400 23.53300
C  46.29300 26.65400 23.58400
C  46.77400 27.50900 22.38700
N  47.96300 26.76500 28.33100
C  48.54900 27.44900 27.27200
C  49.13000 28.66600 27.72100
C  48.93000 28.65300 29.07700
C  48.21000 27.53400 29.42400
C  49.77900 29.68500 26.94000
C  49.17500 29.38600 30.21700
O  49.75800 30.39300 30.37700
C  48.48800 28.62400 31.43600
C  49.48900 28.40200 32.52200
O  50.52000 27.77200 32.42800
O  49.18900 29.24800 33.59300
C  50.11800 29.21900 34.75900
H  46.46600 21.98900 31.88500
H  45.84500 21.97500 25.32700
H  48.60800 27.73900 25.17500
H  48.36100 26.17600 33.40600
H  46.26000 24.22100 33.49300
H  49.15100 24.25500 33.73300
H  48.49000 22.75600 33.11800
H  47.97900 23.31300 34.71400
H  45.40900 26.87500 32.85600
H  46.43500 27.81000 33.72800
H  46.16500 25.44900 35.26800
H  44.61300 25.77700 34.63300
H  44.67400 19.15200 30.55200
H  46.00500 20.03000 31.44000
H  46.34600 19.01900 29.99000
H  43.93000 18.38600 28.40300
H  45.62500 17.89000 28.28900
H  44.62900 17.54500 26.95300
H  45.92100 24.01100 23.72700
H  48.19100 25.78100 23.58200
H  48.57000 23.55700 23.03600
H  47.21800 22.42900 22.79800
H  48.16700 22.34100 24.27800
H  45.93200 27.35200 24.34000
H  45.47000 26.10900 23.12100
H  46.08400 27.34500 21.55900
H  47.76000 27.21300 22.02700
H  46.68700 28.53100 22.75500
H  50.50600 29.30400 26.22300
H  50.22900 30.46900 27.54800
H  49.03800 30.22700 26.35100
H  47.64400 29.15500 31.87700
H  49.78400 28.58100 35.57700
H  50.01000 30.18300 35.25400
H  51.14400 29.06800 34.42100
Mg 36.12600 49.25000 25.48300
C  35.96700 47.41500 28.53900
C  35.38300 52.08100 27.33500
C  35.98600 50.93200 22.59300
C  36.33000 46.22600 23.73000
N  35.77400 49.70700 27.71900
C  35.73600 48.78600 28.75300
C  35.64300 49.56600 30.15300
C  35.20400 50.99400 29.60600
C  35.46900 50.95900 28.14500
C  33.72000 51.35500 29.83900
C  36.89900 49.42500 31.05200
C  36.64300 48.95500 32.50900
H  35.24300 49.29200 33.14400
N  35.83500 51.25600 25.06600
C  35.56600 52.26200 25.93700
C  35.54200 53.54000 25.16600
C  35.79700 53.23100 23.80000
C  35.92300 51.78400 23.76700
C  35.41700 54.85700 25.83400
C  36.00400 54.17200 22.61700
O  36.33700 53.83300 21.49300
C  35.64500 55.55400 22.72700
N  35.85600 48.65100 23.48900
C  35.84800 49.58900 22.53600
C  35.92500 48.86400 21.16100
C  36.38000 47.38200 21.53100
C  36.09900 47.40700 23.00900
C  34.59900 48.98900 20.43000
C  37.97800 47.16400 21.33700
C  38.26300 46.29800 20.11900
N  36.08100 47.28900 25.97200
C  36.22500 46.16300 25.14300
C  36.27600 44.97700 25.94500
C  36.12000 45.42100 27.28800
C  36.13300 46.82400 27.27300
C  36.31000 43.54200 25.43600
C  36.08000 45.04200 28.68600
O  36.15100 43.91400 29.21800
C  35.99900 46.30700 29.56000
C  34.69100 46.14200 30.33200
O  33.56500 46.25400 29.84200
O  34.89600 45.80500 31.63300
C  33.56600 45.54100 32.30200
H  35.15200 52.96200 27.93700
H  36.00100 51.38900 21.60200
H  36.45200 45.31400 23.14200
H  34.79900 49.12300 30.68200
H  35.82800 51.74400 30.09200
H  33.28200 50.68300 30.57800
H  33.00900 51.30900 29.01500
H  33.67900 52.38100 30.20500
H  37.45700 50.36100 31.08700
H  37.51400 48.68700 30.53800
H  37.39700 49.50200 33.07500
H  36.79800 47.89600 32.71600
H  36.31500 55.45400 25.67200
H  35.54300 54.77800 26.91300
H  34.50500 55.35000 25.49900
H  34.56300 55.61300 22.84000
H  35.86900 56.08900 21.80300
H  36.13500 56.04200 23.56900
H  36.68000 49.31500 20.51800
H  35.71000 46.76000 20.93700
H  34.24900 48.00900 20.10500
H  34.63400 49.74200 19.64300
H  33.82600 49.21700 21.16500
H  38.50800 46.73400 22.18700
H  38.47000 48.11600 21.13900
H  38.81200 45.38100 20.33400
H  38.82700 46.89800 19.40400
H  37.35000 45.98500 19.61300
H  37.17400 43.51800 24.77100
H  35.44100 43.33400 24.81200
H  36.37300 42.82600 26.25500
H  36.88800 46.35200 30.18900
H  32.80300 46.29000 32.09300
H  33.80200 45.47800 33.36500
H  33.27700 44.51800 32.06000

