158

Mg 9.16500 3.47100 27.53800
C  10.45600 2.21700 30.52200
C  7.46200 5.85500 29.42900
C  8.11100 4.96400 24.69900
C  10.84100 1.11400 25.77600
N  8.93600 3.93200 29.77600
C  9.61400 3.29700 30.79200
C  9.28400 3.84800 32.19800
C  8.28800 4.98900 31.81400
C  8.18700 4.96300 30.22400
C  6.87400 4.89400 32.36400
C  10.67400 4.18000 32.99700
C  10.89400 3.50900 34.39400
H  11.36300 4.35000 35.58600
N  7.95500 5.16200 27.08000
C  7.32100 5.94300 28.01700
C  6.47300 6.87300 27.34800
C  6.67500 6.68400 25.97900
C  7.58900 5.60400 25.90100
C  5.68400 7.81100 28.12700
C  6.05700 7.47100 24.82300
O  6.37600 7.19700 23.65900
C  5.15300 8.72200 25.08000
N  9.55200 3.14800 25.54300
C  8.91700 3.82800 24.59000
C  9.18400 3.16700 23.20800
C  10.28300 2.12000 23.56100
C  10.14400 2.08000 25.02200
C  7.91200 2.48200 22.53600
C  11.73600 2.61900 23.17700
C  12.64900 1.71400 22.35000
N  10.34100 1.87300 27.97900
C  10.98300 0.99500 27.11500
C  11.81100 0.11000 27.90800
C  11.58200 0.55400 29.22400
C  10.67300 1.63200 29.25000
C  12.57200 -1.11800 27.43600
C  11.97600 0.28000 30.53800
O  12.74900 -0.57600 31.00900
C  11.22200 1.29300 31.46800
C  10.40900 0.53500 32.48300
O  9.32700 0.11800 32.26400
O  11.01500 0.44800 33.69900
C  10.12600 -0.24600 34.69400
H  6.99600 6.57300 30.10700
H  7.68000 5.35700 23.77500
H  11.18400 0.20700 25.27400
H  8.71400 3.09900 32.74600
H  8.87500 5.89100 31.98400
H  6.52200 5.92300 32.42700
H  6.85300 4.34400 33.30500
H  6.10300 4.35300 31.81500
H  10.70100 5.26900 33.01200
H  11.50700 3.85700 32.37300
H  11.64900 2.73800 34.23700
H  9.97700 3.05600 34.77000
H  4.62300 7.69200 27.90800
H  5.88500 8.84500 27.84500
H  5.93500 7.87300 29.18600
H  5.71900 9.46900 25.63800
H  4.15500 8.48800 25.45000
H  4.99500 9.24100 24.13400
H  9.58900 3.95600 22.57400
H  10.10500 1.16400 23.06900
H  8.05600 1.44000 22.25000
H  7.69300 3.13900 21.69400
H  6.99800 2.42100 23.12600
H  12.35600 2.78200 24.05900
H  11.67900 3.55900 22.62800
H  12.87300 2.26900 21.44000
H  12.13500 0.80200 22.04500
H  13.54200 1.47300 22.92600
H  12.32000 -1.22100 26.38100
H  12.09100 -1.96100 27.93300
H  13.65200 -1.00800 27.53200
H  12.03700 1.81300 31.97100
H  9.60600 -1.08400 34.23000
H  9.34400 0.35500 35.15800
H  10.73500 -0.66200 35.49700
Mg -5.74600 25.47000 25.39600
C  -3.97100 26.78200 28.13500
C  -7.01400 23.12500 27.54700
C  -7.00200 23.94100 22.70200
C  -3.90300 27.71900 23.35200
N  -5.52600 25.02200 27.63400
C  -4.83800 25.79800 28.51400
C  -5.23900 25.35500 29.92600
C  -6.10600 24.05700 29.75000
C  -6.21600 24.01400 28.21100
C  -5.44900 22.72600 30.33400
C  -6.04300 26.42000 30.84800
C  -6.95300 25.92000 32.02300
H  -6.34600 24.86200 32.91200
N  -6.83200 23.72600 25.16300
C  -7.31300 22.94800 26.16700
C  -8.14800 21.92000 25.54100
C  -8.17900 22.13800 24.11400
C  -7.33800 23.32600 23.93200
C  -8.72700 20.71700 26.28500
C  -8.89400 21.36100 23.02100
O  -8.85400 21.69300 21.83400
C  -9.72000 20.06000 23.33500
N  -5.60900 25.95100 23.29200
C  -6.21200 25.12600 22.36900
C  -5.81400 25.62100 21.01600
C  -4.94900 26.90200 21.24400
C  -4.84000 26.89000 22.72800
C  -5.04300 24.56900 20.17200
C  -5.45900 28.21600 20.50900
C  -5.94800 29.40600 21.31900
N  -4.30800 27.04300 25.57600
C  -3.67000 27.87400 24.66400
C  -2.80600 28.75100 25.34500
C  -2.87300 28.31400 26.68800
C  -3.81600 27.27600 26.80100
C  -1.91300 29.71900 24.77400
C  -2.32800 28.61500 27.99900
O  -1.59000 29.50200 28.38000
C  -3.10900 27.66200 28.99500
C  -2.06300 26.92400 29.78100
O  -1.15600 26.20200 29.35700
O  -2.20200 27.35700 31.10600
C  -1.15300 26.85900 32.05300
H  -7.59400 22.45500 28.18500
H  -7.15900 23.37900 21.77900
H  -3.34200 28.37400 22.68200
H  -4.23300 25.16800 30.30200
H  -7.13200 24.03600 30.11900
H  -4.57600 22.89600 30.96400
H  -5.23500 22.04600 29.50900
H  -6.14500 22.16300 30.95600
H  -6.44400 27.16400 30.16000
H  -5.25900 26.90300 31.43200
H  -7.86200 25.49600 31.59700
H  -7.23500 26.80800 32.59000
H  -9.75800 20.70700 25.92900
H  -8.80700 20.88300 27.35900
H  -8.18600 19.84300 25.92100
H  -8.88600 19.59900 23.86400
H  -10.00300 19.47300 22.46100
H  -10.55500 20.33600 23.97800
H  -6.73600 25.94100 20.53100
H  -3.94700 26.73500 20.84700
H  -4.51100 23.90000 20.84800
H  -4.38200 25.01100 19.42600
H  -5.81000 24.01100 19.63600
H  -6.20300 27.87100 19.79000
H  -4.66700 28.60300 19.86900
H  -6.62700 29.89700 20.62200
H  -5.09400 30.04400 21.54800
H  -6.48400 29.07800 22.21000
H  -1.59600 29.52500 23.74900
H  -1.01100 29.76200 25.38500
H  -2.40900 30.68200 24.89800
H  -3.71200 28.19700 29.72800
H  -1.60400 26.79900 33.04300
H  -0.33200 27.56700 32.16300
H  -0.81500 25.85400 31.80000

