158

Mg 9.28000 4.57200 26.97000
C  10.21300 3.17500 30.13500
C  6.73400 6.19300 28.69000
C  8.07800 5.59800 24.07500
C  11.36700 2.30000 25.44200
N  8.56200 4.58900 29.22300
C  9.06300 4.03500 30.32400
C  8.44400 4.65400 31.61000
C  7.10900 5.25800 31.11900
C  7.49400 5.40300 29.62800
C  5.84200 4.29800 31.09700
C  9.36000 5.66500 32.39200
C  9.36100 5.46700 33.90200
H  10.64700 5.55200 34.72200
N  7.75000 5.90200 26.47200
C  6.86000 6.43900 27.29600
C  5.99100 7.36600 26.54900
C  6.52800 7.34600 25.22500
C  7.51500 6.27600 25.20300
C  4.90000 8.22300 27.21700
C  6.17600 8.20100 24.11400
O  6.83500 8.22900 23.08100
C  5.08400 9.24500 24.18700
N  9.62400 3.94200 24.98400
C  9.01700 4.58700 23.99200
C  9.58600 4.09300 22.58900
C  10.69700 3.07100 23.04900
C  10.57400 3.04200 24.61200
C  8.46400 3.55500 21.63300
C  12.14900 3.40000 22.49000
C  12.77000 2.71800 21.20100
N  10.62500 3.14900 27.62000
C  11.38400 2.32200 26.83800
C  12.11500 1.41500 27.76000
C  11.83500 1.90700 28.98800
C  10.79100 2.85800 28.91900
C  13.04300 0.27200 27.37800
C  12.14000 1.70000 30.40100
O  12.89200 0.88800 30.93900
C  11.20600 2.59400 31.21700
C  10.45000 1.70600 32.15300
O  9.57700 0.97300 31.79700
O  10.79300 1.96400 33.47400
C  9.81800 1.49600 34.47600
H  5.92900 6.71100 29.21600
H  7.71100 5.91300 23.09600
H  12.12500 1.62300 25.04300
H  8.20600 3.75900 32.18400
H  6.76600 6.12000 31.69200
H  5.46800 4.03200 30.10800
H  5.01700 4.84900 31.54900
H  6.19700 3.36800 31.54100
H  9.07200 6.61800 31.94800
H  10.38500 5.44300 32.09600
H  8.75700 4.58600 34.12300
H  8.92700 6.40500 34.24900
H  4.74100 8.03100 28.27800
H  3.94700 7.96900 26.75400
H  4.95400 9.29900 27.04900
H  5.44700 10.11100 24.74100
H  4.30100 8.84600 24.83100
H  4.78400 9.54100 23.18200
H  10.10400 4.99700 22.27000
H  10.35600 2.07200 22.77700
H  8.68500 2.57500 21.20900
H  8.39200 4.22900 20.77900
H  7.51300 3.51400 22.16300
H  12.89100 3.51400 23.28000
H  12.15600 4.43200 22.14000
H  12.03700 2.13800 20.64000
H  13.53200 1.98600 21.47100
H  13.12200 3.50100 20.53100
H  13.12800 0.12100 26.30200
H  12.73400 -0.68400 27.80300
H  14.05200 0.45300 27.74800
H  11.61800 3.35700 31.87800
H  9.28700 2.31200 34.96500
H  10.26600 0.88600 35.26100
H  9.08500 0.83200 34.01800
Mg 9.38900 48.18700 26.05600
C  7.03600 48.59100 28.70400
C  11.71300 49.44600 28.00200
C  11.36600 47.83700 23.41600
C  6.51000 48.06600 23.84100
N  9.39400 48.88700 28.17100
C  8.37700 48.78100 29.08900
C  8.95500 49.04500 30.49200
C  10.34400 49.71700 30.16500
C  10.51100 49.46000 28.65800
C  10.41100 51.30200 30.41400
C  8.95200 47.85400 31.49900
C  8.79700 48.27800 32.98500
H  8.64600 47.09200 33.95000
N  11.30700 48.50400 25.73600
C  12.12200 48.97400 26.70400
C  13.46000 48.88000 26.14400
C  13.37300 48.32600 24.83000
C  11.99900 48.15700 24.65600
C  14.64800 49.28700 26.92600
C  14.46300 47.77800 23.94000
O  14.26600 47.15200 22.88900
C  15.90800 47.87500 24.34600
N  9.02200 47.98600 23.87800
C  9.98200 47.79500 23.07400
C  9.44700 47.48100 21.62400
C  7.96000 47.89600 21.76000
C  7.79500 47.99700 23.28200
C  10.23400 48.13700 20.41400
C  6.93100 46.84100 21.14500
C  5.76700 47.52300 20.41400
N  7.28400 48.29500 26.19700
C  6.25300 48.20300 25.19800
C  4.94900 48.36200 25.84600
C  5.28500 48.46700 27.17400
C  6.65400 48.42600 27.33900
C  3.64400 48.34500 25.19900
C  4.63800 48.64000 28.48900
O  3.46700 48.68200 28.69000
C  5.79400 48.76100 29.50400
C  5.53600 47.64900 30.46100
O  5.92200 46.52000 30.20500
O  4.80800 47.99200 31.53800
C  4.58900 47.03100 32.65600
H  12.54000 49.80100 28.61900
H  11.90300 47.77600 22.46800
H  5.64200 48.06700 23.17800
H  8.43400 49.88900 30.94400
H  11.23800 49.36500 30.67900
H  9.40500 51.72100 30.39500
H  10.99200 51.69500 29.58000
H  11.02300 51.56200 31.27700
H  9.86100 47.26100 31.39800
H  8.14800 47.17700 31.20900
H  7.87100 48.85200 33.00500
H  9.64900 48.87300 33.31400
H  14.48200 49.67600 27.93100
H  15.11200 50.00700 26.25100
H  15.23500 48.37600 27.04600
H  16.21300 47.10400 25.05300
H  16.01000 48.83700 24.84800
H  16.46900 47.99600 23.41900
H  9.43800 46.39200 21.56500
H  7.85600 48.92300 21.40900
H  10.91100 48.87000 20.85300
H  9.71500 48.55600 19.55300
H  10.79300 47.43800 19.79200
H  6.53700 46.15300 21.89300
H  7.54400 46.33100 20.40200
H  5.71000 47.35800 19.33900
H  5.79300 48.60700 20.52800
H  4.91700 47.01100 20.86700
H  3.57800 49.18100 24.50200
H  2.92200 48.68300 25.94100
H  3.30700 47.38400 24.81200
H  5.79800 49.74000 29.98200
H  3.65200 47.36300 33.10400
H  5.26300 47.20000 33.49600
H  4.71000 45.98200 32.38400

