158

Mg 0.15700 7.97400 26.95600
C  0.79300 9.93700 29.86300
C  0.28000 5.19600 28.86300
C  -0.28600 6.24700 24.13300
C  0.41600 10.95800 25.08300
N  0.50000 7.60100 29.11900
C  0.63800 8.55500 30.15000
C  0.60000 7.89400 31.55300
C  0.52300 6.36700 31.13700
C  0.37100 6.37900 29.62700
C  1.73000 5.51800 31.62200
C  -0.62500 8.34400 32.48200
C  -0.16800 8.90700 33.84500
H  0.77100 8.08700 34.67200
N  0.04300 5.99000 26.55100
C  0.12800 4.98900 27.44700
C  -0.05700 3.77100 26.76800
C  -0.37400 4.03700 25.40700
C  -0.26100 5.46800 25.30000
C  0.24800 2.37800 27.42200
C  -0.76600 3.09000 24.31700
O  -0.91900 3.53100 23.17300
C  -0.93200 1.69100 24.64400
N  0.01500 8.56200 24.92300
C  -0.13100 7.67300 23.93700
C  -0.01300 8.43000 22.50900
C  -0.14500 9.90300 22.89700
C  0.01100 9.80200 24.39400
C  1.24900 8.05800 21.69000
C  -1.53500 10.53500 22.51900
C  -1.75100 10.75800 20.95900
N  0.65000 10.00200 27.34100
C  0.75800 11.10000 26.46100
C  0.99700 12.36900 27.22100
C  1.04200 11.88500 28.57200
C  0.84900 10.48900 28.59800
C  1.15200 13.76300 26.83000
C  1.25200 12.35300 29.95200
O  1.59800 13.41700 30.31900
C  1.03500 11.17200 30.84300
C  2.24600 11.05800 31.64800
O  3.23100 10.35600 31.31000
O  2.19700 11.77700 32.76000
C  3.27600 11.51700 33.75400
H  0.46900 4.27400 29.41900
H  -0.53300 5.70200 23.21900
H  0.52800 11.91000 24.56100
H  1.51800 8.25000 32.01900
H  -0.34900 5.84200 31.52600
H  2.25000 5.03400 30.79500
H  1.44300 4.78800 32.37900
H  2.43900 6.15400 32.15300
H  -1.25100 7.48600 32.72600
H  -1.22000 9.04400 31.89600
H  -0.98700 9.13700 34.52700
H  0.32800 9.87300 33.74600
H  0.93700 1.81500 26.79100
H  -0.64600 1.78700 27.61800
H  0.86600 2.42900 28.31800
H  0.08000 1.28700 24.64900
H  -1.35600 1.25700 23.73900
H  -1.54100 1.57100 25.54000
H  -0.84800 8.08000 21.90300
H  0.67200 10.48800 22.47300
H  0.85200 7.39900 20.91800
H  1.95400 7.55000 22.34800
H  1.69400 8.90800 21.17300
H  -1.68500 11.49000 23.02400
H  -2.21900 9.89100 23.07100
H  -1.16800 10.16500 20.25400
H  -1.56900 11.80600 20.71900
H  -2.79900 10.59400 20.71100
H  0.22800 14.17200 27.23600
H  1.55300 13.74700 25.81600
H  1.80500 14.38200 27.44500
H  0.23400 11.36200 31.55700
H  3.65200 12.48200 34.09500
H  4.05600 10.90700 33.29800
H  2.80600 10.91000 34.52700
Mg 24.61400 2.20500 29.67200
C  26.86100 2.01100 32.33700
C  22.03500 2.62400 32.02200
C  22.41400 2.37100 27.14700
C  27.12200 1.21800 27.59500
N  24.51700 2.24000 31.92900
C  25.54800 2.19300 32.85000
C  25.11700 2.46700 34.31700
C  23.48100 2.60200 34.10300
C  23.27700 2.49100 32.59400
C  22.61100 1.60300 35.02100
C  25.86200 3.58600 35.06400
C  25.19000 4.53800 36.21300
H  25.76800 4.57300 37.57800
N  22.48900 2.44500 29.60500
C  21.63100 2.49600 30.66700
C  20.26700 2.50900 30.18800
C  20.27200 2.46700 28.75600
C  21.73600 2.33800 28.43700
C  19.10100 2.42200 31.16400
C  19.17800 2.44100 27.75800
O  19.31700 2.48400 26.54300
C  17.84300 2.30900 28.28600
N  24.75000 1.86000 27.67600
C  23.73800 2.15700 26.83000
C  24.23100 2.06300 25.42800
C  25.71800 1.69200 25.51700
C  25.91700 1.60100 27.05100
C  23.47600 1.07900 24.48400
C  26.69800 2.79300 24.81900
C  26.51400 4.27500 25.24700
N  26.62700 1.76700 29.80000
C  27.53900 1.34100 28.95300
C  28.88400 1.05400 29.60600
C  28.60600 1.33800 30.92000
C  27.23800 1.72700 31.00900
C  30.13100 0.74500 28.97000
C  29.19300 1.31300 32.20900
O  30.25500 0.96300 32.64300
C  28.10500 1.80400 33.24100
C  28.04100 0.76400 34.21900
O  27.53300 -0.33200 34.15000
O  28.61200 1.24200 35.37700
C  28.86800 0.17900 36.33800
H  21.21600 2.90700 32.68600
H  21.68400 2.59600 26.36600
H  27.86700 0.80100 26.91400
H  25.32900 1.52700 34.82700
H  23.07400 3.57400 34.38000
H  21.69500 2.12500 35.29500
H  23.17700 1.26900 35.89000
H  22.27300 0.71300 34.48900
H  26.36200 4.25200 34.36100
H  26.69300 3.05900 35.53200
H  24.17000 4.17400 36.33500
H  25.02300 5.55400 35.85500
H  18.57000 3.35000 30.95100
H  19.42600 2.54500 32.19700
H  18.45700 1.54300 31.19100
H  17.71500 1.27300 28.60000
H  17.09900 2.38700 27.49400
H  17.61200 3.14000 28.95300
H  23.96900 2.97600 24.89500
H  26.01600 0.72300 25.11700
H  22.66000 0.60300 25.02800
H  24.10100 0.27500 24.09500
H  23.05600 1.65600 23.66000
H  26.83900 2.56000 23.76400
H  27.69200 2.58100 25.21300
H  27.28400 4.56200 25.96300
H  25.52400 4.44600 25.67000
H  26.60400 4.90000 24.35800
H  30.88900 1.35800 29.45800
H  29.91600 0.91900 27.91600
H  30.33300 -0.32700 28.97200
H  28.44800 2.76000 33.63500
H  29.40900 -0.65800 35.89700
H  28.01100 -0.17900 36.90900
H  29.63700 0.57700 37.00000

