158

Mg 54.95600 24.36300 44.17300
C  52.27000 26.27100 43.22300
C  53.37700 21.50100 43.27900
C  58.05700 22.68600 44.13900
C  56.90700 27.38000 44.50400
N  53.06200 24.00600 43.25400
C  52.03900 24.90800 43.01000
C  50.75800 24.18600 42.53200
C  51.11300 22.74000 43.08900
C  52.61700 22.71400 43.22800
C  50.34000 22.54700 44.44000
C  50.63200 24.12600 41.00600
C  49.24200 24.01500 40.44600
H  49.04100 23.73100 38.94300
N  55.58800 22.32600 43.79900
C  54.75500 21.30400 43.45700
C  55.44300 20.09900 43.51900
C  56.82100 20.40500 43.80300
C  56.86100 21.87800 43.96500
C  54.73700 18.86700 43.09000
C  57.86400 19.37500 43.90100
O  57.53800 18.23900 43.69500
C  59.27800 19.65200 44.35900
N  57.15900 24.92800 44.17900
C  58.16200 24.04600 44.23200
C  59.53300 24.71500 44.44900
C  59.21900 26.21000 44.57800
C  57.61600 26.17400 44.35000
C  60.38700 24.12800 45.55600
C  59.97800 27.05300 43.54100
C  60.69100 28.23800 44.10100
N  54.66200 26.45500 43.92000
C  55.48700 27.54100 44.23800
C  54.61500 28.68200 44.42000
C  53.31900 28.22400 43.98900
C  53.49000 26.86700 43.67000
C  54.98800 30.02900 44.90900
C  51.93700 28.63100 43.94400
O  51.36300 29.60600 44.30200
C  51.17200 27.39400 43.34400
C  50.69300 27.86700 42.03100
O  51.46000 28.27600 41.12100
O  49.32500 27.79000 41.84300
C  48.70200 28.24700 40.58200
H  52.85200 20.55200 43.40700
H  58.96600 22.08100 44.12600
H  57.50100 28.25000 44.79300
H  49.83900 24.62500 42.92000
H  50.77700 21.97800 42.38600
H  51.02200 22.24800 45.23500
H  49.63900 21.74100 44.22200
H  49.84200 23.44600 44.80200
H  51.16500 23.21700 40.72800
H  51.18900 24.93000 40.52400
H  48.73000 24.97600 40.48500
H  48.70200 23.30300 41.07100
H  54.34700 19.04700 42.08800
H  53.83500 18.82400 43.70100
H  55.25100 17.91700 43.23100
H  59.83400 20.23500 43.62500
H  59.74700 18.73600 44.72000
H  59.29600 20.18300 45.31100
H  60.09500 24.54800 43.53000
H  59.46300 26.61700 45.55900
H  60.60400 24.89400 46.30100
H  61.24600 23.57800 45.17300
H  59.67000 23.42500 45.98000
H  59.30400 27.42000 42.76800
H  60.78400 26.58300 42.97700
H  61.65800 28.34900 43.60900
H  60.86700 28.18600 45.17500
H  60.11400 29.15200 43.95700
H  55.57700 29.88100 45.81400
H  54.13400 30.69600 45.01900
H  55.58000 30.49700 44.12200
H  50.33900 27.12000 43.99100
H  48.76100 27.53100 39.76200
H  49.34900 29.08100 40.30900
H  47.66300 28.57500 40.58100
Mg -9.92500 39.38900 39.94900
C  -9.20500 36.05600 39.03500
C  -6.75600 40.15000 38.93900
C  -10.80800 42.66800 39.90400
C  -13.21600 38.42500 40.37500
N  -8.24600 38.21300 39.17600
C  -8.12000 36.86100 38.87200
C  -6.73100 36.53900 38.37300
C  -5.87900 37.74500 38.74700
C  -7.03800 38.78000 39.00600
C  -4.87100 37.56400 39.94300
C  -6.64400 36.04300 36.82800
C  -7.14700 37.05800 35.76100
H  -8.08400 36.76500 34.49500
N  -8.86700 41.21200 39.58600
C  -7.61500 41.29100 39.19300
C  -7.35900 42.65800 38.86100
C  -8.56600 43.41800 38.95000
C  -9.53400 42.43600 39.47000
C  -6.05800 43.20900 38.36600
C  -8.74100 44.92200 38.56100
O  -7.76300 45.43600 38.03500
C  -9.99600 45.55100 38.57700
N  -11.71600 40.41400 40.19400
C  -11.75200 41.71100 40.21900
C  -13.18700 42.15200 40.61900
C  -13.98000 40.84900 40.76200
C  -12.94100 39.82300 40.45400
C  -13.21800 43.07600 41.83200
C  -15.26700 40.73400 39.85100
C  -16.59900 40.69700 40.60500
N  -11.03000 37.61200 39.89500
C  -12.38200 37.41400 40.05900
C  -12.70600 35.99400 39.85900
C  -11.50700 35.41900 39.45200
C  -10.54500 36.44000 39.49700
C  -14.00000 35.35800 40.23200
C  -10.92900 34.16500 38.94800
O  -11.40400 33.06600 38.63000
C  -9.42500 34.59600 38.66300
C  -8.55200 33.79800 39.51400
O  -8.48100 33.89200 40.75700
O  -7.71000 33.07300 38.73300
C  -6.44600 32.61500 39.30800
H  -5.73900 40.45000 38.67800
H  -11.09200 43.72100 39.85700
H  -14.26200 38.10900 40.37000
H  -6.26500 35.68400 38.86300
H  -5.30200 38.06600 37.88000
H  -5.29800 38.05400 40.81800
H  -3.90500 38.05100 39.81000
H  -4.69100 36.52400 40.21300
H  -7.10600 35.11400 36.49300
H  -5.56800 36.06500 36.65600
H  -6.28100 37.53500 35.30200
H  -7.71000 37.79600 36.33300
H  -5.70900 44.11300 38.86700
H  -6.01300 43.32400 37.28300
H  -5.30200 42.45800 38.59600
H  -10.74900 44.96600 38.04900
H  -9.85000 46.45600 37.98700
H  -10.32400 45.75400 39.59700
H  -13.61000 42.77400 39.83000
H  -14.39300 40.59100 41.73700
H  -12.19200 43.36500 42.05800
H  -13.65300 42.52700 42.66700
H  -13.80500 43.96100 41.58600
H  -15.20800 39.89700 39.15600
H  -15.32500 41.55200 39.13300
H  -17.30800 41.50100 40.41000
H  -16.41700 41.01400 41.63200
H  -17.06400 39.71300 40.55400
H  -14.75100 35.59000 39.47700
H  -14.43300 35.64100 41.19100
H  -13.80400 34.29300 40.36100
H  -9.22000 34.42100 37.60700
H  -5.64400 33.27400 38.97500
H  -6.31800 31.56500 39.04700
H  -6.37900 32.89500 40.35900

