158

Mg 44.11000 42.33100 26.60700
C  42.84900 44.25900 29.21700
C  45.66200 40.43600 28.98300
C  45.38900 40.46700 24.24900
C  43.14600 44.79100 24.39400
N  44.09000 42.29700 28.91600
C  43.57400 43.22200 29.74300
C  43.84200 42.92100 31.23300
C  44.91400 41.87200 31.10000
C  44.88700 41.41300 29.63200
C  46.24300 42.42900 31.59800
C  42.58200 42.43400 32.02900
C  42.11500 43.48400 33.11100
H  41.52300 43.02200 34.44300
N  45.15400 40.60500 26.59800
C  45.74900 39.97800 27.63700
C  46.38000 38.75800 27.17000
C  46.16000 38.61900 25.79400
C  45.51100 39.89600 25.50600
C  47.00700 37.87900 28.14900
C  46.48200 37.40400 24.95400
O  46.26900 37.39800 23.75900
C  47.03300 36.06100 25.57600
N  44.38000 42.67800 24.63400
C  44.83200 41.71300 23.84900
C  44.61200 42.08500 22.34600
C  43.67300 43.35200 22.43300
C  43.72800 43.67500 23.88500
C  45.93300 42.36900 21.58100
C  42.24600 43.14000 21.86600
C  41.13200 42.58200 22.82100
N  43.25200 44.15300 26.70400
C  42.90000 45.08100 25.74300
C  42.19700 46.21800 26.32900
C  42.07500 45.84000 27.65300
C  42.75500 44.63400 27.84700
C  41.59300 47.43400 25.68900
C  41.63600 46.30200 28.92700
O  41.10000 47.39300 29.21800
C  42.08800 45.30200 30.00800
C  43.08800 46.00200 30.86100
O  44.19700 46.22700 30.50700
O  42.53700 46.49200 32.00700
C  43.37800 47.28300 32.84700
H  46.25300 39.93100 29.75000
H  45.62800 39.78800 23.42700
H  42.78800 45.56400 23.71000
H  44.26400 43.81800 31.68500
H  44.72000 41.02300 31.75600
H  46.29500 43.51000 31.46700
H  47.14000 42.06900 31.09400
H  46.32000 42.13600 32.64500
H  42.83500 41.48800 32.50700
H  41.76600 42.29000 31.32000
H  41.20300 43.96100 32.75200
H  42.80800 44.30900 33.27600
H  47.54800 38.52800 28.83700
H  47.70100 37.08000 27.88600
H  46.31300 37.26600 28.72400
H  46.43400 35.76500 26.43700
H  48.11600 36.13000 25.68100
H  46.83000 35.20700 24.93000
H  44.08100 41.20600 21.98100
H  44.05900 44.15200 21.80100
H  46.06600 43.37100 21.17300
H  46.13900 41.58300 20.85400
H  46.77300 42.17100 22.24600
H  42.30500 42.37100 21.09500
H  41.96600 44.04800 21.33100
H  40.86100 41.55800 22.56500
H  40.30300 43.28900 22.80200
H  41.37900 42.73000 23.87300
H  41.12300 47.04600 24.78500
H  42.22500 48.21800 25.27200
H  40.78600 47.88700 26.26400
H  41.19900 45.06200 30.59100
H  43.45300 46.67200 33.74600
H  42.85700 48.17400 33.19700
H  44.37000 47.57500 32.50100
Mg -11.95600 16.15200 42.30900
C  -9.03700 14.61500 41.42500
C  -10.94500 18.95800 40.56000
C  -15.30500 17.48000 42.29500
C  -13.26400 13.21100 43.44300
N  -10.19800 16.67000 41.00900
C  -9.10000 15.92100 40.86100
C  -7.97400 16.66600 40.25700
C  -8.57400 18.11700 40.12500
C  -10.01100 17.92000 40.54500
C  -7.86900 19.09900 41.07300
C  -7.43200 16.05900 38.90000
C  -6.03900 15.60900 38.84900
H  -5.21600 16.14100 37.72200
N  -12.97200 18.03800 41.63600
C  -12.25800 19.05200 41.08500
C  -13.18300 20.21800 40.94900
C  -14.42000 19.82800 41.51300
C  -14.29200 18.40500 41.82200
C  -12.79200 21.59200 40.30200
C  -15.60800 20.75200 41.78700
O  -15.53000 21.93300 41.49100
C  -16.85700 20.24400 42.48100
N  -13.95000 15.45500 42.88100
C  -15.12300 16.20100 42.80400
C  -16.26400 15.40700 43.25800
C  -15.64900 14.06100 43.72700
C  -14.19200 14.21900 43.31700
C  -17.14700 15.99700 44.37600
C  -16.22700 12.70900 43.04000
C  -16.56200 11.65300 44.04200
N  -11.30900 14.29400 42.46300
C  -11.88500 13.22700 43.06700
C  -10.88000 12.13300 43.11200
C  -9.69800 12.65500 42.54800
C  -10.03700 13.93900 42.12300
C  -11.25300 10.77900 43.66200
C  -8.32600 12.34100 42.33600
O  -7.65200 11.37900 42.63100
C  -7.79200 13.68300 41.52000
C  -6.71900 14.27500 42.41700
O  -6.89100 15.26100 43.16900
O  -5.52000 13.71900 42.21300
C  -4.38800 14.12100 43.04200
H  -10.46300 19.86800 40.19700
H  -16.36900 17.71600 42.21900
H  -13.54700 12.24600 43.86700
H  -7.10400 16.72800 40.91200
H  -8.46800 18.52000 39.11700
H  -8.63300 19.47700 41.75200
H  -7.32800 19.90400 40.57600
H  -7.16100 18.58000 41.71800
H  -7.53000 16.85700 38.16400
H  -8.12200 15.31500 38.50100
H  -6.19800 14.53100 38.88200
H  -5.57300 16.00600 39.75100
H  -13.43900 21.77700 39.44500
H  -11.72800 21.66700 40.07300
H  -12.99000 22.32500 41.08400
H  -16.57300 19.51200 43.23700
H  -17.57100 19.85100 41.75700
H  -17.31000 21.06500 43.03600
H  -16.88500 15.23000 42.37900
H  -15.74500 14.14600 44.81000
H  -16.77200 16.94200 44.76900
H  -17.25900 15.26300 45.17400
H  -18.10600 16.24400 43.92100
H  -15.44400 12.37600 42.35900
H  -17.18500 12.95000 42.58000
H  -17.63500 11.46900 43.98100
H  -16.30500 11.97800 45.05000
H  -15.99200 10.77800 43.73100
H  -10.30700 10.40200 44.05200
H  -11.70900 10.19800 42.86000
H  -11.90200 10.75000 44.53700
H  -7.29900 13.43700 40.57900
H  -3.92000 13.20600 43.40500
H  -4.53700 14.76700 43.90700
H  -3.75400 14.66400 42.34200

