158

Mg 1.99900 -1.61600 43.91200
C  5.32500 -1.39100 42.97900
C  1.25300 0.98500 41.71600
C  -1.29600 -2.52500 43.75900
C  2.79600 -4.61400 45.58500
N  3.18400 -0.30600 42.51900
C  4.57500 -0.33000 42.41800
C  5.04200 0.79300 41.53700
C  3.69900 1.59800 41.29700
C  2.62400 0.69100 41.87500
C  3.62300 2.94000 41.99400
C  5.75300 0.40300 40.15800
C  6.88900 1.36700 39.68300
H  6.69000 2.17800 38.35900
N  0.18800 -0.78000 43.01100
C  0.08100 0.25800 42.14700
C  -1.23200 0.65500 42.01100
C  -2.05400 -0.26900 42.68300
C  -1.08800 -1.32100 43.17700
C  -1.64600 1.98000 41.33900
C  -3.59600 -0.18000 42.80800
O  -4.21500 0.68400 42.20700
C  -4.28700 -1.17900 43.86500
N  0.95800 -3.23000 44.59800
C  -0.35900 -3.44900 44.27200
C  -0.79700 -4.90100 44.61200
C  0.40000 -5.53600 45.31200
C  1.45800 -4.40400 45.17300
C  -2.12600 -5.10600 45.28000
C  0.87600 -6.91300 44.77900
C  -0.05100 -8.07100 45.07400
N  3.75100 -2.65600 44.48500
C  3.96000 -3.86400 45.17600
C  5.37200 -4.13100 45.24900
C  5.93500 -3.17200 44.41100
C  4.94500 -2.35200 43.89000
C  6.02600 -5.30200 45.83500
C  7.18500 -2.73400 43.86000
O  8.37000 -2.99100 44.08700
C  6.77700 -1.64000 42.84900
C  7.56000 -0.49200 43.22400
O  7.57200 0.14900 44.25600
O  8.38200 -0.16200 42.20100
C  9.19100 1.03700 42.38500
H  1.06700 1.90400 41.15600
H  -2.33100 -2.86400 43.68200
H  3.08900 -5.58700 45.98600
H  5.73900 1.40400 42.11100
H  3.46400 1.69500 40.23700
H  4.37200 2.84900 42.78000
H  2.63200 3.01700 42.44200
H  3.93600 3.68300 41.26000
H  4.94700 0.36600 39.42500
H  6.29000 -0.54400 40.19600
H  7.85100 0.89200 39.48900
H  7.20800 2.06300 40.45900
H  -2.67100 2.24600 41.59500
H  -1.57100 1.98100 40.25200
H  -1.11300 2.77400 41.86300
H  -5.17800 -0.69600 44.26500
H  -3.59200 -1.32800 44.69200
H  -4.51800 -2.16600 43.46500
H  -0.86800 -5.43200 43.66300
H  0.26600 -5.62100 46.39000
H  -2.84900 -5.47400 44.55300
H  -2.56100 -4.17200 45.63700
H  -2.03100 -5.81100 46.10600
H  1.85700 -7.17400 45.17600
H  1.06700 -6.79000 43.71300
H  -0.96700 -7.87100 45.63000
H  0.45400 -8.77000 45.74000
H  -0.23100 -8.58100 44.12700
H  6.25100 -6.15200 45.19100
H  5.55800 -5.70000 46.73600
H  6.90400 -4.86800 46.31400
H  6.98400 -2.00600 41.84400
H  9.79900 0.85100 43.27000
H  8.55800 1.91300 42.24800
H  9.95900 1.06900 41.61200
Mg 6.49400 54.36100 41.35400
C  6.19800 50.93100 41.20600
C  10.00900 53.90400 40.53800
C  6.86400 57.71800 41.00600
C  3.16500 54.69700 41.74700
N  7.85400 52.60300 40.72900
C  7.47100 51.24900 40.83700
C  8.72300 50.33900 40.63900
C  9.93200 51.34100 40.69500
C  9.22200 52.68700 40.74500
C  10.91900 51.07500 41.88600
C  8.66400 49.61200 39.27800
C  8.45700 50.49500 38.10700
H  7.49200 49.96900 37.04400
N  8.15400 55.61900 40.83900
C  9.46900 55.24500 40.59200
C  10.27900 56.46100 40.32000
C  9.39800 57.53800 40.46800
C  8.04700 56.93900 40.77800
C  11.70100 56.39100 39.86400
C  9.76400 59.03300 40.20300
O  10.90700 59.34400 39.88300
C  8.79300 60.09500 40.17100
N  5.19500 56.00100 41.14700
C  5.53400 57.27600 41.14800
C  4.42700 58.22600 41.56600
C  3.24700 57.24400 41.55200
C  3.89300 55.85900 41.42700
C  4.63100 58.78500 42.99800
C  2.18800 57.51300 40.40500
C  0.78700 57.82500 40.85700
N  4.92600 53.11700 41.49300
C  3.60800 53.34600 41.80000
C  2.98100 52.12700 42.17900
C  3.98100 51.17300 41.99300
C  5.16700 51.80100 41.47300
C  1.63200 51.95300 42.73400
C  4.20700 49.79300 42.02800
O  3.44600 48.87600 42.36100
C  5.62900 49.58300 41.49500
C  5.43200 48.70500 40.35200
O  4.86500 49.04000 39.36400
O  5.78300 47.40100 40.60700
C  5.19800 46.33300 39.75400
H  11.09600 53.84600 40.44700
H  7.04200 58.79400 41.06300
H  2.12300 54.95400 41.94800
H  8.69800 49.59300 41.43400
H  10.47100 51.36100 39.74700
H  11.18200 51.94200 42.49200
H  11.84800 50.67900 41.47500
H  10.58600 50.21900 42.47300
H  8.01700 48.73900 39.20000
H  9.64600 49.17600 39.09000
H  9.41900 50.49700 37.59600
H  8.20400 51.54700 38.23100
H  11.82800 57.01400 38.97900
H  11.88100 55.39000 39.47200
H  12.44900 56.74400 40.57400
H  7.87200 59.76800 39.68900
H  9.22800 60.89400 39.57000
H  8.67400 60.52500 41.16600
H  4.36400 59.07600 40.88700
H  2.68200 57.18100 42.48200
H  3.92300 58.28900 43.66200
H  4.41400 59.85300 43.00400
H  5.63700 58.61600 43.38100
H  2.24200 56.81700 39.56700
H  2.61600 58.40000 39.93900
H  0.63100 58.86300 40.56400
H  0.55300 57.83600 41.92100
H  0.07700 57.31300 40.20700
H  1.04300 51.52100 41.92400
H  1.13300 52.77700 43.24300
H  1.86300 51.14600 43.42900
H  6.34100 49.27200 42.26000
H  4.21000 46.24900 40.20600
H  5.72200 45.37800 39.71400
H  5.10600 46.71800 38.73900

