158

Mg 36.48500 49.27900 24.91900
C  36.15200 47.45500 27.79000
C  35.30300 52.09000 26.40200
C  36.32600 50.73500 21.86400
C  37.35200 46.20000 23.26600
N  35.61100 49.66400 26.88800
C  35.86700 48.83700 27.99300
C  35.41800 49.54200 29.26200
C  35.18800 51.06300 28.78000
C  35.45200 50.95200 27.23000
C  33.73500 51.77800 29.13400
C  36.36900 49.38800 30.56300
C  35.77700 48.87400 31.93500
H  34.26400 49.03700 32.18000
N  35.83600 51.12900 24.23800
C  35.46500 52.16500 24.99900
C  35.17400 53.31200 24.25200
C  35.36200 52.97100 22.85900
C  35.86800 51.62200 22.94200
C  34.60400 54.59700 24.92400
C  35.25100 53.80300 21.67000
O  35.40900 53.38400 20.51600
C  34.95800 55.26300 21.75200
N  37.03600 48.62000 22.83400
C  36.70800 49.41100 21.83800
C  37.08500 48.74900 20.52400
C  37.75400 47.41000 21.01300
C  37.40400 47.34300 22.45800
C  35.89900 48.58100 19.62100
C  39.30900 47.36900 20.73200
C  40.27500 48.01600 21.68900
N  36.79400 47.29100 25.41000
C  37.17200 46.15700 24.65100
C  37.28400 44.96600 25.54800
C  36.76000 45.41100 26.78700
C  36.56800 46.85400 26.63700
C  37.63800 43.53100 25.13400
C  36.41800 45.08600 28.15100
O  36.51000 44.03000 28.79100
C  36.08900 46.42300 28.88900
C  34.85200 46.27400 29.75500
O  33.75700 46.66600 29.55200
O  35.18800 45.46400 30.79300
C  34.07700 45.05900 31.61900
H  35.14900 53.02600 26.94400
H  36.11700 51.16500 20.88200
H  37.72100 45.29300 22.78200
H  34.45100 49.15000 29.58000
H  35.98000 51.71500 29.14800
H  33.12800 51.84700 28.23100
H  33.78900 52.71900 29.68300
H  33.32500 51.03000 29.81300
H  36.88400 50.30400 30.85400
H  37.15500 48.72100 30.20700
H  36.33800 49.28600 32.77400
H  35.97700 47.80400 31.88900
H  33.97000 55.22400 24.29700
H  35.36100 55.21100 25.41200
H  33.86400 54.32500 25.67700
H  33.90500 55.19100 22.02500
H  35.05900 55.78000 20.79800
H  35.52600 55.79900 22.51100
H  37.85900 49.37600 20.08100
H  37.45700 46.47000 20.54700
H  35.05900 49.24400 19.82900
H  35.48600 47.57200 19.61800
H  36.10600 48.83100 18.58000
H  39.40000 47.70400 19.69900
H  39.48900 46.29500 20.76700
H  39.83700 48.72100 22.39600
H  41.11600 48.48100 21.17400
H  40.64600 47.13000 22.20500
H  38.69200 43.27400 25.03400
H  37.19300 43.28600 24.17000
H  37.21800 42.86100 25.88400
H  36.84800 46.71100 29.61600
H  33.09500 44.98700 31.15200
H  34.09400 45.73000 32.47800
H  34.33300 44.06500 31.98500
Mg -11.92700 38.68500 42.72200
C  -10.06700 36.13000 41.52500
C  -9.89500 40.94700 41.12900
C  -14.21900 41.23100 43.12500
C  -14.34000 36.34000 43.76400
N  -10.28600 38.47500 41.45900
C  -9.55900 37.37800 41.17400
C  -8.30200 37.66400 40.33500
C  -8.21800 39.25000 40.37800
C  -9.57000 39.60400 41.09900
C  -7.13100 39.73900 41.35500
C  -8.14700 37.00600 38.98800
C  -6.83200 36.22200 38.64100
H  -6.01200 36.94900 37.44500
N  -12.01600 40.86400 42.30900
C  -11.02600 41.56300 41.63200
C  -11.35000 42.99300 41.69900
C  -12.58800 43.11000 42.25900
C  -12.99500 41.70200 42.58900
C  -10.45100 44.13500 41.22200
C  -13.40000 44.42400 42.57500
O  -12.76500 45.46500 42.34100
C  -14.80200 44.59800 43.09600
N  -13.95300 38.72700 43.41000
C  -14.65800 39.88400 43.50300
C  -16.05900 39.59100 44.03200
C  -16.10200 38.09000 44.30500
C  -14.67200 37.69100 43.78200
C  -16.44000 40.53300 45.27500
C  -17.17600 37.42700 43.36700
C  -17.70300 36.12500 43.85600
N  -12.11200 36.57500 42.85300
C  -13.14300 35.76600 43.19300
C  -12.69700 34.41900 43.12600
C  -11.51300 34.50600 42.43700
C  -11.23100 35.83100 42.24200
C  -13.45900 33.10600 43.46000
C  -10.52700 33.75100 41.73300
O  -10.36900 32.53900 41.46900
C  -9.45800 34.74700 41.25200
C  -8.23800 34.42900 41.98000
O  -8.09600 34.53400 43.19100
O  -7.31200 33.79400 41.15000
C  -6.15500 33.37600 41.90900
H  -9.19800 41.53900 40.53300
H  -14.99600 41.99600 43.19000
H  -15.03000 35.64700 44.25100
H  -7.56300 37.22800 41.00700
H  -8.13900 39.79400 39.43700
H  -6.41200 38.95200 41.58100
H  -7.51900 39.98600 42.34300
H  -6.63000 40.57100 40.85900
H  -8.29600 37.85600 38.32200
H  -8.96900 36.32300 38.77700
H  -6.97400 35.18200 38.34400
H  -6.20700 36.20200 39.53400
H  -11.08900 44.77100 40.60900
H  -9.69900 43.67600 40.58000
H  -9.98500 44.63600 42.07100
H  -15.48700 44.08800 42.41800
H  -15.03700 45.66100 43.15200
H  -14.73600 44.19600 44.10700
H  -16.66700 40.03600 43.24400
H  -16.22800 37.80300 45.34900
H  -17.05900 40.06400 46.03900
H  -17.00600 41.35700 44.84100
H  -15.59500 41.07200 45.70500
H  -16.72600 37.31500 42.38000
H  -18.03100 38.08800 43.22400
H  -17.35500 35.95300 44.87500
H  -17.42500 35.39100 43.09900
H  -18.77300 36.11300 43.64600
H  -13.70200 32.86800 44.49600
H  -12.81000 32.31400 43.08600
H  -14.31100 33.18000 42.78400
H  -9.31000 34.62500 40.17900
H  -5.63600 34.27500 42.24100
H  -5.47200 32.94400 41.17800
H  -6.49100 32.70600 42.70100

