158

Mg 35.59200 1.53000 30.06500
C  33.54100 2.93000 32.64600
C  38.25800 2.03200 32.35300
C  37.73900 0.92300 27.56100
C  32.94900 1.93500 27.89500
N  35.80400 2.12400 32.33700
C  34.80300 2.57600 33.14500
C  35.29300 2.64700 34.60500
C  36.85400 2.74600 34.39200
C  37.02000 2.28000 32.89600
C  37.47400 4.11700 34.70400
C  34.71700 1.53600 35.53500
C  34.75900 1.79200 37.07300
H  35.47700 3.04300 37.47900
N  37.67400 1.28300 30.01400
C  38.56300 1.61400 30.95900
C  39.88000 1.42200 30.37500
C  39.79500 1.07500 28.99900
C  38.33900 1.10100 28.78100
C  41.15600 1.50800 31.11100
C  40.86700 0.94600 27.91100
O  40.52600 0.46800 26.80700
C  42.39000 1.19100 28.04300
N  35.35500 1.35200 28.07500
C  36.38700 0.97600 27.18700
C  35.87700 0.81900 25.71700
C  34.30300 0.95300 25.92200
C  34.14800 1.44900 27.41300
C  36.54700 1.92800 24.89700
C  33.46800 -0.37200 25.71200
C  32.35800 -0.29500 24.71500
N  33.65700 2.22500 30.20300
C  32.64900 2.32400 29.21700
C  31.42400 2.84200 29.72800
C  31.72100 3.17400 31.09800
C  33.06300 2.80900 31.28700
C  30.20700 3.24900 28.97000
C  31.18200 3.64900 32.35600
O  30.13700 4.19900 32.56200
C  32.34100 3.46700 33.41300
C  32.64500 4.75100 34.09600
O  33.13800 5.66000 33.46600
O  32.36600 4.84700 35.41700
C  32.69200 6.14700 36.06300
H  39.12800 2.33700 32.94000
H  38.29300 0.83800 26.62400
H  32.08000 1.96100 27.23400
H  34.86500 3.60000 34.91800
H  37.36500 2.06900 35.07700
H  37.49900 4.61900 33.73700
H  38.52800 3.93200 34.91000
H  36.86000 4.65500 35.42700
H  35.34900 0.66700 35.35000
H  33.72000 1.36900 35.12700
H  35.18100 0.90200 37.53900
H  33.73600 1.83700 37.44900
H  41.61200 0.52600 30.98700
H  41.02500 1.78700 32.15700
H  41.80000 2.20400 30.57200
H  42.86600 0.90100 27.10700
H  42.79700 0.72100 28.93800
H  42.51800 2.26700 27.92400
H  36.13500 -0.16200 25.32000
H  33.89200 1.69900 25.24200
H  36.75000 2.81900 25.49200
H  35.86700 2.28300 24.12300
H  37.47300 1.65000 24.39500
H  33.01100 -0.72500 26.63700
H  34.23200 -1.11000 25.46800
H  32.08400 0.73500 24.48700
H  31.41300 -0.67400 25.10500
H  32.51400 -0.78100 23.75200
H  29.53300 2.40500 28.82600
H  30.48600 3.72400 28.03000
H  29.70800 4.05100 29.51500
H  31.86800 2.82800 34.15800
H  31.78200 6.71100 36.27100
H  33.48200 6.58500 35.45500
H  33.15600 5.80500 36.98800
Mg -11.43700 38.84000 42.38800
C  -9.43700 35.98700 41.34600
C  -9.09700 40.81700 41.00500
C  -13.44100 41.47000 42.94300
C  -13.91300 36.62500 43.30200
N  -9.49600 38.32200 41.30500
C  -8.85000 37.17800 40.96500
C  -7.62800 37.45200 40.11200
C  -7.36000 39.00400 40.18800
C  -8.73300 39.42700 40.84100
C  -6.14500 39.40800 41.01100
C  -7.86600 36.91600 38.66400
C  -6.71600 36.03300 38.19300
H  -5.69400 36.67600 37.21200
N  -11.31100 40.85500 41.89500
C  -10.23500 41.49200 41.39300
C  -10.36800 42.91900 41.55200
C  -11.67000 43.18400 42.10400
C  -12.20100 41.81200 42.29600
C  -9.30000 43.87800 41.11500
C  -12.36100 44.50100 42.37500
O  -11.72500 45.55600 42.29900
C  -13.77600 44.66200 42.72600
N  -13.43300 39.02400 42.85800
C  -13.96400 40.18500 43.23600
C  -15.39100 40.14700 43.79000
C  -15.59000 38.56600 43.80500
C  -14.24500 38.01600 43.26200
C  -15.50300 40.98700 45.07400
C  -16.84000 38.01100 43.05600
C  -18.15700 38.71000 43.24100
N  -11.67000 36.69300 42.47500
C  -12.72500 35.97400 42.93600
C  -12.36300 34.52300 42.92400
C  -11.09300 34.50700 42.29500
C  -10.75100 35.88200 41.99200
C  -13.10600 33.41600 43.49800
C  -10.00800 33.63100 41.82600
O  -9.96300 32.37900 41.71400
C  -8.99600 34.57900 41.11400
C  -7.61900 34.26000 41.60100
O  -7.19000 34.78600 42.62500
O  -6.99100 33.40100 40.78500
C  -5.65700 32.92200 41.23700
H  -8.24300 41.37500 40.61700
H  -14.07800 42.30300 43.24600
H  -14.63200 35.91900 43.72100
H  -6.86300 36.78800 40.51300
H  -7.18300 39.33900 39.16600
H  -5.73400 40.33200 40.60500
H  -5.42800 38.58800 41.02400
H  -6.44100 39.55500 42.05000
H  -7.95800 37.73600 37.95300
H  -8.77400 36.31300 38.66600
H  -7.11000 35.05700 37.90900
H  -6.02700 35.67000 38.95500
H  -9.01000 44.49000 41.96900
H  -9.68700 44.52000 40.32300
H  -8.41100 43.36900 40.74400
H  -14.40500 44.00200 42.12800
H  -14.05400 45.70000 42.54300
H  -13.75800 44.57700 43.81200
H  -15.98100 40.50800 42.94700
H  -15.84600 38.25200 44.81700
H  -14.64200 41.63200 45.24800
H  -15.71700 40.34000 45.92600
H  -16.27500 41.75400 45.01800
H  -17.08300 36.99200 43.35800
H  -16.58000 38.00900 41.99700
H  -18.15400 39.05800 44.27400
H  -18.96300 37.99000 43.10400
H  -18.25000 39.52500 42.52400
H  -12.95300 33.45700 44.57600
H  -12.77700 32.46000 43.09200
H  -14.16100 33.62900 43.32100
H  -9.05100 34.39800 40.04000
H  -5.11900 33.87000 41.24800
H  -5.16100 32.32700 40.47100
H  -5.65400 32.38700 42.18700

