158

Mg 53.77000 24.18300 44.65400
C  51.22000 26.38400 43.75900
C  51.97500 21.61900 43.36600
C  56.57200 22.26600 44.73800
C  55.59100 26.90400 45.77800
N  51.75100 23.98700 43.91900
C  50.97500 25.01500 43.46600
C  49.76600 24.37400 42.62300
C  49.77000 22.87700 43.06800
C  51.23300 22.78200 43.44800
C  48.83600 22.52800 44.18600
C  50.05700 24.63000 41.12000
C  51.43000 24.73800 40.56400
H  52.31600 23.45900 40.42300
N  54.19200 22.12400 44.20300
C  53.29200 21.28400 43.69400
C  53.92500 20.01100 43.38800
C  55.26500 20.10000 43.78100
C  55.38700 21.51900 44.33600
C  53.24400 18.83000 42.84500
C  56.32400 19.06100 43.76400
O  56.08400 18.00700 43.24500
C  57.66400 19.28300 44.45600
N  55.94800 24.59100 44.92800
C  56.78200 23.54700 45.13100
C  58.08300 24.04700 45.76600
C  57.74300 25.53300 46.00100
C  56.31800 25.74400 45.52600
C  58.62200 23.34400 47.06100
C  58.71600 26.54000 45.31300
C  58.55700 26.83700 43.77700
N  53.46900 26.17100 44.94200
C  54.25700 27.13500 45.47000
C  53.57300 28.46700 45.45700
C  52.38200 28.25200 44.76800
C  52.37400 26.80800 44.43800
C  54.19700 29.76700 45.83200
C  51.21400 28.89200 44.20900
O  50.76500 30.01000 44.29800
C  50.45400 27.70500 43.54100
C  50.30600 28.10600 42.09800
O  51.31600 28.40500 41.39300
O  49.01200 27.99600 41.68500
C  48.83200 28.50500 40.36800
H  51.54500 20.77300 42.82700
H  57.51900 21.72300 44.73900
H  56.26300 27.63500 46.23200
H  48.84900 24.95200 42.74100
H  49.64000 22.20800 42.21700
H  48.24200 23.39300 44.48000
H  49.42400 22.23100 45.05400
H  48.20000 21.69600 43.88200
H  49.31100 25.36000 40.80500
H  49.71700 23.77100 40.54200
H  51.94900 25.48700 41.16100
H  51.23700 25.28600 39.64200
H  53.82100 18.37600 42.04000
H  52.21300 19.01400 42.54200
H  53.20800 18.15100 43.69700
H  58.33100 19.87200 43.82600
H  58.12800 18.35300 44.78600
H  57.52500 19.73500 45.43800
H  58.81400 23.99900 44.95900
H  57.72700 25.75300 47.06800
H  59.61700 23.02500 46.75100
H  58.08000 22.41300 47.22600
H  58.79000 23.93700 47.96000
H  59.75900 26.26400 45.47200
H  58.61500 27.51800 45.78300
H  57.88300 26.07000 43.39700
H  59.52200 26.65800 43.30400
H  58.15200 27.84400 43.67500
H  53.87100 30.56800 45.16900
H  55.26200 29.60700 45.66400
H  54.05100 30.07400 46.86800
H  49.42700 27.68700 43.90500
H  49.64500 28.27900 39.67800
H  48.94700 29.58300 40.48000
H  47.81700 28.38900 39.98800
Mg 49.42900 45.12300 42.13700
C  45.93900 44.84600 41.81500
C  49.73300 41.81700 41.79800
C  52.72400 45.56700 41.92500
C  48.96900 48.63100 41.78400
N  48.01900 43.56000 41.75900
C  46.63900 43.59500 41.75400
C  45.97200 42.26500 41.75500
C  47.16200 41.28800 41.96800
C  48.43600 42.26000 41.82300
C  47.20400 40.58100 43.39800
C  45.19000 42.07000 40.41700
C  45.67700 42.76000 39.13700
H  45.11100 42.23200 37.76300
N  51.07900 43.86000 41.98600
C  50.96100 42.52100 41.73200
C  52.24400 41.94000 41.55400
C  53.17200 42.99900 41.81300
C  52.39200 44.25200 41.92000
C  52.44200 40.55200 41.31200
C  54.67300 42.83800 41.96900
O  55.17600 41.76900 41.72800
C  55.62200 43.90800 42.36600
N  50.69600 46.83600 41.86000
C  51.99000 46.80300 41.94200
C  52.62500 48.16200 42.11500
C  51.46700 49.11200 42.10500
C  50.31200 48.16900 41.90800
C  53.49900 48.41200 43.38700
C  51.53200 50.30900 41.10100
C  51.01500 50.05600 39.65000
N  47.81600 46.53400 41.85400
C  47.79600 47.87700 41.79100
C  46.37700 48.35200 41.81400
C  45.64400 47.15800 41.80300
C  46.50100 46.11200 41.83900
C  45.86500 49.85000 41.72200
C  44.25300 46.66300 41.80800
O  43.17800 47.25300 41.71200
C  44.40600 45.13700 41.80900
C  43.65100 44.54100 43.03200
O  43.08500 43.43100 43.05500
O  43.85500 45.38200 44.16200
C  43.56600 44.66400 45.43600
H  49.80000 40.73000 41.87300
H  53.79400 45.74600 41.80000
H  48.70700 49.68900 41.85400
H  45.32100 42.24700 42.63000
H  47.18400 40.50800 41.20700
H  46.30100 40.76200 43.98100
H  48.13500 40.78900 43.92500
H  47.30600 39.51000 43.22000
H  44.13700 42.34800 40.47000
H  45.01000 40.99700 40.35600
H  46.76100 42.66400 39.08900
H  45.53200 43.83600 39.24000
H  52.25000 40.10800 42.28900
H  53.45700 40.21300 41.10400
H  51.84200 40.06000 40.54600
H  55.28700 44.34500 43.30700
H  55.53200 44.53900 41.48200
H  56.59700 43.42200 42.37300
H  53.15400 48.41400 41.19600
H  51.29500 49.48100 43.11600
H  52.82100 48.44200 44.23900
H  54.17100 49.26800 43.31100
H  54.15600 47.58100 43.64300
H  52.57800 50.60900 41.04900
H  51.03700 51.15700 41.57400
H  50.15800 50.70600 39.47800
H  50.72000 49.04200 39.37800
H  51.78800 50.36100 38.94600
H  46.16600 50.31000 42.66300
H  44.78000 49.76100 41.78100
H  46.13200 50.31100 40.77100
H  43.85200 44.58700 41.04900
H  44.06900 43.69700 45.42400
H  42.49400 44.62400 45.62800
H  43.98300 45.12800 46.33100

