158

Mg 49.22700 35.09700 27.57700
C  47.33200 33.49200 30.16800
C  49.69800 37.69400 29.85500
C  50.87600 36.70100 25.17300
C  48.58100 32.40100 25.53900
N  48.60500 35.50300 29.78200
C  48.00100 34.65500 30.60500
C  48.07500 35.15500 32.03200
C  48.39900 36.73900 31.86200
C  48.91300 36.70700 30.43500
C  47.15200 37.71500 31.88200
C  49.21500 34.48000 32.84700
C  49.03300 34.42800 34.36700
H  47.94500 35.30700 35.03400
N  50.23500 36.93300 27.49700
C  50.34400 37.84000 28.59500
C  50.95300 39.01200 28.01800
C  51.36800 38.67900 26.71900
C  50.90000 37.37300 26.43600
C  51.24400 40.17600 28.95700
C  52.06000 39.58500 25.69800
O  52.21000 39.28100 24.53100
C  52.23500 41.04600 26.06400
N  49.64400 34.63900 25.61800
C  50.46000 35.40400 24.79100
C  50.85100 34.63100 23.45100
C  50.19100 33.25400 23.76400
C  49.48300 33.33600 25.06200
C  50.48000 35.31100 22.12500
C  51.14200 32.02800 23.76300
C  50.74400 30.76100 22.95600
N  48.02100 33.39600 27.71600
C  47.87400 32.41700 26.77500
C  46.90000 31.45000 27.23900
C  46.71000 31.76900 28.57700
C  47.37000 32.98400 28.80900
C  46.54600 30.10100 26.57400
C  46.01200 31.37000 29.76900
O  45.23000 30.47100 29.98400
C  46.35800 32.44600 30.86000
C  46.58400 31.85200 32.21300
O  47.57100 31.21600 32.59200
O  45.50200 32.27500 33.08600
C  45.80700 32.01900 34.49900
H  49.72300 38.55800 30.52200
H  51.40300 37.11600 24.31200
H  48.47300 31.58300 24.82400
H  47.06200 35.04700 32.42000
H  49.21700 37.00600 32.53100
H  47.18300 38.12400 30.87300
H  47.28100 38.57200 32.54400
H  46.22100 37.16300 32.01200
H  50.16200 34.99100 32.67100
H  49.26400 33.47500 32.42900
H  50.02000 34.68400 34.75200
H  48.92300 33.40100 34.71400
H  50.36900 40.43800 29.55300
H  51.48500 41.09700 28.42500
H  52.06500 40.05400 29.66300
H  52.82000 41.53400 25.28500
H  52.75000 41.24600 27.00400
H  51.25500 41.51500 25.98900
H  51.92500 34.52600 23.60300
H  49.36500 33.06900 23.07700
H  49.95800 36.20600 22.46500
H  49.78900 34.74500 21.50000
H  51.41200 35.62900 21.65900
H  51.29500 31.63600 24.76900
H  52.15800 32.29800 23.47900
H  51.18500 29.93800 23.51900
H  51.21100 30.83900 21.97400
H  49.65700 30.73400 22.88200
H  45.48000 30.00900 26.36800
H  46.90800 29.26500 27.17200
H  47.04000 29.91000 25.62100
H  45.45100 33.03200 31.00600
H  45.05200 32.53600 35.09100
H  46.75600 32.44700 34.82300
H  45.66200 30.95200 34.66800
Mg -5.52900 25.12500 25.59000
C  -4.02900 26.23200 28.46400
C  -7.34300 22.82700 27.56100
C  -6.30600 23.28900 22.79500
C  -3.15800 26.86600 23.69800
N  -5.64300 24.56600 27.78800
C  -5.12300 25.42200 28.74800
C  -5.52300 24.92700 30.15800
C  -6.45500 23.58500 29.85100
C  -6.54900 23.70000 28.25000
C  -5.76400 22.19000 30.29900
C  -6.30200 26.05400 30.91600
C  -5.79600 26.51800 32.31800
H  -5.09200 25.45000 33.21000
N  -6.81000 23.45500 25.23400
C  -7.48600 22.72700 26.11500
C  -8.25700 21.70500 25.46200
C  -8.04800 21.80800 24.12300
C  -6.99300 22.87200 23.99100
C  -9.29700 20.78500 26.13100
C  -8.67600 21.09700 22.88200
O  -8.33700 21.42400 21.77900
C  -9.89500 20.25200 22.94300
N  -4.88500 25.26400 23.57400
C  -5.36300 24.39400 22.63400
C  -4.80700 24.74500 21.24400
C  -3.85700 25.96900 21.48700
C  -4.03000 26.10700 22.98200
C  -4.13000 23.63400 20.43600
C  -4.26600 27.30100 20.78800
C  -3.09600 28.02000 20.02700
N  -3.94500 26.42400 25.96700
C  -3.04800 27.03200 25.10900
C  -2.24700 27.91100 25.96400
C  -2.57700 27.51200 27.27700
C  -3.61400 26.67400 27.21500
C  -1.24000 28.96800 25.56400
C  -2.22700 27.73700 28.68900
O  -1.42100 28.46600 29.22000
C  -3.13900 26.89900 29.44100
C  -2.30700 26.03400 30.30200
O  -1.69000 25.05800 29.86700
O  -2.22000 26.52300 31.58800
C  -1.28700 25.79900 32.48100
H  -7.99200 22.14100 28.10900
H  -6.50900 22.87600 21.80500
H  -2.35900 27.37200 23.15100
H  -4.58000 24.60200 30.59800
H  -7.31200 23.83900 30.47400
H  -6.47800 21.75100 30.99500
H  -4.82400 22.30200 30.83800
H  -5.54700 21.46600 29.51400
H  -7.38200 25.90700 30.93700
H  -6.12200 26.88300 30.23200
H  -6.66200 26.75400 32.93600
H  -5.09300 27.35100 32.30100
H  -9.37900 19.83900 25.59500
H  -10.19500 21.37800 25.95700
H  -9.15000 20.58900 27.19300
H  -9.95100 19.69900 22.00500
H  -10.70400 20.92800 23.22000
H  -9.85000 19.50200 23.73300
H  -5.69400 25.01800 20.67200
H  -2.81000 25.69600 21.36000
H  -3.04600 23.74300 20.43400
H  -4.51900 23.69500 19.41900
H  -4.38100 22.66000 20.85600
H  -4.67900 27.94600 21.56500
H  -5.05200 27.01200 20.09000
H  -2.10600 27.95000 20.47900
H  -3.32800 29.08400 19.98700
H  -3.03100 27.57000 19.03700
H  -0.51300 28.69800 24.79800
H  -0.69300 29.22300 26.47100
H  -1.78800 29.84200 25.21200
H  -3.64800 27.50000 30.19500
H  -0.26900 25.90900 32.10700
H  -1.48800 24.73000 32.55300
H  -1.29400 26.15100 33.51200

