158

Mg -0.96900 17.81400 27.31800
C  -1.68900 15.66700 30.09800
C  -1.55200 20.45300 29.41300
C  -0.64100 19.79900 24.73500
C  -0.64400 14.95600 25.30200
N  -1.57800 18.01300 29.57100
C  -1.74000 17.05100 30.49600
C  -2.00400 17.68600 31.82700
C  -2.21200 19.15600 31.50400
C  -1.67200 19.22900 30.09200
C  -3.59400 19.73400 31.66900
C  -0.83300 17.53200 32.82000
C  -1.29100 16.81800 34.14800
H  -0.17800 16.57900 35.14300
N  -1.11100 19.82500 27.11400
C  -1.30300 20.78200 28.10200
C  -1.17400 22.15400 27.60000
C  -1.00800 21.99400 26.18800
C  -0.93700 20.54200 25.91700
C  -1.22300 23.39500 28.37700
C  -0.80700 23.03100 25.07300
O  -0.75400 22.76300 23.88200
C  -0.62300 24.46600 25.44300
N  -0.66700 17.40200 25.24700
C  -0.60600 18.44700 24.40600
C  -0.34300 17.92700 22.98100
C  -0.16000 16.39900 23.14200
C  -0.60000 16.20000 24.64200
C  -1.50900 18.40400 21.97300
C  1.31400 15.84600 22.93800
C  2.42000 16.31400 23.90600
N  -1.06200 15.77300 27.53900
C  -0.78800 14.76100 26.70200
C  -1.02900 13.52900 27.38200
C  -1.30700 13.79600 28.67900
C  -1.34600 15.24000 28.75500
C  -1.05300 12.16200 26.79600
C  -1.65300 13.18900 29.95100
O  -1.79300 12.02800 30.24100
C  -1.77800 14.38100 30.94700
C  -0.73800 14.17100 32.01300
O  0.39300 14.63800 31.98200
O  -1.33400 13.48100 32.99400
C  -0.55500 13.11700 34.15600
H  -1.79300 21.29900 30.06100
H  -0.53800 20.33800 23.79100
H  -0.47400 14.02500 24.75700
H  -2.89000 17.20900 32.24400
H  -1.58100 19.81200 32.10500
H  -3.98500 20.00700 30.68900
H  -3.52100 20.57800 32.35400
H  -4.31700 19.11800 32.20400
H  -0.44600 18.50300 33.12800
H  0.07500 17.08200 32.41900
H  -1.73500 15.86600 33.85600
H  -1.96300 17.44100 34.73700
H  -1.56200 23.25300 29.40300
H  -1.96500 24.04800 27.91600
H  -0.24700 23.87800 28.33400
H  -0.21000 24.94000 24.55300
H  0.10000 24.31700 26.24500
H  -1.50100 24.96100 25.85900
H  0.62600 18.25700 22.60600
H  -0.77900 15.85200 22.43100
H  -2.15900 17.62200 21.58100
H  -1.10100 19.12500 21.26400
H  -2.30500 18.88400 22.54200
H  1.66900 16.23600 21.98400
H  1.23600 14.75900 22.97500
H  1.91400 16.87300 24.69400
H  3.05200 17.09100 23.47600
H  3.00000 15.42200 24.14300
H  -0.50300 12.22000 25.85600
H  -2.07100 11.97800 26.45600
H  -0.77800 11.32900 27.44300
H  -2.75600 14.26000 31.41300
H  0.38300 13.67300 34.16600
H  -0.25600 12.06900 34.16300
H  -1.21000 13.43300 34.96800
Mg 24.55600 -5.48700 45.71300
C  26.64700 -3.11200 44.22300
C  21.99000 -4.41100 43.52900
C  22.69900 -8.10400 46.68800
C  27.34500 -6.88800 47.29900
N  24.36800 -3.99400 44.14200
C  25.37600 -3.10100 43.68000
C  24.94400 -2.37200 42.44200
C  23.39000 -2.48900 42.50200
C  23.20500 -3.73500 43.43300
C  22.63900 -1.23000 42.92400
C  25.79300 -2.98700 41.19400
C  26.67300 -2.11600 40.38200
H  26.26500 -1.98300 38.89700
N  22.57300 -6.10400 45.26100
C  21.70100 -5.50300 44.37200
C  20.43300 -6.19000 44.46300
C  20.61200 -7.36500 45.30000
C  22.01600 -7.19600 45.83800
C  19.24000 -5.74400 43.64000
C  19.52300 -8.48800 45.52800
O  18.41600 -8.33300 45.23600
C  19.90000 -9.84000 46.20400
N  25.02500 -7.15200 46.91600
C  24.06200 -8.06100 47.19400
C  24.68600 -9.27600 47.88900
C  26.13900 -8.86100 48.28800
C  26.18500 -7.58000 47.41200
C  23.87300 -9.87800 48.99500
C  27.20800 -9.95300 47.83500
C  28.33100 -10.14300 48.92000
N  26.57500 -4.98800 45.96100
C  27.57800 -5.66100 46.62700
C  28.81300 -4.84800 46.44100
C  28.45000 -3.87600 45.49500
C  27.11000 -3.95700 45.32400
C  30.10200 -5.20700 47.05100
C  29.00800 -2.77000 44.73400
O  30.16100 -2.33900 44.59700
C  27.80100 -2.27200 43.81100
C  27.62900 -0.84800 44.08000
O  26.80100 -0.27300 44.78100
O  28.53600 -0.18600 43.27500
C  28.43200 1.24700 43.34800
H  21.22100 -4.12000 42.81000
H  22.18900 -9.03400 46.95000
H  28.24500 -7.33500 47.72800
H  25.17700 -1.31500 42.57600
H  23.06000 -2.85000 41.52800
H  23.07700 -0.31900 42.51500
H  22.76200 -1.23400 44.00700
H  21.55600 -1.26300 42.81100
H  25.05100 -3.32300 40.47000
H  26.35500 -3.86800 41.50500
H  27.68300 -2.49900 40.23900
H  26.72500 -1.08800 40.74100
H  19.18900 -6.17000 42.63800
H  19.22000 -4.68300 43.39100
H  18.34300 -6.04900 44.18000
H  19.05100 -10.52100 46.15500
H  20.19500 -9.60800 47.22700
H  20.69200 -10.29100 45.60600
H  24.59600 -9.98500 47.06600
H  26.28100 -8.49200 49.30400
H  22.92400 -9.36800 49.16100
H  24.43000 -9.88000 49.93100
H  23.65500 -10.88100 48.62700
H  27.65400 -9.71200 46.87000
H  26.74200 -10.93300 47.73000
H  29.31400 -9.78200 48.61700
H  28.36100 -11.18500 49.23800
H  28.10100 -9.56400 49.81400
H  30.43300 -6.16100 46.64100
H  29.98200 -5.34200 48.12500
H  30.87300 -4.45400 46.88600
H  28.05600 -2.36000 42.75500
H  29.32000 1.69700 42.90400
H  28.38700 1.63500 44.36600
H  27.55500 1.47100 42.74100

