158

Mg 2.35800 -1.46800 44.29100
C  5.38200 -0.02700 43.26600
C  0.64200 0.83500 42.40700
C  -0.45600 -3.10200 44.97900
C  4.21300 -4.20200 45.57600
N  2.97500 0.22800 43.14500
C  4.25100 0.64900 42.80400
C  4.18300 1.85500 41.86000
C  2.62900 2.21500 41.76600
C  2.02400 0.97700 42.47800
C  2.16300 3.64700 42.40300
C  4.99100 1.72200 40.58000
C  6.03600 2.82600 40.23000
H  5.93800 3.52900 38.85700
N  0.26200 -1.17000 43.82400
C  -0.17900 -0.16900 42.99300
C  -1.59800 -0.32900 42.79400
C  -1.95100 -1.48600 43.51100
C  -0.70500 -1.97400 44.08900
C  -2.38700 0.64700 41.93000
C  -3.34500 -2.09100 43.49400
O  -4.24700 -1.68300 42.78900
C  -3.65200 -3.32800 44.33200
N  1.92900 -3.46400 45.10700
C  0.72300 -3.68200 45.55500
C  0.71500 -4.97000 46.38500
C  2.24000 -5.41600 46.37400
C  2.81300 -4.28600 45.70000
C  0.05800 -5.00300 47.87000
C  2.43400 -6.83700 45.74200
C  3.36400 -7.66600 46.57200
N  4.33300 -2.08800 44.35400
C  4.91300 -3.20500 44.93000
C  6.36800 -3.16900 44.68900
C  6.57200 -1.91000 44.08900
C  5.32600 -1.26100 43.96400
C  7.27600 -4.19300 45.29400
C  7.55600 -0.97900 43.65200
O  8.79500 -1.10100 43.70500
C  6.84700 0.29300 43.07100
C  7.27700 1.47300 43.85900
O  6.85800 1.68300 44.98100
O  8.27100 2.24500 43.25600
C  8.78500 3.38900 44.04500
H  0.02500 1.54700 41.85400
H  -1.36100 -3.53500 45.41200
H  4.71700 -5.03100 46.07800
H  4.65200 2.67700 42.40000
H  2.31200 2.24300 40.72300
H  1.44700 3.61100 43.22500
H  1.67300 4.17800 41.58800
H  2.99200 4.22400 42.81100
H  4.32700 1.68800 39.71600
H  5.42000 0.72400 40.66400
H  6.99000 2.30100 40.17100
H  5.96200 3.52200 41.06500
H  -2.64000 0.24100 40.95100
H  -1.96200 1.63500 41.75300
H  -3.34600 0.86200 42.40100
H  -4.68300 -3.54600 44.05300
H  -3.59100 -3.01800 45.37500
H  -2.98200 -4.12000 43.99900
H  0.12000 -5.69000 45.82300
H  2.53900 -5.41200 47.42200
H  0.09800 -4.12000 48.50700
H  0.68500 -5.63700 48.49700
H  -0.96100 -5.33200 47.66800
H  3.01500 -6.73500 44.82600
H  1.57300 -7.45800 45.49500
H  3.36300 -8.65300 46.11000
H  3.01700 -7.71800 47.60400
H  4.31800 -7.14000 46.60000
H  7.21900 -5.08900 44.67600
H  7.01700 -4.59100 46.27500
H  8.25900 -3.79700 45.03500
H  7.32100 0.58600 42.13500
H  9.49700 3.10400 44.81900
H  7.96600 3.86600 44.58400
H  9.14200 4.22100 43.43800
Mg -10.61100 16.12200 42.58300
C  -7.22800 16.60600 41.91600
C  -11.35400 19.28700 41.28100
C  -13.97400 15.47400 42.77300
C  -9.99500 12.73000 43.16400
N  -9.35500 17.78700 41.74700
C  -8.02500 17.76000 41.62700
C  -7.51700 19.03600 40.97900
C  -8.86400 19.95100 40.98200
C  -9.97700 18.94200 41.40200
C  -8.86000 21.17900 41.92500
C  -6.99200 18.62000 39.57900
C  -5.54300 19.18500 39.17700
H  -4.95300 18.77000 37.89000
N  -12.40800 17.22500 42.12600
C  -12.45900 18.53100 41.69300
C  -13.86900 18.97300 41.46700
C  -14.62400 17.91800 42.00300
C  -13.67900 16.78100 42.33900
C  -14.31700 20.36600 40.94800
C  -16.18300 18.09400 42.31600
O  -16.76000 19.16400 42.01100
C  -17.01500 17.07800 42.95300
N  -11.87600 14.30300 42.72400
C  -13.13600 14.42500 43.07900
C  -13.67100 12.95400 43.50600
C  -12.36400 12.13800 43.54100
C  -11.35500 13.08800 43.09800
C  -14.43000 12.90000 44.86400
C  -12.39300 10.87900 42.58600
C  -12.44100 9.54100 43.35700
N  -9.04300 14.92000 42.54600
C  -8.92200 13.58000 42.77500
C  -7.54700 13.23100 43.00000
C  -6.82300 14.40800 42.57700
C  -7.76900 15.37300 42.31400
C  -6.94600 11.89700 43.59200
C  -5.45200 14.96400 42.29200
O  -4.37800 14.35900 42.24500
C  -5.73400 16.43500 41.86400
C  -5.13300 17.24200 42.90400
O  -5.59300 17.36400 44.03600
O  -3.98200 17.86400 42.52200
C  -3.45000 18.97900 43.39000
H  -11.55500 20.19500 40.70900
H  -15.03100 15.27100 42.95800
H  -9.85000 11.68100 43.42900
H  -6.68700 19.42800 41.56700
H  -9.00300 20.24300 39.94100
H  -7.90500 21.25900 42.44400
H  -9.73300 21.17000 42.57800
H  -9.01700 21.98600 41.21000
H  -7.71800 19.02200 38.87200
H  -6.94500 17.55500 39.35200
H  -4.88700 19.06500 40.03900
H  -5.80900 20.23800 39.08500
H  -14.87100 20.75300 41.80300
H  -14.79200 20.17400 39.98600
H  -13.49800 21.05000 40.72300
H  -17.88700 17.64300 43.28300
H  -16.53200 16.60200 43.80600
H  -17.20200 16.28200 42.23100
H  -14.41100 12.63300 42.77300
H  -12.07200 11.84800 44.55000
H  -14.09800 12.18400 45.61600
H  -15.51200 12.80300 44.76800
H  -14.34000 13.89200 45.30500
H  -11.55800 10.97800 41.89200
H  -13.25700 10.92100 41.92200
H  -11.54100 8.95300 43.17700
H  -13.27800 8.86100 43.19400
H  -12.43000 9.67200 44.43900
H  -7.58700 11.06200 43.30900
H  -7.07400 12.14400 44.64600
H  -5.90400 11.75800 43.30500
H  -5.29900 16.69500 40.89900
H  -3.06100 19.71700 42.68700
H  -2.62900 18.57300 43.98100
H  -4.16300 19.45000 44.06700

