158

Mg 41.22300 8.62500 29.79900
C  42.99600 9.98000 32.42900
C  38.95100 7.39100 32.06100
C  39.54800 7.33900 27.21400
C  43.88800 9.48100 27.73900
N  41.16500 8.56400 31.98700
C  41.91200 9.24200 32.87200
C  41.30300 9.21500 34.29900
C  40.10900 8.16200 34.11500
C  40.07100 8.00100 32.62000
C  40.23200 6.79700 34.86600
C  40.81700 10.64000 34.84300
C  40.13300 10.69000 36.20000
H  40.67500 11.69300 37.21500
N  39.48200 7.65300 29.66100
C  38.55500 7.28900 30.66400
C  37.32200 6.93400 30.12100
C  37.47700 7.17800 28.72400
C  38.92100 7.42400 28.43700
C  36.06900 6.55400 30.89600
C  36.45700 7.17200 27.62800
O  36.65000 7.35700 26.41500
C  35.09700 6.87900 28.03300
N  41.66400 8.28000 27.73500
C  40.84700 7.73100 26.84800
C  41.54500 7.64600 25.38900
C  43.00700 8.23300 25.73100
C  42.90300 8.69700 27.17800
C  41.44400 6.12700 24.97800
C  43.47200 9.20800 24.63400
C  44.82800 8.90600 23.99700
N  43.03400 9.65800 29.93700
C  43.99400 9.93600 29.01300
C  45.05000 10.67900 29.60500
C  44.65000 10.86700 30.96100
C  43.48000 10.13600 31.13200
C  46.30300 11.02500 29.00700
C  45.07200 11.40300 32.27000
O  46.01700 12.11900 32.52400
C  43.88100 10.99700 33.22300
C  44.45700 10.44400 34.42300
O  44.77200 9.32400 34.58900
O  44.66200 11.47400 35.36400
C  45.14200 11.01000 36.70000
H  38.20000 6.89800 32.68300
H  38.97800 6.88800 26.40000
H  44.73200 9.73100 27.09300
H  42.05300 8.72600 34.92100
H  39.17100 8.62100 34.42800
H  40.20500 5.94200 34.19000
H  39.52800 6.69200 35.69200
H  41.20800 6.74500 35.34900
H  40.17000 11.24600 34.20800
H  41.64400 11.32100 35.04400
H  40.04500 9.71800 36.68500
H  39.09000 10.95600 36.02800
H  36.33500 6.42800 31.94500
H  35.86900 5.54300 30.53900
H  35.16500 7.15500 30.79600
H  34.91900 7.69700 28.73100
H  34.97400 5.88000 28.45300
H  34.35300 6.88900 27.23600
H  40.95300 8.31900 24.77000
H  43.74900 7.43900 25.82500
H  42.40300 5.86100 24.53300
H  40.68600 6.06000 24.19800
H  41.14000 5.40900 25.73900
H  43.55000 10.18000 25.12200
H  42.65300 9.39700 23.94000
H  44.81800 8.94200 22.90800
H  45.41600 8.08800 24.41400
H  45.46000 9.72200 24.34800
H  46.94600 10.15900 28.84800
H  46.94200 11.67000 29.61100
H  46.34800 11.39700 27.98300
H  43.23000 11.79500 33.58000
H  46.15100 10.60700 36.61700
H  44.56000 10.25800 37.23300
H  45.26100 11.86400 37.36600
Mg -5.57500 25.17300 25.93200
C  -4.25500 26.52900 28.80200
C  -7.77200 23.32800 27.72400
C  -6.30600 23.47800 23.05200
C  -3.15700 27.14400 24.10600
N  -5.78000 24.83800 28.05700
C  -5.23300 25.56200 29.08300
C  -5.84400 25.12600 30.41800
C  -6.82500 24.04600 30.02200
C  -6.85400 24.08000 28.49200
C  -6.46100 22.63600 30.66000
C  -6.52900 26.40100 31.03100
C  -6.52900 26.64700 32.52800
H  -6.01700 25.47100 33.43100
N  -6.99000 23.71500 25.43600
C  -7.82400 23.08600 26.37500
C  -8.57400 22.08300 25.69300
C  -8.21700 22.17000 24.25100
C  -7.07700 23.12800 24.20800
C  -9.65700 21.31400 26.31200
C  -8.74600 21.46200 22.97400
O  -8.40600 21.78400 21.83400
C  -9.75400 20.46000 23.17000
N  -4.73200 25.22200 23.93200
C  -5.25300 24.41200 22.93400
C  -4.47300 24.74900 21.58500
C  -3.89200 26.12700 21.95100
C  -3.85800 26.16300 23.43500
C  -3.42600 23.72000 21.07100
C  -4.47300 27.43600 21.36300
C  -3.47300 28.11900 20.46500
N  -4.01300 26.57300 26.32800
C  -3.21800 27.31500 25.49600
C  -2.44200 28.27900 26.31600
C  -2.75500 27.97600 27.65000
C  -3.73100 26.90500 27.56800
C  -1.44900 29.37500 25.80800
C  -2.50500 28.38700 29.06300
O  -1.73900 29.18700 29.57400
C  -3.45600 27.41300 29.83500
C  -2.77500 26.53400 30.83200
O  -2.15800 25.53700 30.56400
O  -2.88800 27.07400 32.09500
C  -1.99500 26.35300 33.13000
H  -8.57500 22.84700 28.28700
H  -6.48300 22.90900 22.13700
H  -2.57200 27.81000 23.46900
H  -5.09000 24.79900 31.13300
H  -7.85100 24.28600 30.30000
H  -6.37500 21.87200 29.88700
H  -7.27300 22.23600 31.26700
H  -5.58300 22.63900 31.30500
H  -7.59300 26.37200 30.79700
H  -6.22400 27.31300 30.51800
H  -7.57500 26.74500 32.81600
H  -5.91800 27.53700 32.68000
H  -9.19300 20.50700 26.87900
H  -10.36900 20.91400 25.59100
H  -10.19700 21.97800 26.98700
H  -9.81000 19.78900 22.31200
H  -10.71600 20.85300 23.49700
H  -9.43400 19.78100 23.96000
H  -5.22200 24.74000 20.79300
H  -2.81700 26.03300 21.79300
H  -2.37600 23.91200 21.28800
H  -3.58100 23.53300 20.00900
H  -3.60500 22.86300 21.72000
H  -4.67400 28.11100 22.19500
H  -5.37700 27.09700 20.85800
H  -3.00400 28.97900 20.94300
H  -3.96000 28.38700 19.52700
H  -2.61500 27.52400 20.15000
H  -0.70300 29.54700 26.58400
H  -1.76500 30.34300 25.41900
H  -0.92200 28.84000 25.01800
H  -4.05800 28.12200 30.40300
H  -2.14300 25.27500 33.06300
H  -2.14300 26.73500 34.14000
H  -0.92900 26.55400 33.02200

