158

Mg 24.16800 -5.69900 46.32500
C  26.14400 -3.30500 44.60700
C  21.62600 -4.90100 43.99800
C  22.56800 -8.52000 47.23800
C  26.94900 -6.75100 47.94600
N  23.93900 -4.27700 44.44200
C  24.87400 -3.42000 43.99200
C  24.32200 -2.58900 42.87200
C  22.80700 -2.76100 43.06600
C  22.75200 -4.09100 43.81000
C  22.04600 -1.71300 43.90900
C  24.86900 -2.99600 41.45300
C  25.32300 -1.69100 40.68300
H  24.72100 -1.46600 39.20400
N  22.32200 -6.45100 45.86300
C  21.45700 -6.05600 44.86200
C  20.31100 -6.92900 44.87700
C  20.45800 -7.85800 45.89700
C  21.84000 -7.63600 46.44800
C  19.05100 -6.65300 43.93700
C  19.40700 -8.91300 46.29600
O  18.32600 -8.89600 45.72900
C  19.53000 -10.08500 47.28700
N  24.73500 -7.47600 47.33600
C  23.85100 -8.45700 47.70600
C  24.57400 -9.57200 48.65300
C  25.85300 -8.67500 49.11900
C  25.88600 -7.59400 48.05300
C  23.63600 -10.24900 49.76300
C  27.10400 -9.55300 49.29500
C  27.88400 -9.18900 50.57700
N  26.08400 -5.15800 46.37600
C  27.10500 -5.64100 47.08200
C  28.36100 -4.88900 46.89100
C  27.99500 -4.05200 45.93400
C  26.61900 -4.20700 45.60600
C  29.69600 -5.04200 47.52500
C  28.50300 -2.89900 45.15000
O  29.59400 -2.40700 45.07800
C  27.27800 -2.43900 44.25300
C  27.21300 -0.93000 44.38100
O  26.48300 -0.33700 45.15000
O  28.03700 -0.32000 43.47500
C  28.13600 1.13300 43.43100
H  20.89500 -4.52900 43.27700
H  21.95900 -9.38200 47.51800
H  27.72900 -6.99300 48.67000
H  24.50400 -1.55500 43.16400
H  22.34600 -2.84600 42.08200
H  21.57100 -2.15600 44.78500
H  21.23100 -1.32800 43.29700
H  22.66100 -0.83000 44.08400
H  24.24600 -3.54300 40.74500
H  25.79100 -3.55200 41.62200
H  26.41300 -1.66200 40.70500
H  25.07800 -0.82400 41.29700
H  18.91700 -7.53500 43.31100
H  19.16100 -5.72500 43.37500
H  18.18600 -6.33400 44.51900
H  20.01700 -9.65700 48.16300
H  20.13700 -10.90000 46.89500
H  18.54400 -10.46600 47.55400
H  24.94900 -10.44000 48.11100
H  25.56700 -8.16400 50.03800
H  22.64400 -9.79700 49.73700
H  23.94200 -10.03200 50.78600
H  23.61800 -11.33200 49.64000
H  27.74400 -9.37700 48.43100
H  26.73500 -10.57800 49.33900
H  28.90200 -8.84600 50.39200
H  27.92800 -10.12700 51.13100
H  27.31000 -8.45900 51.14800
H  30.47400 -4.85700 46.78500
H  29.66700 -6.05400 47.92900
H  29.97900 -4.34400 48.31200
H  27.55800 -2.62400 43.21600
H  27.47900 1.64800 44.13100
H  27.94000 1.45500 42.40800
H  29.15200 1.44600 43.66900
Mg -11.82200 16.73300 40.71600
C  -8.45600 15.60000 40.48400
C  -10.76000 20.01500 40.05900
C  -14.98000 17.73400 40.44700
C  -12.77300 13.52800 41.36800
N  -9.84900 17.66900 40.24900
C  -8.56600 17.02200 40.16400
C  -7.47600 18.07700 39.91000
C  -8.19800 19.43300 39.67800
C  -9.71700 19.06000 40.03700
C  -7.61100 20.63900 40.43000
C  -6.56700 17.61700 38.58800
C  -5.01400 17.64600 38.84900
H  -4.21700 16.36600 38.79300
N  -12.77400 18.62800 40.35100
C  -12.14800 19.84200 40.21400
C  -13.14400 20.81900 40.17900
C  -14.44900 20.25800 40.40200
C  -14.12000 18.80000 40.37700
C  -12.80700 22.33000 39.87400
C  -15.81400 20.98800 40.68700
O  -15.89400 22.20600 40.57800
C  -16.98000 20.27400 41.40600
N  -13.59300 15.68700 40.52600
C  -14.73200 16.35200 40.53400
C  -15.91100 15.49800 40.98800
C  -15.28700 14.07200 41.09500
C  -13.76600 14.46700 41.06000
C  -16.60500 16.12700 42.23900
C  -15.74700 13.14600 39.87400
C  -16.47800 11.85700 40.31900
N  -10.85100 14.85600 40.96600
C  -11.33800 13.65400 41.27800
C  -10.26000 12.68500 41.49700
C  -9.15100 13.39200 41.17200
C  -9.56500 14.71900 40.81700
C  -10.26600 11.22600 41.85100
C  -7.70900 13.38000 41.10100
O  -6.97200 12.39800 41.25200
C  -7.19000 14.74700 40.62300
C  -6.19700 15.18300 41.62200
O  -6.41400 15.71000 42.66900
O  -4.99000 14.53400 41.36400
C  -3.87100 14.60900 42.38500
H  -10.55600 21.07400 39.89200
H  -16.04100 17.99100 40.47800
H  -13.08100 12.50400 41.58700
H  -6.92400 17.98000 40.84500
H  -8.31900 19.50700 38.59700
H  -6.76800 20.19700 40.96000
H  -8.37000 21.06500 41.08600
H  -7.29900 21.44300 39.76300
H  -6.75300 18.29200 37.75400
H  -6.86600 16.59700 38.34600
H  -4.81100 18.01100 39.85500
H  -4.56200 18.31400 38.11500
H  -13.68000 22.94500 39.65800
H  -12.08400 22.42700 39.06300
H  -12.26300 22.75800 40.71600
H  -17.92900 20.25800 40.87000
H  -17.15700 20.94000 42.25100
H  -16.77700 19.30100 41.85400
H  -16.60700 15.49800 40.14900
H  -15.38300 13.56100 42.05400
H  -16.25000 17.11000 42.54800
H  -16.56300 15.38600 43.03800
H  -17.64400 16.29500 41.95600
H  -14.82600 12.89100 39.35100
H  -16.39600 13.61900 39.13700
H  -15.72900 11.06600 40.27900
H  -17.39400 11.56500 39.80700
H  -16.77900 11.95700 41.36200
H  -11.17800 10.68700 41.59400
H  -10.24400 11.08900 42.93200
H  -9.41000 10.82100 41.31100
H  -6.66900 14.68400 39.66800
H  -3.13300 13.90900 41.99400
H  -4.23900 14.33500 43.37400
H  -3.54500 15.62200 42.62100

