158

Mg 43.09300 41.90200 26.68400
C  42.19900 44.00300 29.26800
C  44.72700 39.87500 29.12500
C  44.00400 39.77800 24.37000
C  42.07200 44.20900 24.35900
N  43.41100 41.89500 28.88300
C  42.91600 42.88900 29.75400
C  43.02200 42.47500 31.20400
C  44.14500 41.36400 31.17500
C  44.22200 41.08300 29.61500
C  45.60200 41.69700 31.76600
C  41.66600 42.01800 31.83600
C  41.21300 42.80700 33.06500
H  40.73800 42.06700 34.34900
N  44.16100 40.01100 26.76500
C  44.69700 39.37100 27.82600
C  45.16200 37.97400 27.33000
C  44.84200 37.92000 25.94800
C  44.26500 39.28400 25.65800
C  45.68800 36.97300 28.36900
C  45.20500 36.81400 24.95000
O  45.01000 36.79800 23.78800
C  45.88000 35.66200 25.56300
N  43.10900 42.05400 24.66900
C  43.58800 41.02900 23.88300
C  43.52800 41.44300 22.39500
C  42.64300 42.67400 22.44800
C  42.61400 43.04500 23.90500
C  44.95700 41.65200 21.73600
C  41.29600 42.53700 21.73700
C  40.32900 41.56200 22.38400
N  42.18600 43.62700 26.75400
C  41.79900 44.51300 25.70900
C  41.23900 45.73200 26.25300
C  41.29400 45.50300 27.66500
C  41.92500 44.31200 27.91100
C  40.83100 46.95900 25.59900
C  41.02400 46.19100 28.95600
O  40.44500 47.28100 29.21700
C  41.52600 45.19700 30.08300
C  42.41700 45.97600 30.93800
O  43.56100 46.27300 30.62600
O  41.84500 46.25500 32.15200
C  42.59300 46.91500 33.24200
H  45.34300 39.32700 29.84100
H  44.41000 39.14200 23.58200
H  41.70600 44.95800 23.65400
H  43.37600 43.35800 31.73600
H  43.81700 40.45000 31.66900
H  45.84300 41.08200 32.63400
H  45.82000 42.72800 32.04500
H  46.25200 41.34100 30.96700
H  41.78100 41.00200 32.21300
H  40.91400 41.88400 31.05800
H  40.35000 43.33700 32.66200
H  41.98200 43.49400 33.41600
H  45.89000 37.28400 29.39400
H  46.56800 36.51800 27.91500
H  45.00300 36.12600 28.36700
H  46.81900 35.91500 26.05600
H  46.10700 35.13600 24.63500
H  45.20700 35.00300 26.11000
H  43.09000 40.60000 21.86000
H  43.11100 43.53000 21.96000
H  45.75000 41.26700 22.37600
H  45.13800 42.72500 21.67700
H  45.05800 41.14200 20.77800
H  41.27600 42.27300 20.68000
H  40.87500 43.53800 21.83200
H  39.48700 42.14300 22.76100
H  40.63400 41.00000 23.26700
H  39.96300 40.90200 21.59800
H  39.75500 47.12700 25.64800
H  41.11500 47.10700 24.55700
H  41.28800 47.74200 26.20400
H  40.61100 44.92000 30.60700
H  42.25500 47.95000 33.27400
H  43.64800 46.82900 32.98100
H  42.29000 46.43500 34.17200
Mg 9.90000 47.27200 26.22700
C  7.63600 47.27100 28.80300
C  12.59700 47.77500 28.24500
C  12.13200 47.35500 23.45200
C  7.33100 46.87100 23.86800
N  10.04700 47.38200 28.32800
C  9.00900 47.41900 29.25600
C  9.61400 47.55700 30.67500
C  11.17300 47.93400 30.37900
C  11.32000 47.67800 28.90600
C  11.70800 49.27700 30.87600
C  9.39800 46.33500 31.62000
C  8.95700 46.63600 33.05100
H  9.16200 45.63700 34.15000
N  12.01100 47.58500 25.85600
C  12.93900 47.80800 26.89400
C  14.26700 47.98600 26.33400
C  14.18000 47.57200 25.01200
C  12.71800 47.48300 24.71800
C  15.42200 48.41000 27.14600
C  15.23400 47.22100 24.03500
O  14.98000 46.72600 22.92900
C  16.69000 47.35500 24.56600
N  9.78300 47.24500 24.01800
C  10.79200 47.17400 23.10600
C  10.41200 47.06400 21.64800
C  8.84000 46.86000 21.79300
C  8.62300 47.03100 23.33600
C  10.81900 48.35000 20.82200
C  8.26900 45.43500 21.29500
C  6.92900 45.61100 20.44700
N  7.94000 47.21100 26.23900
C  6.96800 47.00100 25.24500
C  5.65300 46.99300 25.87600
C  5.89600 47.04500 27.26200
C  7.30100 47.26200 27.44400
C  4.30200 46.77000 25.20200
C  5.21400 46.95100 28.58000
O  4.02600 46.84000 28.88100
C  6.36800 47.12100 29.61500
C  6.37200 45.88500 30.34300
O  6.91000 44.84400 30.00400
O  5.65800 46.03900 31.54200
C  5.68400 44.92000 32.42500
H  13.32100 47.97100 29.03900
H  12.80200 47.37800 22.59100
H  6.51900 46.90400 23.13900
H  9.12400 48.45100 31.06000
H  11.83500 47.16800 30.78300
H  12.03300 49.88800 30.03400
H  12.56400 49.15500 31.54000
H  10.87300 49.80800 31.33300
H  10.33800 45.81900 31.81600
H  8.72100 45.54800 31.28800
H  7.89100 46.86000 33.03000
H  9.52100 47.52900 33.32300
H  15.17300 48.69600 28.16800
H  15.80900 49.28900 26.63100
H  16.25800 47.71100 27.15300
H  17.33400 47.32500 23.68700
H  16.91600 46.47600 25.16900
H  16.75300 48.31900 25.07300
H  10.82800 46.13600 21.25500
H  8.28700 47.67400 21.32500
H  11.20500 49.07300 21.54200
H  9.96700 48.86700 20.38000
H  11.57300 48.14500 20.06200
H  7.99100 44.85200 22.17300
H  8.95600 44.80200 20.73300
H  6.48500 46.57500 20.69200
H  6.20800 44.92800 20.89600
H  6.97500 45.39800 19.37900
H  4.54900 46.59000 24.15600
H  3.62000 47.61500 25.29600
H  3.95900 45.82900 25.63100
H  6.04400 47.93800 30.25900
H  6.22500 45.19000 33.33200
H  5.99500 43.96100 32.01200
H  4.61000 44.95600 32.60800

