158

Mg 30.29000 59.79300 40.27300
C  27.51400 57.65900 39.30100
C  32.41000 57.32000 39.01900
C  32.74100 61.92800 40.78400
C  27.91100 62.22600 40.77200
N  30.00900 57.64800 39.55900
C  28.79000 57.05700 39.13000
C  29.01100 55.76600 38.33600
C  30.57100 55.51500 38.58600
C  31.06100 56.91600 39.06200
C  30.94300 54.41700 39.49500
C  28.61500 55.94600 36.88300
C  27.81700 54.90300 36.19900
H  27.01900 55.35200 34.98800
N  32.28500 59.65100 39.98100
C  32.97100 58.56600 39.43700
C  34.37000 58.89700 39.33700
C  34.53100 60.18500 39.86900
C  33.21600 60.66100 40.29800
C  35.42100 57.97400 38.78700
C  35.83400 60.89800 40.04800
O  36.86200 60.30400 39.70000
C  35.99100 62.19900 40.82000
N  30.30500 61.90400 40.49700
C  31.48000 62.53000 40.82900
C  31.12900 63.95200 41.32800
C  29.60700 64.04800 41.07300
C  29.26800 62.59000 40.88300
C  31.54500 64.19700 42.78100
C  29.17400 64.97200 39.85600
C  28.41100 66.32900 40.20100
N  28.12600 59.97900 40.11500
C  27.32900 61.09500 40.27100
C  25.99400 60.81800 39.98600
C  26.00500 59.38400 39.62600
C  27.34300 58.96300 39.68200
C  24.79500 61.71400 40.11000
C  25.17800 58.26000 39.18400
O  23.97200 58.23200 39.08300
C  26.19500 57.13800 38.95700
C  25.69700 55.90800 39.68800
O  25.65700 55.73400 40.89500
O  25.51400 54.92500 38.81400
C  25.24700 53.60600 39.28400
H  32.98300 56.46100 38.66500
H  33.47700 62.73400 40.74900
H  27.15800 63.00200 40.92600
H  28.46600 54.90900 38.73300
H  30.93500 55.28400 37.58500
H  31.66800 54.88800 40.15900
H  31.27200 53.54200 38.93400
H  30.10700 54.20000 40.16100
H  29.48800 56.12100 36.25400
H  28.21500 56.94400 36.70600
H  27.11500 54.42100 36.87900
H  28.57000 54.23900 35.77500
H  36.35000 58.03700 39.35300
H  35.68100 58.20300 37.75400
H  35.06100 56.95000 38.68000
H  35.35300 61.94400 41.66700
H  35.63600 63.11800 40.35400
H  37.05100 62.29500 41.05400
H  31.65900 64.69300 40.73000
H  29.09100 64.38100 41.97300
H  32.22200 65.04100 42.91600
H  32.00400 63.29900 43.19500
H  30.70400 64.39800 43.44400
H  28.49900 64.41300 39.20700
H  30.04600 65.33100 39.30900
H  28.22000 66.47900 41.26300
H  27.45100 66.37800 39.68600
H  29.08800 67.14000 39.93300
H  25.04400 62.44200 39.33800
H  24.81300 62.21800 41.07600
H  23.84300 61.20500 39.95700
H  26.14400 56.83300 37.91200
H  24.17100 53.43700 39.34300
H  25.65800 53.36200 40.26400
H  25.71600 53.04700 38.47500
Mg 36.53200 49.28900 24.80600
C  36.48900 47.80500 27.88800
C  35.20000 52.12000 26.16200
C  36.47900 50.69100 21.75100
C  37.89500 46.36700 23.50300
N  35.88300 49.84100 26.78200
C  36.01200 49.12800 27.92600
C  35.73400 49.92000 29.18400
C  35.21400 51.27000 28.57100
C  35.45200 51.08400 27.10100
C  33.77500 51.64200 28.94900
C  36.93700 50.06500 30.14200
C  36.74800 49.77900 31.71200
H  35.42900 50.24400 32.31500
N  35.92000 51.11500 24.06300
C  35.45300 52.14500 24.76800
C  35.08900 53.22000 23.84900
C  35.31100 52.80800 22.57100
C  35.98800 51.47100 22.75200
C  34.67500 54.55400 24.48600
C  35.11500 53.47500 21.31500
O  35.24800 53.00000 20.21100
C  34.49100 54.98600 21.28400
N  36.88500 48.43300 22.88000
C  36.75900 49.25800 21.78100
C  37.37600 48.57800 20.59000
C  38.20900 47.43700 21.23600
C  37.59500 47.39400 22.64800
C  36.40600 48.32600 19.38900
C  39.64500 47.72000 21.37000
C  40.57900 46.66500 20.72800
N  37.14400 47.39000 25.54500
C  37.59200 46.26900 24.89300
C  37.70100 45.17500 25.82600
C  37.18300 45.78200 26.99700
C  36.88900 47.11300 26.74700
C  38.28500 43.81800 25.54100
C  36.88400 45.44300 28.32100
O  37.09500 44.41000 28.98600
C  36.43500 46.76800 29.00100
C  35.13500 46.49400 29.59500
O  34.09600 46.51900 29.00400
O  35.22000 46.25500 30.93200
C  33.95700 45.92500 31.60700
H  34.53800 52.95700 26.39600
H  36.46500 51.15200 20.76100
H  38.45500 45.56100 23.02300
H  34.86300 49.44500 29.63500
H  35.84100 52.12800 28.81500
H  33.42400 51.04200 29.78800
H  33.14600 51.59400 28.06000
H  33.84400 52.61600 29.43300
H  37.30000 51.08100 29.98700
H  37.79900 49.48100 29.81900
H  37.64100 50.20000 32.17400
H  36.76400 48.70000 31.86500
H  33.66000 54.46800 24.87600
H  34.57900 55.44500 23.86600
H  35.46800 54.80700 25.19000
H  33.55400 54.87700 21.83000
H  34.26700 55.27500 20.25700
H  35.13600 55.72700 21.75700
H  38.03900 49.32200 20.14900
H  37.98700 46.46500 20.79600
H  35.39400 48.70400 19.53700
H  36.18900 47.26800 19.24300
H  36.81700 48.63300 18.42800
H  40.07800 47.80900 22.36600
H  39.87100 48.66300 20.87300
H  40.08800 45.93100 20.08900
H  41.17100 46.20000 21.51700
H  41.27400 47.22300 20.10100
H  37.78700 43.10000 26.19200
H  39.35100 43.71100 25.74100
H  38.03200 43.63300 24.49700
H  37.14300 47.02700 29.78800
H  33.41300 46.86200 31.72200
H  34.07600 45.38400 32.54600
H  33.24600 45.25500 31.12200

