158

Mg 1.28300 8.28500 25.32200
C  2.06900 10.12900 28.22600
C  1.61500 5.43800 27.22300
C  0.87600 6.66700 22.60400
C  1.28800 11.34100 23.54100
N  1.79400 7.89100 27.49700
C  1.91100 8.78200 28.57100
C  1.97800 8.13600 29.92100
C  2.09700 6.64400 29.51100
C  1.78100 6.66900 27.97000
C  3.50900 5.96300 29.79500
C  0.65400 8.41600 30.70400
C  0.67000 8.47200 32.23300
H  1.98200 7.93600 32.89100
N  1.23400 6.29900 24.95000
C  1.31300 5.30400 25.81700
C  1.26600 4.01700 25.06200
C  0.98900 4.40200 23.72400
C  1.12100 5.85500 23.66200
C  1.40600 2.62600 25.80000
C  0.64200 3.49100 22.61900
O  0.24300 3.83700 21.50200
C  0.70800 1.98300 22.72600
N  0.97700 8.85800 23.41300
C  0.85100 8.01900 22.40800
C  0.56000 8.66400 21.06900
C  0.40300 10.20700 21.48800
C  0.99900 10.14000 22.89500
C  1.72200 8.57000 19.99100
C  -1.04900 10.78600 21.55300
C  -2.00100 10.50200 20.41400
N  1.74300 10.26300 25.73700
C  1.69800 11.42900 24.90800
C  2.09300 12.57800 25.69200
C  2.23100 12.11900 26.97500
C  1.99700 10.69900 26.96100
C  2.14700 13.93100 25.19800
C  2.50800 12.53700 28.34100
O  2.93700 13.55800 28.74700
C  2.25300 11.32100 29.21400
C  3.35100 11.14200 30.24500
O  4.45200 10.73000 29.99400
O  2.95600 11.63700 31.43100
C  3.99000 11.65400 32.50100
H  1.51300 4.55900 27.86300
H  0.74700 6.18500 21.63300
H  1.26500 12.21400 22.88600
H  2.85400 8.45900 30.48400
H  1.38300 5.98300 30.00200
H  4.31100 6.65300 30.05700
H  3.96300 5.51400 28.91100
H  3.42100 5.15000 30.51600
H  -0.12900 7.70700 30.43400
H  0.36300 9.37200 30.27000
H  -0.20600 8.00900 32.68600
H  0.59100 9.50800 32.56300
H  2.18200 2.04600 25.30000
H  0.41400 2.23600 25.57500
H  1.53500 2.77800 26.87200
H  0.40800 1.59200 21.75400
H  -0.05400 1.64200 23.42700
H  1.74800 1.71500 22.90900
H  -0.43300 8.41700 20.69200
H  1.11300 10.80100 20.91300
H  2.59700 8.53700 20.64100
H  1.85100 9.43500 19.34100
H  1.65900 7.69600 19.34300
H  -0.99100 11.86300 21.71000
H  -1.47100 10.13500 22.31800
H  -1.39600 10.26000 19.54000
H  -2.66800 11.28200 20.04600
H  -2.57600 9.59700 20.60900
H  1.57100 14.43900 25.97100
H  1.78900 14.08900 24.18100
H  3.15200 14.35300 25.19600
H  1.31500 11.35600 29.76700
H  5.02200 11.54400 32.16600
H  3.76200 10.87400 33.22800
H  3.92200 12.54400 33.12600
Mg 47.28200 44.88700 42.29500
C  43.78200 44.38300 42.32400
C  47.63200 41.44800 42.06400
C  50.50500 45.37700 41.86700
C  46.61000 48.23800 42.03100
N  45.84400 43.16500 42.14200
C  44.54800 43.19700 42.22300
C  43.89500 41.79700 42.13600
C  45.13200 40.79500 42.26600
C  46.29900 41.80300 42.12100
C  45.28500 39.93700 43.58500
C  42.97500 41.56400 40.86600
C  43.29000 42.26000 39.50000
H  43.29700 41.45200 38.27200
N  48.88600 43.61600 41.99400
C  48.77900 42.22300 42.00100
C  50.15500 41.74800 41.83600
C  50.99100 42.87900 41.62600
C  50.12800 44.02200 41.83700
C  50.56400 40.32100 41.77600
C  52.45500 42.83900 41.29400
O  53.06500 41.81300 41.27100
C  53.24100 44.10000 41.11800
N  48.43600 46.53000 41.93100
C  49.74100 46.50100 41.93900
C  50.36800 47.92600 41.87000
C  49.11500 48.87700 41.67000
C  47.97700 47.83000 41.86500
C  51.12100 48.22700 43.11600
C  48.93700 49.74000 40.44000
C  48.42700 51.18800 40.73400
N  45.61800 46.08300 42.28400
C  45.54100 47.45200 42.26700
C  44.19800 47.89900 42.48500
C  43.47400 46.68500 42.46400
C  44.37400 45.64500 42.33900
C  43.63100 49.30900 42.41100
C  42.13200 46.12700 42.62300
O  41.08000 46.71300 42.79200
C  42.26800 44.55000 42.72200
C  41.73200 44.17000 44.01700
O  42.06200 44.77700 45.03600
O  40.92300 43.04100 43.97600
C  40.65900 42.41300 45.27000
H  47.81800 40.37300 42.10800
H  51.56100 45.64600 41.79800
H  46.61000 49.32600 41.93000
H  43.28400 41.68900 43.03200
H  45.01100 40.10700 41.42900
H  45.79900 39.04300 43.23400
H  44.31100 39.79900 44.05600
H  45.90700 40.53200 44.25400
H  41.96700 41.82200 41.19000
H  42.87600 40.48500 40.74600
H  44.25700 42.75600 39.57300
H  42.55400 43.06400 39.48700
H  51.44600 40.05500 42.35800
H  50.64500 39.93300 40.76100
H  49.82000 39.76700 42.34900
H  52.72600 44.76200 40.42200
H  54.25000 43.96400 40.72700
H  53.42100 44.50700 42.11300
H  51.00400 47.89100 40.98500
H  49.18100 49.56500 42.51300
H  52.08600 47.79200 42.85800
H  50.84200 47.75900 44.06000
H  51.29300 49.27200 43.37700
H  48.19000 49.28900 39.78800
H  49.90600 49.65200 39.94800
H  49.25400 51.78000 40.34200
H  48.17900 51.36500 41.78100
H  47.54800 51.38400 40.12100
H  43.37800 49.63800 41.40400
H  44.42100 49.99400 42.72100
H  42.86400 49.33800 43.18500
H  41.64800 44.13700 41.92600
H  40.26600 43.15700 45.96400
H  41.59400 41.96300 45.60500
H  39.84300 41.70600 45.12300

