158

Mg 36.43200 49.03900 24.91200
C  36.72400 47.52900 28.01200
C  34.54900 51.62000 26.52600
C  35.64400 50.34000 21.97500
C  37.94200 46.42100 23.38700
N  35.59800 49.47300 26.99300
C  36.04000 48.74200 28.12000
C  35.74200 49.53200 29.38100
C  34.91700 50.80100 28.86600
C  35.01700 50.61600 27.39400
C  33.52200 50.97300 29.49000
C  36.95500 50.02300 30.25400
C  36.89500 49.82500 31.73900
H  35.51400 49.58800 32.39400
N  35.23100 50.72100 24.32500
C  34.65000 51.71900 25.10300
C  34.04100 52.68900 24.26300
C  34.54100 52.35400 22.95700
C  35.16000 51.12400 23.02300
C  33.33300 53.97100 24.78700
C  34.44800 53.14700 21.69600
O  34.85800 52.76200 20.55500
C  33.86700 54.56200 21.68300
N  36.45000 48.27100 22.93900
C  36.18500 49.04900 21.89200
C  36.55200 48.39800 20.58100
C  37.47000 47.23800 21.06200
C  37.31200 47.32900 22.57200
C  35.34700 47.84400 19.74200
C  38.98700 47.46800 20.61300
C  39.33400 46.52900 19.46200
N  37.36600 47.36400 25.54700
C  37.93200 46.34800 24.81500
C  38.58100 45.34900 25.69200
C  38.06800 45.76200 26.99300
C  37.36500 46.97200 26.84800
C  39.32600 44.06700 25.38000
C  37.97800 45.42200 28.38300
O  38.50200 44.46700 29.05500
C  37.09600 46.58200 29.06100
C  35.95600 46.07700 29.84200
O  34.89700 45.79000 29.44500
O  36.44000 45.70800 31.06500
C  35.59500 44.94700 32.01900
H  33.96600 52.42000 26.98700
H  35.60900 50.75400 20.96500
H  38.54600 45.63200 22.93500
H  35.16800 48.78700 29.93400
H  35.49100 51.70900 29.04900
H  33.22300 50.11900 30.09700
H  32.71400 50.99700 28.75900
H  33.35200 51.86000 30.10100
H  37.18100 51.08900 30.22600
H  37.82900 49.45300 29.94100
H  37.35000 50.69400 32.21500
H  37.47500 48.93400 31.97800
H  34.03800 54.80200 24.79200
H  32.89000 53.69600 25.74500
H  32.56100 54.15700 24.04100
H  33.88900 54.91600 20.65200
H  34.25300 55.36200 22.31400
H  32.78500 54.48700 21.79100
H  36.99600 49.17700 19.96100
H  37.03700 46.27200 20.80200
H  34.43800 47.99200 20.32500
H  35.47300 46.79400 19.47600
H  35.31500 48.43100 18.82500
H  39.75200 47.20300 21.34300
H  39.08500 48.53300 20.40500
H  40.20100 45.96700 19.81100
H  39.54100 46.97700 18.49000
H  38.49500 45.84700 19.32600
H  38.78600 43.39700 24.71100
H  39.52900 43.65400 26.36800
H  40.20700 44.37800 24.81900
H  37.80700 47.09500 29.70800
H  36.15800 44.08400 32.37200
H  34.59100 44.65500 31.71000
H  35.52900 45.65200 32.84800
Mg 16.75100 51.54200 26.40400
C  18.67500 49.99900 29.02000
C  14.36000 52.30400 28.60100
C  15.03000 52.45100 23.72700
C  19.38500 50.30900 24.13600
N  16.59600 51.16600 28.52600
C  17.48800 50.63300 29.41500
C  17.02500 50.84000 30.89600
C  15.51100 51.32300 30.68700
C  15.47200 51.64100 29.16000
C  14.41500 50.34800 31.17400
C  17.99500 51.88500 31.61600
C  18.45700 51.52700 32.97300
H  17.36000 50.76900 33.89800
N  14.98700 52.31600 26.17300
C  14.12600 52.64200 27.24000
C  12.99000 53.33000 26.69800
C  13.20000 53.43700 25.28700
C  14.49900 52.79100 24.98100
C  11.88500 53.78900 27.58300
C  12.45500 54.21400 24.26300
O  12.82800 54.39400 23.10000
C  11.10400 54.87800 24.67000
N  17.21900 51.32800 24.25300
C  16.25300 51.81200 23.39000
C  16.57200 51.26100 21.97600
C  18.10200 50.99600 22.04500
C  18.33300 50.93400 23.58200
C  15.62800 50.11300 21.58400
C  19.09900 51.99500 21.35500
C  18.76200 53.50100 21.54000
N  18.64700 50.48900 26.53100
C  19.60600 50.07900 25.57000
C  20.69200 49.34500 26.15800
C  20.35400 49.31900 27.51900
C  19.10600 49.94100 27.68200
C  22.01600 48.77100 25.46200
C  20.83200 48.83500 28.74300
O  21.86300 48.21800 28.90400
C  19.86700 49.36000 29.82400
C  19.38300 48.27100 30.51800
O  18.99100 47.27300 29.98900
O  19.45600 48.45500 31.88200
C  18.93400 47.31600 32.62000
H  13.61700 52.58500 29.35100
H  14.35100 52.69600 22.90700
H  20.11400 49.95400 23.40500
H  17.06400 49.92000 31.47800
H  15.28400 52.18000 31.32000
H  13.90900 50.59400 32.10800
H  14.86100 49.36500 31.32400
H  13.76000 50.28200 30.30500
H  17.48300 52.84200 31.71200
H  18.91900 52.06400 31.06600
H  18.78100 52.38800 33.55800
H  19.24200 50.79500 32.78400
H  11.18000 52.98900 27.81000
H  11.38500 54.69200 27.23200
H  12.28600 54.03500 28.56600
H  10.37200 54.17800 25.07300
H  10.77700 55.34100 23.73900
H  11.34200 55.66400 25.38800
H  16.50600 52.12700 21.31700
H  18.32600 50.08900 21.48300
H  15.17200 50.46100 20.65700
H  14.85000 49.92200 22.32300
H  16.23900 49.34800 21.10400
H  18.93900 51.76400 20.30200
H  20.10000 51.66100 21.62700
H  19.64400 54.14000 21.51300
H  18.50600 53.60600 22.59400
H  18.02400 53.90600 20.84700
H  22.21500 49.06200 24.43000
H  21.86000 47.70300 25.31200
H  22.91500 48.90900 26.06200
H  20.34000 50.01200 30.55800
H  17.94300 46.96600 32.33100
H  18.83100 47.64700 33.65400
H  19.70400 46.54500 32.58100

