158

Mg 30.17600 58.00200 39.93700
C  27.06700 56.60800 39.16000
C  31.71600 54.98900 39.06800
C  33.19300 59.61700 39.72000
C  28.51800 61.08300 40.11900
N  29.45400 56.02400 39.10100
C  28.12600 55.69400 39.02800
C  27.98500 54.20600 38.76800
C  29.49200 53.63600 38.79700
C  30.30100 54.96700 39.03500
C  29.90300 52.55100 39.86500
C  27.32000 53.89200 37.46600
C  27.95300 54.42700 36.09100
H  27.01100 55.29800 35.23700
N  32.19100 57.31800 39.72100
C  32.63700 56.04100 39.27300
C  34.07400 56.07700 39.12000
C  34.46200 57.46500 39.32900
C  33.25700 58.19800 39.64800
C  34.93400 54.96500 38.77100
C  35.85700 57.97800 39.26100
O  36.69700 57.23000 38.87000
C  36.34600 59.36400 39.78500
N  30.74700 60.00500 39.89200
C  32.01400 60.40200 39.90700
C  32.18600 61.93300 39.84900
C  30.76700 62.39600 40.01600
C  29.95600 61.05000 40.04800
C  33.21000 62.48800 40.84300
C  30.24200 63.44000 38.99900
C  29.86300 64.80100 39.55200
N  28.20900 58.73100 39.85300
C  27.69100 59.99900 39.97800
C  26.23800 59.91900 39.90800
C  26.02100 58.61900 39.51000
C  27.21300 57.96800 39.52900
C  25.36700 61.01400 40.05600
C  24.92000 57.70400 39.17500
O  23.66400 57.87000 39.06400
C  25.58700 56.42500 38.99800
C  24.89400 55.49500 39.86700
O  25.17200 55.37800 41.03600
O  24.03200 54.64500 39.24500
C  23.33000 53.78500 40.16800
H  32.17800 54.02900 38.82700
H  34.12400 60.11700 39.44500
H  28.03000 62.05100 40.24900
H  27.34100 53.85900 39.57500
H  29.77500 53.18800 37.84500
H  30.47800 52.95700 40.69700
H  30.38900 51.65500 39.47800
H  28.99500 52.16400 40.32800
H  26.33000 54.34800 37.45200
H  27.28600 52.80400 37.41400
H  28.25800 53.53900 35.53600
H  28.87700 54.96000 36.31500
H  35.74500 54.80200 39.48100
H  35.31900 55.10300 37.76000
H  34.48100 53.97500 38.81700
H  36.13600 60.18200 39.09600
H  37.42000 59.17300 39.79900
H  36.01800 59.46200 40.82000
H  32.62900 62.25500 38.90600
H  30.63200 62.81200 41.01400
H  33.52500 61.60300 41.39700
H  32.74200 63.23200 41.48600
H  34.09300 62.94500 40.39500
H  29.33900 62.98300 38.59400
H  30.99900 63.49000 38.21600
H  30.28600 65.62800 38.98200
H  30.05400 64.99600 40.60700
H  28.79600 64.98700 39.43400
H  25.73100 61.65000 40.86300
H  24.38000 60.83200 40.48300
H  25.15900 61.53300 39.12100
H  25.32500 56.06200 38.00400
H  23.84600 52.85100 40.38700
H  22.45600 53.45000 39.61100
H  22.90600 54.42000 40.94600
Mg -11.24800 38.45900 42.34400
C  -9.24300 35.73800 41.25700
C  -9.16200 40.57500 40.58900
C  -13.40600 40.97400 42.88200
C  -13.75200 36.09500 43.39300
N  -9.41500 38.18500 41.07700
C  -8.75300 36.98900 40.82000
C  -7.51300 37.21900 39.93600
C  -7.40100 38.79100 39.94300
C  -8.73800 39.26500 40.62300
C  -6.17800 39.27100 40.72000
C  -7.63300 36.57400 38.49700
C  -6.52800 35.68400 38.10900
H  -5.60000 36.23400 37.02100
N  -11.21700 40.55800 41.87800
C  -10.29700 41.20500 41.09800
C  -10.73500 42.59500 40.89800
C  -12.06700 42.64900 41.41800
C  -12.31100 41.36300 42.08500
C  -9.90100 43.59400 40.11400
C  -13.01400 43.78700 41.09800
O  -12.70900 44.72400 40.38000
C  -14.34300 43.85200 41.70700
N  -13.29700 38.48300 42.91700
C  -13.79500 39.70800 43.29500
C  -15.12700 39.47900 44.02700
C  -15.24000 37.98400 44.19800
C  -14.04600 37.44700 43.40900
C  -15.55700 40.27300 45.22700
C  -16.55200 37.22800 43.76200
C  -17.11600 36.31800 44.85200
N  -11.55700 36.36700 42.32900
C  -12.56800 35.54500 42.83400
C  -12.04300 34.18900 42.88900
C  -10.73500 34.17800 42.24500
C  -10.51200 35.54300 41.92200
C  -12.71000 33.04700 43.55400
C  -9.62300 33.41900 41.86400
O  -9.41500 32.19600 42.01700
C  -8.65000 34.36100 41.16200
C  -7.26600 34.26000 41.65500
O  -6.85600 34.87100 42.64200
O  -6.47700 33.42700 40.89600
C  -5.02500 33.52500 41.13900
H  -8.45100 41.24200 40.09700
H  -13.93200 41.81200 43.34600
H  -14.53200 35.44100 43.78700
H  -6.63600 36.73300 40.36500
H  -7.36400 39.15300 38.91600
H  -6.49100 40.03000 41.43700
H  -5.55600 39.80800 40.00400
H  -5.61600 38.48800 41.22900
H  -7.67700 37.29500 37.68000
H  -8.58600 36.04500 38.48700
H  -6.88300 34.70100 37.80100
H  -5.88200 35.29000 38.89500
H  -8.87900 43.26300 39.92800
H  -9.83500 44.53700 40.65600
H  -10.27200 43.81800 39.11300
H  -14.82300 42.87400 41.74000
H  -14.92800 44.52900 41.08500
H  -14.20700 44.12900 42.75200
H  -15.89600 39.71200 43.29100
H  -15.10100 37.73800 45.25100
H  -14.70000 40.78500 45.66400
H  -15.97800 39.59300 45.96800
H  -16.34800 40.98500 44.99300
H  -16.47600 36.60300 42.87200
H  -17.39300 37.87800 43.51900
H  -17.56900 35.44500 44.38400
H  -17.96300 36.74900 45.38600
H  -16.29000 35.90200 45.42900
H  -13.78100 33.24800 43.56700
H  -12.25200 32.92300 44.53600
H  -12.57200 32.15200 42.94700
H  -8.53900 34.07300 40.11600
H  -4.55900 33.70100 40.16900
H  -4.70600 32.60900 41.63700
H  -4.72400 34.34200 41.79600

