158

Mg 25.87700 50.95200 25.87700
C  23.49400 52.01300 28.24100
C  28.03600 50.22000 28.38400
C  28.09400 50.32900 23.49800
C  23.65000 52.28700 23.31700
N  25.75000 51.16900 27.98900
C  24.67600 51.39000 28.75500
C  24.98600 51.09600 30.23800
C  26.45700 50.79200 30.25900
C  26.80300 50.77400 28.76600
C  27.35800 51.65500 31.20200
C  23.98900 50.12800 30.85500
C  23.46200 50.52800 32.24600
H  23.98000 49.77900 33.46400
N  27.83100 50.33900 25.98400
C  28.57700 50.05000 27.07400
C  29.87700 49.64900 26.64600
C  29.96000 49.65400 25.25700
C  28.55900 50.05800 24.85800
C  31.00100 49.32500 27.54000
C  31.15900 49.46100 24.23300
O  30.99100 49.34100 23.01500
C  32.55200 49.32100 24.79700
N  25.88100 51.41800 23.76000
C  26.97400 50.95300 23.01700
C  26.79300 51.21300 21.52300
C  25.34900 51.83700 21.47000
C  24.93800 51.94500 22.96900
C  27.86000 52.18200 20.87900
C  24.32000 51.18400 20.50000
C  23.98200 52.11900 19.26000
N  24.04900 51.98200 25.74900
C  23.31000 52.41100 24.65100
C  22.14000 53.00900 25.13800
C  22.11500 52.93000 26.58000
C  23.32600 52.27600 26.84200
C  21.11000 53.58800 24.23200
C  21.40300 53.27500 27.76800
O  20.34600 53.89400 27.94600
C  22.23900 52.54800 28.92700
C  22.53500 53.50100 30.04200
O  23.50000 54.25400 30.10200
O  21.50300 53.48800 30.98100
C  21.78700 54.50800 32.07600
H  28.60100 49.81600 29.22600
H  28.81800 49.98000 22.75900
H  22.89000 52.55600 22.58100
H  24.86000 52.01900 30.80500
H  26.55700 49.75000 30.56100
H  27.94400 52.37100 30.62600
H  28.04800 51.10500 31.84200
H  26.74400 52.19900 31.92000
H  24.41900 49.12700 30.87100
H  23.09000 50.03100 30.24600
H  22.40400 50.27700 32.31400
H  23.58600 51.60600 32.34700
H  30.77700 49.48900 28.59400
H  31.86500 49.96700 27.36700
H  31.20600 48.27700 27.32500
H  32.43000 48.40600 25.37700
H  32.71600 50.21800 25.39400
H  33.27100 49.44700 23.98700
H  26.82700 50.22000 21.07500
H  25.33500 52.88300 21.16300
H  28.63800 52.41600 21.60500
H  27.28500 53.02200 20.49100
H  28.26400 51.69400 19.99200
H  23.33700 50.99500 20.93300
H  24.62600 50.18400 20.19400
H  24.87600 52.43600 18.72400
H  23.42500 52.99000 19.60800
H  23.42700 51.47900 18.57400
H  20.26400 53.86300 24.86100
H  20.64100 52.93300 23.49800
H  21.58200 54.49600 23.85600
H  21.62800 51.79100 29.42100
H  21.79400 55.52400 31.68100
H  22.66400 54.20800 32.65000
H  20.90600 54.52000 32.71700
Mg -2.02800 34.64100 26.89200
C  -3.48400 32.80000 29.57900
C  -0.83400 36.86000 29.26400
C  -1.16700 36.55800 24.35400
C  -3.90400 32.57600 24.67700
N  -2.26600 34.79700 29.21700
C  -2.78600 33.90000 30.10700
C  -2.33100 34.27300 31.55000
C  -1.62600 35.62300 31.40500
C  -1.58700 35.82600 29.90100
C  -2.32700 36.79900 32.18400
C  -1.49000 33.07700 32.23100
C  -2.30500 32.37600 33.37400
H  -1.71700 32.13300 34.78500
N  -1.08700 36.34400 26.80100
C  -0.64800 37.10000 27.91500
C  0.23200 38.14100 27.43400
C  0.16900 38.13300 26.01400
C  -0.68800 36.98800 25.63900
C  1.07400 39.07600 28.27800
C  0.76500 39.06900 24.99800
O  0.67200 38.90000 23.76800
C  1.53400 40.31000 25.50500
N  -2.60500 34.65200 24.77600
C  -1.91800 35.45700 24.01100
C  -2.29300 35.14800 22.53100
C  -2.89900 33.71100 22.59500
C  -3.11200 33.60300 24.13100
C  -3.21800 36.16200 21.93100
C  -2.14000 32.62300 21.97200
C  -0.85900 32.18100 22.66600
N  -3.35700 32.95600 26.93900
C  -4.01500 32.24100 26.02800
C  -4.65300 31.13100 26.68700
C  -4.50100 31.35500 28.07400
C  -3.68200 32.51400 28.17600
C  -5.36400 30.02600 25.96600
C  -4.85700 30.82400 29.36400
O  -5.53700 29.83700 29.58700
C  -4.27600 31.75300 30.38600
C  -5.39400 32.35800 31.22700
O  -6.14000 33.28600 30.97300
O  -5.41900 31.57300 32.37900
C  -6.53200 31.72100 33.36800
H  -0.31300 37.42400 30.04100
H  -0.95400 37.14400 23.45700
H  -4.04800 31.74500 23.98200
H  -3.34200 34.38600 31.94400
H  -0.68700 35.61500 31.95900
H  -3.04900 36.24300 32.78200
H  -2.74400 37.46600 31.43000
H  -1.57200 37.35700 32.73800
H  -0.56100 33.42800 32.68100
H  -1.25600 32.30900 31.49400
H  -2.51300 31.34900 33.07400
H  -3.25800 32.89100 33.49500
H  2.13300 39.07900 28.01700
H  1.07900 38.74100 29.31500
H  0.73900 40.11100 28.33200
H  0.77200 40.90200 26.01300
H  1.81200 40.69400 24.52400
H  2.34600 40.05200 26.18500
H  -1.35700 35.14500 21.97400
H  -3.89600 33.62900 22.16200
H  -4.20100 35.73900 21.72400
H  -2.66900 36.57900 21.08600
H  -3.41800 37.00000 22.59900
H  -1.87200 32.90800 20.95500
H  -2.82300 31.77800 22.06000
H  -0.71000 32.73400 23.59300
H  0.09200 32.39200 22.17600
H  -0.92700 31.10200 22.80100
H  -6.44000 30.17400 25.87500
H  -5.45600 29.24500 26.72100
H  -4.88400 29.79400 25.01500
H  -3.50700 31.19900 30.92400
H  -7.21100 32.57300 33.34900
H  -6.08000 31.78300 34.35800
H  -7.18300 30.85500 33.24600

