158

Mg 44.57400 5.23000 48.46600
C  42.86900 8.14500 47.44100
C  41.69600 3.48800 47.79500
C  46.34300 2.35400 48.75000
C  47.47100 7.10300 48.91100
N  42.55500 5.74700 47.74600
C  42.10800 6.98600 47.37500
C  40.66200 6.98400 46.94300
C  40.23100 5.50100 47.22100
C  41.51600 4.85800 47.64100
C  39.04100 5.37200 48.22700
C  40.48900 7.34600 45.40000
C  39.34300 8.29700 45.18700
H  38.26200 7.99900 44.03800
N  44.11600 3.14700 48.25500
C  42.83900 2.67600 48.05800
C  42.91300 1.27800 48.04800
C  44.24000 0.84600 48.18700
C  44.98000 2.12500 48.34000
C  41.76700 0.43500 47.80800
C  44.70600 -0.57300 48.26400
O  43.91800 -1.48500 48.19200
C  46.10100 -0.82500 48.34900
N  46.62400 4.78200 48.71700
C  47.12500 3.52200 48.90700
C  48.70900 3.44400 49.12200
C  49.02200 4.97500 49.04300
C  47.59400 5.70300 48.93100
C  49.08300 2.80500 50.49400
C  50.05200 5.38200 47.88800
C  51.37500 6.04300 48.26000
N  45.10300 7.24700 48.33900
C  46.28500 7.87500 48.52400
C  46.13500 9.28200 48.34700
C  44.81600 9.36100 47.96800
C  44.21200 8.16000 47.93300
C  47.26100 10.25500 48.55500
C  43.81000 10.25500 47.40500
O  43.97200 11.43400 47.17400
C  42.52100 9.55800 47.09200
C  41.46700 10.15600 47.94700
O  41.16700 9.66900 49.05400
O  40.75900 11.11800 47.23300
C  39.43300 11.42700 47.79900
H  40.77900 3.00300 47.45600
H  47.08100 1.54900 48.78100
H  48.34600 7.75700 48.90200
H  40.02500 7.63500 47.54000
H  39.93200 4.99800 46.30100
H  39.35000 4.82500 49.11800
H  38.36800 4.79600 47.59200
H  38.64100 6.33200 48.55300
H  40.40200 6.41000 44.84800
H  41.40100 7.86400 45.10200
H  39.77400 9.29100 45.06400
H  38.80100 8.19800 46.12800
H  42.15400 -0.42000 47.25300
H  40.95100 0.92100 47.27300
H  41.40900 0.14700 48.79600
H  46.27100 -1.88700 48.52400
H  46.47400 -0.32100 49.24100
H  46.47200 -0.41300 47.41100
H  49.08400 2.87400 48.27200
H  49.52500 5.23900 49.97300
H  49.23600 1.74000 50.32100
H  48.33300 3.00800 51.25900
H  49.99600 3.22600 50.91600
H  49.57000 6.10600 47.23000
H  50.14700 4.43800 47.35200
H  52.23100 5.48600 47.88100
H  51.43600 6.14400 49.34400
H  51.38300 7.02200 47.78100
H  47.85300 9.93200 49.41100
H  46.83200 11.23900 48.74000
H  47.91500 10.27000 47.68300
H  42.34200 9.72700 46.03000
H  38.89400 10.48500 47.89300
H  38.79200 11.97000 47.10500
H  39.53300 11.93400 48.75900
Mg 35.70100 48.25900 24.98700
C  36.10800 46.41800 27.99400
C  34.11900 50.81500 26.76900
C  35.22800 49.76100 22.15900
C  36.79700 45.43000 23.20000
N  35.12600 48.51900 27.16600
C  35.50800 47.67600 28.20000
C  35.23800 48.41000 29.53000
C  34.39000 49.65000 29.06900
C  34.42900 49.65700 27.56600
C  32.96600 49.55800 29.60200
C  36.55700 48.87700 30.18700
C  36.61600 48.58500 31.68400
H  35.26500 48.67500 32.42400
N  34.82800 50.11600 24.48700
C  34.32400 51.05900 25.36600
C  33.87900 52.29200 24.55500
C  34.34200 52.04400 23.18600
C  34.84600 50.60600 23.18900
C  33.30400 53.53600 25.12800
C  34.28800 52.92300 21.88300
O  34.77100 52.63000 20.82200
C  33.36100 54.10000 21.91200
N  35.69300 47.59300 22.97700
C  35.53400 48.43300 22.01600
C  35.84800 47.82100 20.65900
C  36.72500 46.65600 21.07000
C  36.41000 46.52600 22.52600
C  34.58300 47.42900 19.79800
C  38.26000 46.81100 20.67100
C  39.16600 47.49700 21.70900
N  36.36800 46.31400 25.42300
C  36.84900 45.31200 24.62400
C  37.22700 44.15000 25.40700
C  37.01800 44.57800 26.75800
C  36.43000 45.88400 26.69000
C  37.64800 42.77400 24.85000
C  37.01700 44.16600 28.17200
O  37.40200 43.15300 28.68200
C  36.41900 45.34000 29.01900
C  35.19400 44.90400 29.70100
O  34.11400 44.80300 29.18900
O  35.43600 44.84300 31.01400
C  34.23300 44.56400 31.78000
H  33.67700 51.65000 27.31600
H  35.19700 50.24800 21.18200
H  37.13000 44.59900 22.57500
H  34.68400 47.69200 30.13400
H  34.79400 50.62700 29.33400
H  32.84300 50.39300 30.29200
H  32.78500 48.59200 30.07300
H  32.18300 49.56900 28.84300
H  36.62200 49.94700 29.98700
H  37.43100 48.37700 29.77000
H  37.31000 49.29600 32.13100
H  36.98600 47.56700 31.81000
H  33.83700 54.40400 24.73800
H  33.46800 53.68100 26.19600
H  32.25100 53.55800 24.84500
H  33.69800 54.79800 22.67800
H  32.33500 53.79300 22.11600
H  33.33500 54.73400 21.02600
H  36.40100 48.62000 20.16600
H  36.46800 45.77300 20.48400
H  33.67100 47.52900 20.38700
H  34.59700 46.49300 19.23900
H  34.46000 48.19300 19.03000
H  38.39700 47.38400 19.75400
H  38.49800 45.78700 20.38100
H  38.71100 47.47600 22.69900
H  39.26000 48.55100 21.44900
H  40.11200 46.95600 21.69200
H  37.31500 42.79400 23.81200
H  36.98000 42.08500 25.36800
H  38.67900 42.48200 25.05100
H  37.15300 45.65000 29.76300
H  34.12100 43.49000 31.62900
H  33.43900 45.21800 31.41800
H  34.41000 44.75800 32.83800

