158

Mg 35.59800 3.55800 30.48100
C  32.88400 4.42700 32.53900
C  37.74500 3.78900 33.04800
C  37.95800 3.14600 28.27700
C  33.24500 3.85100 27.79200
N  35.31000 4.10400 32.49900
C  34.13800 4.22300 33.18300
C  34.34000 4.22400 34.69800
C  35.86400 4.51400 34.75400
C  36.36400 4.04500 33.33700
C  36.28500 5.92100 35.18800
C  33.90200 2.95100 35.49500
C  33.68900 3.21200 37.02700
H  34.42300 4.40600 37.62100
N  37.66600 3.39600 30.69400
C  38.38900 3.38900 31.80500
C  39.77800 3.04400 31.54300
C  39.81100 2.78100 30.11700
C  38.41400 3.01500 29.64300
C  40.84700 2.68900 32.53800
C  40.91500 2.20600 29.23900
O  40.86200 2.15300 28.06500
C  42.25900 1.74100 29.88900
N  35.60300 3.53100 28.27500
C  36.75700 3.41500 27.66000
C  36.50400 3.28100 26.09200
C  34.93600 3.55900 25.89500
C  34.52300 3.61400 27.38900
C  37.39100 4.23600 25.19200
C  34.28700 2.36300 25.15900
C  32.99700 2.70800 24.32000
N  33.40200 4.16200 30.16900
C  32.60200 4.10000 29.05100
C  31.25400 4.40400 29.43500
C  31.32300 4.51300 30.85100
C  32.62300 4.32800 31.17000
C  30.09700 4.52900 28.55900
C  30.50700 4.73100 32.01100
O  29.32400 4.93500 32.16500
C  31.52200 4.54300 33.18200
C  31.39100 5.72800 34.11800
O  31.80700 6.84000 33.81600
O  30.79600 5.33200 35.30300
C  30.77500 6.27800 36.42100
H  38.45100 3.77100 33.88100
H  38.61100 2.78300 27.48100
H  32.54400 3.98100 26.96500
H  33.79100 5.04300 35.16400
H  36.38700 3.89500 35.48300
H  35.91900 6.26000 36.15700
H  35.96700 6.72400 34.52300
H  37.36400 6.05800 35.25200
H  34.57300 2.09300 35.43500
H  32.90300 2.66800 35.16500
H  33.83200 2.32200 37.64100
H  32.63700 3.48800 37.09800
H  41.82100 3.06300 32.22400
H  40.96000 1.60600 32.59700
H  40.55400 3.02100 33.53400
H  42.89600 1.29500 29.12500
H  42.18400 1.00800 30.69200
H  42.56000 2.70200 30.30700
H  36.79600 2.25500 25.86900
H  34.64700 4.48800 25.40300
H  38.05900 4.87600 25.76900
H  36.75100 4.93000 24.64800
H  38.01800 3.62800 24.53900
H  33.86400 1.67100 25.88700
H  34.92100 1.87900 24.41600
H  32.90200 2.18000 23.37100
H  33.01100 3.78000 24.12400
H  32.12800 2.50900 24.94600
H  29.21000 4.62300 29.18400
H  30.00600 3.63000 27.94900
H  30.27800 5.45000 28.00400
H  31.36000 3.62700 33.75000
H  30.78300 7.31500 36.08600
H  31.65600 6.06500 37.02800
H  29.92400 6.07900 37.07200
Mg 48.50600 34.25500 26.25400
C  46.31300 33.22900 28.75200
C  49.21700 37.05200 28.22600
C  50.29900 35.59800 23.56700
C  47.27200 31.81600 24.08800
N  47.77100 35.09500 28.23700
C  47.03400 34.39200 29.11700
C  47.20300 35.01700 30.54300
C  47.63200 36.46400 30.20300
C  48.21200 36.23700 28.82000
C  46.52100 37.54600 30.31200
C  48.23700 34.26000 31.34300
C  47.74500 33.93600 32.78700
H  47.04800 35.05700 33.51500
N  49.75800 35.96500 26.05800
C  49.96800 36.94000 26.98900
C  51.02100 37.80200 26.52700
C  51.33200 37.47100 25.15000
C  50.47000 36.22500 24.87700
C  51.55100 38.94400 27.29000
C  52.24000 38.15700 24.06200
O  52.62500 37.64600 23.05800
C  52.70600 39.55100 24.36000
N  48.63100 33.89900 24.11500
C  49.50600 34.49500 23.23100
C  49.57900 33.78400 21.87200
C  48.80000 32.48600 22.20500
C  48.17300 32.75400 23.54700
C  48.94000 34.66900 20.68700
C  49.66900 31.23900 22.24000
C  49.00500 29.95100 21.61100
N  47.10200 32.79900 26.33300
C  46.67500 31.82100 25.35100
C  45.67900 30.88100 25.93700
C  45.56700 31.39800 27.28400
C  46.37900 32.56100 27.45700
C  45.00900 29.79200 25.22800
C  44.88200 31.20000 28.47400
O  44.05200 30.35000 28.76600
C  45.29300 32.37200 29.50900
C  45.62500 31.77300 30.81600
O  46.64100 31.08200 30.97200
O  44.67600 32.05100 31.76100
C  45.00500 31.58100 33.10000
H  49.45100 37.86000 28.92400
H  50.87300 36.12400 22.80100
H  47.11100 31.00200 23.37800
H  46.18700 34.94300 30.92900
H  48.36600 36.77100 30.94800
H  46.79200 38.13100 31.19100
H  45.49400 37.21600 30.46800
H  46.59900 38.25600 29.48800
H  49.21600 34.73900 31.34800
H  48.50800 33.37100 30.77300
H  48.61600 33.54900 33.31600
H  47.05100 33.10100 32.68600
H  51.41400 38.80200 28.36200
H  51.04700 39.86500 26.99600
H  52.62000 39.04100 27.10400
H  53.36400 39.91200 23.57000
H  53.34000 39.63700 25.24200
H  51.86300 40.24100 24.39400
H  50.59700 33.48900 21.61700
H  47.92400 32.29600 21.58400
H  48.08800 34.19200 20.20200
H  49.66600 34.95400 19.92600
H  48.56900 35.62000 21.07000
H  50.02500 30.94900 23.22900
H  50.47700 31.39300 21.52500
H  49.70600 29.27500 21.12200
H  48.19200 30.17900 20.92100
H  48.60400 29.42100 22.47500
H  44.35900 30.26300 24.49100
H  44.39200 29.11600 25.82000
H  45.76700 29.22500 24.68800
H  44.31000 32.82600 29.64200
H  44.62600 32.20200 33.91200
H  46.04700 31.30300 33.25900
H  44.48700 30.62300 33.14600

