158

Mg 27.00500 50.56000 25.52600
C  24.84800 51.35600 28.18500
C  29.35700 49.47000 27.82800
C  28.95700 49.79600 22.93600
C  24.47200 51.55600 23.37100
N  27.11100 50.55300 27.79600
C  26.07300 50.74300 28.67000
C  26.53500 50.55500 30.18100
C  27.99900 49.99700 29.95700
C  28.18200 50.00600 28.41000
C  29.11600 50.80400 30.72000
C  25.54000 49.58100 30.84600
C  25.09400 49.82000 32.33100
H  26.02600 50.55100 33.31900
N  28.81500 49.68900 25.35200
C  29.65800 49.39600 26.40900
C  30.77200 48.77800 25.90700
C  30.81100 48.92600 24.53200
C  29.48600 49.54200 24.23200
C  31.79200 48.12000 26.77000
C  31.91100 48.67200 23.59300
O  31.86000 48.97500 22.39600
C  33.15600 47.92400 24.05600
N  26.70100 50.70500 23.48900
C  27.68900 50.25800 22.61600
C  27.18200 50.45500 21.14200
C  25.78200 50.98200 21.29900
C  25.62300 51.05800 22.79600
C  28.14700 51.28300 20.18800
C  24.66000 50.16100 20.48500
C  23.99100 48.95900 21.13600
N  25.14900 51.44700 25.70200
C  24.23900 51.72700 24.73300
C  23.03600 52.28600 25.26900
C  23.24400 52.24400 26.66600
C  24.52100 51.62200 26.89600
C  21.90500 52.91300 24.49300
C  22.65400 52.54400 27.93200
O  21.58800 53.03200 28.22500
C  23.69700 51.95300 29.01600
C  24.16900 52.95600 29.99800
O  25.02500 53.80700 29.82900
O  23.44300 52.76200 31.18200
C  23.68800 53.75600 32.22900
H  30.12300 49.17400 28.54700
H  29.53900 49.54900 22.04600
H  23.66700 51.87200 22.70300
H  26.60200 51.53400 30.65600
H  28.08000 48.92900 30.15900
H  28.83500 51.80300 31.05400
H  30.04900 50.87200 30.16100
H  29.35600 50.27100 31.64000
H  25.96300 48.57700 30.80000
H  24.60700 49.61600 30.28400
H  24.94600 48.81600 32.73000
H  24.05900 50.16100 32.32400
H  31.44900 47.81300 27.75800
H  32.68900 48.73300 26.86300
H  32.12200 47.16600 26.36100
H  33.70400 48.30200 24.91900
H  33.81100 47.88400 23.18600
H  32.77400 46.90900 24.16900
H  27.12100 49.44600 20.73600
H  25.78700 51.96900 20.83800
H  29.15200 50.98000 20.48300
H  27.94600 52.35300 20.24100
H  28.03900 51.00400 19.14000
H  25.14400 49.99300 19.52300
H  23.84800 50.86000 20.28300
H  24.03900 48.11900 20.44300
H  22.95900 49.20900 21.38200
H  24.51100 48.64900 22.04300
H  22.05700 53.97800 24.31500
H  21.00700 52.75400 25.08900
H  21.69900 52.39500 23.55600
H  23.17800 51.18000 29.58300
H  24.64800 53.63800 32.73000
H  22.77300 53.74700 32.82100
H  23.81900 54.75700 31.81700
Mg 1.12300 42.07900 26.31800
C  2.72300 41.91800 29.38000
C  -1.76100 41.01600 27.63900
C  -0.14400 41.63200 23.14300
C  4.20000 43.28600 24.88500
N  0.62400 41.37000 28.25600
C  1.37900 41.54700 29.39800
C  0.47300 41.34100 30.62200
C  -0.98800 41.07800 30.05000
C  -0.72500 41.24200 28.54200
C  -1.61600 39.72000 30.54300
C  0.50100 42.49300 31.65400
C  0.94000 42.25500 33.10800
H  -0.07700 42.47700 34.28100
N  -0.66900 41.40500 25.60200
C  -1.74500 40.88600 26.28700
C  -2.75700 40.55100 25.34300
C  -2.31400 40.80000 24.05900
C  -0.94000 41.24600 24.19700
C  -4.06800 39.99000 25.82500
C  -3.09000 40.78600 22.69900
O  -2.65100 40.90000 21.57800
C  -4.65500 40.59900 22.78300
N  1.83300 42.40100 24.35700
C  1.13800 42.12600 23.19700
C  2.00100 42.55400 21.91900
C  3.31200 43.17000 22.64100
C  3.05600 42.96400 24.09100
C  2.28300 41.44300 20.82900
C  3.60600 44.61900 22.11000
C  3.56400 44.87000 20.58900
N  3.03200 42.49300 26.93700
C  4.14700 42.93200 26.24700
C  5.28400 43.00200 27.14800
C  4.71900 42.68100 28.36100
C  3.41100 42.26300 28.18600
C  6.62400 43.48100 26.91900
C  5.04000 42.50600 29.78700
O  6.14000 42.76700 30.33700
C  3.75100 42.03300 30.54000
C  4.00800 40.76000 31.26600
O  4.43000 39.69700 30.86000
O  3.94000 41.06800 32.56100
C  3.86200 39.90100 33.48500
H  -2.64800 40.81500 28.24400
H  -0.48100 41.41200 22.12800
H  5.12500 43.59500 24.39400
H  0.88500 40.42400 31.04200
H  -1.66200 41.88900 30.32700
H  -1.17200 39.37600 31.47700
H  -1.39000 38.93900 29.81700
H  -2.70000 39.76100 30.64200
H  -0.43100 43.05500 31.71000
H  1.14800 43.32000 31.36200
H  1.65300 43.04800 33.33300
H  1.34100 41.24300 33.17500
H  -4.67000 39.52700 25.04400
H  -4.67700 40.81400 26.19700
H  -3.95200 39.20900 26.57700
H  -5.05400 41.20600 23.59600
H  -4.89400 39.54100 22.89100
H  -5.10300 41.01100 21.87900
H  1.38000 43.36900 21.54700
H  4.25000 42.65500 22.43200
H  2.18000 40.39100 21.09400
H  3.23100 41.62700 20.32300
H  1.49600 41.49300 20.07700
H  4.63500 44.83300 22.40100
H  2.98000 45.27100 22.71900
H  4.28300 44.23600 20.07000
H  4.00900 45.82600 20.31400
H  2.57900 44.87300 20.12200
H  6.58000 44.56800 26.98200
H  6.89600 43.18500 25.90600
H  7.21900 43.05200 27.72500
H  3.48600 42.79400 31.27500
H  3.22900 40.35900 34.24500
H  4.81100 39.74700 33.99900
H  3.30800 39.04600 33.09800

