158

Mg -0.12700 7.52500 26.59600
C  0.56200 9.54300 29.43800
C  -0.32100 4.80200 28.72900
C  -0.58600 5.55100 23.94600
C  0.53400 10.21900 24.55100
N  -0.09400 7.29400 28.82500
C  0.14700 8.21200 29.81000
C  0.06900 7.70600 31.16900
C  -0.10300 6.11200 30.92100
C  -0.28200 6.07600 29.35600
C  0.95900 5.13000 31.48700
C  -1.00000 8.41200 32.02700
C  -0.76900 8.57000 33.53300
H  0.43000 8.07100 34.26000
N  -0.39000 5.45000 26.33200
C  -0.37300 4.49500 27.30100
C  -0.49700 3.20000 26.65500
C  -0.66900 3.40800 25.27400
C  -0.59900 4.89700 25.13300
C  -0.41100 1.97800 27.43900
C  -1.04000 2.35500 24.18600
O  -1.23500 2.79400 23.05700
C  -1.28200 0.87600 24.51000
N  -0.06400 7.87600 24.55400
C  -0.35900 6.88900 23.58400
C  -0.28500 7.40900 22.10600
C  -0.19900 8.94000 22.42200
C  0.14700 9.03700 23.94600
C  0.80200 6.66100 21.30600
C  -1.46300 9.77300 22.08300
C  -1.29400 10.76500 20.87600
N  0.49200 9.47000 26.89400
C  0.69000 10.42200 25.90600
C  1.23300 11.57200 26.58100
C  1.29700 11.27200 27.95000
C  0.74200 9.98700 28.10100
C  1.70500 12.75300 25.93700
C  1.63700 11.78100 29.23000
O  2.20200 12.85000 29.57500
C  1.16200 10.67000 30.27700
C  2.31400 10.21900 31.15600
O  3.07700 9.36900 30.82900
O  2.53300 11.00300 32.20500
C  3.63600 10.80000 33.14800
H  -0.47500 3.88200 29.29700
H  -0.83200 4.98100 23.04800
H  0.77200 11.09200 23.94100
H  1.02000 7.83900 31.68500
H  -1.09800 5.84800 31.28100
H  0.42200 4.31800 31.97800
H  1.54700 5.69600 32.20900
H  1.60800 4.87200 30.65000
H  -1.95600 7.94900 31.78200
H  -1.04600 9.39800 31.56400
H  -1.67700 8.19400 34.00300
H  -0.74600 9.64100 33.73300
H  -0.15700 1.08900 26.86200
H  -1.36100 1.78700 27.93700
H  0.41200 2.17400 28.12700
H  -1.68400 0.39100 23.62100
H  -1.98400 0.76300 25.33600
H  -0.39100 0.32800 24.81900
H  -1.19900 7.19400 21.55200
H  0.63000 9.37900 21.86700
H  1.11500 5.74600 21.81000
H  1.71900 7.24800 21.24900
H  0.58200 6.31700 20.29600
H  -1.53200 10.47200 22.91700
H  -2.42800 9.27600 21.98700
H  -0.79300 10.23300 20.06700
H  -0.75400 11.69700 21.04400
H  -2.29800 11.03900 20.55400
H  1.02300 13.05600 25.14300
H  2.72700 12.62200 25.58100
H  1.70300 13.62700 26.58900
H  0.31800 11.04400 30.85600
H  4.10000 11.78700 33.14700
H  4.34600 10.11100 32.69200
H  3.32300 10.51700 34.15300
Mg 36.33200 49.40800 25.54800
C  36.18800 47.35800 28.35800
C  34.98500 51.95600 27.48300
C  35.81200 51.25300 22.76200
C  36.84400 46.66000 23.60600
N  35.67300 49.59700 27.68900
C  35.88500 48.69500 28.68300
C  35.70800 49.31700 30.06400
C  35.03700 50.68900 29.74100
C  35.18100 50.76200 28.24200
C  33.64600 50.93800 30.27000
C  37.13100 49.41500 30.81900
C  37.17700 49.98200 32.25500
H  35.94200 49.86900 33.05600
N  35.70400 51.41600 25.16600
C  35.28300 52.27600 26.13500
C  34.84500 53.49700 25.52200
C  35.13200 53.39900 24.11800
C  35.58700 52.02000 23.91300
C  34.24400 54.72600 26.28500
C  34.99100 54.31900 22.93900
O  35.04000 53.91100 21.77000
C  34.66300 55.77900 23.07800
N  36.37800 49.03800 23.47700
C  36.09000 49.93300 22.49600
C  36.29800 49.39900 21.15200
C  36.98800 48.07900 21.43700
C  36.67300 47.84300 22.93200
C  34.92100 49.23500 20.32600
C  38.56100 47.97700 21.26000
C  38.95700 47.68400 19.78000
N  36.62400 47.33800 25.90900
C  36.80900 46.37600 24.98200
C  37.13600 45.08500 25.67700
C  36.91400 45.45200 27.06200
C  36.49700 46.81600 27.08100
C  37.54900 43.72300 25.07300
C  36.98600 44.90000 28.41900
O  37.25400 43.77200 28.85000
C  36.58700 46.23000 29.29000
C  35.58500 45.78400 30.29800
O  34.48100 45.28600 29.95700
O  35.99100 45.99500 31.60900
C  35.01500 45.57800 32.63400
H  34.60900 52.80300 28.06100
H  35.70700 51.80600 21.82600
H  37.07000 45.79800 22.97500
H  35.04100 48.59000 30.52500
H  35.61800 51.45100 30.26200
H  33.26100 50.06800 30.80200
H  32.96800 51.06800 29.42600
H  33.58400 51.81500 30.91500
H  37.77200 50.04000 30.19600
H  37.59700 48.43000 30.81000
H  37.57300 50.99400 32.16700
H  37.90700 49.33900 32.74600
H  34.08900 55.64600 25.72200
H  34.90600 54.95600 27.11900
H  33.31100 54.29900 26.65400
H  33.69100 56.00000 23.51800
H  34.73600 56.28000 22.11300
H  35.52300 56.16300 23.62700
H  37.04600 49.99500 20.62900
H  36.60600 47.34900 20.72400
H  34.12500 48.86400 20.97100
H  35.03000 48.48000 19.54700
H  34.68100 50.21600 19.91500
H  39.07100 47.22600 21.86300
H  39.05100 48.89800 21.57600
H  38.18000 47.17100 19.21400
H  39.85900 47.07500 19.73400
H  39.12100 48.63800 19.27800
H  37.16100 43.71700 24.05400
H  37.01300 42.98300 25.66800
H  38.63100 43.59700 25.02600
H  37.47200 46.39900 29.90400
H  34.94500 44.50600 32.81400
H  33.99700 45.94800 32.50900
H  35.38400 45.95700 33.58700

