158

Mg 25.26000 0.55900 29.58700
C  27.46000 0.15900 32.36000
C  22.61900 0.54200 31.87600
C  23.23700 0.39700 27.02800
C  27.94700 -0.30700 27.43800
N  25.08300 0.35400 31.82600
C  26.08600 0.44400 32.73600
C  25.54900 0.60800 34.24400
C  23.98700 0.48000 33.98800
C  23.85100 0.38100 32.48800
C  23.33900 -0.75400 34.79300
C  26.01900 1.90800 34.92300
C  26.92600 1.85500 36.12400
H  26.56800 2.83500 37.15900
N  23.26500 0.60300 29.48600
C  22.36500 0.62200 30.51300
C  21.03600 0.75700 29.92900
C  21.16900 0.84100 28.54700
C  22.58100 0.56800 28.30800
C  19.73100 0.91800 30.65600
C  20.10300 1.00000 27.41000
O  20.44200 1.01500 26.27000
C  18.53200 1.22400 27.65600
N  25.54400 -0.11000 27.46700
C  24.54100 0.03800 26.62400
C  25.04800 -0.09900 25.20200
C  26.59900 -0.18000 25.23500
C  26.75900 -0.16600 26.75500
C  24.32500 -1.21600 24.30900
C  27.36200 0.97800 24.53400
C  28.37300 0.52500 23.48900
N  27.28800 0.02500 29.71700
C  28.25400 -0.23500 28.78300
C  29.55100 -0.40900 29.46200
C  29.22500 -0.27500 30.85000
C  27.83800 -0.04300 31.00400
C  30.87200 -0.57200 28.78600
C  29.84400 -0.23300 32.14000
O  31.00100 -0.43300 32.44900
C  28.69900 0.11500 33.16900
C  28.64000 -0.91700 34.23300
O  28.11000 -2.03100 34.08400
O  29.43700 -0.60000 35.32200
C  29.50300 -1.59000 36.43700
H  21.69900 0.55200 32.46500
H  22.61700 0.50500 26.13500
H  28.78500 -0.60400 26.80400
H  26.03200 -0.27300 34.66700
H  23.42900 1.29500 34.44800
H  24.04600 -1.55600 35.00500
H  22.50200 -1.20500 34.25800
H  22.80700 -0.18500 35.55500
H  25.10500 2.39100 35.26700
H  26.55100 2.45600 34.14500
H  27.94300 1.98900 35.75600
H  26.72900 0.89800 36.60800
H  18.98800 0.23000 30.25200
H  19.25500 1.87900 30.46300
H  19.72800 0.85500 31.74400
H  17.97500 1.39800 26.73500
H  18.32100 1.94000 28.45100
H  18.28300 0.20800 27.96100
H  24.82700 0.89600 24.81500
H  26.94000 -1.12200 24.80600
H  23.48400 -1.74500 24.75700
H  25.06700 -1.96600 24.03600
H  23.86000 -0.67800 23.48400
H  27.89600 1.52200 25.31300
H  26.72500 1.75800 24.11900
H  28.46400 -0.56100 23.48300
H  29.27000 1.08500 23.75600
H  27.89600 0.88300 22.57700
H  31.61400 0.08300 29.24300
H  30.72000 -0.21800 27.76600
H  31.28000 -1.58100 28.72700
H  29.03400 1.06500 33.58500
H  29.45600 -2.61400 36.06500
H  28.63700 -1.39900 37.07100
H  30.41600 -1.39800 37.00000
Mg -1.95700 34.64500 27.03800
C  -3.64700 32.80000 29.38700
C  -0.59100 36.50800 29.53600
C  -1.01700 36.81000 24.64000
C  -3.88000 32.91900 24.53400
N  -2.16700 34.67400 29.18800
C  -2.82200 33.75000 29.95900
C  -2.60800 34.00800 31.47200
C  -1.70100 35.26200 31.45900
C  -1.39500 35.43500 29.88800
C  -2.10500 36.59500 32.13300
C  -1.88600 32.82900 32.31100
C  -2.62700 32.67500 33.69200
H  -1.72300 32.52000 34.88300
N  -0.85900 36.37500 27.02000
C  -0.35600 36.97000 28.20600
C  0.49300 38.11400 27.82600
C  0.35800 38.23600 26.39900
C  -0.60200 37.16400 25.94600
C  1.32200 38.93500 28.79000
C  1.01000 39.27500 25.49300
O  0.84300 39.24700 24.25700
C  1.88600 40.37300 25.90600
N  -2.48300 34.88800 24.88600
C  -1.86700 35.85400 24.08500
C  -2.31200 35.63800 22.58300
C  -3.16500 34.35400 22.69600
C  -3.13700 33.98100 24.13500
C  -3.01000 36.85900 22.05200
C  -2.86700 33.27700 21.59500
C  -3.99500 32.96000 20.54900
N  -3.38100 33.13700 26.92600
C  -3.96200 32.48800 25.89100
C  -4.78000 31.43900 26.33300
C  -4.70400 31.50100 27.71400
C  -3.81900 32.53400 28.03600
C  -5.38700 30.44300 25.43600
C  -5.15900 30.91200 28.91400
O  -5.97200 30.05300 29.14400
C  -4.44600 31.67300 30.07500
C  -5.42900 32.39600 30.92000
O  -6.06300 33.34300 30.51400
O  -5.59100 31.73200 32.18500
C  -6.59200 32.46300 33.08000
H  -0.19300 37.03400 30.40600
H  -0.55100 37.41300 23.85700
H  -4.40300 32.49200 23.67600
H  -3.55500 34.34700 31.89300
H  -0.74100 34.99700 31.90100
H  -2.60800 37.24800 31.42000
H  -1.16400 36.94700 32.55600
H  -2.68400 36.37900 33.03100
H  -0.81300 32.99000 32.42200
H  -1.98500 31.97000 31.64700
H  -3.13700 31.71400 33.62400
H  -3.35800 33.47300 33.81600
H  2.36600 38.83400 28.49500
H  1.18600 38.62500 29.82600
H  1.07600 39.99700 28.76600
H  1.29900 41.00500 26.57200
H  2.29200 40.87300 25.02700
H  2.69600 39.97800 26.51900
H  -1.41900 35.55600 21.96300
H  -4.21000 34.64800 22.59700
H  -2.94300 37.66200 22.78600
H  -4.06600 36.64300 21.89000
H  -2.55600 37.18100 21.11500
H  -2.61900 32.32100 22.05600
H  -1.96700 33.62900 21.09000
H  -4.46700 31.99700 20.74700
H  -3.57800 32.85000 19.54800
H  -4.63900 33.83200 20.66300
H  -4.71200 30.29400 24.59300
H  -6.34200 30.69400 24.97500
H  -5.56200 29.49800 25.94900
H  -3.80600 31.00900 30.65600
H  -7.33400 33.09500 32.59300
H  -6.01400 33.11400 33.73600
H  -7.12000 31.77800 33.74300

