158

Mg -1.62300 17.99700 27.57800
C  -2.10900 15.63400 30.13500
C  -1.86000 20.46200 29.96200
C  -1.75600 20.23900 25.02000
C  -1.61600 15.34600 25.26100
N  -1.74900 17.99700 29.84200
C  -2.01500 16.95900 30.68300
C  -2.32500 17.42900 32.12100
C  -2.58300 18.89500 31.81200
C  -2.02300 19.17400 30.47500
C  -4.12500 19.22900 32.04700
C  -1.19500 17.11300 33.15600
C  -1.46800 16.36800 34.42800
H  -0.18600 16.34600 35.34700
N  -1.57700 20.02500 27.47700
C  -1.62500 20.86300 28.62000
C  -1.45300 22.21600 28.14400
C  -1.57100 22.26300 26.72500
C  -1.68700 20.80600 26.31700
C  -1.25000 23.41000 29.05900
C  -1.40800 23.29800 25.76100
O  -1.49700 23.17300 24.57200
C  -1.02800 24.69200 26.28900
N  -1.67800 17.80500 25.45500
C  -1.75300 18.89200 24.69200
C  -1.54800 18.53200 23.19300
C  -1.24800 16.99400 23.27200
C  -1.51200 16.66500 24.74800
C  -2.75400 18.96000 22.30800
C  0.14600 16.49300 22.90500
C  1.24400 16.88400 23.86700
N  -1.76600 15.93300 27.61000
C  -1.76300 14.99500 26.57300
C  -1.97100 13.66500 27.08000
C  -2.11900 13.86500 28.48900
C  -2.06600 15.25100 28.75600
C  -1.99300 12.42300 26.32500
C  -2.39900 13.20700 29.74300
O  -2.53900 12.04000 29.94000
C  -2.31800 14.38100 30.88400
C  -1.24300 14.02900 31.76700
O  -0.05100 14.34200 31.67300
O  -1.70500 13.14000 32.76200
C  -0.70600 12.80100 33.72300
H  -2.17200 21.23700 30.66500
H  -1.65400 20.96600 24.21200
H  -1.39200 14.48600 24.62500
H  -3.25600 16.96200 32.44000
H  -2.03600 19.56800 32.47100
H  -4.67000 18.35800 32.40900
H  -4.55900 19.62300 31.12800
H  -4.20200 20.00500 32.80900
H  -0.71700 18.06600 33.38000
H  -0.39600 16.64000 32.58500
H  -1.77500 15.32900 34.31400
H  -2.34700 16.76400 34.93700
H  -0.38400 24.00300 28.76400
H  -1.25500 23.21000 30.13100
H  -2.16300 23.98100 28.89200
H  -1.15900 25.38800 25.46100
H  -0.02600 24.66400 26.71600
H  -1.83300 24.94900 26.97800
H  -0.71500 19.07500 22.74500
H  -1.85300 16.47400 22.52900
H  -2.46300 19.37700 21.34400
H  -3.33600 19.69900 22.85800
H  -3.29700 18.06500 22.00500
H  0.38300 16.85800 21.90500
H  -0.08500 15.42800 22.92000
H  0.96500 17.16300 24.88300
H  1.76600 17.72400 23.41100
H  1.77500 15.93500 23.94200
H  -1.45000 12.55100 25.38800
H  -3.04100 12.19400 26.13500
H  -1.50700 11.65700 26.92900
H  -3.25300 14.55600 31.41700
H  -0.12400 12.00800 33.25300
H  -1.22100 12.42300 34.60600
H  0.06000 13.52000 34.01200
Mg 47.42900 25.40700 28.69500
C  48.34600 27.54800 31.06500
C  46.49500 23.04500 31.08300
C  46.87400 23.12100 26.28100
C  49.07400 27.39700 26.18600
N  47.49200 25.28500 30.75400
C  47.77200 26.39700 31.53200
C  47.40700 26.17700 33.02900
C  47.07100 24.65100 32.94400
C  46.93100 24.31400 31.47100
C  48.05100 23.74600 33.74900
C  46.26600 27.09000 33.59500
C  45.75600 26.83800 35.03700
H  45.46000 27.85600 36.11600
N  46.61800 23.39200 28.68100
C  46.25400 22.62700 29.76600
C  45.92000 21.33400 29.30600
C  45.81200 21.43200 27.91800
C  46.45600 22.71000 27.55300
C  45.57700 20.20100 30.21700
C  45.28600 20.38100 26.96500
O  45.28900 20.56700 25.74900
C  44.48300 19.17200 27.56900
N  47.87000 25.30100 26.51200
C  47.41600 24.30700 25.76800
C  47.56100 24.51400 24.22900
C  48.14600 25.93300 24.25200
C  48.40700 26.28100 25.73400
C  48.43600 23.46600 23.42200
C  47.02800 26.92400 23.72000
C  47.64700 28.29900 23.18800
N  48.62800 27.02400 28.63900
C  49.22700 27.78600 27.54200
C  49.77900 28.94100 28.08600
C  49.50400 28.97200 29.49400
C  48.77600 27.74100 29.76300
C  50.67400 29.91100 27.30600
C  49.65800 29.68500 30.70300
O  50.27700 30.69300 30.95400
C  48.79200 28.85500 31.75600
C  49.60200 28.81300 32.99800
O  50.69700 28.26200 33.06400
O  48.94000 29.36800 34.07300
C  49.65500 29.43700 35.40100
H  46.19100 22.32000 31.84100
H  46.69500 22.39700 25.48400
H  49.33800 28.16100 25.45200
H  48.36300 26.36200 33.52000
H  46.17000 24.52300 33.54300
H  47.61300 23.48900 34.71400
H  48.96400 24.32700 33.88500
H  48.15800 22.83400 33.16300
H  45.45300 26.89700 32.89500
H  46.66900 28.10200 33.57800
H  46.48800 26.17100 35.49200
H  44.82400 26.31700 34.81700
H  46.00900 19.27700 29.83200
H  44.50000 20.03300 30.21900
H  46.01700 20.30300 31.20900
H  43.91500 18.55700 26.87100
H  43.76600 19.58700 28.27700
H  45.12800 18.41800 28.02000
H  46.60100 24.48000 23.71400
H  49.10600 26.01300 23.74100
H  49.24100 23.99300 22.90800
H  47.79000 23.00800 22.67300
H  48.84300 22.70200 24.08400
H  46.39600 27.15600 24.57700
H  46.46600 26.45700 22.91100
H  47.31700 28.39900 22.15400
H  48.72500 28.18500 23.07500
H  47.18900 29.13500 23.71700
H  51.53300 29.39900 26.87400
H  51.22900 30.38200 28.11700
H  50.14900 30.66100 26.71600
H  47.90800 29.46400 31.94900
H  50.06400 30.40400 35.69200
H  50.42000 28.66200 35.44000
H  48.89400 29.09500 36.10300

