158

Mg 40.51400 9.63400 28.82200
C  42.23500 10.82900 31.59800
C  38.23900 8.10200 30.95400
C  39.05300 8.13800 26.25100
C  43.36300 10.26400 26.86900
N  40.22300 9.45900 30.95700
C  40.98800 10.17900 31.89000
C  40.43100 9.96700 33.29700
C  39.28300 8.88700 33.10500
C  39.24500 8.77200 31.56000
C  39.52900 7.50400 33.83500
C  39.99900 11.17100 34.12800
C  39.93800 11.01300 35.63000
H  40.63400 12.16500 36.44200
N  38.74600 8.48000 28.60300
C  37.89100 8.03200 29.55800
C  36.83000 7.22500 29.00500
C  36.94400 7.40100 27.61800
C  38.31400 8.04600 27.42100
C  35.85900 6.43400 29.87000
C  36.02400 6.85600 26.49400
O  36.21300 7.01000 25.29200
C  34.69800 6.17000 26.78600
N  41.03500 9.34000 26.76500
C  40.27100 8.68600 25.90800
C  40.85800 8.70700 24.51300
C  42.28600 9.39900 24.77100
C  42.27600 9.63300 26.24500
C  41.17900 7.26400 23.91100
C  42.39900 10.66100 23.81200
C  41.68200 11.99200 24.18100
N  42.39200 10.38900 29.13200
C  43.41400 10.68100 28.23400
C  44.38600 11.43700 28.89300
C  43.88700 11.63500 30.22500
C  42.75400 10.87100 30.31100
C  45.67700 11.90100 28.29000
C  44.18400 12.27700 31.50900
O  45.13900 12.90400 31.90000
C  43.08600 11.71900 32.47400
C  43.79000 10.97600 33.60700
O  44.66500 10.17000 33.58700
O  43.24300 11.47300 34.71900
C  43.81700 10.87500 36.00600
H  37.53000 7.56100 31.58300
H  38.70500 7.55100 25.39800
H  44.19100 10.61300 26.24800
H  41.17000 9.46300 33.91900
H  38.37800 9.33500 33.51400
H  40.57600 7.40100 34.11800
H  39.25600 6.77400 33.07300
H  38.90000 7.40300 34.72000
H  39.01100 11.44900 33.76000
H  40.60900 12.04400 33.89500
H  40.45900 10.09100 35.88500
H  38.87700 10.99700 35.88000
H  36.35800 5.91300 30.68700
H  35.47200 5.73000 29.13300
H  35.17300 7.15900 30.30800
H  34.09900 6.40400 25.90600
H  34.16000 6.59300 27.63400
H  34.94700 5.13600 27.02600
H  40.19800 9.25200 23.83900
H  43.19300 8.80900 24.63500
H  40.39900 7.11200 23.16500
H  41.02300 6.56700 24.73500
H  42.22900 7.19600 23.62600
H  41.99100 10.27400 22.87800
H  43.46300 10.89500 23.78000
H  41.08900 11.72500 25.05600
H  41.11900 12.45200 23.36900
H  42.37200 12.76600 24.51700
H  46.25600 12.63000 28.85700
H  45.49800 12.39700 27.33600
H  46.35500 11.07200 28.08800
H  42.42000 12.53000 32.76900
H  44.89300 10.70600 36.05400
H  43.35900 9.89200 36.11200
H  43.43000 11.52000 36.79600
Mg 47.09700 24.77600 28.84100
C  47.86800 27.25800 31.32500
C  45.94100 22.73800 31.37600
C  46.66600 22.48600 26.55900
C  48.53800 26.95200 26.45200
N  46.87600 24.98500 31.13300
C  47.33100 26.03700 31.92900
C  46.89300 25.77800 33.39800
C  46.69100 24.21900 33.43400
C  46.43600 23.96700 31.89100
C  47.88100 23.37400 34.01600
C  45.73900 26.65100 33.92500
C  45.85200 27.48900 35.23700
H  46.54100 26.73500 36.40800
N  46.22800 22.90200 28.88300
C  45.78300 22.26200 30.03800
C  45.22600 21.00100 29.62400
C  45.49500 20.89100 28.21200
C  46.20200 22.08900 27.83600
C  44.62300 19.99300 30.60000
C  45.19800 19.77500 27.20700
O  45.46300 19.80800 26.01700
C  44.41900 18.65900 27.67200
N  47.40400 24.80200 26.69500
C  47.34100 23.63200 26.06000
C  48.17800 23.62100 24.79200
C  48.51600 25.12000 24.58900
C  48.16300 25.68900 25.98100
C  49.44800 22.66200 24.75800
C  47.63800 25.86100 23.46900
C  48.38700 26.41900 22.23800
N  48.08300 26.65500 28.85700
C  48.36100 27.49200 27.76900
C  48.92000 28.74000 28.28800
C  48.60200 28.70700 29.64000
C  48.14100 27.39900 29.93500
C  49.64500 29.80400 27.52400
C  48.69900 29.45300 30.85900
O  49.12000 30.58200 30.99900
C  48.20500 28.55500 31.98500
C  49.27800 28.34900 33.03400
O  50.21600 27.60900 33.05700
O  49.06700 29.33500 33.97700
C  49.83400 29.13500 35.20700
H  45.54800 22.08300 32.15600
H  46.64200 21.65800 25.84700
H  49.11200 27.48000 25.68800
H  47.79100 26.02800 33.96300
H  45.82300 23.98200 34.04900
H  48.65800 23.94500 34.52400
H  48.34500 22.75100 33.25100
H  47.39100 22.67800 34.69700
H  44.88700 26.04000 34.22200
H  45.32900 27.34400 33.19000
H  44.84300 27.80500 35.50200
H  46.38100 28.38800 34.92000
H  43.89600 19.33400 30.12700
H  44.12800 20.55100 31.39400
H  45.52500 19.61100 31.07900
H  44.94300 18.28600 28.55200
H  44.27300 17.97600 26.83500
H  43.45000 19.10700 27.88700
H  47.57300 23.24200 23.96800
H  49.59600 25.20800 24.47200
H  49.25800 21.74800 24.19400
H  49.66500 22.35900 25.78200
H  50.32500 23.18800 24.38000
H  47.08800 26.65300 23.97600
H  46.91900 25.17800 23.01600
H  48.76200 25.62100 21.59700
H  49.25100 26.97800 22.59800
H  47.77700 27.15900 21.72000
H  49.26100 30.80000 27.74500
H  49.26800 29.71900 26.50500
H  50.68100 29.51800 27.70200
H  47.30400 29.04200 32.35800
H  50.91800 29.16200 35.09000
H  49.45600 28.26500 35.74500
H  49.72000 29.91600 35.95800

