158

Mg 43.51100 42.05200 26.23100
C  42.62000 44.53300 28.63100
C  44.66400 40.09300 28.84200
C  44.68700 39.95500 23.88800
C  43.32500 44.60100 23.86900
N  43.54200 42.23000 28.43800
C  42.95600 43.25100 29.21900
C  43.03400 42.91900 30.69900
C  44.13900 41.81400 30.73800
C  44.11300 41.29300 29.28800
C  45.50500 42.32300 31.11700
C  41.70200 42.45700 31.38000
C  41.26100 43.33500 32.60700
H  41.95200 43.12000 33.91000
N  44.38700 40.20000 26.32900
C  44.68600 39.56100 27.50400
C  45.12200 38.19000 27.12200
C  45.05700 38.13300 25.68400
C  44.66200 39.45700 25.23300
C  45.53300 37.15500 28.13700
C  45.33700 36.94500 24.80800
O  45.17900 36.93300 23.60600
C  45.88700 35.66900 25.50100
N  44.06600 42.20100 24.17400
C  44.44800 41.17700 23.37200
C  44.43300 41.59600 21.90900
C  44.00000 43.08100 21.98400
C  43.86000 43.38600 23.46200
C  45.82500 41.40500 21.13900
C  42.73500 43.36100 21.12700
C  41.31000 43.26900 21.76000
N  42.93800 44.08200 26.13000
C  42.91400 44.98900 25.12400
C  42.39100 46.26900 25.62000
C  42.27800 46.16700 26.98700
C  42.64600 44.79400 27.23300
C  41.83300 47.36600 24.68300
C  41.89600 46.84000 28.23900
O  41.34800 47.91500 28.43300
C  42.12300 45.82100 29.40100
C  43.07700 46.36100 30.29300
O  44.29500 46.29900 30.19500
O  42.38000 46.90700 31.41100
C  43.41300 47.20000 32.46500
H  45.01200 39.39500 29.60700
H  44.90600 39.14400 23.19000
H  43.18000 45.41800 23.15900
H  43.40100 43.84500 31.14100
H  43.84500 40.97600 31.37100
H  45.99100 41.49300 31.63000
H  45.46600 43.17500 31.79600
H  46.15200 42.68000 30.31600
H  41.74800 41.41700 31.70500
H  40.86600 42.48900 30.68100
H  40.20000 43.18700 32.81000
H  41.34600 44.41600 32.49600
H  45.14400 36.14800 27.98500
H  45.15300 37.56100 29.07500
H  46.62000 37.16300 28.21500
H  46.33700 35.04000 24.73300
H  45.05300 35.10300 25.91500
H  46.63100 35.94600 26.24800
H  43.67500 41.00300 21.39700
H  44.86300 43.63700 21.61600
H  45.61500 41.47200 20.07200
H  46.27900 40.46400 21.45000
H  46.53100 42.18200 21.43100
H  42.73200 42.65000 20.30100
H  42.78600 44.37200 20.72100
H  41.24500 43.07800 22.83100
H  40.60900 42.54300 21.34800
H  40.76900 44.20800 21.64500
H  42.62900 48.03800 24.36400
H  41.08100 48.04900 25.07800
H  41.33100 46.91700 23.82600
H  41.19600 45.54800 29.90600
H  44.31800 47.73200 32.17300
H  43.66900 46.30000 33.02500
H  42.89100 47.84500 33.17200
Mg 27.22600 51.04800 26.43300
C  24.88400 51.93600 28.81500
C  29.45300 50.37000 28.86100
C  29.43500 50.47600 23.94900
C  24.93600 52.34700 23.96900
N  27.20900 51.07900 28.59300
C  26.11400 51.35600 29.38400
C  26.46600 51.18200 30.86900
C  27.96300 50.68900 30.87000
C  28.24600 50.73600 29.36300
C  29.00300 51.55500 31.65200
C  25.50300 50.25800 31.61700
C  25.00100 50.72200 33.01100
H  25.11300 49.66700 34.05800
N  29.18300 50.52500 26.44900
C  29.94500 50.29100 27.53700
C  31.21700 50.03900 27.14500
C  31.26800 50.08000 25.69400
C  29.93100 50.30100 25.27900
C  32.34300 49.64600 28.15700
C  32.51500 49.82100 24.76500
O  32.47700 49.90100 23.55600
C  33.85500 49.42600 25.40700
N  27.15300 51.40800 24.34000
C  28.18700 50.97100 23.53200
C  27.81600 50.95100 22.06000
C  26.40100 51.57400 22.07800
C  26.12400 51.83200 23.53200
C  28.83700 51.70700 21.16100
C  25.23500 50.67700 21.46800
C  24.10300 51.52000 20.71600
N  25.28700 51.79600 26.27900
C  24.51300 52.35300 25.26500
C  23.25400 52.92400 25.78700
C  23.43900 52.84400 27.17800
C  24.61800 52.10400 27.44100
C  22.13300 53.41900 25.02100
C  22.72900 53.00900 28.45700
O  21.60200 53.45000 28.63100
C  23.70300 52.60900 29.59900
C  24.12500 53.71300 30.46500
O  25.08500 54.42800 30.25500
O  23.32500 53.75900 31.60300
C  23.76100 54.64800 32.59200
H  30.12400 50.11700 29.68400
H  30.13500 50.31900 23.12600
H  24.18600 52.69200 23.25400
H  26.38100 52.18100 31.29600
H  28.05700 49.70200 31.32500
H  28.45000 52.28600 32.24200
H  29.65300 52.09300 30.96200
H  29.57000 50.92500 32.33700
H  26.01800 49.30900 31.77000
H  24.61700 50.08600 31.00500
H  23.95000 50.80400 32.73400
H  25.42700 51.71400 33.16300
H  32.14100 50.14000 29.10700
H  33.29300 50.12000 27.90900
H  32.45600 48.56200 28.18700
H  33.77000 48.61500 26.13000
H  34.34400 50.30600 25.82400
H  34.48700 48.99100 24.63300
H  27.85300 49.96100 21.60600
H  26.42700 52.55000 21.59300
H  29.66800 52.05500 21.77400
H  28.43300 52.55000 20.60000
H  29.34000 51.04600 20.45500
H  24.77000 50.06600 22.24100
H  25.71000 49.94000 20.81900
H  23.24900 51.30400 21.35900
H  24.04200 51.14200 19.69600
H  24.27600 52.58700 20.86200
H  22.10300 52.95300 24.03600
H  22.26800 54.47500 24.78800
H  21.15600 53.25800 25.47700
H  23.17500 51.91500 30.25400
H  24.32400 55.51000 32.23300
H  24.28800 54.05500 33.33900
H  22.95100 55.10200 33.16200

