158

Mg 9.23600 2.80500 27.83500
C  10.20900 1.21000 30.76600
C  7.11600 4.74200 29.90300
C  7.91200 4.10400 25.06300
C  10.38100 0.01500 26.06600
N  8.73700 2.91900 30.17900
C  9.40200 2.30600 31.14700
C  8.97200 2.84100 32.51700
C  7.87700 3.85900 32.18400
C  7.90600 3.86600 30.63300
C  6.36700 3.66100 32.74500
C  10.24100 3.44700 33.31600
C  10.03500 4.33100 34.54600
H  10.85900 3.95300 35.76800
N  7.88300 4.34600 27.54300
C  7.09000 5.00400 28.50500
C  6.32200 5.95900 27.86800
C  6.52100 5.76800 26.40900
C  7.48800 4.70900 26.29900
C  5.33700 6.88800 28.56800
C  5.95400 6.54600 25.20700
O  6.12100 6.26000 24.00400
C  5.10200 7.79600 25.52400
N  9.11600 2.12200 25.81100
C  8.60900 2.87400 24.82200
C  8.92800 2.33200 23.41300
C  9.57000 0.92000 23.76300
C  9.72600 0.99300 25.29500
C  7.75800 2.33600 22.41000
C  10.77000 0.38100 22.98000
C  10.60100 -1.00000 22.34900
N  10.30000 1.07000 28.20200
C  10.72000 0.07900 27.42600
C  11.55700 -0.80600 28.14800
C  11.43000 -0.40000 29.48600
C  10.49800 0.67500 29.48300
C  12.35200 -1.98100 27.51500
C  11.85900 -0.68200 30.89300
O  12.68700 -1.50200 31.31700
C  10.99400 0.31300 31.80700
C  10.17000 -0.28500 32.81900
O  9.46000 -1.24600 32.69100
O  10.59700 0.18500 34.02800
C  10.08500 -0.53600 35.26000
H  6.66100 5.39700 30.64900
H  7.66200 4.53000 24.08900
H  10.75400 -0.80200 25.44400
H  8.67600 2.01600 33.16500
H  8.14000 4.87600 32.47600
H  5.65000 3.76400 31.93000
H  6.15800 4.46200 33.45400
H  6.45500 2.69400 33.24000
H  10.86800 4.08200 32.69000
H  10.95900 2.68000 33.60400
H  8.97800 4.47900 34.76800
H  10.33400 5.36200 34.35900
H  4.40000 6.79800 28.01900
H  5.74600 7.89100 28.68200
H  5.04500 6.60000 29.57700
H  4.14900 7.53000 25.98000
H  4.95100 8.29800 24.56900
H  5.78300 8.34100 26.17900
H  9.64700 2.99400 22.93100
H  8.68300 0.28700 23.75700
H  6.85200 2.69200 22.90100
H  7.60600 1.28100 22.18300
H  8.04600 2.85000 21.49300
H  11.61500 0.37400 23.66900
H  10.99400 1.06600 22.16300
H  10.74600 -0.88200 21.27500
H  9.66100 -1.48700 22.60600
H  11.37300 -1.72000 22.62200
H  11.69800 -2.52300 26.83300
H  12.48600 -2.56600 28.42500
H  13.33500 -1.70600 27.13300
H  11.58200 1.00900 32.40700
H  10.74900 -1.35100 35.54800
H  9.12100 -1.03900 35.17800
H  9.95300 0.12900 36.11400
Mg 46.66500 24.36900 28.33200
C  47.56300 26.75700 30.90300
C  46.08800 22.19100 30.87200
C  46.48900 22.10400 26.13800
C  47.82400 26.72700 26.02000
N  46.58900 24.57700 30.67600
C  46.99300 25.60300 31.47800
C  46.78100 25.23800 32.94500
C  46.38900 23.78400 32.94100
C  46.35000 23.48500 31.39800
C  47.32000 22.89200 33.70900
C  45.86700 26.17900 33.76600
C  46.52500 26.77900 35.09600
H  45.54300 27.19300 36.12800
N  46.17300 22.44100 28.40300
C  45.99300 21.73800 29.53900
C  45.48700 20.41100 29.17200
C  45.69300 20.30800 27.76600
C  46.09100 21.63100 27.35700
C  44.98600 19.34100 30.14000
C  45.37100 19.19600 26.81900
O  45.20400 19.32500 25.59900
C  45.03500 17.81500 27.47200
N  47.14300 24.38100 26.31500
C  46.75800 23.31200 25.58900
C  47.01200 23.54800 24.11300
C  47.14000 25.09700 24.07800
C  47.42400 25.48300 25.60600
C  48.30900 22.94000 23.50100
C  45.97000 25.92800 23.52600
C  44.76700 26.23100 24.40300
N  47.50000 26.35400 28.36500
C  47.91300 27.15400 27.37000
C  48.56300 28.32400 27.82700
C  48.39900 28.25500 29.21500
C  47.78600 26.99000 29.50400
C  49.17900 29.42500 26.97100
C  48.61300 28.91700 30.43900
O  49.06200 30.02700 30.62600
C  48.16300 27.97400 31.62100
C  49.29900 27.46400 32.46300
O  49.83700 26.37700 32.48000
O  49.72000 28.45000 33.33500
C  50.52600 28.08300 34.48200
H  45.87100 21.47700 31.66900
H  46.52100 21.31700 25.38100
H  48.01900 27.54000 25.31700
H  47.73600 25.26700 33.46900
H  45.34200 23.81300 33.24300
H  46.70600 22.06800 34.07200
H  47.75100 23.39800 34.57200
H  48.11900 22.48000 33.09200
H  45.00100 25.57500 34.03600
H  45.47700 27.01800 33.19000
H  47.14300 27.62600 34.79800
H  47.23400 26.03600 35.46100
H  44.00900 19.00300 29.79500
H  44.64900 19.81500 31.06200
H  45.72400 18.55300 30.28800
H  45.91000 17.31000 27.88100
H  44.82900 17.10500 26.67100
H  44.14300 17.69700 28.08800
H  46.11000 23.33700 23.53900
H  47.92200 25.40100 23.38200
H  49.10100 23.61900 23.18700
H  48.04400 22.28100 22.67400
H  48.72200 22.26400 24.25000
H  45.65600 25.36900 22.64400
H  46.43400 26.86500 23.21800
H  44.83900 25.72200 25.36500
H  43.82000 25.81700 24.05700
H  44.79000 27.31800 24.47600
H  49.59600 28.96800 26.07300
H  49.95700 29.96100 27.51300
H  48.45400 30.14500 26.59100
H  47.42200 28.44500 32.26600
H  50.47400 28.88900 35.21500
H  51.51500 27.76400 34.15500
H  50.16700 27.18600 34.98600

