158

Mg 43.98500 4.16100 47.69500
C  41.93300 6.86200 46.99900
C  41.21500 2.07400 47.31800
C  46.09700 1.50500 47.55500
C  46.87200 6.20400 47.32600
N  41.77200 4.40500 47.08400
C  41.12500 5.64700 47.02600
C  39.58300 5.49400 46.81700
C  39.44800 3.96900 47.18300
C  40.88800 3.44700 47.23000
C  38.80400 3.77500 48.57500
C  39.06900 5.70100 45.31600
C  38.34300 6.94600 45.08200
H  38.79700 7.80600 43.95300
N  43.69100 2.08700 47.48700
C  42.47200 1.42800 47.36700
C  42.67700 -0.00800 47.28600
C  44.11300 -0.17000 47.27200
C  44.74400 1.19000 47.42300
C  41.56700 -1.04600 47.27300
C  44.78300 -1.57300 47.03400
O  44.20400 -2.64700 46.92600
C  46.23300 -1.72200 46.94700
N  46.23600 3.93500 47.68300
C  46.80700 2.68900 47.72000
C  48.33700 2.81100 47.61600
C  48.59100 4.37700 47.53000
C  47.17000 4.88800 47.53800
C  49.04000 2.12800 48.90400
C  49.52300 4.86400 46.38700
C  51.11200 4.89700 46.47200
N  44.36200 6.12500 47.22300
C  45.56600 6.82800 47.16500
C  45.31500 8.25000 47.06800
C  43.94300 8.28200 47.02600
C  43.35100 6.97500 47.08400
C  46.32800 9.39300 47.04700
C  42.84400 9.18700 46.84000
O  42.90600 10.41500 46.81300
C  41.51000 8.27800 46.83800
C  40.58400 8.74400 47.97900
O  40.68300 8.33300 49.13400
O  39.68400 9.66100 47.54600
C  38.52000 10.03500 48.39200
H  40.27500 1.52800 47.21200
H  46.72200 0.65500 47.27300
H  47.80600 6.77000 47.31000
H  39.13500 6.21100 47.50500
H  38.95100 3.40300 46.39600
H  38.51500 4.63900 49.17500
H  39.57800 3.34000 49.20700
H  37.90800 3.19500 48.35200
H  38.48800 4.83500 44.99600
H  40.00500 5.66000 44.75900
H  38.30500 7.58300 45.96600
H  37.32400 6.62700 44.86400
H  41.72400 -1.74000 48.09900
H  41.52600 -1.59900 46.33400
H  40.57200 -0.60000 47.29900
H  46.58900 -1.01700 46.19500
H  46.47800 -2.76700 46.75700
H  46.73800 -1.53100 47.89400
H  48.54700 2.18600 46.74800
H  49.10200 4.78600 48.40100
H  49.93500 2.71700 49.10400
H  49.44500 1.18400 48.53800
H  48.35600 2.03700 49.74800
H  49.29100 5.90800 46.17700
H  49.31500 4.43500 45.40600
H  51.41300 4.53700 47.45600
H  51.48800 5.89100 46.23000
H  51.47100 4.18000 45.73300
H  46.04900 10.15400 46.31900
H  47.30800 9.03700 46.72900
H  46.26900 9.84300 48.03800
H  40.98000 8.42400 45.89700
H  38.94100 10.25500 49.37300
H  37.86100 9.19700 48.62200
H  37.97000 10.89600 48.01200
Mg -1.42000 34.43100 27.12600
C  -3.12600 32.72000 29.67600
C  -0.18600 36.53400 29.44300
C  -0.25300 36.33600 24.51600
C  -3.04900 32.41900 24.70100
N  -1.69200 34.68100 29.36800
C  -2.36000 33.81000 30.16200
C  -2.03000 34.14600 31.61900
C  -1.25100 35.44000 31.55700
C  -0.98800 35.58300 30.05000
C  -1.92400 36.66400 32.18000
C  -1.27200 32.98900 32.29200
C  -1.84200 32.47400 33.63900
H  -0.90500 32.54800 34.88600
N  -0.38200 36.12600 27.02700
C  0.07800 36.86000 28.05800
C  0.79600 37.99700 27.60700
C  0.70600 37.98900 26.20000
C  -0.01400 36.78100 25.84300
C  1.51100 38.90800 28.57900
C  1.23200 39.06100 25.19500
O  1.02500 39.01300 23.94300
C  2.02500 40.23200 25.55800
N  -1.67500 34.43400 24.86200
C  -1.02000 35.27400 24.04200
C  -1.15900 34.85200 22.56200
C  -2.14200 33.71200 22.60700
C  -2.28300 33.45000 24.11000
C  -1.36900 36.03100 21.53800
C  -1.70400 32.42100 21.74800
C  -0.67000 31.46800 22.41300
N  -2.70400 32.93100 27.06200
C  -3.27300 32.17300 26.05800
C  -4.17200 31.15600 26.62400
C  -4.09000 31.35300 27.94900
C  -3.22000 32.45100 28.23100
C  -4.95700 30.09800 25.85700
C  -4.69900 30.95600 29.26700
O  -5.43800 30.00800 29.46000
C  -4.05000 31.79900 30.38700
C  -5.11200 32.45500 31.21500
O  -5.68600 33.50000 30.92000
O  -5.44300 31.64200 32.29600
C  -6.42300 32.13200 33.30100
H  0.24200 37.09500 30.27600
H  0.29000 36.72000 23.65000
H  -3.60000 31.68200 24.11200
H  -2.98800 34.30000 32.11500
H  -0.27100 35.33700 32.02200
H  -2.83200 36.46700 32.75000
H  -2.17700 37.44000 31.45800
H  -1.16600 37.12400 32.81500
H  -0.21000 33.23000 32.32600
H  -1.31100 32.11900 31.63500
H  -2.15400 31.43100 33.69700
H  -2.79800 32.97900 33.77600
H  1.50400 38.67400 29.64400
H  1.00100 39.85400 28.40000
H  2.59100 38.88000 28.43400
H  1.27200 41.01400 25.65400
H  2.69200 40.42500 24.71800
H  2.64300 40.05800 26.43900
H  -0.13500 34.54700 22.34700
H  -3.07900 34.01800 22.14200
H  -0.56500 36.01300 20.80200
H  -1.31000 36.99800 22.03700
H  -2.37300 35.98200 21.11700
H  -1.38000 32.76100 20.76400
H  -2.62500 31.86700 21.56900
H  0.13700 32.00100 22.91700
H  -0.22200 30.84900 21.63600
H  -1.25300 30.91800 23.15200
H  -5.42000 29.59900 26.70800
H  -4.40600 29.43900 25.18600
H  -5.63900 30.65000 25.21100
H  -3.46900 31.15700 31.05000
H  -6.67700 31.34900 34.01600
H  -7.29000 32.64600 32.88500
H  -5.81600 32.74700 33.96500

