158

Mg 16.65400 51.17600 25.36200
C  18.47200 49.97800 28.18600
C  14.26000 52.12200 27.46100
C  15.04200 52.35500 22.62400
C  19.16500 49.75700 23.26000
N  16.27800 50.81900 27.61900
C  17.19200 50.53300 28.56800
C  16.68200 50.88200 29.94500
C  15.21900 51.32000 29.71300
C  15.23700 51.44800 28.15800
C  14.14600 50.43700 30.37700
C  17.52100 51.92900 30.78900
C  18.13200 51.55100 32.11500
H  17.53300 52.13200 33.35200
N  14.93900 52.17000 25.12200
C  14.05000 52.51200 26.13200
C  13.00600 53.35600 25.60600
C  13.14400 53.40000 24.18100
C  14.42600 52.64400 23.94200
C  11.91300 53.86800 26.52100
C  12.20400 54.00200 23.21000
O  12.51600 53.95000 22.03100
C  10.81900 54.47900 23.49900
N  17.18100 51.23500 23.23800
C  16.25200 51.69500 22.32300
C  16.78100 51.54400 20.89800
C  18.09800 50.64700 21.08900
C  18.21100 50.53100 22.57400
C  15.72300 50.95200 19.91000
C  19.30000 51.42300 20.43300
C  20.41200 50.48400 19.97700
N  18.42500 50.01500 25.58200
C  19.31100 49.55800 24.69200
C  20.45100 48.89200 25.38400
C  20.16600 49.10200 26.76600
C  18.90100 49.76300 26.84300
C  21.61400 48.17000 24.64500
C  20.70800 48.93800 28.17200
O  21.72900 48.38300 28.64700
C  19.53200 49.46500 29.08400
C  19.02300 48.49400 30.06700
O  18.01300 47.77300 30.03000
O  19.77700 48.67100 31.19600
C  19.42800 47.76100 32.27400
H  13.52200 52.46700 28.18700
H  14.48900 52.77900 21.78300
H  19.99800 49.32100 22.70400
H  16.69200 49.90900 30.43700
H  15.16000 52.34400 30.08200
H  13.14700 50.60000 29.97300
H  14.16300 50.66500 31.44300
H  14.37700 49.39200 30.17200
H  16.94500 52.84300 30.93900
H  18.19200 52.29700 30.01200
H  19.14500 51.95300 32.13500
H  18.08200 50.46200 32.12300
H  11.82800 54.92400 26.26600
H  12.23000 53.82800 27.56400
H  10.97800 53.32900 26.37200
H  10.43300 53.87700 24.32100
H  10.17300 54.42100 22.62300
H  10.83400 55.47300 23.94700
H  17.07600 52.46700 20.39900
H  17.89300 49.73400 20.53000
H  15.95900 49.97000 19.50100
H  15.46100 51.58300 19.06100
H  14.77900 50.81800 20.43900
H  19.79700 51.96400 21.23700
H  19.04400 52.16400 19.67600
H  20.25100 49.43100 20.20900
H  21.38900 50.86600 20.27200
H  20.48800 50.43000 18.89100
H  21.93300 47.35700 25.29800
H  22.47700 48.83500 24.61300
H  21.42700 47.78000 23.64400
H  19.94400 50.33000 29.60400
H  18.50600 48.14900 32.70700
H  20.15800 47.70600 33.08300
H  19.22900 46.75500 31.90400
Mg -5.50000 25.68100 26.03200
C  -4.26500 27.22900 29.05600
C  -7.35300 23.53600 28.10700
C  -6.38800 23.91100 23.40100
C  -3.23400 27.60700 24.21700
N  -5.82700 25.51100 28.31400
C  -5.23200 26.23000 29.27700
C  -5.80400 25.88600 30.67700
C  -6.46900 24.56400 30.36800
C  -6.52700 24.47800 28.80400
C  -5.54000 23.29200 30.83200
C  -6.67800 26.99100 31.35100
C  -6.79200 26.96700 32.86900
H  -6.07500 25.79900 33.63400
N  -6.74300 23.94300 25.74000
C  -7.42400 23.19800 26.75000
C  -8.33600 22.28100 26.05300
C  -8.06000 22.40900 24.65400
C  -7.02200 23.44500 24.56200
C  -9.29900 21.37800 26.78200
C  -8.70100 21.70500 23.48500
O  -8.37200 21.96300 22.31400
C  -9.63500 20.53100 23.74200
N  -4.81100 25.71500 24.10100
C  -5.38300 24.84700 23.14900
C  -4.55500 24.98700 21.90000
C  -3.65500 26.28600 21.98500
C  -3.91100 26.58800 23.53600
C  -3.76500 23.70900 21.59100
C  -4.16400 27.54400 21.10700
C  -3.28700 28.21900 20.04100
N  -4.02600 27.21300 26.53100
C  -3.23900 27.94500 25.67700
C  -2.54000 28.96400 26.45800
C  -2.88300 28.70700 27.78700
C  -3.77400 27.62400 27.82900
C  -1.58100 29.95500 25.95800
C  -2.64700 29.07500 29.14200
O  -1.86800 29.92600 29.57700
C  -3.62200 28.23000 30.04300
C  -2.79400 27.53300 31.06000
O  -1.99400 26.62300 30.79400
O  -3.08000 28.13500 32.31600
C  -2.23600 27.54900 33.36700
H  -7.94300 22.83900 28.70600
H  -6.66100 23.41900 22.46500
H  -2.54100 28.18600 23.60400
H  -4.89200 25.78800 31.26700
H  -7.49200 24.61500 30.74000
H  -4.46900 23.42800 30.98300
H  -5.68400 22.50600 30.09100
H  -5.91800 23.02100 31.81800
H  -7.71800 26.83300 31.06400
H  -6.35900 27.97000 30.99200
H  -7.83500 27.05100 33.17400
H  -6.32400 27.91700 33.12600
H  -10.28400 21.84400 26.80200
H  -8.86500 21.20200 27.76600
H  -9.34100 20.33600 26.46500
H  -9.11800 19.72800 24.26700
H  -10.14200 20.21400 22.83100
H  -10.46100 20.85000 24.37900
H  -5.26900 25.17400 21.09900
H  -2.59100 26.11700 21.82100
H  -4.00400 23.49500 20.54900
H  -4.13600 22.90400 22.22500
H  -2.68900 23.88400 21.57700
H  -4.40000 28.37900 21.76700
H  -5.10700 27.26100 20.63800
H  -3.89200 28.37400 19.14700
H  -2.48700 27.54000 19.74700
H  -2.82600 29.17700 20.28000
H  -0.97600 29.50100 25.17300
H  -1.03200 30.39900 26.78900
H  -2.26800 30.70300 25.56300
H  -4.44500 28.85700 30.38400
H  -2.79100 27.60800 34.30300
H  -1.33300 28.13900 33.52800
H  -1.97600 26.50800 33.17300

