158

Mg 35.80300 49.35300 24.09900
C  35.93800 47.62000 27.28200
C  34.49500 51.98100 25.71500
C  35.45900 50.63400 21.15200
C  37.01500 46.26200 22.66600
N  35.29700 49.73000 26.26800
C  35.48200 48.98300 27.37800
C  35.14700 49.74200 28.64200
C  34.54700 51.06700 28.09900
C  34.80400 50.94700 26.54100
C  32.97400 51.23600 28.53800
C  36.31100 49.94500 29.68000
C  36.19500 49.13400 31.05600
H  34.75600 49.10400 31.63900
N  35.25400 51.20900 23.52200
C  34.69000 52.15300 24.32600
C  34.45900 53.35400 23.56700
C  34.74500 52.96100 22.23000
C  35.16800 51.53200 22.24800
C  34.10400 54.66200 24.13800
C  34.80300 53.79800 21.01600
O  35.08600 53.37500 19.87200
C  34.59100 55.28600 21.15300
N  36.07300 48.50900 22.25200
C  35.88800 49.29900 21.16400
C  36.28100 48.56100 19.90100
C  37.28100 47.55900 20.53800
C  36.69500 47.34700 21.85300
C  35.08100 48.00600 19.11100
C  38.64200 48.26600 20.84000
C  39.81500 47.38800 20.41100
N  36.32600 47.29800 24.78000
C  36.86000 46.27100 24.04400
C  37.17900 45.23000 24.94900
C  36.84500 45.70500 26.23000
C  36.25200 46.95600 26.05400
C  37.72500 43.86300 24.54800
C  36.95400 45.43900 27.64300
O  37.37700 44.40200 28.12300
C  36.27800 46.64500 28.43500
C  35.12800 46.27200 29.32400
O  33.96300 46.48000 29.08200
O  35.58500 45.66200 30.39100
C  34.60900 44.97900 31.27100
H  34.07400 52.84100 26.24100
H  35.28600 50.97400 20.12900
H  37.44700 45.35300 22.24300
H  34.33700 49.13800 29.05100
H  35.12600 51.92300 28.44300
H  32.85900 52.04300 29.26100
H  32.65400 50.30900 29.01300
H  32.20500 51.52500 27.82100
H  36.44600 50.99100 29.95500
H  37.22000 49.54100 29.23400
H  36.80300 49.72700 31.73900
H  36.70500 48.19300 30.85000
H  34.99700 55.07200 24.61000
H  33.39700 54.48400 24.94900
H  33.60700 55.24900 23.36600
H  34.79900 55.74000 20.18400
H  35.25800 55.68600 21.91700
H  33.54300 55.45800 21.39600
H  36.77800 49.13600 19.12000
H  37.37500 46.59200 20.04400
H  34.10800 48.27300 19.52400
H  35.12400 46.91700 19.11700
H  35.04000 48.30100 18.06300
H  38.89600 48.30000 21.89900
H  38.82600 49.24500 20.39700
H  39.64900 46.78000 19.52100
H  39.96800 46.59800 21.14600
H  40.70700 47.99400 20.25300
H  38.52400 44.06300 23.83300
H  36.92100 43.29500 24.08100
H  38.03800 43.14000 25.30000
H  37.11300 47.05200 29.00600
H  34.23200 45.46800 32.16900
H  34.99100 44.04000 31.67100
H  33.70200 44.71100 30.72900
Mg 26.99300 50.10500 25.47400
C  25.12200 51.38600 28.07300
C  29.45100 49.16900 27.71400
C  28.94600 49.29200 22.87400
C  24.71300 51.64400 23.22600
N  27.28000 50.36900 27.70000
C  26.31100 50.84400 28.54900
C  26.78900 50.54600 30.06900
C  28.21600 49.96300 29.82400
C  28.31100 49.75700 28.32200
C  29.37800 50.86100 30.38600
C  25.82900 49.53500 30.82600
C  25.23500 49.87500 32.17400
H  25.96000 50.74600 33.28100
N  28.88700 49.29200 25.28000
C  29.73600 48.91900 26.33100
C  30.93800 48.42100 25.79100
C  30.87800 48.62600 24.37300
C  29.47900 49.16200 24.12600
C  32.10800 47.87800 26.72900
C  31.95300 48.46500 23.31900
O  31.75600 48.68400 22.11600
C  33.26300 47.88700 23.76000
N  26.79900 50.41000 23.42900
C  27.73200 49.92500 22.60800
C  27.21700 50.01300 21.12600
C  25.87900 50.68700 21.15100
C  25.76200 50.94500 22.65600
C  28.27800 50.68000 20.14200
C  24.59000 49.82100 20.71200
C  23.95100 50.29800 19.39800
N  25.21700 51.28600 25.57400
C  24.37000 51.79500 24.61000
C  23.32600 52.43600 25.22500
C  23.54900 52.26600 26.58200
C  24.74200 51.55500 26.76400
C  22.04700 52.89200 24.48400
C  22.98500 52.57200 27.93200
O  22.00100 53.19800 28.28700
C  23.93200 51.93700 28.87700
C  24.17400 52.96600 29.91100
O  25.06600 53.82600 29.94800
O  23.21900 52.82800 30.91100
C  23.29500 53.75000 32.01100
H  30.10900 48.77200 28.49000
H  29.39400 48.92500 21.94800
H  24.08100 52.19000 22.52300
H  26.77500 51.47500 30.63900
H  28.35100 48.96600 30.24500
H  29.82400 50.25700 31.17600
H  29.01300 51.81300 30.76900
H  30.19100 51.14800 29.71900
H  26.28000 48.56000 30.64400
H  25.00700 49.66600 30.12200
H  25.03800 48.91700 32.65500
H  24.35700 50.51300 32.07100
H  32.86200 48.66200 26.65500
H  32.47600 46.94200 26.30800
H  31.81700 47.89100 27.77900
H  33.68200 48.71500 24.33100
H  33.85900 47.66800 22.87400
H  33.10900 46.94900 24.29400
H  27.15700 48.95800 20.86200
H  25.92000 51.71300 20.78500
H  27.88100 51.57900 19.67000
H  28.47000 50.01100 19.30300
H  29.24600 50.84700 20.61500
H  23.89700 49.65200 21.53600
H  24.98300 48.83900 20.44800
H  24.45400 51.21300 19.08600
H  22.86700 50.30000 19.51000
H  24.21800 49.65100 18.56200
H  21.36900 53.04900 25.32400
H  21.53400 52.24300 23.77500
H  22.43000 53.79600 24.01000
H  23.34300 51.17400 29.38600
H  24.15400 53.36000 32.55700
H  22.44300 53.66000 32.68500
H  23.49900 54.75600 31.64400

