158

Mg 26.48300 50.93100 26.31000
C  24.71700 52.06500 28.92000
C  28.73800 49.70500 28.39300
C  28.00600 49.81900 23.66400
C  24.21600 52.73100 24.08900
N  26.86400 51.18800 28.47000
C  25.82200 51.40800 29.37000
C  26.16200 50.87800 30.82300
C  27.59700 50.32500 30.68300
C  27.76600 50.41900 29.07700
C  28.69100 51.06500 31.52300
C  25.08200 49.99200 31.46100
C  24.48000 50.26600 32.83000
H  25.51300 50.91100 33.71700
N  28.14300 49.86200 26.04200
C  28.99300 49.48000 26.99100
C  30.07500 48.79600 26.38600
C  29.79000 48.67800 25.03500
C  28.59600 49.43300 24.84700
C  31.23300 48.19300 27.31400
C  30.49100 47.75100 24.06500
O  30.06700 47.62700 22.93500
C  31.69100 46.88800 24.50600
N  26.32800 51.49000 24.13000
C  27.01100 50.71400 23.21600
C  26.54200 50.86100 21.75900
C  25.28500 51.74300 21.98800
C  25.24600 52.04100 23.48700
C  27.61600 51.38200 20.77000
C  23.95200 51.05000 21.63400
C  22.74900 51.89300 21.15100
N  24.92100 52.24200 26.37900
C  24.07900 52.88900 25.46100
C  23.01100 53.60600 26.16200
C  23.25100 53.28600 27.48000
C  24.41000 52.48900 27.59200
C  21.90400 54.51400 25.61700
C  22.70300 53.41500 28.79400
O  21.78100 53.95200 29.35300
C  23.72600 52.67300 29.80500
C  24.23900 53.86000 30.55700
O  25.17800 54.54700 30.16000
O  23.49200 54.01200 31.71300
C  24.17900 54.81800 32.69200
H  29.37500 49.12000 29.05900
H  28.49500 49.31500 22.82700
H  23.53500 53.15700 23.34900
H  26.33500 51.77900 31.41100
H  27.56100 49.29800 31.04700
H  29.33500 50.43800 32.14000
H  28.28600 51.79100 32.22800
H  29.29200 51.70800 30.88000
H  25.43100 48.96400 31.35800
H  24.23100 50.11100 30.79000
H  24.17000 49.32400 33.28300
H  23.60800 50.92000 32.81400
H  31.21300 48.36000 28.39100
H  32.21000 48.60200 27.05800
H  31.13100 47.11300 27.21100
H  31.26800 46.07100 25.09000
H  32.54700 47.37300 24.97600
H  32.04200 46.50600 23.54700
H  26.21000 49.88700 21.39800
H  25.43600 52.71200 21.51300
H  28.56300 51.28600 21.30000
H  27.37500 52.41100 20.50200
H  27.58200 50.82800 19.83100
H  23.65100 50.36300 22.42500
H  24.26100 50.40600 20.81100
H  22.46400 51.58500 20.14500
H  22.94900 52.96400 21.18900
H  21.90900 51.67000 21.80800
H  21.34100 54.06400 24.79900
H  22.45500 55.35900 25.20400
H  21.35600 54.69200 26.54200
H  23.22900 52.01200 30.51500
H  23.57000 55.03600 33.57000
H  24.48700 55.76400 32.24700
H  25.11300 54.36200 33.01900
Mg -10.53400 17.15700 41.19100
C  -7.12000 16.80800 41.07100
C  -10.04800 20.54500 40.47900
C  -13.80200 17.36800 40.36100
C  -10.80500 13.63400 41.09100
N  -8.84700 18.50400 40.92700
C  -7.48500 18.10200 40.84600
C  -6.56200 19.25300 40.54600
C  -7.52700 20.50100 40.77000
C  -8.87000 19.81200 40.68800
C  -7.48000 21.24000 42.16500
C  -6.03100 19.31000 39.08700
C  -4.50100 19.19900 38.99700
H  -3.85900 18.23000 37.95600
N  -11.78500 18.77500 40.65300
C  -11.43700 20.05300 40.53100
C  -12.59500 20.88200 40.37400
C  -13.67600 20.01600 40.04800
C  -13.13700 18.62900 40.37300
C  -12.51100 22.44900 40.27000
C  -15.15300 20.37600 39.64600
O  -15.53300 21.50700 39.66300
C  -16.14800 19.25800 39.39700
N  -12.01600 15.69100 40.56300
C  -13.32700 16.06400 40.53900
C  -14.20900 14.87500 40.70500
C  -13.20000 13.70200 40.35600
C  -11.92800 14.36200 40.75300
C  -14.83200 14.72900 42.08800
C  -13.21200 13.33400 38.90700
C  -14.19700 12.19000 38.43700
N  -9.22100 15.55800 41.23300
C  -9.48400 14.14800 41.24600
C  -8.23500 13.43500 41.45200
C  -7.26300 14.43100 41.28500
C  -7.93600 15.68100 41.27100
C  -8.19700 12.01100 41.57300
C  -5.84700 14.66600 41.24800
O  -4.92600 13.84300 41.27400
C  -5.66400 16.28800 41.23300
C  -4.97400 16.72100 42.52000
O  -3.94900 17.30200 42.50400
O  -5.71800 16.46300 43.62900
C  -5.25200 17.02500 44.89600
H  -9.86400 21.61500 40.36200
H  -14.89000 17.29400 40.30200
H  -10.97200 12.55600 41.04600
H  -5.77100 19.39200 41.28200
H  -7.42600 21.29400 40.02800
H  -6.73400 20.73000 42.77500
H  -8.45100 21.39700 42.63400
H  -7.07900 22.24200 42.01600
H  -6.28100 20.25500 38.60500
H  -6.47400 18.49000 38.52100
H  -4.03500 18.90700 39.93800
H  -4.20900 20.22500 38.77200
H  -13.51100 22.88400 40.29100
H  -12.06500 22.58800 39.28500
H  -11.87100 22.77700 41.08900
H  -15.68200 18.48500 38.78500
H  -17.01800 19.68100 38.89600
H  -16.39700 18.77000 40.33900
H  -15.01700 14.92500 39.97400
H  -13.31600 12.73300 40.84300
H  -14.56700 13.78500 42.56500
H  -15.92100 14.69300 42.09900
H  -14.37300 15.50800 42.69800
H  -12.20500 12.99200 38.66600
H  -13.46500 14.22300 38.33000
H  -14.92700 12.53600 37.70600
H  -14.86900 11.81000 39.20600
H  -13.60300 11.36400 38.04400
H  -8.38900 11.69900 40.54600
H  -9.04600 11.55100 42.07800
H  -7.26500 11.59900 41.95900
H  -5.06500 16.52100 40.35300
H  -4.21000 16.73000 45.02000
H  -5.86600 16.67400 45.72600
H  -5.29000 18.11200 44.95800

