158

Mg 29.35200 57.84200 38.84100
C  26.34300 56.09900 38.06900
C  31.21300 55.07700 37.89700
C  32.11200 59.68300 38.68200
C  27.36600 60.75500 39.01300
N  28.79800 55.83500 38.09200
C  27.54300 55.34900 37.84800
C  27.63400 53.94300 37.25900
C  29.07500 53.47800 37.75200
C  29.78900 54.89300 37.92000
C  29.00200 52.54300 39.04000
C  27.48700 53.99900 35.73900
C  26.24500 53.47600 34.99000
H  25.51800 54.37900 33.97100
N  31.45000 57.39800 38.36900
C  31.98900 56.24900 37.99200
C  33.43200 56.45900 37.82900
C  33.76600 57.77000 38.20800
C  32.45700 58.36200 38.41300
C  34.45500 55.36800 37.55900
C  35.11500 58.37200 38.55900
O  36.12000 57.62600 38.46300
C  35.34300 59.81900 39.08700
N  29.66600 59.89500 38.86200
C  30.91400 60.37700 38.92400
C  30.90100 61.96000 38.97500
C  29.43100 62.27600 39.22100
C  28.76400 60.89600 39.00500
C  31.86600 62.68300 40.05100
C  28.96300 63.48200 38.36500
C  28.21100 64.64600 39.06800
N  27.25300 58.36600 38.80700
C  26.65700 59.56600 38.92500
C  25.21200 59.35600 38.96800
C  25.00800 57.97200 38.57100
C  26.33200 57.44100 38.48600
C  24.14300 60.42000 39.05200
C  24.07500 56.93700 38.10100
O  22.87100 57.03000 37.82500
C  24.89500 55.67600 37.81500
C  24.42000 54.73100 38.85200
O  24.46900 54.93000 40.06500
O  23.95100 53.62100 38.28900
C  23.38400 52.65900 39.25300
H  31.81800 54.21300 37.61700
H  32.92100 60.41600 38.67400
H  26.84700 61.71600 39.00300
H  26.87200 53.26300 37.64000
H  29.58700 52.87100 37.00600
H  27.99100 52.24900 39.32200
H  29.30200 53.19000 39.86500
H  29.69500 51.70200 39.03300
H  28.24700 53.39400 35.24500
H  27.46900 55.00700 35.32300
H  25.54500 53.22400 35.78600
H  26.57200 52.55700 34.50200
H  34.10500 54.49000 37.01500
H  34.84600 55.08300 38.53500
H  35.24100 55.66500 36.86500
H  36.30700 59.73700 39.58900
H  34.64100 59.87300 39.92000
H  35.26800 60.69400 38.44200
H  31.22500 62.33800 38.00500
H  29.19800 62.57000 40.24400
H  32.23600 61.83700 40.63100
H  31.35800 63.42900 40.66200
H  32.77600 63.05500 39.58000
H  28.30600 63.14900 37.56200
H  29.76500 64.00900 37.85000
H  27.54500 65.22800 38.43100
H  28.88600 65.42600 39.41900
H  27.45900 64.24500 39.74800
H  23.19700 59.88200 38.99000
H  24.11800 61.15600 38.24800
H  24.20800 61.02300 39.95700
H  24.55700 55.26200 36.86500
H  23.60300 51.66800 38.85700
H  22.35800 52.84300 39.57200
H  24.05500 52.49900 40.09700
Mg -5.21300 24.72200 26.32100
C  -3.72300 26.59500 29.03300
C  -6.67300 22.68600 28.69800
C  -6.72900 23.41500 23.86400
C  -3.44700 26.95000 24.15800
N  -5.28900 24.77800 28.65000
C  -4.65200 25.55200 29.51100
C  -5.08100 25.30000 30.96100
C  -5.81700 23.94600 30.89600
C  -5.91100 23.74500 29.33800
C  -5.15400 22.69900 31.55000
C  -6.03600 26.51100 31.39700
C  -6.45400 26.60300 32.93200
H  -5.83300 25.62900 33.92500
N  -6.49200 23.22700 26.24200
C  -7.00700 22.47700 27.32900
C  -7.86500 21.45400 26.75400
C  -7.97500 21.61200 25.36100
C  -7.13300 22.85300 25.12200
C  -8.47300 20.45700 27.67900
C  -8.69000 20.75000 24.33300
O  -8.80600 21.08000 23.14900
C  -9.20300 19.38900 24.75100
N  -5.05800 25.19000 24.25700
C  -5.83900 24.45500 23.38700
C  -5.53200 24.73400 21.89600
C  -4.70600 26.10900 22.04800
C  -4.35500 26.09800 23.56200
C  -4.81700 23.54700 21.18900
C  -5.44900 27.37700 21.61900
C  -4.59400 28.42800 20.84000
N  -3.74300 26.32600 26.55200
C  -3.15200 27.05100 25.54400
C  -2.11000 27.87400 26.13900
C  -2.33000 27.73600 27.56300
C  -3.35400 26.85500 27.71400
C  -1.03200 28.76300 25.37400
C  -2.09500 28.32600 28.91400
O  -1.39300 29.23500 29.33000
C  -2.87300 27.45100 29.89500
C  -1.86900 26.53300 30.62200
O  -1.51200 25.40600 30.30200
O  -1.58800 27.11200 31.81600
C  -0.89800 26.28400 32.82300
H  -7.21900 22.08900 29.43100
H  -7.31800 22.87800 23.11800
H  -2.82800 27.53100 23.47000
H  -4.22600 25.37700 31.63200
H  -6.84100 24.02500 31.26100
H  -5.80900 22.32100 32.33400
H  -4.27600 23.02900 32.10500
H  -4.82400 21.93000 30.85100
H  -6.93300 26.31800 30.80900
H  -5.57000 27.45400 31.11000
H  -7.54000 26.64400 33.02000
H  -6.08000 27.60900 33.12400
H  -9.52600 20.71400 27.78900
H  -7.97800 20.47000 28.65000
H  -8.33700 19.42300 27.36300
H  -8.34600 18.85800 25.16500
H  -9.50900 18.86000 23.84800
H  -9.96300 19.56800 25.51100
H  -6.52900 24.79700 21.46000
H  -3.81900 25.99200 21.42500
H  -3.79300 23.60200 21.56000
H  -4.92700 23.48600 20.10700
H  -5.33800 22.68600 21.60800
H  -5.79900 27.89700 22.51100
H  -6.31400 27.06000 21.03700
H  -3.79700 27.97800 20.24900
H  -4.06600 29.12900 21.48700
H  -5.14900 29.03600 20.12600
H  -1.55100 29.57500 24.86300
H  -0.45400 28.09500 24.73600
H  -0.42900 29.27500 26.12400
H  -3.41600 28.06100 30.61600
H  0.03400 26.70600 33.20000
H  -0.63100 25.27300 32.51800
H  -1.57600 26.04200 33.64100

