158

Mg 2.42000 -3.86600 44.16200
C  5.73000 -2.71800 43.93800
C  1.52500 -1.61000 41.77300
C  -0.65900 -5.35500 44.21400
C  3.69200 -6.38600 46.41300
N  3.47900 -2.33600 43.04400
C  4.83300 -2.06400 43.07200
C  5.18100 -0.93100 42.08700
C  3.79400 -0.41700 41.68000
C  2.88600 -1.56400 42.14600
C  3.30400 0.99100 42.15000
C  6.02000 -1.49700 40.90700
C  7.39600 -0.80700 40.46100
H  7.49000 -0.25700 39.00100
N  0.69800 -3.52900 43.07000
C  0.51100 -2.44600 42.28700
C  -0.83700 -2.45600 41.91900
C  -1.46800 -3.64600 42.40800
C  -0.52700 -4.18400 43.37500
C  -1.51100 -1.37100 41.10800
C  -2.86000 -4.16800 42.05900
O  -3.61800 -3.58000 41.33800
C  -3.43100 -5.49100 42.60900
N  1.60600 -5.70200 45.12300
C  0.33800 -6.03300 44.97900
C  0.07000 -7.36700 45.71300
C  1.41900 -7.68100 46.38700
C  2.37700 -6.56800 45.92100
C  -1.27800 -7.40800 46.59200
C  1.99700 -9.09100 46.10100
C  2.95100 -9.25300 44.85800
N  4.34300 -4.50200 45.06700
C  4.70100 -5.50200 45.98900
C  6.16500 -5.43200 46.42600
C  6.62000 -4.30000 45.55600
C  5.48000 -3.81500 44.83600
C  6.90100 -6.26600 47.34700
C  7.71700 -3.50300 45.12800
O  8.93200 -3.68300 45.38500
C  7.18200 -2.34400 44.09500
C  7.33600 -1.04600 44.62900
O  6.94700 -0.62400 45.69500
O  7.98600 -0.25700 43.72200
C  8.08600 1.13500 44.08200
H  1.09200 -0.92900 41.03800
H  -1.65000 -5.80300 44.30500
H  3.91200 -7.14200 47.16900
H  5.72900 -0.17600 42.65100
H  3.64300 -0.37600 40.60200
H  4.11400 1.48000 42.69000
H  2.44200 0.92200 42.81400
H  3.11100 1.73700 41.37900
H  5.44500 -1.41400 39.98500
H  6.25300 -2.54600 41.09200
H  8.30400 -1.36600 40.68800
H  7.59400 0.11100 41.01500
H  -1.56000 -1.38100 40.01900
H  -0.91100 -0.46800 41.21300
H  -2.49000 -1.08800 41.49300
H  -2.71800 -6.30900 42.71000
H  -4.27200 -5.73200 41.95900
H  -3.84900 -5.21500 43.57700
H  -0.08000 -7.94900 44.80300
H  1.33200 -7.43400 47.44500
H  -1.63500 -6.37900 46.55500
H  -1.00200 -7.82200 47.56200
H  -2.01100 -8.11500 46.20300
H  1.26600 -9.89800 46.05500
H  2.57500 -9.28200 47.00500
H  4.02600 -9.35200 45.01200
H  2.80600 -8.49500 44.08800
H  2.76100 -10.18500 44.32600
H  7.80500 -5.78300 47.71900
H  7.03700 -7.26700 46.93800
H  6.31200 -6.49400 48.23500
H  7.79100 -2.47900 43.20100
H  8.82200 1.37800 44.84900
H  7.08800 1.51800 44.29500
H  8.51900 1.65400 43.22700
Mg 34.91000 2.12300 29.34200
C  32.48600 3.38900 31.70700
C  37.25300 2.20200 31.61500
C  37.01600 1.56800 26.77400
C  32.37800 2.68400 26.89500
N  34.82400 2.69200 31.39200
C  33.82600 3.11500 32.20300
C  34.26900 3.18000 33.70100
C  35.85900 2.95600 33.63700
C  35.99500 2.53000 32.14700
C  36.75000 4.10200 33.98700
C  33.45500 2.24300 34.66400
C  32.79800 2.71400 35.95900
H  33.45300 3.95400 36.65800
N  36.78800 1.75000 29.24900
C  37.63500 1.85100 30.32400
C  38.95200 1.45600 29.83000
C  38.85800 1.26500 28.48100
C  37.49600 1.53400 28.05200
C  40.21300 1.34700 30.72900
C  39.96800 0.86200 27.48700
O  39.72600 0.41500 26.39800
C  41.34300 0.61100 28.01900
N  34.74100 2.27300 27.11600
C  35.73000 1.81200 26.30300
C  35.25000 1.82600 24.84800
C  33.69600 1.87300 24.98100
C  33.56500 2.25800 26.41400
C  35.87600 3.04800 23.99700
C  33.09800 0.44400 24.78700
C  31.80300 0.36200 23.91500
N  32.81600 2.83200 29.27500
C  31.94900 3.04100 28.18100
C  30.65200 3.60500 28.68200
C  30.87500 3.75400 30.04800
C  32.15100 3.27100 30.35900
C  29.45100 4.07900 27.85800
C  30.35000 4.25400 31.33200
O  29.25600 4.79200 31.50400
C  31.29700 4.04200 32.45800
C  31.58800 5.38300 33.03100
O  32.29400 6.21800 32.47800
O  30.82900 5.46500 34.13200
C  31.03900 6.68800 34.87000
H  38.12400 2.26500 32.27100
H  37.73500 1.38700 25.97200
H  31.52800 2.69600 26.21000
H  33.95100 4.19300 33.94800
H  36.16800 2.03800 34.13600
H  36.10600 4.83700 34.47200
H  37.18400 4.61700 33.13000
H  37.54200 3.92500 34.71400
H  34.15600 1.43500 34.87100
H  32.57700 1.86200 34.14200
H  32.70900 1.88300 36.65900
H  31.76800 3.03400 35.79900
H  40.47700 0.29200 30.79400
H  39.96200 1.83600 31.67100
H  40.99800 1.96500 30.29200
H  41.82400 1.52700 28.36300
H  41.86900 0.17000 27.17200
H  41.40400 -0.05200 28.88300
H  35.42300 0.84900 24.39600
H  33.22700 2.61800 24.33800
H  36.34400 2.78800 23.04800
H  36.58300 3.62800 24.58900
H  35.09200 3.77800 23.79700
H  32.90500 0.14000 25.81600
H  33.87300 -0.19100 24.35700
H  31.52800 1.33600 23.51100
H  30.98100 0.03700 24.55300
H  31.95900 -0.24700 23.02400
H  28.62900 3.38300 28.02600
H  29.71800 4.12400 26.80200
H  29.17700 5.10800 28.09200
H  30.84000 3.36600 33.18000
H  30.50700 7.43000 34.27500
H  32.10300 6.86700 35.02600
H  30.47000 6.66800 35.79900

