158

Mg 2.00400 -0.52900 44.32600
C  5.36800 -0.29300 43.32200
C  1.30700 2.09000 42.23900
C  -1.26600 -1.11300 44.69300
C  2.79700 -3.46000 46.03700
N  3.22000 0.78300 43.09400
C  4.54000 0.65700 42.77200
C  5.01800 1.68100 41.72400
C  3.69900 2.61700 41.55600
C  2.65400 1.81000 42.37800
C  3.86600 4.12400 41.85400
C  5.57800 1.12000 40.36100
C  6.84200 1.88500 39.79000
H  6.70800 2.56400 38.37700
N  0.21700 0.41200 43.62200
C  0.19600 1.51900 42.78900
C  -1.18100 1.79500 42.52100
C  -1.96900 0.88400 43.25500
C  -1.01300 -0.01800 43.91500
C  -1.65200 2.89200 41.69300
C  -3.50700 0.80500 43.20700
O  -4.18100 1.59800 42.60600
C  -4.19600 -0.43800 43.72300
N  0.99100 -2.13700 45.11400
C  -0.35200 -2.06200 45.24100
C  -0.98500 -3.18700 46.18800
C  0.33200 -4.08200 46.43100
C  1.44900 -3.15700 45.88200
C  -1.68000 -2.76000 47.50500
C  0.25400 -5.56500 45.89200
C  0.52600 -6.71700 46.91100
N  3.77300 -1.65300 44.82400
C  3.94700 -2.75300 45.55300
C  5.41200 -3.07500 45.53100
C  6.00600 -2.21500 44.65500
C  4.96100 -1.30200 44.26500
C  6.06200 -4.14600 46.27000
C  7.27500 -1.78900 44.13700
O  8.36400 -2.29300 44.17400
C  6.83400 -0.48800 43.16000
C  7.58800 0.64500 43.74200
O  7.34100 1.23200 44.75200
O  8.70800 0.95600 43.01900
C  9.19400 2.34800 43.14600
H  1.21000 2.90800 41.52200
H  -2.25500 -1.35500 45.08800
H  2.91500 -4.28800 46.74000
H  5.72900 2.29000 42.28100
H  3.26800 2.63000 40.55500
H  4.82600 4.60000 41.65500
H  3.51200 4.32400 42.86600
H  3.17000 4.59300 41.15900
H  4.77100 1.14500 39.62800
H  5.76900 0.04700 40.40000
H  7.75500 1.29100 39.83200
H  7.02400 2.70300 40.48700
H  -0.94800 3.13100 40.89700
H  -1.72100 3.84000 42.22800
H  -2.55900 2.69500 41.12200
H  -5.17200 -0.57600 43.25700
H  -4.32800 -0.26100 44.79000
H  -3.69900 -1.40000 43.60300
H  -1.67800 -3.76300 45.57500
H  0.55400 -4.10600 47.49800
H  -1.99700 -1.74100 47.28300
H  -1.04900 -2.72900 48.39400
H  -2.45600 -3.48900 47.74000
H  0.91000 -5.61500 45.02300
H  -0.75400 -5.77200 45.53100
H  1.28500 -7.37900 46.49400
H  -0.31600 -7.32700 47.23600
H  0.82100 -6.17600 47.81100
H  6.25500 -5.03100 45.66400
H  5.71700 -4.48700 47.24600
H  7.00400 -3.68300 46.56500
H  7.19700 -0.71000 42.15600
H  8.43500 3.00900 43.56400
H  9.57700 2.65800 42.17400
H  10.00200 2.28200 43.87400
Mg 53.07100 23.28700 45.13400
C  50.42700 25.53200 44.10900
C  51.11200 20.68100 43.88800
C  55.91800 21.48700 44.88900
C  54.86500 26.10200 46.30700
N  51.01500 23.23300 44.03100
C  50.13600 24.23700 43.72000
C  48.90400 23.64100 43.01200
C  48.99200 22.14200 43.44400
C  50.43700 21.97000 43.76800
C  48.04100 21.85800 44.62800
C  48.93900 23.67400 41.41100
C  47.61000 23.62800 40.70000
H  47.48100 22.91700 39.30900
N  53.46300 21.34400 44.61300
C  52.53500 20.40400 44.11800
C  53.23400 19.13000 43.93500
C  54.60200 19.28700 44.29500
C  54.72500 20.77100 44.67200
C  52.62300 17.93100 43.28700
C  55.69700 18.25000 44.18000
O  55.46000 17.08100 43.96000
C  57.11200 18.50100 44.63300
N  55.14500 23.75900 45.50500
C  56.08800 22.79100 45.48700
C  57.40000 23.25300 46.12400
C  57.12100 24.71100 46.60700
C  55.68800 24.91900 45.98100
C  57.79800 22.31700 47.29000
C  58.27400 25.74900 46.10600
C  59.13100 26.42100 47.19700
N  52.72600 25.39000 45.31800
C  53.50100 26.35300 45.91200
C  52.76700 27.62100 45.85600
C  51.52700 27.32400 45.17900
C  51.56600 25.97800 44.87200
C  53.23500 29.01600 46.29500
C  50.30800 27.93400 44.75100
O  49.83700 29.05200 44.98600
C  49.47500 26.75600 44.11200
C  48.89000 27.07700 42.76000
O  49.54700 27.36600 41.72500
O  47.55800 27.13200 42.88600
C  46.86300 27.44400 41.64100
H  50.49100 19.85000 43.54700
H  56.84300 20.95200 44.66200
H  55.53700 26.87400 46.68700
H  48.07700 24.23300 43.40300
H  48.71000 21.44000 42.65800
H  47.41300 22.73600 44.77900
H  48.62200 21.72000 45.54000
H  47.41700 21.02000 44.31700
H  49.47500 22.80400 41.03100
H  49.48800 24.56400 41.10400
H  47.34900 24.65200 40.43300
H  46.83600 23.27500 41.38100
H  53.09800 17.61300 42.35900
H  51.63600 18.16100 42.88700
H  52.54900 17.18000 44.07400
H  57.51200 19.03800 43.77300
H  57.58800 17.54300 44.84200
H  57.17300 19.10900 45.53500
H  58.15200 23.09400 45.35100
H  57.08800 24.82500 47.69100
H  58.85600 22.07000 47.20000
H  57.24300 21.38300 47.19900
H  57.61300 22.79400 48.25200
H  57.75500 26.51300 45.52800
H  59.01100 25.24200 45.48300
H  58.95800 25.85400 48.11100
H  58.84100 27.46700 47.29800
H  60.17900 26.37300 46.90300
H  54.10800 28.97600 46.94600
H  52.37900 29.53200 46.73000
H  53.42700 29.69300 45.46300
H  48.66900 26.62200 44.83400
H  46.12300 28.23100 41.78500
H  46.25200 26.62200 41.27000
H  47.45200 27.75500 40.77800

