158

Mg 35.28900 2.39900 30.42100
C  33.17900 3.70300 32.77500
C  37.76800 2.09800 32.82800
C  37.61200 1.57800 27.96900
C  33.09000 3.16600 27.99300
N  35.34600 2.81800 32.57700
C  34.34000 3.23200 33.38700
C  34.74500 3.38300 34.93400
C  36.27700 3.06600 34.82600
C  36.53300 2.65400 33.27000
C  37.22400 4.28500 35.27600
C  33.91600 2.40300 35.78000
C  33.55300 2.91900 37.22700
H  34.42200 4.08200 37.80000
N  37.34300 1.84900 30.40800
C  38.12200 1.67800 31.55100
C  39.42200 1.08500 31.13100
C  39.31000 0.80600 29.72200
C  38.03300 1.40600 29.28400
C  40.49300 0.79400 32.21100
C  40.32400 0.08500 28.89900
O  40.17900 -0.14900 27.73600
C  41.63500 -0.36000 29.55300
N  35.35000 2.41400 28.27500
C  36.41500 2.04300 27.50500
C  36.11700 2.30900 26.06800
C  34.64000 2.73000 26.03200
C  34.31000 2.71500 27.51200
C  37.10200 3.26300 25.40600
C  33.71200 1.94100 25.09300
C  33.42200 0.51500 25.50100
N  33.42800 3.19800 30.34200
C  32.56600 3.47400 29.29300
C  31.22800 3.84300 29.77400
C  31.39900 3.96600 31.16400
C  32.74600 3.61800 31.38900
C  30.07500 4.09800 28.90200
C  30.80500 4.34800 32.39300
O  29.70800 4.78200 32.67000
C  31.94500 4.15600 33.44300
C  32.23100 5.45100 34.20000
O  32.68500 6.50900 33.74600
O  31.74200 5.37400 35.48600
C  31.76800 6.54000 36.33300
H  38.53200 2.12700 33.60800
H  38.33800 1.31400 27.19800
H  32.37100 3.25500 27.17600
H  34.65600 4.42800 35.23000
H  36.61800 2.17600 35.35500
H  37.93800 4.51000 34.48400
H  37.80600 3.99300 36.15000
H  36.66000 5.19700 35.47500
H  34.42500 1.44700 35.90000
H  32.96500 2.30200 35.25800
H  33.72800 2.02600 37.82600
H  32.54000 3.32200 37.23200
H  41.47300 1.21500 31.98500
H  40.54900 -0.29100 32.30400
H  40.25300 1.04700 33.24400
H  41.37600 -1.10700 30.30300
H  42.29100 0.44300 29.89100
H  42.09300 -1.00700 28.80500
H  36.28300 1.32700 25.62300
H  34.49900 3.75300 25.68200
H  37.62600 2.64400 24.67800
H  37.88000 3.76700 25.98000
H  36.55400 4.10300 24.98000
H  34.24000 1.99600 24.14100
H  32.76000 2.46500 25.00600
H  33.79200 -0.18200 24.74900
H  32.34900 0.35000 25.59700
H  33.86000 0.17600 26.43900
H  29.51000 4.99300 29.16500
H  29.37200 3.29600 29.12500
H  30.36300 4.10200 27.85100
H  31.55700 3.40100 34.12600
H  30.90400 7.08900 35.95800
H  32.65800 7.14800 36.17000
H  31.61000 6.39200 37.40200
Mg 35.50900 48.36200 25.36200
C  35.84000 46.32600 28.18200
C  34.44700 51.05000 27.47700
C  34.53900 49.97900 22.78500
C  36.02000 45.44400 23.51100
N  35.25700 48.64300 27.59100
C  35.37300 47.66700 28.48700
C  35.02100 48.14000 29.93200
C  34.52400 49.60000 29.68200
C  34.80200 49.78100 28.16300
C  33.01800 49.81600 29.92700
C  36.16400 48.12400 30.98200
C  35.78400 47.78300 32.39300
H  35.52100 48.84700 33.44700
N  34.61500 50.31100 25.17800
C  34.28900 51.29100 26.07000
C  33.92500 52.51600 25.41600
C  33.94100 52.26400 24.03900
C  34.39900 50.85200 23.89100
C  33.47400 53.76500 26.15200
C  33.69800 53.21500 22.77700
O  33.94500 52.85500 21.61600
C  33.21200 54.60200 22.97700
N  35.26600 47.73700 23.43500
C  34.98100 48.63100 22.54500
C  34.80600 47.95000 21.10600
C  35.49200 46.62700 21.33400
C  35.63500 46.59000 22.85900
C  33.28900 47.91200 20.76700
C  36.86100 46.48500 20.51800
C  38.16700 47.21300 21.01600
N  36.09000 46.33100 25.70600
C  36.28100 45.25300 24.86100
C  36.63000 44.11100 25.55700
C  36.42300 44.44900 26.85600
C  36.13300 45.85000 26.88700
C  36.82800 42.73500 24.89000
C  36.48800 43.95500 28.26600
O  36.77600 42.86700 28.73700
C  36.13300 45.16100 29.13000
C  34.96700 44.80000 29.95200
O  33.84000 44.70800 29.57400
O  35.36900 44.57900 31.26400
C  34.27400 44.27900 32.13400
H  34.20900 51.85600 28.17400
H  34.34600 50.49500 21.84200
H  36.10200 44.59800 22.82700
H  34.29300 47.38200 30.22100
H  35.11400 50.34400 30.21700
H  32.77100 50.70600 30.50500
H  32.65700 48.89200 30.37900
H  32.55800 49.95300 28.94900
H  36.55500 49.14200 30.97800
H  36.99500 47.48500 30.68400
H  36.56800 47.15200 32.81100
H  34.82400 47.26700 32.41500
H  34.08900 54.61900 25.86900
H  33.59900 53.55400 27.21400
H  32.41300 54.00600 26.21500
H  33.04900 54.96400 21.96200
H  33.98500 55.15200 23.51400
H  32.27600 54.47300 23.52100
H  35.33700 48.57800 20.39000
H  34.92000 45.75700 21.01100
H  32.96900 46.96100 20.34100
H  33.02500 48.67600 20.03600
H  32.71800 48.07000 21.68100
H  36.56400 46.77100 19.50900
H  37.12000 45.42600 20.54000
H  38.86000 46.40900 21.26500
H  37.89900 47.89100 21.82600
H  38.57200 47.82300 20.20800
H  35.97800 42.08100 25.08300
H  37.65400 42.19900 25.35700
H  36.92100 42.89700 23.81600
H  37.00200 45.29500 29.77500
H  33.78900 43.31600 31.97600
H  33.58700 45.12500 32.09400
H  34.83100 44.37400 33.06600

