158

Mg -1.75800 17.41600 26.73200
C  -2.49400 15.22700 29.31200
C  -2.66800 20.01200 28.89100
C  -1.73500 19.51500 24.13800
C  -1.51800 14.69500 24.55000
N  -2.39700 17.60400 28.90400
C  -2.55100 16.55200 29.81600
C  -2.82200 16.99600 31.27400
C  -3.04800 18.52800 30.99100
C  -2.72900 18.74900 29.48400
C  -4.48600 18.99200 31.35900
C  -1.59500 16.78200 32.24800
C  -1.71700 17.31500 33.65500
H  -1.75000 16.23300 34.75400
N  -1.95600 19.50300 26.58700
C  -2.34200 20.36300 27.59800
C  -2.35600 21.73000 27.08400
C  -2.01700 21.64300 25.68400
C  -1.88900 20.21400 25.39600
C  -2.80800 22.89100 27.86100
C  -1.84200 22.73000 24.71200
O  -1.77400 22.53800 23.49100
C  -1.75000 24.15900 25.19300
N  -1.52900 17.11900 24.52600
C  -1.54700 18.19000 23.74600
C  -1.41400 17.74400 22.30900
C  -1.23900 16.21700 22.43100
C  -1.43600 16.00400 23.88900
C  -2.65200 18.14400 21.38900
C  0.18900 15.83300 21.95800
C  1.37300 16.25900 22.98300
N  -2.01200 15.36800 26.86200
C  -1.83100 14.35200 25.86700
C  -2.12300 13.12000 26.53100
C  -2.49600 13.47600 27.79900
C  -2.35100 14.79600 27.97100
C  -2.28600 11.74300 25.81700
C  -2.97300 12.89100 28.99900
O  -3.24100 11.74300 29.18600
C  -2.95400 14.02300 30.04500
C  -1.85200 13.62000 30.97100
O  -0.63100 13.74000 30.81900
O  -2.33900 13.09100 32.15100
C  -1.55500 12.18800 33.06700
H  -2.92400 20.90900 29.45800
H  -1.59500 20.15700 23.26700
H  -1.43600 13.79300 23.94100
H  -3.66800 16.48100 31.72800
H  -2.44500 19.24200 31.55100
H  -4.31000 19.87900 31.96700
H  -5.17400 18.28200 31.81800
H  -4.94800 19.36500 30.44400
H  -0.73000 17.24900 31.77700
H  -1.37000 15.71600 32.22700
H  -2.64000 17.89400 33.67600
H  -0.86100 17.92600 33.94200
H  -3.45200 23.47400 27.20300
H  -1.92200 23.48000 28.09800
H  -3.35600 22.71300 28.78600
H  -0.94000 24.05500 25.91400
H  -2.71200 24.33900 25.67300
H  -1.60600 24.94200 24.44800
H  -0.51600 18.23000 21.92500
H  -2.03200 15.62100 21.98000
H  -3.08700 17.36300 20.76400
H  -2.40800 19.06100 20.85200
H  -3.55400 18.31300 21.97800
H  0.34900 16.12700 20.92100
H  0.17800 14.74400 21.90700
H  1.02700 16.84400 23.83500
H  2.15500 16.79300 22.44400
H  1.83400 15.39500 23.46200
H  -2.81800 11.90700 24.88000
H  -2.79000 11.02900 26.46800
H  -1.30400 11.30700 25.63600
H  -3.91000 14.35600 30.45000
H  -0.90300 11.55400 32.46700
H  -2.22400 11.44600 33.50300
H  -0.99100 12.64500 33.88000
Mg -4.74700 25.84100 25.77000
C  -3.97600 27.05100 29.02600
C  -6.93600 23.67500 27.28000
C  -5.07400 24.50700 22.74900
C  -2.59300 28.23100 24.46200
N  -5.38400 25.38600 27.94000
C  -4.96200 26.02500 29.07100
C  -5.63000 25.42200 30.30100
C  -6.39900 24.20700 29.72500
C  -6.21600 24.38600 28.24400
C  -6.06800 22.77700 30.28100
C  -6.51900 26.42200 31.02700
C  -6.68200 26.23800 32.55000
H  -5.83000 25.18000 33.28200
N  -5.84700 24.20900 25.08300
C  -6.77000 23.42900 25.84100
C  -7.29900 22.41500 24.97000
C  -6.79400 22.66800 23.65200
C  -5.82300 23.80900 23.73800
C  -8.21800 21.39300 25.53100
C  -7.05800 21.84700 22.39400
O  -6.46400 21.96300 21.30400
C  -8.07700 20.58800 22.41400
N  -3.98700 26.35300 23.87700
C  -4.24500 25.56300 22.76900
C  -3.55500 26.16200 21.51700
C  -2.87300 27.46800 22.05700
C  -3.20100 27.43700 23.57900
C  -2.63700 25.23000 20.64800
C  -3.32900 28.82700 21.37200
C  -2.42500 29.33100 20.27200
N  -3.56200 27.33700 26.52600
C  -2.72600 28.23900 25.85400
C  -2.02100 29.06400 26.81100
C  -2.42700 28.58800 28.07300
C  -3.41500 27.57600 27.83800
C  -1.07900 30.14300 26.49200
C  -2.36100 28.78200 29.47500
O  -1.82600 29.64800 30.08600
C  -3.24600 27.69000 30.17500
C  -2.43000 26.75500 31.03400
O  -1.72100 25.81700 30.66000
O  -2.39700 27.25400 32.33700
C  -1.32900 26.85600 33.22100
H  -7.69600 23.04700 27.74900
H  -5.16000 24.11800 21.73200
H  -1.85200 28.92500 24.06100
H  -4.78600 25.14400 30.93200
H  -7.46400 24.36100 29.89300
H  -5.36800 22.92400 31.10300
H  -5.63600 22.16900 29.48600
H  -6.95300 22.30500 30.70800
H  -7.55000 26.24200 30.72200
H  -6.39000 27.48000 30.79900
H  -7.70400 26.00800 32.85000
H  -6.45200 27.22900 32.94200
H  -8.86200 20.83800 24.84900
H  -8.84600 21.89600 26.26700
H  -7.72600 20.66500 26.17700
H  -7.66600 19.77400 23.01100
H  -8.26600 20.23300 21.40100
H  -9.00800 21.01900 22.78200
H  -4.31400 26.48800 20.80500
H  -1.78900 27.49500 21.94900
H  -2.54200 24.19800 20.98500
H  -1.60600 25.57300 20.73600
H  -3.01700 25.32200 19.63000
H  -3.43800 29.62900 22.10300
H  -4.27800 28.61700 20.87800
H  -1.78300 28.47200 20.08000
H  -1.77200 30.14800 20.57900
H  -3.07200 29.63100 19.44700
H  -1.58800 31.09300 26.32900
H  -0.59000 29.95800 25.53600
H  -0.27400 30.19500 27.22500
H  -4.03500 28.08400 30.81500
H  -0.40200 26.53500 32.74600
H  -1.76800 26.11800 33.89300
H  -1.04500 27.62200 33.94300

