158

Mg -2.36700 17.43500 26.54800
C  -3.18300 15.15400 29.17600
C  -2.45500 19.95700 28.79500
C  -2.20200 19.47800 23.92800
C  -2.92900 14.64100 24.22200
N  -2.77500 17.52700 28.76300
C  -3.03000 16.50500 29.62100
C  -3.00000 17.09200 31.03600
C  -2.82200 18.64800 30.83500
C  -2.75100 18.72100 29.40400
C  -3.98900 19.57300 31.40300
C  -1.96300 16.45400 31.99800
C  -1.57700 17.19100 33.23300
H  -1.11200 16.34100 34.43900
N  -2.23700 19.47400 26.38100
C  -2.28000 20.34300 27.42500
C  -2.06700 21.65500 26.85300
C  -1.99100 21.56700 25.39900
C  -2.17300 20.14000 25.20100
C  -1.97100 22.97200 27.75600
C  -1.77500 22.62200 24.42100
O  -1.71000 22.40800 23.22700
C  -1.72700 24.08200 24.79200
N  -2.73200 17.07100 24.36200
C  -2.48000 18.15700 23.55500
C  -2.53600 17.77300 22.05500
C  -2.67200 16.20800 22.13500
C  -2.76800 15.92400 23.69000
C  -3.70800 18.53200 21.32400
C  -1.50000 15.47500 21.54400
C  -0.16000 15.70000 22.30100
N  -2.97000 15.31900 26.61200
C  -3.04400 14.32000 25.59800
C  -3.33800 13.09400 26.25900
C  -3.41500 13.31500 27.66500
C  -3.20900 14.71300 27.82400
C  -3.46300 11.76700 25.55300
C  -3.56200 12.72800 28.97600
O  -3.78300 11.61300 29.36200
C  -3.54000 13.90700 30.01100
C  -2.34200 13.53400 30.85800
O  -1.17200 13.58100 30.50100
O  -2.72400 12.87400 32.01100
C  -1.70900 12.37800 32.90300
H  -2.35200 20.76000 29.52800
H  -2.00200 20.05600 23.02400
H  -2.98800 13.79900 23.53000
H  -4.00600 17.00900 31.44700
H  -1.96400 19.12000 31.31300
H  -4.51000 19.86000 30.48900
H  -3.55500 20.42300 31.92800
H  -4.69600 19.06900 32.06200
H  -1.00200 16.41600 31.48400
H  -2.35800 15.49200 32.32500
H  -2.33300 17.93500 33.48600
H  -0.71900 17.78900 32.92500
H  -1.04000 23.52900 27.64700
H  -1.93600 22.67100 28.80300
H  -2.80200 23.62800 27.49400
H  -2.60500 24.21700 25.42400
H  -1.79600 24.67300 23.87900
H  -0.80000 24.25500 25.33900
H  -1.55500 18.03300 21.65800
H  -3.53300 15.85900 21.56500
H  -4.51200 17.79600 21.32700
H  -3.51600 18.76000 20.27600
H  -4.03400 19.36400 21.94900
H  -1.36800 15.84000 20.52500
H  -1.75000 14.43400 21.34000
H  -0.06300 16.60900 22.89600
H  0.44800 15.93600 21.42800
H  0.26000 14.90200 22.91300
H  -4.12400 11.87300 24.69300
H  -3.79600 10.99200 26.24400
H  -2.62100 11.26700 25.07400
H  -4.44300 13.94200 30.62100
H  -2.11100 11.90000 33.79600
H  -1.20800 13.29900 33.20200
H  -0.97100 11.70600 32.46500
Mg 10.33100 47.45500 25.65800
C  8.30700 47.65000 28.58100
C  12.79600 48.96700 27.61500
C  12.23400 47.61200 23.00300
C  7.51500 46.68200 23.86000
N  10.46600 48.20900 27.88500
C  9.58900 48.05500 28.92900
C  10.13600 48.59200 30.25100
C  11.44000 49.32400 29.75000
C  11.60900 48.82000 28.33500
C  11.47100 50.88000 29.90300
C  10.40900 47.47800 31.32200
C  9.60700 47.57700 32.61300
H  9.81100 46.39100 33.58100
N  12.23000 48.14700 25.29800
C  13.10400 48.68700 26.24900
C  14.44600 48.79700 25.68400
C  14.30100 48.39800 24.32500
C  12.87100 48.13500 24.12000
C  15.62800 49.28900 26.53100
C  15.34500 48.17900 23.23300
O  15.00300 47.74600 22.11100
C  16.77900 48.59000 23.57300
N  9.89000 47.19000 23.61200
C  10.89600 47.20200 22.75100
C  10.42500 46.56700 21.40300
C  9.01100 46.13800 21.73900
C  8.74600 46.64900 23.13900
C  10.59300 47.62000 20.22700
C  8.79700 44.67500 21.49700
C  9.40800 43.70200 22.47500
N  8.31700 47.16200 26.07700
C  7.26200 46.92000 25.26700
C  6.02100 46.73300 25.99100
C  6.38600 46.86500 27.26400
C  7.75500 47.28000 27.26200
C  4.60300 46.52300 25.38800
C  5.95200 46.84100 28.63900
O  4.88300 46.54900 29.11000
C  7.12900 47.30400 29.54100
C  7.39400 46.09700 30.39000
O  8.25700 45.32900 30.22800
O  6.50200 46.22100 31.46000
C  6.48000 45.20100 32.41000
H  13.57300 49.43300 28.22500
H  12.74000 47.42600 22.05400
H  6.59600 46.29900 23.41000
H  9.50500 49.38100 30.66000
H  12.32000 48.97300 30.28900
H  10.64600 51.26700 30.50200
H  11.41200 51.34800 28.92000
H  12.38900 51.27100 30.34300
H  11.48500 47.54000 31.48500
H  10.22600 46.49100 30.89800
H  8.57600 47.83600 32.37300
H  9.95400 48.46200 33.14700
H  16.13100 50.08800 25.98600
H  16.37800 48.58900 26.89800
H  15.38400 49.77000 27.47800
H  17.01600 48.13100 24.53300
H  16.83100 49.66500 23.74700
H  17.35700 48.15900 22.75500
H  11.17000 45.78500 21.25300
H  8.44200 46.68300 20.98600
H  9.67000 47.76800 19.66700
H  11.17400 47.21800 19.39700
H  11.10200 48.52800 20.55000
H  9.07600 44.41300 20.47600
H  7.74200 44.42000 21.59900
H  9.88800 44.17300 23.33300
H  10.04500 43.09400 21.83300
H  8.57900 43.07400 22.80100
H  4.49600 47.08200 24.45800
H  3.95000 46.93400 26.15700
H  4.43900 45.44800 25.31000
H  6.95000 48.15500 30.19700
H  5.61200 44.54300 32.40800
H  6.66000 45.43400 33.45900
H  7.24000 44.44200 32.22100

