158

Mg 47.79800 24.52200 27.41200
C  48.94300 26.69200 29.82800
C  47.63000 22.06800 29.93400
C  47.02100 22.19600 25.08600
C  49.05700 26.57100 24.96700
N  48.07600 24.51500 29.69000
C  48.52000 25.52000 30.46800
C  48.38600 25.14600 31.98200
C  48.11600 23.61100 31.94000
C  47.92900 23.35200 30.47400
C  49.19500 22.70300 32.50900
C  47.27900 25.95400 32.72600
C  47.70700 26.56900 34.14200
H  46.68100 26.33800 35.37500
N  47.26200 22.47600 27.54500
C  47.25300 21.62600 28.63300
C  46.80900 20.32200 28.28600
C  46.36300 20.39600 26.91200
C  46.83600 21.73800 26.43400
C  46.96100 19.20700 29.30000
C  45.68200 19.39000 26.06000
O  45.46500 19.67500 24.86700
C  45.17600 18.00300 26.56100
N  48.27100 24.24600 25.22400
C  47.54700 23.31300 24.52100
C  47.76800 23.51500 23.00700
C  48.25300 25.01900 23.00000
C  48.58900 25.31000 24.45700
C  48.77000 22.47600 22.45000
C  47.20700 26.09700 22.48100
C  47.49800 26.49200 21.07500
N  48.58700 26.36800 27.30600
C  49.01100 27.07100 26.24600
C  49.62500 28.34500 26.72500
C  49.46800 28.26600 28.14500
C  48.92500 27.00300 28.42400
C  50.16100 29.40500 25.82700
C  49.62800 28.92200 29.38900
O  50.11000 29.99400 29.68300
C  49.22200 27.99700 30.53100
C  50.26300 27.92800 31.59900
O  51.34300 27.41500 31.57300
O  49.91400 28.82500 32.57700
C  50.70800 28.90400 33.82400
H  47.41600 21.49400 30.83800
H  46.80400 21.40100 24.36900
H  49.37400 27.28500 24.20400
H  49.36600 25.35900 32.40700
H  47.23600 23.35000 32.52900
H  49.83200 22.35300 31.69700
H  48.64100 21.91200 33.01400
H  49.77400 23.15900 33.31300
H  46.40400 25.33100 32.91400
H  46.95300 26.78500 32.10200
H  47.68600 27.65000 34.00700
H  48.72400 26.31800 34.44400
H  46.01200 18.99100 29.79200
H  47.71100 19.52000 30.02600
H  47.38300 18.33600 28.79800
H  45.93300 17.23000 26.69200
H  44.55500 17.65500 25.73600
H  44.58700 18.33100 27.41700
H  46.79800 23.39900 22.52300
H  49.19800 25.11800 22.46500
H  48.54100 22.39400 21.38700
H  48.70000 21.52200 22.97200
H  49.77500 22.78500 22.73600
H  47.26700 26.98600 23.10900
H  46.17300 25.75600 22.53800
H  48.31600 26.04100 20.51300
H  47.57800 27.57800 21.01400
H  46.64700 26.15400 20.48300
H  49.46400 29.67000 25.03200
H  51.05200 29.06400 25.30100
H  50.38800 30.22200 26.51200
H  48.32100 28.42000 30.97600
H  50.02100 29.01300 34.66300
H  51.08000 29.92800 33.81500
H  51.51500 28.20200 34.03500
Mg 9.57100 48.44500 25.99000
C  7.11100 48.99400 28.36200
C  11.95300 49.47100 28.22300
C  11.85900 47.96800 23.68200
C  7.05500 48.22800 23.54300
N  9.54500 49.08100 28.08100
C  8.41800 49.07600 28.90100
C  8.85500 49.31800 30.37100
C  10.28200 49.95100 30.11300
C  10.62900 49.46100 28.73100
C  10.45500 51.49200 30.25400
C  8.79300 47.97300 31.10400
C  9.45200 47.82400 32.42800
H  8.64300 47.36600 33.69200
N  11.66200 48.58700 25.96700
C  12.46900 49.09900 26.93900
C  13.87700 49.11300 26.50000
C  13.80300 48.58600 25.13800
C  12.40000 48.28900 24.91800
C  15.12700 49.41600 27.31700
C  14.92400 48.23400 24.16300
O  14.84100 47.64200 23.12800
C  16.34600 48.69900 24.53400
N  9.46900 48.25600 23.95500
C  10.56300 47.93800 23.20700
C  10.29300 47.57700 21.72800
C  8.73200 47.83500 21.64200
C  8.34400 48.07900 23.13200
C  11.02600 48.31700 20.68100
C  7.97900 46.75300 20.81700
C  7.19800 47.10600 19.64800
N  7.48400 48.38600 25.94200
C  6.60500 48.33600 24.89300
C  5.25500 48.34800 25.37600
C  5.43000 48.58500 26.74900
C  6.80400 48.66000 27.01500
C  4.04200 48.06100 24.50100
C  4.65400 48.78400 27.99800
O  3.47800 48.80000 28.17300
C  5.71500 49.25700 29.03500
C  5.57700 48.42000 30.24800
O  5.29300 47.26200 30.26900
O  5.36100 49.21800 31.27600
C  4.83900 48.70300 32.60600
H  12.70000 49.83900 28.93000
H  12.57800 47.75900 22.88700
H  6.32500 48.04400 22.75200
H  8.19400 50.03100 30.86400
H  10.87200 49.53700 30.93000
H  9.62200 52.04000 30.69300
H  10.48200 51.84400 29.22300
H  11.32800 51.69000 30.87500
H  9.21500 47.28300 30.37400
H  7.78000 47.60500 31.26500
H  9.94600 48.72500 32.79200
H  10.25600 47.09800 32.31000
H  15.82000 50.05900 26.77300
H  15.61400 48.46700 27.54100
H  14.88000 49.92300 28.25000
H  16.67400 48.28200 25.48600
H  16.39800 49.78800 24.53900
H  17.06400 48.30400 23.81400
H  10.60700 46.53400 21.68800
H  8.63000 48.77900 21.10500
H  12.10200 48.21400 20.82100
H  10.89700 49.38900 20.83600
H  10.64400 48.03400 19.70100
H  7.24000 46.31000 21.48400
H  8.61500 45.89400 20.60100
H  6.13000 46.89000 19.67300
H  7.66200 46.63600 18.78100
H  7.24800 48.18500 19.49700
H  3.53700 48.98000 24.20200
H  3.21500 47.58200 25.02400
H  4.36800 47.50200 23.62400
H  5.63100 50.31600 29.28000
H  4.12700 49.44200 32.97400
H  5.67600 48.72600 33.30500
H  4.26800 47.77700 32.65800

