158

Mg 35.11900 2.25300 29.04400
C  33.16000 3.53000 31.63200
C  37.74400 2.45500 31.27200
C  37.22600 1.38000 26.46900
C  32.51300 2.63400 26.85100
N  35.38300 3.02800 31.20200
C  34.48300 3.33700 32.08200
C  34.95100 3.53100 33.54500
C  36.49400 3.30600 33.33400
C  36.54200 2.92600 31.84700
C  37.40600 4.49100 33.69800
C  34.29100 2.63400 34.59600
C  34.20100 3.29000 36.04400
H  35.40800 4.00000 36.56400
N  37.18300 1.82800 28.86800
C  38.07100 2.03700 29.92600
C  39.36300 1.58100 29.51300
C  39.29300 1.33000 28.13500
C  37.89200 1.49900 27.72200
C  40.44800 1.58900 30.42300
C  40.41100 0.98100 27.15000
O  40.13400 0.88900 25.96600
C  41.78900 0.81200 27.72700
N  34.96700 2.21000 26.95500
C  35.91900 1.72900 26.05100
C  35.48900 1.80600 24.62600
C  33.91500 1.76600 24.86200
C  33.79000 2.34600 26.31800
C  36.10100 2.99700 23.96400
C  33.22000 0.37500 24.76800
C  31.94600 0.26800 24.00600
N  33.25900 2.90600 29.17500
C  32.22800 2.90300 28.23200
C  30.93200 3.25000 28.82800
C  31.26200 3.47700 30.16500
C  32.70000 3.35000 30.29600
C  29.68000 3.30300 28.16500
C  30.72700 3.77100 31.40900
O  29.52800 3.98600 31.62800
C  31.88800 3.81400 32.42200
C  31.92000 5.19900 33.08500
O  32.33400 6.15300 32.55300
O  31.50400 5.14000 34.37300
C  31.62900 6.43100 35.03100
H  38.48800 2.39900 32.06900
H  37.87500 1.36400 25.59100
H  31.60500 2.63300 26.24500
H  34.65700 4.55800 33.76000
H  36.84900 2.41100 33.84500
H  38.13700 4.68700 32.91400
H  38.09700 4.21100 34.49300
H  36.75500 5.32800 33.95400
H  34.94000 1.76700 34.72000
H  33.28900 2.28000 34.35600
H  34.05100 2.49900 36.77900
H  33.42300 4.05300 36.03100
H  40.81400 2.61500 30.40300
H  41.35900 1.03600 30.19100
H  40.21500 1.24500 31.43100
H  41.77600 -0.00800 28.44300
H  42.20700 1.70300 28.19700
H  42.56200 0.46100 27.04300
H  35.75700 0.84700 24.18300
H  33.46200 2.47000 24.16400
H  35.30300 3.46000 23.38300
H  36.87800 2.63400 23.29200
H  36.58700 3.70200 24.63800
H  33.01200 0.07200 25.79400
H  33.90400 -0.45600 24.59600
H  31.64300 1.19100 23.51100
H  31.32600 0.09300 24.88600
H  32.00800 -0.63500 23.39900
H  29.28300 4.31500 28.23300
H  28.99100 2.69700 28.75500
H  29.79900 2.81000 27.20000
H  31.82500 3.10800 33.25000
H  30.76300 6.32700 35.68500
H  31.47300 7.33300 34.44000
H  32.51800 6.55000 35.65000
Mg -5.45800 25.65200 25.83400
C  -3.63700 26.73200 28.66900
C  -7.63300 24.05400 27.89700
C  -6.77500 24.33000 23.11100
C  -3.41100 27.72300 23.86200
N  -5.62900 25.46200 27.99600
C  -4.77500 25.93000 28.97900
C  -5.19100 25.50000 30.32500
C  -6.30900 24.41900 30.00900
C  -6.58800 24.68800 28.52200
C  -6.00100 22.97400 30.41000
C  -5.67300 26.71400 31.13300
C  -5.22200 26.85300 32.62100
H  -4.89400 25.52700 33.46800
N  -6.96800 24.36400 25.50200
C  -7.81700 23.86900 26.51900
C  -8.93900 23.06900 25.88000
C  -8.58100 22.99700 24.49600
C  -7.39100 23.90200 24.29100
C  -10.16100 22.47100 26.69200
C  -9.34100 22.32200 23.37500
O  -8.99800 22.43900 22.19900
C  -10.54500 21.54700 23.64100
N  -4.95200 25.81800 23.76000
C  -5.72100 25.21000 22.85400
C  -5.51000 25.73700 21.39000
C  -4.47200 26.87800 21.64300
C  -4.24200 26.82900 23.19000
C  -4.99100 24.59200 20.43600
C  -4.99900 28.21700 21.07100
C  -4.78400 28.41500 19.58100
N  -3.71900 26.91800 26.12400
C  -3.04000 27.70800 25.22000
C  -2.13500 28.58400 26.05100
C  -2.28500 28.11500 27.34400
C  -3.27800 27.10500 27.37900
C  -1.17000 29.66900 25.63400
C  -1.79500 28.33700 28.68800
O  -0.90400 29.03600 29.16400
C  -2.66800 27.47100 29.63300
C  -1.74900 26.61200 30.40000
O  -1.06400 25.73000 29.99800
O  -1.91200 27.01100 31.69000
C  -1.05100 26.23800 32.61200
H  -8.21500 23.39400 28.54300
H  -7.21200 23.84900 22.23400
H  -2.89700 28.42200 23.19900
H  -4.34700 25.03600 30.83600
H  -7.30600 24.56200 30.42800
H  -6.69700 22.53800 31.12700
H  -4.99900 22.75600 30.78000
H  -6.04100 22.34000 29.52400
H  -6.72400 26.46400 31.27200
H  -5.51300 27.65500 30.60700
H  -5.93800 27.48900 33.14200
H  -4.36500 27.50500 32.45500
H  -10.11800 22.79500 27.73200
H  -10.13200 21.38400 26.76000
H  -11.12300 22.75400 26.26400
H  -11.21800 22.24400 24.14100
H  -10.40700 20.65300 24.24800
H  -10.96600 21.23100 22.68600
H  -6.43700 26.14100 20.98500
H  -3.53600 26.74900 21.10100
H  -3.96700 24.39200 20.75300
H  -4.95100 24.93900 19.40400
H  -5.70000 23.76900 20.52900
H  -4.59600 29.11300 21.54200
H  -6.07600 28.25700 21.23700
H  -4.09200 29.23500 19.38800
H  -5.62600 28.73400 18.96700
H  -4.35400 27.51300 19.14500
H  -1.30600 30.54700 26.26600
H  -1.49700 30.06700 24.67400
H  -0.12400 29.37400 25.54900
H  -3.20900 28.19700 30.24000
H  -1.38800 25.20600 32.70800
H  -1.19200 26.61000 33.62700
H  -0.02200 26.14400 32.26400

