158

Mg 16.96200 -2.57300 28.35000
C  15.62700 -0.77500 31.09400
C  18.86100 -4.43100 30.52600
C  18.37500 -4.05000 25.73300
C  15.14300 -0.47800 26.24700
N  17.24700 -2.53400 30.51000
C  16.57800 -1.77100 31.46600
C  17.08700 -2.06200 32.89900
C  18.22100 -3.10600 32.65100
C  18.12300 -3.38000 31.11400
C  19.59500 -2.76600 33.19800
C  15.96200 -2.59500 33.82100
C  15.77400 -1.78700 35.17800
H  16.91000 -0.96800 35.82000
N  18.32600 -4.12300 28.14100
C  18.91700 -4.81600 29.16400
C  19.87600 -5.86000 28.65100
C  19.69300 -5.75500 27.19200
C  18.73200 -4.59700 26.94900
C  20.62200 -6.76600 29.53700
C  20.35600 -6.58800 26.06900
O  20.18000 -6.35900 24.90400
C  21.13500 -7.81000 26.46000
N  16.69600 -2.44600 26.26600
C  17.47000 -3.08300 25.39400
C  17.46600 -2.42600 24.01600
C  16.21700 -1.45700 24.12300
C  15.88900 -1.52400 25.65600
C  18.75400 -1.68400 23.60300
C  15.10300 -1.97600 23.21400
C  13.93900 -1.08300 22.97200
N  15.62100 -1.00700 28.53100
C  14.94500 -0.27000 27.62500
C  14.07200 0.66300 28.28100
C  14.39900 0.51500 29.60600
C  15.32800 -0.50300 29.73300
C  13.11600 1.67900 27.61400
C  14.06000 1.05300 30.90300
O  13.34400 2.01200 31.23400
C  14.98600 0.25900 31.91400
C  15.86700 1.24500 32.41300
O  16.84000 1.73800 31.77400
O  15.38400 1.78900 33.56800
C  16.12000 3.01400 34.11100
H  19.61400 -4.84800 31.19900
H  18.78800 -4.45400 24.80600
H  14.78800 0.25800 25.52200
H  17.54400 -1.13200 33.23600
H  17.92800 -4.05400 33.10200
H  19.83200 -3.37300 34.07100
H  19.72200 -1.74400 33.55500
H  20.27700 -2.85000 32.35100
H  16.10700 -3.61800 34.16900
H  15.02600 -2.44900 33.28100
H  15.44700 -2.41200 36.01000
H  14.98300 -1.04800 35.05400
H  20.77900 -6.29800 30.50800
H  21.58900 -6.96500 29.07500
H  20.22500 -7.78100 29.57000
H  20.59000 -8.37200 27.21800
H  21.97700 -7.35700 26.98400
H  21.41200 -8.37800 25.57200
H  17.44400 -3.26400 23.32000
H  16.56700 -0.51700 23.69600
H  19.46900 -1.99200 24.36600
H  18.63500 -0.60300 23.68000
H  19.12200 -1.96700 22.61700
H  14.85100 -2.91900 23.70000
H  15.50200 -2.30800 22.25600
H  13.04500 -1.39300 23.51300
H  13.75200 -0.85800 21.92200
H  14.08600 -0.09500 23.40900
H  13.04500 2.54800 28.26800
H  12.16200 1.21100 27.37000
H  13.55100 2.03800 26.68100
H  14.34400 -0.13400 32.70300
H  16.68900 2.77000 35.00800
H  15.34600 3.68700 34.48000
H  16.81500 3.46200 33.40100
Mg 25.47800 0.73400 29.92300
C  27.60400 0.66200 32.83900
C  22.88300 0.49400 32.12300
C  23.48100 0.58400 27.25700
C  28.24800 0.47000 27.95800
N  25.36700 0.65500 32.21100
C  26.28500 0.72300 33.18900
C  25.70300 0.81700 34.59700
C  24.19600 0.66500 34.29800
C  24.13100 0.61600 32.79100
C  23.60600 -0.65900 34.77800
C  26.18500 2.10200 35.32100
C  25.37800 2.41800 36.60100
H  26.09900 2.66800 37.91200
N  23.40900 0.60700 29.71700
C  22.48300 0.50500 30.75700
C  21.13500 0.38500 30.18100
C  21.34900 0.46000 28.77900
C  22.79400 0.59300 28.54100
C  19.88800 0.31500 31.02400
C  20.25300 0.52300 27.65800
O  20.53600 0.58600 26.46300
C  18.82400 0.59100 28.01400
N  25.84300 0.66300 27.87700
C  24.87400 0.75500 26.97700
C  25.36700 0.77900 25.58200
C  26.90000 0.92000 25.80100
C  27.01200 0.65700 27.30500
C  24.91400 -0.31800 24.57300
C  27.65200 2.12400 25.31000
C  28.76300 1.85900 24.31300
N  27.49300 0.55900 30.26300
C  28.47600 0.37000 29.31900
C  29.73500 0.19600 29.95400
C  29.45600 0.28900 31.33300
C  28.04400 0.58300 31.51200
C  30.99500 -0.09000 29.26600
C  30.00800 0.24700 32.71700
O  31.11600 -0.11300 33.09900
C  28.94700 0.71200 33.67600
C  29.01100 -0.09500 34.89500
O  28.53700 -1.17700 35.01700
O  29.83800 0.54500 35.78700
C  29.80900 -0.06300 37.13300
H  22.07700 0.57300 32.85600
H  22.90400 0.59200 26.33000
H  29.04200 0.55000 27.21200
H  26.11400 0.00500 35.19600
H  23.67200 1.53600 34.69100
H  24.22400 -1.10800 35.55600
H  23.36400 -1.39800 34.01500
H  22.64300 -0.49000 35.26000
H  26.06100 3.01900 34.74400
H  27.25300 1.96600 35.49100
H  24.82000 1.50200 36.79700
H  24.75200 3.29200 36.41600
H  19.35400 1.26300 30.96800
H  20.19100 0.09400 32.04800
H  19.22300 -0.47700 30.67900
H  18.14200 0.81400 27.19400
H  18.70100 1.48300 28.62800
H  18.43600 -0.29900 28.51000
H  25.02600 1.72100 25.15200
H  27.43200 0.10200 25.31500
H  24.38400 -1.03600 25.19900
H  25.74300 -0.87700 24.13900
H  24.24100 0.10300 23.82600
H  28.05300 2.79400 26.07000
H  26.95500 2.75800 24.76200
H  28.31600 1.83400 23.31900
H  29.28100 0.90300 24.39900
H  29.37100 2.75300 24.44900
H  31.61200 0.54200 29.90400
H  31.08800 0.29300 28.25000
H  31.23000 -1.14800 29.38600
H  29.10200 1.77600 33.85700
H  30.44400 -0.93100 36.95600
H  28.82200 -0.23500 37.56200
H  30.44700 0.48700 37.82500

