158

Mg 26.77500 51.02400 26.49200
C  24.76400 51.93100 29.18500
C  29.19700 50.00500 28.72900
C  28.38800 49.88400 23.91400
C  24.15700 52.11600 24.27400
N  26.91800 50.97400 28.76400
C  25.97200 51.36100 29.68200
C  26.41400 51.24700 31.09500
C  27.86800 50.68600 30.90900
C  28.06600 50.54100 29.35800
C  28.89600 51.61200 31.51100
C  25.43800 50.25500 31.87300
C  26.01100 49.41500 32.96300
H  25.31000 49.37300 34.27600
N  28.61300 50.19100 26.36400
C  29.43700 49.78000 27.32800
C  30.64900 49.15000 26.70100
C  30.45200 49.13400 25.27800
C  29.09900 49.76600 25.13400
C  31.73900 48.50400 27.48100
C  31.41700 48.60800 24.23900
O  31.21500 48.83700 23.01800
C  32.81900 48.01900 24.58400
N  26.26600 51.07700 24.33100
C  27.16000 50.40800 23.51900
C  26.64500 50.40200 22.10000
C  25.30100 51.09700 22.23600
C  25.15000 51.43800 23.67500
C  27.66700 51.06500 21.16600
C  24.04900 50.25900 21.83200
C  23.29800 50.77200 20.51000
N  24.94300 51.98400 26.60100
C  24.04000 52.41600 25.67000
C  22.90800 53.05300 26.33300
C  23.18600 52.90600 27.67200
C  24.39100 52.19400 27.81300
C  21.82400 53.71800 25.70800
C  22.56600 53.15600 28.94500
O  21.48900 53.69300 29.20400
C  23.56500 52.43500 30.02500
C  23.89900 53.36900 31.18600
O  24.90300 54.12300 31.27400
O  23.00800 53.26700 32.17200
C  23.37500 54.02700 33.42000
H  29.98100 49.69900 29.42500
H  28.89400 49.40200 23.07500
H  23.46600 52.57500 23.56400
H  26.36400 52.27400 31.45600
H  28.00300 49.66900 31.27600
H  29.02800 52.53800 30.95200
H  29.80400 51.04900 31.29500
H  28.85800 51.64300 32.59900
H  24.93200 49.62100 31.14500
H  24.69200 50.92800 32.29600
H  26.90600 49.98000 33.22500
H  26.28600 48.45500 32.52700
H  31.54600 48.53200 28.55400
H  32.66300 48.96300 27.13000
H  31.70600 47.46200 27.16600
H  33.17300 47.66200 23.61700
H  32.87400 47.22500 25.32900
H  33.44200 48.88500 24.80700
H  26.60200 49.32500 21.93800
H  25.34200 52.07700 21.76100
H  28.30400 51.81700 21.63200
H  27.07700 51.58600 20.41200
H  28.27200 50.27400 20.72200
H  23.28700 50.19800 22.60800
H  24.46900 49.30100 21.52500
H  22.92500 49.94000 19.91200
H  24.03900 51.31600 19.92400
H  22.54400 51.49300 20.82800
H  21.47600 53.15700 24.84100
H  22.10500 54.64700 25.21100
H  21.00300 53.99100 26.37100
H  22.99100 51.61900 30.46400
H  23.53600 55.09400 33.26700
H  24.23000 53.56900 33.91700
H  22.45000 53.76400 33.93300
Mg 7.38700 53.97900 41.96600
C  6.72600 50.34800 41.57800
C  10.55800 53.38300 41.03000
C  7.81300 57.27600 41.91800
C  3.89300 54.45600 41.87500
N  8.42400 52.07800 41.28500
C  8.09700 50.74600 41.22300
C  9.35600 49.87700 41.14100
C  10.51700 50.86400 41.32700
C  9.78800 52.23100 41.21900
C  11.24400 50.73800 42.73100
C  9.40900 49.13100 39.74900
C  9.10300 50.08800 38.52800
H  8.05300 49.56900 37.53600
N  8.98800 55.21600 41.54400
C  10.21300 54.80600 41.14200
C  11.16200 55.92900 40.99200
C  10.37600 57.09800 41.29800
C  8.99800 56.61700 41.62800
C  12.61600 55.83500 40.53400
C  10.94000 58.52700 41.36100
O  12.08400 58.77300 41.05100
C  10.09700 59.72700 41.81200
N  6.11300 55.55300 41.79800
C  6.50900 56.86600 41.97700
C  5.39000 57.85800 41.83500
C  4.11100 56.97100 41.91500
C  4.73400 55.58400 41.77700
C  5.29800 59.13000 42.72600
C  3.09500 57.21900 40.78600
C  1.63400 57.16800 41.22500
N  5.65600 52.65400 41.93600
C  4.27500 53.01700 41.97300
C  3.50700 51.75900 42.16800
C  4.41600 50.71300 42.05800
C  5.65900 51.29300 41.78900
C  2.03400 51.72700 42.54900
C  4.62900 49.26800 42.06300
O  3.83300 48.37300 42.45100
C  6.09000 48.95500 41.59800
C  6.03700 48.22500 40.30500
O  5.38100 48.61300 39.35900
O  6.59800 46.93800 40.51400
C  6.31900 45.99800 39.36500
H  11.61500 53.11100 41.00000
H  7.83000 58.35500 42.08500
H  2.84000 54.71600 41.99800
H  9.26500 49.00500 41.78800
H  11.28700 50.74600 40.56500
H  12.29300 50.47000 42.60600
H  10.79400 50.21400 43.57500
H  11.31200 51.75500 43.11600
H  8.89700 48.16900 39.77600
H  10.43400 48.76400 39.68900
H  10.02900 50.19800 37.96300
H  8.87700 51.10000 38.86400
H  12.74200 54.95500 39.90200
H  13.28500 55.73800 41.38900
H  13.00500 56.69400 39.98700
H  9.33800 59.86100 41.04000
H  10.67900 60.64900 41.79600
H  9.69000 59.47000 42.79000
H  5.43100 58.30600 40.84200
H  3.69000 56.89600 42.91800
H  6.21400 59.16600 43.31600
H  4.45800 58.98400 43.40600
H  5.20200 59.95200 42.01700
H  3.14400 56.61300 39.88100
H  3.25700 58.24200 40.44800
H  1.08800 56.44400 40.62000
H  1.13700 58.10600 40.97700
H  1.50000 57.02100 42.29700
H  1.72300 52.76600 42.65900
H  1.71700 51.27900 43.49000
H  1.48500 51.25700 41.73300
H  6.49400 48.33300 42.39600
H  5.88800 45.07700 39.75800
H  7.27300 45.70200 38.92600
H  5.66800 46.36700 38.57200

