158

Mg -9.97000 18.28300 42.62200
C  -6.64200 17.29500 42.52700
C  -9.05400 21.42400 41.64700
C  -13.22500 19.04000 41.81400
C  -10.82600 14.95100 42.93600
N  -8.12900 19.20200 42.04500
C  -6.86500 18.67400 42.15400
C  -5.75400 19.62500 41.75900
C  -6.54200 20.95100 41.95300
C  -8.02300 20.50400 41.81900
C  -6.27300 21.82000 43.26900
C  -5.09400 19.32600 40.43700
C  -6.02900 18.65700 39.46400
H  -5.41600 18.51500 38.07100
N  -11.00000 20.09800 42.03000
C  -10.42200 21.27600 41.74500
C  -11.46400 22.30300 41.48800
C  -12.73300 21.56900 41.61600
C  -12.37600 20.19100 41.87000
C  -11.15300 23.79900 41.17300
C  -14.05300 22.20600 41.48300
O  -14.06800 23.44700 41.36200
C  -15.26600 21.43900 41.58400
N  -11.85500 17.15700 42.49500
C  -13.02300 17.68800 42.10600
C  -14.11200 16.55600 41.90900
C  -13.41200 15.35100 42.70500
C  -11.89700 15.80700 42.59500
C  -15.48000 16.87800 42.52400
C  -13.79300 13.96300 42.05800
C  -13.75600 12.87800 43.04400
N  -8.91100 16.43600 42.82500
C  -9.42500 15.14800 43.04700
C  -8.38600 14.17100 43.19600
C  -7.22500 14.99800 43.07300
C  -7.62000 16.33800 42.83500
C  -8.52200 12.65000 43.13800
C  -5.77200 14.98300 42.94200
O  -4.96200 14.10000 42.88600
C  -5.30000 16.49700 42.73000
C  -4.59800 17.07800 43.85700
O  -3.47100 17.59400 43.75900
O  -5.33700 17.07100 45.02400
C  -4.74300 17.69200 46.19600
H  -8.76400 22.45500 41.43500
H  -14.15600 19.33500 41.32500
H  -11.16900 13.91700 43.02300
H  -4.95800 19.62400 42.50300
H  -6.40700 21.57100 41.06600
H  -7.14200 21.90200 43.92200
H  -5.89400 22.79200 42.95400
H  -5.52000 21.30400 43.86400
H  -4.28600 18.60500 40.56100
H  -4.73800 20.21100 39.91100
H  -6.93000 19.24000 39.27300
H  -6.16000 17.62700 39.79800
H  -11.87800 24.27800 40.51500
H  -10.27900 23.79300 40.52300
H  -11.00600 24.35800 42.09700
H  -15.23500 20.82400 42.48400
H  -15.40000 20.85400 40.67400
H  -16.06900 22.14700 41.78900
H  -14.26900 16.36100 40.84800
H  -13.73900 15.29900 43.74300
H  -15.57500 17.77300 43.13900
H  -15.77800 16.08700 43.21200
H  -16.18800 17.03800 41.71100
H  -13.06400 13.75500 41.27500
H  -14.79000 14.04700 41.62600
H  -13.32800 13.19800 43.99400
H  -13.17600 12.02300 42.69600
H  -14.73900 12.42900 43.19100
H  -9.30300 12.42300 42.41300
H  -8.92800 12.17400 44.03100
H  -7.65300 12.12500 42.74200
H  -4.59400 16.71300 41.92800
H  -3.69500 17.47700 46.40600
H  -5.35500 17.37400 47.04100
H  -5.00800 18.74500 46.10300
Mg -5.52900 24.73900 26.77600
C  -3.73800 26.17500 29.33200
C  -6.88800 22.60200 29.21600
C  -7.36200 23.25000 24.37800
C  -3.77500 26.52700 24.44400
N  -5.25200 24.41600 28.88000
C  -4.67900 25.27400 29.76100
C  -5.00100 24.99600 31.19000
C  -5.70600 23.63600 31.14000
C  -5.97600 23.52800 29.64700
C  -5.07600 22.42400 31.87000
C  -5.82300 26.20900 31.77000
C  -5.52800 26.74600 33.23100
H  -4.78100 25.87300 34.25300
N  -6.86800 23.15200 26.75600
C  -7.35100 22.41500 27.88400
C  -8.31600 21.38300 27.44900
C  -8.43300 21.45000 26.03800
C  -7.50300 22.66100 25.64300
C  -8.98600 20.39300 28.39700
C  -9.21200 20.56600 25.02400
O  -8.98900 20.66500 23.81900
C  -10.11600 19.53700 25.57900
N  -5.59000 24.90000 24.74700
C  -6.48300 24.24800 23.99300
C  -6.21100 24.52300 22.48100
C  -4.95700 25.48600 22.43700
C  -4.72400 25.65600 23.92800
C  -6.08700 23.26500 21.60200
C  -5.10500 26.76700 21.62800
C  -3.97400 27.07000 20.55200
N  -4.02300 26.10500 26.77300
C  -3.40100 26.74700 25.80900
C  -2.45700 27.72900 26.37100
C  -2.59600 27.59500 27.75900
C  -3.50200 26.48500 27.97600
C  -1.57900 28.83500 25.59000
C  -2.15900 28.05200 29.05800
O  -1.41500 28.95400 29.38100
C  -2.86700 27.14400 30.11000
C  -1.79500 26.43100 30.79700
O  -0.95100 25.73000 30.21800
O  -1.79600 26.76600 32.16200
C  -0.71600 26.08200 32.93300
H  -7.31900 22.10800 30.08900
H  -7.98200 22.84000 23.57800
H  -3.20300 27.06200 23.68300
H  -4.09700 24.96500 31.79800
H  -6.68000 23.82000 31.59300
H  -5.76900 21.90800 32.53500
H  -4.29700 22.81300 32.52600
H  -4.59300 21.82900 31.09500
H  -6.90900 26.14700 31.70900
H  -5.56900 27.08200 31.16700
H  -6.47300 27.12000 33.62400
H  -4.94000 27.64600 33.05000
H  -10.02400 20.69000 28.54700
H  -8.51900 20.26800 29.37500
H  -9.03100 19.37900 28.00000
H  -9.68200 18.65000 26.04200
H  -10.95100 19.30100 24.91900
H  -10.78500 19.90600 26.35600
H  -7.10800 25.07600 22.20300
H  -4.15700 24.84900 22.06000
H  -7.07500 23.17300 21.15000
H  -5.86700 22.39900 22.22700
H  -5.36700 23.44600 20.80400
H  -5.13000 27.60500 22.32400
H  -6.10100 26.64500 21.20300
H  -4.37400 27.09800 19.53800
H  -3.04000 26.51500 20.63700
H  -3.74200 28.13000 20.66000
H  -1.86000 29.86100 25.83000
H  -1.70400 28.63300 24.52600
H  -0.51500 28.67400 25.76400
H  -3.39700 27.69100 30.89000
H  -0.44200 25.13200 32.47300
H  -1.11000 25.86300 33.92600
H  0.12900 26.74500 33.11800

