158

Mg 46.95600 16.83200 28.19700
C  45.11400 16.35700 31.28000
C  49.28700 18.49700 30.07500
C  48.28000 17.54700 25.38100
C  44.21700 15.27900 26.57800
N  47.15900 17.25000 30.47000
C  46.31400 17.03600 31.49900
C  46.82200 17.54400 32.84100
C  48.07300 18.34900 32.34200
C  48.17700 18.02500 30.86600
C  48.06800 19.92700 32.56600
C  47.05800 16.37300 33.89100
C  48.04000 16.56300 35.09100
H  48.00500 17.93000 35.88700
N  48.58100 17.84500 27.79200
C  49.41000 18.40600 28.68100
C  50.38500 19.02700 27.95000
C  50.20300 18.81300 26.58500
C  49.06800 18.00300 26.50800
C  51.40300 20.04600 28.56700
C  50.92600 19.36000 25.35500
O  50.62000 19.00500 24.21600
C  52.19400 20.22800 25.46900
N  46.30200 16.50500 26.27400
C  47.02600 16.98300 25.21400
C  46.41100 16.44000 23.86700
C  45.32400 15.41700 24.38200
C  45.27000 15.73800 25.85500
C  45.87200 17.55600 22.89000
C  45.70000 13.99100 24.08900
C  45.10000 13.43800 22.79200
N  45.01400 15.92300 28.79600
C  44.03500 15.42300 28.00100
C  42.91900 15.03400 28.78200
C  43.24800 15.35800 30.09400
C  44.54000 15.91800 30.02000
C  41.69800 14.36800 28.18500
C  42.87900 15.31600 31.44400
O  41.84700 14.95500 31.98600
C  44.04800 15.98800 32.28400
C  43.39400 17.07800 33.05000
O  43.39100 18.26400 32.74700
O  42.79900 16.58500 34.18500
C  42.18500 17.57000 35.09800
H  50.10900 18.96400 30.62100
H  48.67800 17.91700 24.43400
H  43.43500 14.74900 26.03100
H  46.06800 18.21600 33.25100
H  49.04000 18.02500 32.72700
H  48.97800 20.29900 33.03600
H  47.25600 20.17800 33.24800
H  48.05100 20.51200 31.64700
H  47.36700 15.46500 33.37300
H  46.11500 16.09300 34.36000
H  49.03700 16.47000 34.66200
H  47.88400 15.83600 35.88800
H  51.46000 20.92900 27.93100
H  52.39300 19.58800 28.56300
H  51.10400 20.27300 29.59000
H  52.91400 19.75400 26.13700
H  51.98100 21.23300 25.83500
H  52.61500 20.39800 24.47800
H  47.16700 15.89900 23.29800
H  44.31700 15.63800 24.02800
H  46.64800 17.65800 22.13100
H  45.73200 18.52900 23.36100
H  44.96200 17.26500 22.36600
H  45.43600 13.52100 25.03600
H  46.78600 13.90200 24.06700
H  45.78000 13.16500 21.98500
H  44.36200 14.16000 22.44500
H  44.44800 12.60600 23.06000
H  41.90900 13.31100 28.02600
H  41.36600 14.87700 27.28000
H  40.94900 14.41500 28.97500
H  44.43000 15.23400 32.97400
H  41.29500 17.99200 34.63200
H  42.95800 18.26600 35.42400
H  41.80100 17.05800 35.98000
Mg -4.83500 25.40300 26.47700
C  -3.41300 26.79800 29.32300
C  -7.05200 23.62800 28.48800
C  -5.86700 23.95600 23.72400
C  -2.62800 27.43900 24.58000
N  -5.12000 25.21000 28.65500
C  -4.41900 25.83500 29.68800
C  -5.03700 25.48900 31.09100
C  -5.84400 24.22700 30.65900
C  -6.04800 24.37500 29.18400
C  -5.22200 22.83600 31.07900
C  -5.92700 26.59500 31.67000
C  -6.01800 26.54700 33.27900
H  -5.50500 25.26100 33.98300
N  -6.31600 23.98700 26.11700
C  -7.13000 23.45300 27.08200
C  -8.08200 22.54700 26.38500
C  -7.69600 22.62000 24.99500
C  -6.55900 23.48500 24.88500
C  -9.16400 21.87500 27.14000
C  -8.32300 21.95900 23.79600
O  -7.82100 21.97500 22.71700
C  -9.56700 21.16600 24.01200
N  -4.29200 25.65800 24.43400
C  -4.87900 24.92000 23.49500
C  -4.50900 25.42300 22.07500
C  -3.56600 26.65000 22.27600
C  -3.51700 26.59600 23.86100
C  -4.06800 24.32400 21.18900
C  -4.23000 27.99400 21.80200
C  -3.50000 28.49600 20.52000
N  -3.31500 26.78600 26.83300
C  -2.52500 27.52500 26.01100
C  -1.69400 28.42600 26.75000
C  -1.91800 28.09800 28.07600
C  -2.93400 27.19500 28.05300
C  -0.73400 29.36100 26.15100
C  -1.51800 28.38400 29.41600
O  -0.63500 29.15000 29.83300
C  -2.39800 27.48900 30.30300
C  -1.67700 26.53700 31.24200
O  -1.15400 25.50100 30.94900
O  -1.85000 27.10800 32.49400
C  -1.37100 26.49600 33.71600
H  -7.73500 23.09200 29.15100
H  -6.24000 23.67700 22.73600
H  -2.03500 28.20000 24.06900
H  -4.16000 25.18500 31.66400
H  -6.83300 24.26400 31.11600
H  -5.96100 22.16300 31.51400
H  -4.41700 23.04900 31.78300
H  -4.67700 22.31500 30.29200
H  -6.89400 26.48100 31.18000
H  -5.58200 27.53400 31.23800
H  -7.06500 26.74100 33.51200
H  -5.34700 27.33200 33.62700
H  -9.19400 20.80400 26.93900
H  -10.19500 22.12400 26.89100
H  -9.02900 21.93300 28.22000
H  -9.26400 20.25000 24.52000
H  -10.04300 21.05900 23.03800
H  -10.28900 21.77100 24.56100
H  -5.46500 25.76000 21.67300
H  -2.66100 26.35700 21.74300
H  -3.36400 24.70000 20.44600
H  -4.96100 23.98200 20.66600
H  -3.71800 23.60300 21.92900
H  -4.02800 28.84500 22.45300
H  -5.31400 27.90800 21.72000
H  -4.22000 28.67000 19.72000
H  -2.76800 27.75600 20.19300
H  -2.93000 29.42400 20.55000
H  -0.17100 28.86800 25.35900
H  0.01800 29.71900 26.85500
H  -1.22200 30.20200 25.65900
H  -2.80300 28.28000 30.93400
H  -1.00100 25.48600 33.54300
H  -2.14200 26.52800 34.48500
H  -0.43900 27.01300 33.94800

