158

Mg 1.13000 7.79100 26.29400
C  1.70500 9.81100 29.22900
C  1.17000 5.09500 28.32900
C  1.10200 6.00800 23.46100
C  1.39200 10.78900 24.32000
N  1.42500 7.54800 28.51900
C  1.47000 8.47500 29.53900
C  1.20700 7.79000 30.88300
C  1.47400 6.25400 30.58300
C  1.33800 6.24700 29.02700
C  2.83600 5.65200 31.08900
C  -0.21600 8.07300 31.57600
C  -0.31400 8.28200 33.07900
H  0.75700 7.67900 33.97400
N  1.15000 5.81800 25.97900
C  1.20400 4.87400 26.93200
C  1.16700 3.55500 26.33400
C  1.05600 3.77200 24.92300
C  1.05100 5.29100 24.70800
C  1.10600 2.24200 27.10400
C  0.81700 2.75700 23.81000
O  0.68300 3.05800 22.62600
C  0.91900 1.26000 24.10800
N  0.96500 8.39100 24.19700
C  1.12100 7.45000 23.27400
C  1.30600 8.08400 21.84300
C  1.22600 9.61400 22.12200
C  1.26800 9.60900 23.66100
C  2.62400 7.69500 21.11400
C  -0.03800 10.27600 21.60800
C  0.01300 11.76800 21.36200
N  1.45600 9.84800 26.65200
C  1.50900 10.91400 25.70600
C  1.69000 12.15400 26.44900
C  1.90500 11.76800 27.76800
C  1.66700 10.33400 27.91700
C  1.80700 13.49200 25.80300
C  2.15300 12.32700 29.11800
O  2.51700 13.44300 29.47500
C  1.96300 11.13900 30.08900
C  3.08400 11.14600 31.13600
O  4.28200 10.75500 30.98200
O  2.64800 11.64400 32.28100
C  3.43500 11.32700 33.46700
H  1.10000 4.27400 29.04500
H  1.07400 5.43400 22.53300
H  1.30900 11.73100 23.77500
H  1.99800 8.02400 31.59500
H  0.78200 5.66600 31.18600
H  3.36600 5.36000 30.18200
H  2.68200 4.78700 31.73400
H  3.39400 6.42600 31.61600
H  -0.83600 7.19800 31.37900
H  -0.71600 8.95300 31.17000
H  -1.23600 7.81600 33.42600
H  -0.31800 9.30900 33.44200
H  0.08700 1.89800 27.27900
H  1.53900 2.40600 28.09100
H  1.78800 1.49600 26.69700
H  1.90800 1.07700 24.52800
H  0.74500 0.60700 23.25300
H  0.13000 1.06700 24.83600
H  0.49000 7.81900 21.17100
H  2.04100 10.20800 21.70800
H  3.36000 8.48900 21.23600
H  2.39300 7.52500 20.06200
H  2.88700 6.81500 21.70000
H  -0.89700 10.14300 22.26600
H  -0.28600 9.82000 20.65000
H  0.96900 12.22400 21.61800
H  -0.77600 12.23200 21.95400
H  -0.04400 11.97900 20.29400
H  2.65000 13.60700 25.12200
H  1.97400 14.18000 26.63200
H  0.90100 13.85500 25.31800
H  1.07100 11.55100 30.56000
H  2.87600 11.77800 34.28700
H  4.42500 11.78300 33.48000
H  3.66100 10.26100 33.47900
Mg 16.86400 52.27000 26.84800
C  19.06900 50.95500 29.34800
C  14.91600 53.50100 29.34500
C  14.85900 53.58900 24.43200
C  19.04700 51.18900 24.40000
N  16.97600 52.14000 28.98800
C  17.94400 51.56800 29.79300
C  17.61800 51.88100 31.26500
C  16.11000 52.21700 31.20500
C  15.98500 52.70700 29.75500
C  15.10300 51.03900 31.39900
C  18.51900 52.94600 31.93000
C  19.02200 52.86300 33.36600
H  18.18300 52.15900 34.38000
N  15.10700 53.37900 26.87700
C  14.46800 53.76500 28.04500
C  13.28800 54.53600 27.72300
C  13.27500 54.58800 26.26800
C  14.39400 53.79100 25.78500
C  12.36700 55.15300 28.73400
C  12.26600 55.34800 25.42400
O  12.34100 55.43500 24.21400
C  11.14600 56.11700 26.04000
N  16.87000 52.11000 24.69800
C  15.89500 52.78300 23.93900
C  16.12600 52.50600 22.43000
C  17.54100 51.92000 22.44600
C  17.89700 51.75900 23.94900
C  15.03600 51.65000 21.80300
C  18.59600 52.70700 21.60200
C  19.15400 54.02200 22.16600
N  18.61800 51.12200 26.92100
C  19.43900 50.83700 25.78700
C  20.62900 50.15500 26.30900
C  20.50200 50.13900 27.69900
C  19.30500 50.77200 28.01100
C  21.79800 49.87600 25.50500
C  21.19600 49.86400 28.99800
O  22.26100 49.31200 29.27400
C  20.23100 50.38900 30.06400
C  19.86200 49.48800 31.12400
O  19.11600 48.51000 30.94900
O  20.28900 49.84200 32.31400
C  20.30700 48.86100 33.46400
H  14.23600 53.74200 30.16600
H  14.29500 54.08400 23.63900
H  19.76700 50.84600 23.65400
H  17.66200 50.96000 31.84600
H  16.07600 53.04100 31.91700
H  14.37700 50.91100 30.59600
H  14.53000 51.25100 32.30100
H  15.57600 50.06500 31.52600
H  18.04000 53.92200 31.85400
H  19.44000 53.01000 31.35200
H  19.13200 53.82700 33.86200
H  20.02100 52.42900 33.40300
H  12.11000 56.15200 28.38000
H  12.79100 55.21800 29.73600
H  11.46100 54.54600 28.75200
H  10.43200 56.47800 25.29900
H  11.62200 56.94200 26.56900
H  10.65600 55.42700 26.72700
H  16.20900 53.48100 21.95100
H  17.56400 50.88600 22.10100
H  14.66800 51.99200 20.83600
H  14.14200 51.67600 22.42600
H  15.38800 50.62200 21.71900
H  18.22000 53.15300 20.68100
H  19.36000 51.98200 21.32200
H  18.95700 54.79600 21.42300
H  20.22100 54.01100 22.39000
H  18.65000 54.31000 23.08800
H  22.66700 50.12500 26.11300
H  21.78300 50.41800 24.55900
H  21.89000 48.83600 25.19100
H  20.72700 51.19900 30.59700
H  19.27200 48.76300 33.79200
H  20.99600 49.13700 34.26300
H  20.54000 47.87800 33.05600

