158

Mg 43.40200 42.58200 26.26800
C  42.19200 44.62300 28.83500
C  44.89300 40.66100 28.60400
C  44.30500 40.56400 23.68400
C  42.21500 45.00200 23.98200
N  43.66800 42.81100 28.46200
C  42.88800 43.53100 29.24300
C  43.05000 43.09200 30.78700
C  43.82800 41.73700 30.70100
C  44.23300 41.78200 29.15300
C  45.10100 41.59700 31.61100
C  41.64800 42.92700 31.51400
C  41.53500 41.85900 32.67800
H  40.74800 42.21600 33.93300
N  44.52500 40.88200 26.12500
C  45.10400 40.27700 27.24200
C  45.90400 39.14100 26.76000
C  45.58800 38.95100 25.33700
C  44.75400 40.16700 24.98300
C  46.78900 38.27100 27.75300
C  46.08900 37.88000 24.38000
O  45.88600 38.03100 23.17300
C  46.97200 36.79100 24.84200
N  43.43900 42.85600 24.03500
C  43.70300 41.74700 23.25400
C  43.38500 42.10500 21.81900
C  42.66300 43.50600 21.93300
C  42.62400 43.79400 23.42900
C  44.58400 42.16000 20.85400
C  41.20600 43.62100 21.24100
C  40.00700 43.05000 22.00400
N  42.51900 44.46400 26.33100
C  42.05900 45.31900 25.36000
C  41.47500 46.49700 25.92900
C  41.40900 46.20200 27.28100
C  42.07900 44.99400 27.44900
C  41.00400 47.66900 25.19900
C  40.92500 46.76400 28.54400
O  40.25800 47.78800 28.74100
C  41.40400 45.74800 29.64100
C  42.10300 46.49500 30.66100
O  43.27000 46.85200 30.54100
O  41.37600 46.67200 31.86700
C  42.11000 47.33600 32.91100
H  45.34500 39.97000 29.31900
H  44.75700 39.87200 22.97100
H  41.76400 45.69800 23.27100
H  43.72500 43.85800 31.16900
H  43.24100 40.82400 30.80800
H  45.15600 42.28600 32.45300
H  45.98500 41.75100 30.99200
H  45.12300 40.62300 32.10100
H  40.80600 42.74900 30.84500
H  41.58800 43.87700 32.04400
H  42.58300 41.77300 32.96400
H  41.22300 40.88300 32.30400
H  46.26900 37.34400 27.99400
H  46.90000 38.84600 28.67200
H  47.75500 38.09600 27.27800
H  46.58200 36.15000 25.63300
H  47.91800 37.25800 25.11500
H  47.02200 36.18900 23.93500
H  42.69500 41.41300 21.33700
H  43.22900 44.34800 21.53500
H  44.82800 43.14200 20.44800
H  44.58200 41.48300 20.00000
H  45.49200 42.01400 21.44000
H  41.25600 43.19600 20.23800
H  40.89600 44.65300 21.07300
H  39.49200 42.21900 21.52000
H  39.29800 43.84100 22.24800
H  40.40100 42.59300 22.91100
H  40.10500 47.40900 24.64000
H  41.76000 47.99400 24.48400
H  40.81300 48.50900 25.86600
H  40.53600 45.29400 30.11900
H  42.80500 46.62000 33.35000
H  41.41000 47.80000 33.60500
H  42.74700 48.14200 32.54800
Mg 36.79400 50.35800 25.32900
C  36.74700 48.54500 28.30500
C  35.23200 52.88700 26.95700
C  36.37300 51.92100 22.35700
C  37.61300 47.39800 23.64900
N  35.91300 50.49900 27.35300
C  36.22000 49.76300 28.49400
C  35.73200 50.40200 29.76300
C  34.95800 51.67600 29.24700
C  35.32900 51.71700 27.79300
C  33.44500 51.77600 29.53900
C  36.86400 50.58100 30.82600
C  36.64800 50.07500 32.23200
H  36.16400 51.16800 33.18900
N  36.07400 52.23400 24.72500
C  35.51900 53.11500 25.59900
C  35.28500 54.38500 24.92600
C  35.55800 54.13100 23.51100
C  35.99400 52.75000 23.45300
C  34.84000 55.65500 25.62100
C  35.40200 54.95700 22.28200
O  35.71300 54.53600 21.18800
C  34.94900 56.44100 22.31500
N  36.82100 49.69100 23.31200
C  36.82300 50.64600 22.28600
C  37.31100 49.98700 20.99300
C  38.05000 48.62800 21.45400
C  37.51200 48.56400 22.85100
C  36.28000 49.84000 19.88700
C  39.57100 48.74300 21.46900
C  40.31000 47.79400 20.47900
N  37.10800 48.33700 25.76200
C  37.35400 47.23200 24.99800
C  37.62600 46.01000 25.83000
C  37.39700 46.51000 27.12900
C  36.97400 47.87500 27.05400
C  38.11800 44.68600 25.35200
C  37.41100 46.19800 28.49200
O  37.90500 45.15100 29.00500
C  36.89600 47.42000 29.27700
C  35.57600 46.98000 29.74200
O  34.64300 46.61900 29.06500
O  35.65500 46.99800 31.15500
C  34.40900 46.67200 31.84900
H  34.83000 53.72700 27.52700
H  36.45200 52.39900 21.37900
H  38.09500 46.60500 23.07400
H  35.00200 49.67200 30.11100
H  35.42200 52.54700 29.71100
H  32.91400 51.95000 28.60300
H  33.34900 52.62700 30.21300
H  32.97400 50.94000 30.05600
H  37.09400 51.64000 30.94400
H  37.80800 50.16200 30.47700
H  37.68000 49.91000 32.54200
H  36.02900 49.18300 32.32900
H  35.20300 56.54200 25.10300
H  35.25000 55.77700 26.62400
H  33.75700 55.54000 25.59900
H  33.99200 56.42100 22.83700
H  34.65100 56.72000 21.30500
H  35.55400 57.21000 22.79600
H  38.10600 50.64200 20.63800
H  37.84600 47.72000 20.88600
H  36.40800 50.64900 19.16700
H  35.29100 49.98600 20.31900
H  36.34400 48.88700 19.36300
H  40.05500 48.53100 22.42300
H  39.90100 49.74900 21.21200
H  40.62300 46.90100 21.01900
H  41.22600 48.27600 20.13800
H  39.67800 47.48100 19.64700
H  38.47800 44.08800 26.19000
H  38.98000 44.71400 24.68600
H  37.34900 44.27000 24.70100
H  37.49100 47.82500 30.09600
H  33.74400 47.50300 31.61500
H  34.57000 46.49300 32.91200
H  33.97500 45.86100 31.26500

