158

Mg 9.36300 4.93800 28.39300
C  10.75200 3.20900 31.11100
C  7.36700 6.59400 30.44200
C  8.10400 6.58900 25.75400
C  11.27400 2.97700 26.15100
N  9.32900 4.99000 30.62900
C  9.91200 4.18900 31.55700
C  9.40200 4.46500 32.96000
C  8.31700 5.59700 32.75800
C  8.26200 5.69000 31.17800
C  6.89200 5.33500 33.44500
C  10.60400 4.90300 33.82300
C  10.31500 5.88100 34.97500
H  11.01100 5.73600 36.34500
N  7.80100 6.34500 28.08700
C  7.12400 6.91000 29.08000
C  6.10600 7.76100 28.49000
C  6.42900 7.86700 27.07700
C  7.47400 6.90700 26.92200
C  5.09200 8.36400 29.41500
C  5.82700 8.71700 26.02300
O  6.22900 8.87800 24.91600
C  4.65900 9.51700 26.50900
N  9.45900 4.61300 26.18200
C  9.00500 5.61100 25.40900
C  9.35900 5.41300 23.97000
C  10.67600 4.49500 24.07600
C  10.48600 3.95300 25.54500
C  8.21300 4.98700 23.06100
C  11.99100 5.26000 23.80000
C  12.28000 6.48200 24.67400
N  10.61700 3.34200 28.55200
C  11.30700 2.62700 27.53900
C  12.06100 1.60800 28.17100
C  11.89600 1.83200 29.55500
C  11.04100 2.89900 29.71700
C  12.77200 0.37000 27.57000
C  12.24400 1.28500 30.83000
O  12.97800 0.30600 31.10100
C  11.51600 2.17500 31.95600
C  10.57900 1.23900 32.65300
O  9.85100 0.46300 32.01900
O  10.88900 1.11400 33.98200
C  10.04000 0.22100 34.66400
H  6.75600 7.28200 31.02900
H  7.92000 7.19900 24.86700
H  11.88700 2.40000 25.45500
H  9.02700 3.51300 33.33500
H  8.75100 6.53700 33.10000
H  6.15200 5.19400 32.65800
H  6.71000 6.20100 34.08200
H  6.97900 4.43300 34.05100
H  11.23200 5.46200 33.13000
H  11.12100 3.99900 34.14300
H  9.28300 6.09800 35.25000
H  10.64900 6.87600 34.68200
H  4.92700 7.80700 30.33700
H  4.12400 8.43000 28.91900
H  5.48100 9.33300 29.72800
H  4.31300 10.12400 25.67300
H  4.86700 10.27100 27.26900
H  3.85400 8.87900 26.87300
H  9.73400 6.39600 23.68600
H  10.60300 3.77200 23.26400
H  8.15100 3.98600 22.63300
H  8.18500 5.71400 22.24900
H  7.26100 5.05800 23.58600
H  11.91500 5.66500 22.79100
H  12.75500 4.48900 23.69900
H  11.48700 6.66300 25.40000
H  12.42100 7.31300 23.98300
H  13.22000 6.25700 25.17900
H  12.07800 -0.05200 26.84300
H  13.06800 -0.35000 28.33300
H  13.68200 0.65100 27.04200
H  12.25700 2.65600 32.59400
H  9.16500 0.63000 35.16800
H  10.62700 -0.19700 35.48200
H  9.82600 -0.63600 34.02600
Mg 49.71700 45.54900 41.07100
C  46.57600 47.23900 40.50300
C  48.36300 42.80900 39.78200
C  52.80400 44.34100 41.11700
C  51.02100 48.82000 41.87700
N  47.61500 45.09600 40.32100
C  46.47700 45.93900 40.12100
C  45.40300 45.20000 39.44700
C  45.95800 43.73100 39.36400
C  47.43300 43.86700 39.81200
C  45.16600 42.61800 40.04000
C  45.08700 45.75600 37.99700
C  43.86500 45.12700 37.32800
H  44.01400 44.11100 36.17700
N  50.51000 43.85700 40.44500
C  49.76600 42.80600 39.97900
C  50.66300 41.69200 39.71000
C  51.93900 42.13800 40.08600
C  51.78600 43.48700 40.56200
C  50.28800 40.38900 38.99500
C  53.25200 41.34400 39.91400
O  53.22800 40.17400 39.58500
C  54.58900 42.00100 40.03600
N  51.57500 46.40700 41.48700
C  52.70000 45.62800 41.57500
C  53.96900 46.51800 41.89300
C  53.39000 47.91100 41.85800
C  51.93100 47.69100 41.83000
C  54.80800 46.09800 43.26800
C  53.95200 48.86200 40.67800
C  54.76900 50.05000 41.23000
N  48.97600 47.54300 41.35500
C  49.60700 48.73200 41.68700
C  48.76500 49.81900 41.83400
C  47.46000 49.28200 41.42100
C  47.69000 47.92100 41.15600
C  49.12900 51.16800 42.32800
C  46.07300 49.54400 41.21000
O  45.39100 50.49800 41.51500
C  45.55100 48.35400 40.35300
C  44.27600 47.96400 40.96900
O  44.12600 47.14100 41.89200
O  43.26500 48.40200 40.13100
C  41.94900 48.28500 40.78800
H  47.96100 41.86600 39.40600
H  53.84500 44.01400 41.11300
H  51.52000 49.71000 42.26600
H  44.52000 45.18900 40.08500
H  45.98500 43.30500 38.36200
H  44.12600 42.93400 39.95900
H  45.39200 42.49000 41.09900
H  45.33600 41.62500 39.62300
H  45.89800 45.53500 37.30400
H  44.80800 46.81000 37.97400
H  43.24000 45.99400 37.11200
H  43.24600 44.67100 38.10100
H  49.23600 40.10800 39.05100
H  50.80700 39.53400 39.42800
H  50.57200 40.52500 37.95200
H  54.92400 42.19900 41.05500
H  54.61300 42.87400 39.38400
H  55.24600 41.27200 39.56200
H  54.66900 46.35500 41.07400
H  53.50800 48.33700 42.85400
H  54.53600 45.11900 43.66300
H  54.56100 46.72700 44.12200
H  55.88700 46.16500 43.12600
H  53.10100 49.29500 40.15200
H  54.57900 48.28700 39.99800
H  54.43200 51.05200 40.96500
H  55.78200 50.12500 40.83300
H  54.89200 50.06600 42.31300
H  50.09600 51.47200 41.92700
H  49.14100 51.26400 43.41400
H  48.48800 51.96100 41.94400
H  45.40600 48.87000 39.40400
H  41.47900 47.45200 40.26600
H  41.36000 49.19100 40.64700
H  41.99500 47.99200 41.83700

