158

Mg 17.21500 -1.81800 28.11800
C  16.25300 0.02000 30.96500
C  19.37500 -3.62900 30.26400
C  18.86800 -3.08800 25.47100
C  15.59000 0.44800 26.02800
N  17.88600 -1.68900 30.35200
C  17.25200 -0.94000 31.31500
C  17.69400 -1.31800 32.73800
C  18.83400 -2.37500 32.51600
C  18.71600 -2.62400 30.96300
C  20.27500 -1.95800 32.93500
C  16.59900 -1.89900 33.68600
C  16.36600 -1.07400 34.96100
H  17.57400 -0.64500 35.82400
N  18.77100 -3.28600 27.83300
C  19.48000 -3.95500 28.82600
C  20.35300 -4.93900 28.27700
C  20.25600 -4.74800 26.85400
C  19.25500 -3.71300 26.68900
C  21.19400 -5.91800 29.01000
C  20.86100 -5.49400 25.70700
O  20.50800 -5.34600 24.52800
C  21.88800 -6.51400 25.95900
N  17.23500 -1.37500 26.08500
C  17.92500 -2.06200 25.17700
C  17.60600 -1.65100 23.72500
C  16.32300 -0.82000 23.91900
C  16.41400 -0.53000 25.40000
C  18.83400 -0.85200 23.13000
C  15.00200 -1.61400 23.47300
C  14.36200 -1.36800 22.08100
N  16.12300 -0.05100 28.40900
C  15.49500 0.72800 27.43500
C  14.76200 1.73000 28.20200
C  14.90700 1.43000 29.52100
C  15.83800 0.43100 29.61900
C  13.89900 2.77300 27.63700
C  14.45000 1.75800 30.82800
O  13.59400 2.53800 31.19400
C  15.33500 0.92700 31.79800
C  16.17100 1.93000 32.45800
O  17.23700 2.37000 32.03900
O  15.49200 2.37600 33.57200
C  16.08600 3.35500 34.48100
H  19.97500 -4.21900 30.96000
H  19.42800 -3.39100 24.58400
H  14.93600 0.96800 25.32500
H  18.02400 -0.37200 33.16700
H  18.42500 -3.31000 32.90100
H  21.05300 -2.06600 32.17900
H  20.56900 -2.50100 33.83300
H  20.35800 -0.95500 33.35400
H  16.77700 -2.91900 34.02700
H  15.66400 -1.92300 33.12500
H  15.80500 -1.68900 35.66500
H  15.74400 -0.19700 34.78000
H  20.93000 -6.94900 28.77600
H  20.98900 -5.90800 30.08100
H  22.21000 -5.54100 28.89400
H  22.30700 -6.81100 24.99800
H  21.25800 -7.25400 26.45300
H  22.64100 -6.04400 26.59200
H  17.38400 -2.54900 23.14900
H  16.45300 0.10600 23.35900
H  19.77900 -0.83800 23.67400
H  18.50100 0.17300 22.96600
H  19.00700 -1.34300 22.17200
H  14.21800 -1.27600 24.15100
H  15.17400 -2.67900 23.62600
H  13.57900 -2.10900 21.91900
H  15.17700 -1.43100 21.36000
H  13.99000 -0.34400 22.10600
H  14.40200 3.74000 27.62300
H  13.10300 2.82500 28.37900
H  13.37000 2.48500 26.72900
H  14.70800 0.43700 32.54300
H  15.33400 3.68900 35.19600
H  16.51600 4.23300 33.99900
H  16.92500 2.88000 34.98900
Mg 40.39600 9.24500 29.76400
C  41.96700 10.85400 32.21000
C  38.17700 7.89900 31.93500
C  38.78200 7.99600 27.10800
C  42.94000 10.22400 27.49100
N  40.22700 9.29900 31.90400
C  40.87700 10.15700 32.70800
C  40.39700 9.98600 34.13300
C  39.26700 8.91600 34.05400
C  39.19000 8.65300 32.54300
C  39.43400 7.58200 34.74600
C  40.04200 11.39500 34.71200
C  39.23200 11.50800 35.96400
H  39.67800 12.41900 37.06100
N  38.66500 8.15300 29.51800
C  37.86700 7.66300 30.61100
C  36.72000 6.96700 30.02000
C  36.84900 7.06200 28.58900
C  38.14400 7.71400 28.38300
C  35.50200 6.46500 30.88300
C  35.82600 6.71600 27.46900
O  36.07700 6.63000 26.27800
C  34.41100 6.41700 27.91600
N  40.91200 9.00500 27.66200
C  40.00700 8.47900 26.78900
C  40.49100 8.52100 25.29000
C  41.97200 9.12300 25.42500
C  41.90800 9.49800 26.92800
C  40.37900 7.27300 24.41100
C  42.28200 10.29000 24.40600
C  41.85200 11.74900 24.62800
N  42.13000 10.25900 29.74000
C  43.05800 10.67300 28.81200
C  44.07500 11.44000 29.42200
C  43.74500 11.50200 30.74400
C  42.51800 10.85200 30.86000
C  45.39200 11.92700 28.73800
C  44.12500 12.05900 32.02800
O  45.10700 12.68300 32.39000
C  42.92600 11.69400 33.09600
C  43.58400 10.95300 34.19300
O  43.99000 9.82100 34.17200
O  43.65500 11.79800 35.24900
C  44.03400 11.14500 36.54400
H  37.58800 7.49800 32.76200
H  38.21200 7.70300 26.22400
H  43.65200 10.64900 26.78100
H  41.24400 9.61100 34.70700
H  38.31600 9.40700 34.26100
H  38.45700 7.39700 35.19100
H  40.24600 7.63300 35.47100
H  39.76800 6.74800 34.12800
H  39.50100 11.90900 33.91700
H  40.95200 11.99300 34.75700
H  39.16000 10.55300 36.48500
H  38.25000 11.89100 35.68800
H  35.69600 6.51100 31.95500
H  35.31000 5.47600 30.46800
H  34.67500 7.13400 30.64700
H  33.96600 7.15900 28.58000
H  34.24300 5.47400 28.43700
H  33.82500 6.44300 26.99700
H  39.84100 9.22500 24.77000
H  42.67000 8.28900 25.49000
H  41.34500 6.77400 24.48600
H  40.18100 7.58500 23.38500
H  39.55600 6.60400 24.66000
H  41.72800 10.08000 23.49100
H  43.35300 10.40000 24.23300
H  41.24700 12.07700 23.78300
H  42.73200 12.39100 24.65200
H  41.22600 11.76900 25.52100
H  46.24000 11.92300 29.42300
H  45.37800 12.94900 28.35900
H  45.64300 11.31700 27.87000
H  42.59200 12.70400 33.33300
H  43.24000 11.34900 37.26300
H  44.98600 11.54100 36.89700
H  44.16400 10.06400 36.58400

