158

Mg 16.90600 -1.59400 28.26300
C  15.50400 0.27400 30.99500
C  19.00600 -3.16300 30.61300
C  18.17200 -3.29200 25.78900
C  14.97900 0.32600 26.13000
N  17.26300 -1.37700 30.62000
C  16.56600 -0.57800 31.52600
C  17.07000 -0.85000 32.98600
C  18.34000 -1.68700 32.70300
C  18.13300 -2.18200 31.21100
C  19.70300 -1.07700 33.06400
C  15.93800 -1.64200 33.78300
C  16.08300 -1.70300 35.38600
H  17.15900 -0.82000 36.14400
N  18.31100 -3.11200 28.19100
C  19.07500 -3.63400 29.25800
C  19.87700 -4.71200 28.70700
C  19.64400 -4.77800 27.31000
C  18.65900 -3.72600 27.06100
C  20.77000 -5.54800 29.55900
C  20.21300 -5.65200 26.15600
O  19.70100 -5.67600 24.99000
C  21.32600 -6.65200 26.40600
N  16.63000 -1.45100 26.19300
C  17.31700 -2.22200 25.38200
C  16.95700 -2.03600 23.89500
C  15.88500 -0.85300 24.04500
C  15.77300 -0.60200 25.54600
C  18.18100 -1.63900 22.90800
C  14.54100 -1.21900 23.29700
C  14.47500 -0.81500 21.83600
N  15.60900 0.00700 28.40000
C  14.81500 0.62500 27.44700
C  13.88900 1.54700 28.06700
C  14.17900 1.39100 29.43800
C  15.17600 0.46300 29.59400
C  12.96800 2.55700 27.47900
C  13.76500 1.89600 30.78000
O  12.90600 2.72600 31.06200
C  14.67600 1.22800 31.84200
C  15.47100 2.30300 32.49000
O  16.06900 3.22400 31.89000
O  15.33900 2.33400 33.82300
C  16.13100 3.30900 34.59600
H  19.67700 -3.62800 31.33800
H  18.38300 -3.86800 24.88500
H  14.38000 1.02400 25.54100
H  17.29700 0.09500 33.48000
H  18.28700 -2.63800 33.23300
H  20.35800 -1.11700 32.19400
H  20.16900 -1.65400 33.86300
H  19.46100 -0.08900 33.45600
H  15.89800 -2.65000 33.37000
H  14.95500 -1.20300 33.60800
H  16.28400 -2.74700 35.62400
H  15.19900 -1.46400 35.97800
H  21.75200 -5.16000 29.28900
H  20.57700 -6.55600 29.19400
H  20.58400 -5.43500 30.62800
H  21.60900 -7.05200 25.43200
H  20.90500 -7.44200 27.02800
H  22.10000 -6.01600 26.83300
H  16.45700 -2.92100 23.50100
H  16.21100 0.09300 23.61300
H  17.90100 -0.88800 22.17000
H  18.49600 -2.56600 22.42900
H  18.96700 -1.18300 23.51100
H  13.64200 -0.78500 23.73500
H  14.46000 -2.30400 23.36600
H  13.52800 -0.32600 21.60700
H  14.55000 -1.68100 21.17900
H  15.33700 -0.22100 21.53200
H  12.95400 2.41000 26.39900
H  13.44300 3.51000 27.71200
H  11.96100 2.52500 27.89400
H  14.05400 0.81100 32.63500
H  17.11700 3.48800 34.16600
H  16.18600 3.01000 35.64300
H  15.53600 4.21400 34.71600
Mg 5.04300 54.56000 39.90800
C  5.46700 51.02800 39.26000
C  8.21900 54.98300 38.63400
C  4.45300 57.86800 39.84500
C  1.75000 53.99100 40.74700
N  6.64000 53.08200 38.86400
C  6.61700 51.74200 38.83600
C  7.98200 51.17400 38.42400
C  8.93000 52.48700 38.54400
C  7.83300 53.63700 38.57800
C  10.01600 52.40600 39.70100
C  7.99100 50.31000 37.07200
C  8.69300 50.86700 35.79800
H  7.85100 50.75700 34.50600
N  6.16700 56.13900 39.35300
C  7.49800 56.13000 38.93800
C  8.03900 57.47600 38.80400
C  6.91900 58.34400 38.97100
C  5.75300 57.45400 39.39300
C  9.49700 57.75400 38.41100
C  6.96200 59.75400 38.72000
O  7.97200 60.30600 38.29000
C  5.69400 60.74100 38.66900
N  3.36500 55.68800 40.23800
C  3.36900 57.05000 40.21600
C  2.04400 57.58300 40.61500
C  1.06800 56.45300 40.62700
C  2.09900 55.27100 40.57200
C  2.07500 58.36300 41.92200
C  0.06700 56.35700 39.50400
C  -0.75600 57.60100 39.38400
N  3.81500 52.94900 40.06500
C  2.58600 52.85700 40.51700
C  2.28700 51.45200 40.72900
C  3.41200 50.70100 40.24600
C  4.31800 51.65900 39.84700
C  0.96300 50.97300 41.21500
C  3.97800 49.38400 40.05800
O  3.44500 48.30500 40.29100
C  5.35200 49.52900 39.41600
C  5.22700 48.84300 38.07800
O  4.47300 49.24000 37.20500
O  5.90000 47.61600 37.96800
C  5.52800 46.76400 36.89100
H  9.26300 55.15900 38.36200
H  4.32400 58.95200 39.86100
H  0.70500 53.85400 41.03400
H  8.31900 50.47000 39.18500
H  9.48500 52.62200 37.61600
H  10.01000 51.44600 40.21800
H  9.89100 53.09700 40.53500
H  11.05200 52.55300 39.39800
H  6.95300 50.10100 36.81300
H  8.36000 49.29300 37.19700
H  9.58300 50.24600 35.69800
H  8.90500 51.93500 35.73700
H  10.21600 56.98900 38.70200
H  9.75800 58.61700 39.02300
H  9.71300 57.93700 37.35800
H  6.14400 61.66700 38.31000
H  5.35500 60.74200 39.70500
H  5.02000 60.30800 37.93000
H  1.74700 58.25500 39.81000
H  0.62000 56.24100 41.59800
H  1.62800 59.31900 41.65000
H  3.13000 58.57000 42.10200
H  1.64200 57.82600 42.76600
H  -0.52700 55.50300 39.83200
H  0.68900 56.20400 38.62200
H  -0.38000 58.51700 39.83900
H  -1.79400 57.42500 39.66600
H  -0.78200 57.74100 38.30300
H  0.14700 51.64800 40.95800
H  1.04000 50.66100 42.25600
H  0.88600 50.07200 40.60700
H  6.15500 49.03200 39.96100
H  4.78000 46.14100 37.38100
H  6.45100 46.23200 36.66300
H  5.29900 47.28200 35.96000

