158

Mg 47.02500 16.13300 28.07000
C  44.75200 15.84800 30.74100
C  49.22100 17.99700 30.09800
C  48.81700 17.04200 25.36200
C  44.44700 15.12100 25.94100
N  47.00600 16.88000 30.20200
C  46.05300 16.49100 31.10900
C  46.38400 17.00500 32.49300
C  47.76000 17.70500 32.29900
C  48.03000 17.60500 30.73300
C  48.01700 19.21800 32.61200
C  46.47700 15.83700 33.49900
C  45.76200 15.95600 34.83500
H  45.25400 17.40900 35.32400
N  48.92100 17.13800 27.79700
C  49.73200 17.73300 28.73800
C  50.96000 18.06600 28.17300
C  50.88700 17.83800 26.74300
C  49.49200 17.28200 26.56800
C  52.16900 18.62200 28.92100
C  51.92100 18.07000 25.61500
O  51.72900 17.81800 24.43000
C  53.22300 18.63400 25.95900
N  46.70000 16.06700 25.95000
C  47.56900 16.51400 25.04100
C  46.96900 16.47600 23.61900
C  45.77000 15.59600 23.82800
C  45.62700 15.57100 25.32200
C  46.61200 17.90900 23.13700
C  45.98100 14.20800 23.25200
C  44.76100 13.69900 22.52400
N  45.00200 15.63700 28.18700
C  44.11500 15.16500 27.29500
C  42.93700 14.59300 27.98100
C  43.16100 14.84500 29.27900
C  44.44100 15.47000 29.40800
C  41.70100 14.09200 27.36900
C  42.49700 14.80200 30.55300
O  41.38600 14.35700 30.87300
C  43.50900 15.42200 31.57800
C  42.87700 16.57600 32.25500
O  42.72700 17.66300 31.69100
O  42.37800 16.22700 33.47300
C  41.39400 17.14600 34.05700
H  49.95000 18.46600 30.76300
H  49.48100 17.25600 24.52100
H  43.63000 14.77700 25.30300
H  45.59900 17.59200 32.97100
H  48.60600 17.29200 32.84900
H  47.16100 19.64800 33.13200
H  48.23500 19.88300 31.77600
H  48.89100 19.30600 33.25800
H  47.50000 15.46200 33.53700
H  45.96000 15.00800 33.01700
H  46.34400 15.40200 35.57200
H  44.81300 15.42900 34.74000
H  53.06400 18.07300 28.62600
H  51.97800 18.58200 29.99400
H  52.29000 19.70100 28.83300
H  53.79000 17.84300 26.45100
H  53.07500 19.53500 26.55400
H  53.67600 18.94500 25.01800
H  47.75300 16.10700 22.95700
H  44.85900 15.95400 23.34700
H  45.55000 18.05600 22.94400
H  47.24200 18.19800 22.29500
H  46.98500 18.52300 23.95600
H  46.20200 13.52600 24.07300
H  46.84000 14.09100 22.59100
H  43.85300 13.98500 23.05500
H  44.59300 12.62300 22.57300
H  44.80600 14.00900 21.48000
H  41.02100 13.83200 28.18100
H  41.74200 13.20500 26.73800
H  41.07000 14.84800 26.90200
H  43.88600 14.69000 32.29300
H  40.40000 16.88600 33.69300
H  41.60900 18.15400 33.70100
H  41.28900 17.09000 35.14000
Mg 43.07300 41.63900 25.95400
C  42.45300 44.02000 28.58200
C  43.86700 39.41200 28.27400
C  44.19800 39.75000 23.44800
C  42.55900 44.27200 23.68800
N  43.24400 41.74900 28.19400
C  42.80500 42.75700 29.07000
C  43.13600 42.36700 30.52000
C  43.59300 40.85700 30.43000
C  43.53200 40.60700 28.86800
C  44.94800 40.50900 31.06200
C  41.90000 42.44800 31.41800
C  42.09300 41.87500 32.85900
H  41.92700 42.83000 34.06000
N  43.96400 39.72700 25.87000
C  44.12700 38.95100 26.92100
C  44.66800 37.68400 26.47800
C  44.81300 37.77200 25.04300
C  44.36200 39.11500 24.72100
C  45.00000 36.56200 27.51200
C  45.04100 36.74800 24.02800
O  45.08600 36.96600 22.84900
C  45.36800 35.33900 24.57300
N  43.58200 42.04500 23.89500
C  43.97100 41.03600 23.04100
C  43.94300 41.49500 21.52500
C  43.20500 42.91800 21.66400
C  43.11000 43.12200 23.18200
C  45.29500 41.65300 20.83600
C  41.82700 42.87300 21.00300
C  40.79600 41.90700 21.58600
N  42.52000 43.66800 26.03400
C  42.36600 44.55500 25.03500
C  41.97600 45.85500 25.56700
C  41.92300 45.61800 26.95800
C  42.36000 44.32600 27.17300
C  41.63300 47.15000 24.86100
C  41.68000 46.26200 28.28600
O  41.29900 47.37500 28.61000
C  41.91700 45.22300 29.35800
C  42.80700 45.76900 30.36300
O  44.03500 45.76700 30.30600
O  42.09900 46.37900 31.39000
C  42.88600 46.73100 32.53100
H  44.03300 38.58900 28.97200
H  44.43900 39.15100 22.56600
H  42.35700 45.02600 22.92400
H  43.97600 42.99500 30.81800
H  42.93900 40.13700 30.92300
H  44.85700 39.63400 31.70400
H  45.39000 41.36500 31.57200
H  45.71100 40.18800 30.35300
H  41.11300 41.78900 31.05300
H  41.40700 43.42000 31.44000
H  43.04200 41.33900 32.85900
H  41.41900 41.03800 33.04100
H  44.51200 35.64000 27.19800
H  44.71300 36.73000 28.55000
H  46.07100 36.36600 27.46500
H  46.04800 35.31700 25.42500
H  45.80800 34.85500 23.70200
H  44.41700 34.88900 24.85900
H  43.39000 40.63900 21.13900
H  43.78200 43.79600 21.37400
H  45.33700 40.86100 20.08800
H  46.17100 41.62500 21.48300
H  45.32000 42.59100 20.28200
H  42.07200 42.59200 19.97900
H  41.48800 43.90800 21.02500
H  40.16000 42.48000 22.26100
H  41.24200 41.03900 22.07100
H  40.12600 41.49500 20.83100
H  42.40600 47.13500 24.09300
H  41.85800 47.93700 25.58100
H  40.69100 47.17400 24.31300
H  40.93400 45.07600 29.80600
H  43.39500 47.65300 32.25300
H  43.55100 45.94300 32.88500
H  42.08600 46.99800 33.22100

