158

Mg -1.93800 17.82300 26.89600
C  -2.55900 15.72100 29.77200
C  -2.52200 20.54600 28.81200
C  -1.66400 19.54500 24.17300
C  -2.31700 14.85200 25.00700
N  -2.48000 18.07400 29.00900
C  -2.53800 17.12100 30.03700
C  -2.62200 17.96800 31.31400
C  -3.31000 19.30600 30.89400
C  -2.76200 19.37400 29.44500
C  -4.86200 19.09300 30.81900
C  -1.32000 18.02900 32.15900
C  -1.48300 18.27600 33.66400
H  -0.91900 17.29000 34.65800
N  -1.85800 19.79800 26.57000
C  -2.03600 20.81900 27.50000
C  -1.85900 22.06500 26.96000
C  -1.57700 21.82900 25.56200
C  -1.63400 20.28400 25.38000
C  -2.14500 23.34700 27.63200
C  -1.22700 22.73900 24.45200
O  -1.06200 22.35400 23.29600
C  -1.10000 24.23600 24.76300
N  -2.00800 17.25300 24.90800
C  -1.86700 18.17900 23.93000
C  -2.16300 17.70300 22.47700
C  -2.11500 16.19900 22.75500
C  -2.14600 16.06100 24.30600
C  -3.56200 18.30300 21.97200
C  -0.87400 15.40100 22.23600
C  0.46900 15.50700 22.99300
N  -2.29800 15.69200 27.27300
C  -2.32700 14.64200 26.40300
C  -2.55500 13.39500 27.14200
C  -2.63800 13.81000 28.43000
C  -2.46800 15.20200 28.48700
C  -2.62800 11.97000 26.59600
C  -2.75700 13.32100 29.80800
O  -2.87700 12.18700 30.25000
C  -2.74500 14.55500 30.70900
C  -1.58900 14.37700 31.67200
O  -0.42100 14.54100 31.45100
O  -2.11400 13.91100 32.83700
C  -1.17500 13.40200 33.87400
H  -2.76400 21.36300 29.49500
H  -1.68400 20.10300 23.23500
H  -2.28900 13.93500 24.41400
H  -3.26500 17.49700 32.05800
H  -3.01400 20.10800 31.57000
H  -5.24600 19.33600 29.82800
H  -5.25900 19.87700 31.46400
H  -5.29000 18.13400 31.11200
H  -0.73400 18.80300 31.66400
H  -0.72500 17.15100 31.90500
H  -2.49900 18.42600 34.02800
H  -1.01400 19.25200 33.79300
H  -2.23000 23.28200 28.71700
H  -3.07100 23.69600 27.17600
H  -1.37300 24.05500 27.32900
H  -0.48200 24.54000 25.60800
H  -2.14300 24.39600 25.03600
H  -0.70400 24.76300 23.89500
H  -1.36400 17.84300 21.74900
H  -3.01600 15.71600 22.37800
H  -3.38600 18.97000 21.12900
H  -4.04400 18.87700 22.76400
H  -4.22800 17.54600 21.55500
H  -0.63400 15.91200 21.30400
H  -0.97500 14.34400 21.98900
H  0.85100 14.49000 23.09100
H  0.38100 15.85400 24.02200
H  1.15800 16.15600 22.45300
H  -2.81300 12.12400 25.53200
H  -3.49300 11.52100 27.08400
H  -1.71200 11.38100 26.65200
H  -3.63600 14.58300 31.33600
H  -0.80400 12.40100 33.65300
H  -1.62100 13.38600 34.86800
H  -0.29100 14.03600 33.92800
Mg 48.06600 24.90500 28.36800
C  48.74800 27.18500 30.98500
C  47.26500 22.71400 30.88300
C  47.56900 22.81200 26.00100
C  48.95700 27.41900 26.08900
N  47.94400 24.98400 30.68700
C  48.11100 26.03500 31.49900
C  47.80200 25.73200 32.95500
C  47.50800 24.19000 32.97900
C  47.61500 23.93100 31.41400
C  48.47800 23.26900 33.86600
C  46.61600 26.67700 33.30500
C  46.01600 26.61000 34.73100
H  46.21200 27.81300 35.70900
N  47.46600 23.02000 28.41100
C  47.13900 22.25600 29.51100
C  46.67900 20.97600 29.04200
C  46.56400 21.09800 27.65100
C  47.20300 22.33600 27.27400
C  46.27700 19.86000 30.04700
C  46.06400 20.10200 26.60200
O  46.09600 20.34700 25.39900
C  45.31000 18.82900 26.89000
N  48.18300 25.15500 26.34300
C  47.89200 24.09600 25.56500
C  48.17600 24.39500 24.08200
C  48.51900 25.93800 24.06700
C  48.54700 26.15000 25.60000
C  49.39100 23.63300 23.47300
C  47.58700 26.88100 23.26300
C  48.06700 27.20100 21.87500
N  48.80100 26.85500 28.47600
C  49.05200 27.75800 27.42900
C  49.55500 28.94800 27.93500
C  49.39700 28.78500 29.33600
C  48.91800 27.48400 29.60100
C  50.22000 30.10400 27.16800
C  49.76500 29.47200 30.55400
O  50.35500 30.47400 30.75600
C  49.26700 28.43900 31.67600
C  50.40200 28.19600 32.57000
O  51.18900 27.27400 32.47100
O  50.38600 29.13400 33.54000
C  51.19200 28.77800 34.74400
H  46.92300 21.98300 31.61900
H  47.55300 22.12600 25.15100
H  49.20900 28.26000 25.43900
H  48.65400 25.86200 33.62200
H  46.49300 23.96200 33.30500
H  49.34900 23.83800 34.19300
H  48.75300 22.31400 33.41800
H  47.87400 23.07000 34.75200
H  45.75000 26.48600 32.67300
H  47.00300 27.69600 33.27700
H  46.34400 25.68200 35.19900
H  44.93500 26.48400 34.67100
H  46.49300 18.87400 29.63500
H  45.22600 19.89000 30.33500
H  46.96300 19.86400 30.89400
H  46.06500 18.25000 27.42200
H  45.04600 18.35300 25.94600
H  44.52100 19.03000 27.61500
H  47.27900 24.29600 23.47100
H  49.56500 26.17300 23.87000
H  50.17600 24.16400 22.93400
H  48.98100 22.82700 22.86400
H  49.91300 23.20100 24.32700
H  47.33900 27.78700 23.81500
H  46.64500 26.34700 23.13900
H  49.09600 26.84500 21.81700
H  48.01100 28.25100 21.59000
H  47.47600 26.67600 21.12500
H  51.16300 30.32200 27.66900
H  49.64500 31.02400 27.27400
H  50.40400 29.89600 26.11400
H  48.44400 28.98000 32.14300
H  51.38300 29.60300 35.43100
H  52.17900 28.39100 34.49200
H  50.66000 27.98500 35.27100

