158

Mg -1.82900 16.92900 26.56800
C  -2.55000 14.75000 29.27100
C  -2.36000 19.54300 28.77800
C  -1.70900 18.97400 23.96100
C  -2.16000 14.26400 24.34600
N  -2.59200 17.06900 28.88600
C  -2.57300 16.09400 29.81100
C  -2.65800 16.73700 31.17300
C  -2.79700 18.24100 30.93500
C  -2.67700 18.30400 29.42000
C  -4.10900 18.77800 31.48300
C  -1.40200 16.32900 31.97100
C  -1.02700 17.08700 33.21200
H  -0.64200 16.25700 34.42300
N  -1.94700 19.00500 26.39700
C  -2.12000 19.89400 27.39600
C  -1.96400 21.23500 26.87600
C  -1.65300 21.06200 25.49600
C  -1.73000 19.63200 25.20800
C  -1.92200 22.48100 27.75000
C  -1.39800 22.11400 24.37200
O  -1.11200 21.77600 23.21500
C  -1.47200 23.57200 24.62600
N  -1.89100 16.66900 24.38500
C  -1.84200 17.64200 23.53600
C  -2.05900 17.12500 22.10300
C  -1.89300 15.60900 22.25700
C  -1.95200 15.46300 23.73900
C  -3.38500 17.49300 21.47500
C  -0.59500 14.99600 21.73800
C  -0.69100 13.91500 20.66300
N  -2.18500 14.87600 26.71700
C  -2.27600 13.96300 25.70300
C  -2.42000 12.62800 26.31600
C  -2.56000 12.93100 27.66500
C  -2.46700 14.29700 27.89200
C  -2.45600 11.36400 25.56600
C  -2.68700 12.32900 28.99900
O  -2.80500 11.17900 29.36300
C  -2.64600 13.47200 30.02600
C  -1.66000 13.23100 31.01300
O  -0.46100 13.49000 30.87900
O  -2.24400 12.61900 32.09000
C  -1.40000 12.35500 33.24800
H  -2.34900 20.32000 29.54500
H  -1.68800 19.53300 23.02300
H  -2.01800 13.41500 23.67300
H  -3.52700 16.29000 31.65800
H  -2.05000 18.89500 31.38400
H  -4.95400 18.09500 31.39600
H  -4.30300 19.63300 30.83600
H  -3.90500 19.14100 32.49000
H  -0.56800 16.32400 31.26800
H  -1.50600 15.27400 32.22300
H  -1.93100 17.66100 33.41600
H  -0.11800 17.60000 32.89800
H  -1.02200 23.04900 27.51100
H  -1.80900 22.28200 28.81600
H  -2.78000 23.13300 27.58700
H  -0.61000 23.99300 25.14200
H  -2.43100 23.72100 25.12300
H  -1.70500 24.12800 23.71800
H  -1.33700 17.58900 21.43100
H  -2.77600 15.11100 21.85500
H  -3.34600 17.53400 20.38600
H  -3.65800 18.46500 21.88500
H  -4.21800 16.80000 21.59900
H  0.01600 14.59000 22.54400
H  0.09800 15.73400 21.33300
H  -0.45900 14.33600 19.68500
H  -1.63500 13.37100 20.68500
H  0.02700 13.10500 20.79500
H  -1.68100 11.32200 24.80100
H  -3.46600 11.23300 25.17800
H  -2.18300 10.55200 26.24000
H  -3.64000 13.53900 30.46800
H  -1.36400 13.06100 34.07800
H  -0.38500 12.10300 32.94000
H  -1.78800 11.43500 33.68400
Mg 16.89200 -2.19000 27.92300
C  15.72300 0.00000 30.44300
C  19.14900 -3.55600 30.11000
C  18.13800 -3.96100 25.42200
C  14.70300 -0.55000 25.67100
N  17.37200 -1.81300 30.02100
C  16.77000 -0.87500 30.89600
C  17.37800 -0.96100 32.28500
C  18.51000 -2.09600 32.18300
C  18.43800 -2.48000 30.64500
C  19.96000 -1.52500 32.55800
C  16.27100 -1.33600 33.27700
C  16.32000 -1.04800 34.76800
H  17.57300 -0.31400 35.29500
N  18.35000 -3.64000 27.77300
C  19.07500 -4.13500 28.84200
C  19.83900 -5.28600 28.36300
C  19.50200 -5.46400 26.97900
C  18.60900 -4.35000 26.68800
C  20.88900 -6.15900 29.08800
C  20.12800 -6.45200 25.91000
O  19.97500 -6.34700 24.69800
C  20.96900 -7.64100 26.34500
N  16.50000 -2.34900 25.81700
C  17.24400 -3.02400 24.99300
C  17.01500 -2.59400 23.51700
C  15.68800 -1.81400 23.70100
C  15.63200 -1.51800 25.14000
C  18.19300 -1.78300 22.99200
C  14.49200 -2.64600 23.12100
C  13.66700 -1.91400 21.99600
N  15.57100 -0.56700 27.98200
C  14.70900 -0.03600 27.02900
C  13.84100 0.94500 27.57400
C  14.29300 1.11500 28.85000
C  15.18200 0.06500 29.09800
C  12.75700 1.72100 26.95000
C  14.09400 1.82500 30.11700
O  13.27500 2.68900 30.44600
C  15.08200 1.13300 31.15600
C  16.06500 2.18100 31.78300
O  17.23500 2.30600 31.45200
O  15.44700 2.79000 32.83700
C  16.31400 3.75800 33.56600
H  19.79100 -4.01900 30.86200
H  18.57000 -4.52100 24.58900
H  13.92600 -0.16700 25.00600
H  17.71600 0.00500 32.66000
H  18.32200 -3.01400 32.73800
H  19.99600 -0.47700 32.85500
H  20.66900 -1.78100 31.77000
H  20.34800 -2.05100 33.43100
H  16.22900 -2.42500 33.25000
H  15.25000 -1.10300 32.97500
H  16.16700 -1.91400 35.41200
H  15.46100 -0.40900 34.97200
H  20.46500 -7.16000 29.16500
H  21.13400 -5.72800 30.05900
H  21.86600 -6.29600 28.62300
H  21.74400 -7.47300 27.09300
H  21.45100 -8.12900 25.49800
H  20.30500 -8.42400 26.71300
H  16.85700 -3.46500 22.88100
H  15.74900 -0.82700 23.24200
H  18.78400 -2.47800 22.39500
H  18.74800 -1.51100 23.88900
H  17.97000 -0.93900 22.33900
H  13.72500 -2.79500 23.88100
H  14.80600 -3.63000 22.77300
H  14.10700 -0.93800 21.79300
H  12.62600 -1.85300 22.31200
H  13.67300 -2.41200 21.02600
H  12.31200 1.25500 26.07200
H  13.21700 2.63600 26.57800
H  11.95300 1.84600 27.67600
H  14.38700 0.67600 31.86000
H  16.74300 4.36600 32.77000
H  17.04700 3.20000 34.14800
H  15.63200 4.32700 34.19700

