158

Mg 29.42100 57.92800 40.43100
C  26.48800 56.05400 39.41700
C  31.34900 55.42700 39.09300
C  31.94800 59.89500 41.00200
C  27.15400 60.59300 41.07000
N  28.87500 56.02700 39.22800
C  27.70500 55.39000 39.02800
C  27.88100 53.96300 38.62700
C  29.38900 53.81200 38.52500
C  29.95100 55.21900 39.02000
C  30.02200 52.57600 39.22500
C  27.15900 53.40700 37.21300
C  26.88400 54.41400 36.11600
H  27.77900 54.34900 34.83900
N  31.41700 57.71800 40.19500
C  32.03800 56.63700 39.51100
C  33.40500 56.88800 39.37200
C  33.64000 58.14000 39.89300
C  32.36700 58.67600 40.44800
C  34.43200 55.90700 38.73200
C  35.04100 58.80500 40.11300
O  36.03900 58.25500 39.63500
C  35.19900 60.12700 40.83400
N  29.51800 60.01600 41.03700
C  30.73900 60.59100 41.25700
C  30.62200 62.10300 41.64200
C  29.11400 62.18000 41.80000
C  28.55000 60.85600 41.22600
C  31.36200 62.59300 42.97600
C  28.48100 63.45300 41.22400
C  27.45600 64.19000 42.14400
N  27.28000 58.32700 40.27000
C  26.57400 59.40100 40.68200
C  25.14200 59.11600 40.76500
C  25.10100 57.73000 40.36500
C  26.41400 57.35700 39.98600
C  24.15300 60.03800 41.39700
C  24.21800 56.57700 40.17500
O  23.04800 56.45700 40.40300
C  25.10600 55.43300 39.54100
C  25.00300 54.29800 40.49200
O  25.45800 54.39800 41.66200
O  24.49000 53.16400 39.88500
C  24.70900 51.91700 40.66000
H  31.95600 54.57900 38.76800
H  32.72400 60.62600 41.24200
H  26.45300 61.39800 41.30000
H  27.48300 53.36200 39.44500
H  29.65800 53.66700 37.47800
H  30.71800 53.00100 39.94900
H  30.55900 51.89400 38.56600
H  29.21200 52.08200 39.76200
H  26.19400 52.93700 37.40300
H  27.89200 52.70700 36.81000
H  26.84800 55.45600 36.43400
H  25.92800 54.15000 35.66300
H  34.96400 56.37000 37.90100
H  33.85600 55.10600 38.26700
H  35.12000 55.48900 39.46700
H  34.80800 61.01900 40.34500
H  36.27500 60.28500 40.89300
H  34.94100 60.18100 41.89200
H  31.02600 62.59500 40.75700
H  28.88900 62.06600 42.86000
H  31.91500 61.77900 43.44300
H  30.67400 63.08300 43.66500
H  32.13100 63.26300 42.59100
H  27.88000 63.30800 40.32700
H  29.27200 64.15300 40.95300
H  26.48900 64.40800 41.69300
H  27.86200 65.13900 42.49500
H  27.23800 63.61800 43.04600
H  24.60100 60.74000 42.10000
H  23.44300 59.50900 42.03100
H  23.48700 60.56300 40.71200
H  24.78200 55.15200 38.53900
H  24.35100 52.02500 41.68300
H  25.78400 51.78400 40.78800
H  24.20400 51.15000 40.07300
Mg -12.07400 37.67800 41.71300
C  -9.71300 35.24900 40.93100
C  -10.12700 40.08000 40.19600
C  -14.83900 39.76400 41.76200
C  -14.13400 35.11700 43.10200
N  -10.26800 37.59900 40.49400
C  -9.38900 36.52000 40.36400
C  -8.06300 36.95100 39.70500
C  -8.19400 38.52500 39.61300
C  -9.62100 38.71500 40.08300
C  -7.13700 39.16000 40.72500
C  -7.90800 36.36900 38.25400
C  -6.50200 35.82300 37.94100
H  -5.77100 36.39100 36.73800
N  -12.44400 39.66300 41.03600
C  -11.46300 40.51000 40.46500
C  -12.07700 41.78600 40.24600
C  -13.41800 41.77900 40.79100
C  -13.63700 40.39600 41.22100
C  -11.19900 42.88400 39.64400
C  -14.37900 42.92900 40.85900
O  -13.99400 44.05700 40.42400
C  -15.81300 42.85500 41.17600
N  -14.23900 37.39700 42.20000
C  -15.08900 38.45100 42.19500
C  -16.41800 38.01000 42.69300
C  -16.24400 36.48700 43.11900
C  -14.77700 36.30900 42.77600
C  -16.89800 38.89100 43.86700
C  -17.15400 35.51800 42.29700
C  -17.96400 34.61000 43.21400
N  -11.92100 35.63600 42.04100
C  -12.80700 34.76200 42.70100
C  -12.16800 33.49200 42.77000
C  -10.95800 33.56600 42.08700
C  -10.85600 34.92200 41.69400
C  -12.81500 32.34500 43.42200
C  -9.77100 32.86800 41.59600
O  -9.38400 31.72400 41.74000
C  -8.97100 33.93100 40.78800
C  -7.52900 34.05000 41.25100
O  -6.56900 33.88300 40.52700
O  -7.46400 34.37900 42.54800
C  -6.19900 34.74200 43.17300
H  -9.47900 40.93700 40.00500
H  -15.71000 40.41800 41.83600
H  -14.78500 34.38300 43.58200
H  -7.16000 36.70700 40.26400
H  -8.12500 38.86700 38.58000
H  -7.57200 40.12100 41.00000
H  -6.20600 39.26100 40.16700
H  -6.97100 38.52800 41.59800
H  -8.30800 36.89600 37.38700
H  -8.47300 35.43800 38.21300
H  -6.68100 34.75900 37.79000
H  -5.81000 35.77000 38.78100
H  -11.79500 43.62100 39.10700
H  -10.38900 42.46300 39.04900
H  -10.58000 43.40300 40.37700
H  -16.28500 43.79000 40.87300
H  -15.83400 42.61200 42.23800
H  -16.33400 42.06800 40.63000
H  -17.11500 38.14500 41.86600
H  -16.33500 36.31200 44.19100
H  -17.38600 39.76000 43.42500
H  -15.98200 39.26600 44.32500
H  -17.60200 38.36900 44.51500
H  -16.56600 34.91500 41.60600
H  -17.80300 36.09000 41.63300
H  -17.27700 33.98100 43.77900
H  -18.56100 33.96100 42.57300
H  -18.61800 35.26300 43.79100
H  -12.10400 31.53800 43.59800
H  -13.60100 31.91500 42.80100
H  -13.28300 32.59800 44.37300
H  -8.85300 33.71200 39.72700
H  -5.51100 35.30300 42.54000
H  -5.76800 33.78900 43.48000
H  -6.47500 35.35500 44.03100

