158

Mg -2.15500 17.09900 26.55700
C  -2.54500 14.86200 29.33900
C  -3.02600 19.61500 28.68500
C  -2.20800 19.23400 23.91900
C  -1.97500 14.27900 24.45000
N  -2.81500 17.13200 28.69700
C  -2.68500 16.21200 29.75900
C  -2.75700 16.74600 31.19500
C  -3.07000 18.26900 30.84000
C  -2.95900 18.33500 29.32600
C  -4.30200 18.92100 31.51600
C  -1.48100 16.42600 32.03300
C  -1.41200 17.40900 33.22000
H  -0.79300 16.73000 34.45500
N  -2.38100 19.11100 26.38000
C  -2.76400 19.96100 27.36500
C  -2.76100 21.32100 26.87600
C  -2.34400 21.30700 25.51000
C  -2.30300 19.81700 25.18900
C  -3.14100 22.48200 27.78500
C  -2.09400 22.42400 24.62700
O  -1.79100 22.26000 23.46300
C  -2.15100 23.88900 25.07500
N  -1.89100 16.76800 24.48600
C  -2.03200 17.83900 23.59200
C  -1.84200 17.36300 22.09800
C  -1.60800 15.78600 22.33500
C  -1.82100 15.58000 23.83100
C  -3.08500 17.72300 21.29100
C  -0.18700 15.38800 22.01700
C  0.92700 15.95100 22.94000
N  -2.21300 15.05000 26.79000
C  -2.19600 14.05400 25.83600
C  -2.22800 12.78200 26.48800
C  -2.30600 13.05600 27.82100
C  -2.43300 14.43600 27.94200
C  -2.03600 11.48900 25.65200
C  -2.40700 12.40100 29.18400
O  -2.21600 11.25000 29.51000
C  -2.66900 13.59100 30.14800
C  -1.69800 13.31000 31.23000
O  -0.51100 13.49000 31.10400
O  -2.34800 12.87300 32.37200
C  -1.44100 12.78600 33.55700
H  -3.03900 20.40200 29.44200
H  -2.14300 19.80800 22.99200
H  -1.93200 13.35100 23.87600
H  -3.60900 16.35600 31.75100
H  -2.19800 18.82300 31.18800
H  -4.80200 18.24200 32.20600
H  -5.04600 19.18100 30.76300
H  -4.09100 19.80500 32.11900
H  -0.58500 16.67300 31.46300
H  -1.60500 15.45000 32.50300
H  -2.43400 17.71600 33.44500
H  -0.74200 18.24900 33.03900
H  -2.25100 23.10300 27.88800
H  -3.52200 22.25500 28.78100
H  -3.87200 23.18600 27.38800
H  -3.07200 24.23400 25.54600
H  -1.75800 24.58000 24.33000
H  -1.32100 23.80900 25.77800
H  -0.92100 17.85500 21.78600
H  -2.24400 15.22400 21.65100
H  -2.83800 18.51300 20.58200
H  -3.88300 18.01600 21.97400
H  -3.51200 16.88300 20.74300
H  0.09800 15.69600 21.01100
H  -0.03800 14.30900 21.99400
H  0.70600 16.54800 23.82500
H  1.65600 16.38900 22.25800
H  1.43900 15.07400 23.33600
H  -1.37700 11.63000 24.79600
H  -2.99300 11.24500 25.19000
H  -1.76300 10.66600 26.31200
H  -3.67600 13.31700 30.46500
H  -1.77700 13.66800 34.10300
H  -0.37000 12.89700 33.39200
H  -1.52800 11.78200 33.97100
Mg 24.20700 -4.70600 45.63700
C  26.00800 -2.04500 44.43500
C  21.37000 -3.71400 43.82500
C  22.76600 -7.56300 46.45200
C  27.14100 -5.73400 47.37700
N  23.89900 -3.28200 44.01500
C  24.77500 -2.25200 43.79400
C  24.16500 -1.33600 42.72100
C  22.65200 -1.64700 42.88900
C  22.61500 -2.94000 43.63800
C  21.99200 -0.54300 43.70200
C  24.62400 -1.77100 41.32300
C  25.60100 -0.91500 40.46200
H  26.66300 -1.61900 39.59400
N  22.30800 -5.46900 45.24200
C  21.24000 -4.87200 44.57700
C  20.10300 -5.76700 44.74700
C  20.47400 -6.95100 45.45000
C  21.91200 -6.69000 45.71900
C  18.79000 -5.43100 44.10200
C  19.61700 -8.20900 45.68900
O  18.39100 -8.24000 45.40400
C  20.05800 -9.46800 46.41500
N  24.82600 -6.33400 46.73000
C  24.01800 -7.38200 46.95800
C  24.62600 -8.54200 47.84600
C  25.92600 -7.84000 48.32900
C  26.01200 -6.55100 47.40900
C  23.74900 -9.09800 48.99700
C  27.17900 -8.72900 48.19600
C  27.99300 -8.88800 49.48900
N  26.19800 -4.07400 45.92500
C  27.25600 -4.52600 46.70300
C  28.42600 -3.65700 46.52300
C  27.96700 -2.68400 45.61300
C  26.62300 -2.93800 45.36500
C  29.78500 -3.88100 47.22000
C  28.35800 -1.46300 44.96400
O  29.39800 -0.81400 44.98900
C  27.09900 -1.00200 44.07400
C  26.66900 0.33400 44.55600
O  26.28500 0.59900 45.67400
O  26.93100 1.25800 43.62200
C  26.88100 2.66900 43.97900
H  20.44800 -3.31400 43.39900
H  22.43400 -8.56800 46.71900
H  27.98700 -6.16900 47.91200
H  24.36600 -0.29100 42.95300
H  22.14600 -1.85300 41.94600
H  22.61700 -0.18400 44.52000
H  20.99600 -0.78300 44.07400
H  21.95200 0.43400 43.22100
H  23.72400 -1.95300 40.73600
H  25.14600 -2.70500 41.52900
H  26.04000 -0.13300 41.08200
H  24.89700 -0.39100 39.81600
H  18.36300 -6.24600 43.51800
H  18.80200 -4.60900 43.38600
H  18.16200 -5.05200 44.90900
H  20.32000 -9.11700 47.41300
H  20.93300 -9.77600 45.84300
H  19.20200 -10.13700 46.32600
H  24.94200 -9.30300 47.13200
H  25.83600 -7.49300 49.35900
H  23.58600 -10.14600 48.74300
H  22.80000 -8.56900 49.07900
H  24.24400 -9.00600 49.96400
H  27.91900 -8.33200 47.50200
H  26.89200 -9.76800 48.03500
H  29.06400 -9.01400 49.32900
H  27.64500 -9.73500 50.08000
H  27.91500 -7.95800 50.05400
H  30.01900 -4.91600 46.97200
H  29.72400 -3.78300 48.30400
H  30.46400 -3.15200 46.77800
H  27.28300 -1.05900 43.00100
H  27.77700 3.00400 44.50200
H  25.99700 2.85500 44.59000
H  26.73500 3.21000 43.04400

