158

Mg 41.50000 8.71700 29.45500
C  43.29700 10.04900 32.20100
C  39.16200 7.59600 31.67000
C  39.79200 7.54200 26.83200
C  44.13100 9.76300 27.28000
N  41.38700 8.65800 31.69900
C  42.16200 9.31900 32.60200
C  41.61500 9.13200 34.00200
C  40.41800 8.17300 33.79500
C  40.31200 8.09200 32.32400
C  40.56600 6.81300 34.53300
C  41.34000 10.53000 34.73600
C  41.42500 10.43400 36.28800
H  41.37300 11.72300 37.25200
N  39.70200 7.68200 29.31800
C  38.80700 7.38800 30.34200
C  37.52800 6.91500 29.72900
C  37.66100 7.09800 28.29900
C  39.11000 7.41700 28.11100
C  36.37900 6.34200 30.56400
C  36.58600 7.02200 27.21900
O  36.82400 7.35100 26.02600
C  35.19000 6.65600 27.67000
N  42.04500 8.49000 27.30800
C  41.07600 8.03100 26.47200
C  41.57800 8.17200 25.07700
C  42.98700 8.79600 25.16700
C  43.06700 9.01700 26.68400
C  41.53300 6.87200 24.24300
C  43.15800 10.16700 24.29100
C  42.57200 11.48100 24.92600
N  43.39800 9.62100 29.65200
C  44.31400 10.04100 28.69300
C  45.28800 10.91500 29.33200
C  44.94800 10.93600 30.67800
C  43.80400 10.13600 30.82300
C  46.42100 11.52000 28.50400
C  45.39800 11.34700 32.01300
O  46.40600 11.98200 32.34700
C  44.27500 10.79300 33.00200
C  45.00900 9.86300 33.99600
O  45.64400 8.82000 33.77300
O  45.01400 10.59500 35.20800
C  45.54600 9.84500 36.40700
H  38.27500 7.45700 32.29100
H  39.24700 7.13100 25.98000
H  44.81700 10.16600 26.53200
H  42.35500 8.62900 34.62500
H  39.47000 8.63400 34.07200
H  39.61600 6.67600 35.04800
H  41.43600 6.81600 35.18900
H  40.62600 6.02200 33.78600
H  40.35000 10.85600 34.41600
H  41.93300 11.39500 34.44100
H  42.32800 9.90400 36.59100
H  40.59500 9.82600 36.64800
H  36.36500 6.36200 31.65400
H  36.21400 5.35600 30.13000
H  35.60600 7.03100 30.22400
H  34.53100 6.48000 26.82000
H  34.73900 7.53700 28.12700
H  35.03200 5.78700 28.30800
H  40.88100 8.90200 24.66400
H  43.67300 8.00200 24.87100
H  40.52500 6.81800 23.83100
H  41.80200 5.94000 24.74000
H  42.23100 6.76100 23.41300
H  42.59000 10.09000 23.36400
H  44.19600 10.39400 24.04700
H  41.97600 11.36100 25.83100
H  41.81000 11.85900 24.24500
H  43.36300 12.21100 25.09500
H  47.03400 10.77600 27.99600
H  46.90600 12.30800 29.08000
H  45.78300 11.95800 27.73700
H  43.86500 11.56500 33.65200
H  46.10600 8.97800 36.05700
H  44.67300 9.47500 36.94500
H  46.23900 10.39200 37.04500
Mg -0.19000 44.04100 25.71200
C  2.27000 44.17500 28.39600
C  -2.44300 43.13600 28.04000
C  -2.19900 43.66000 23.15900
C  2.56200 44.30400 23.55900
N  0.00400 43.59100 27.93800
C  1.00400 43.85100 28.84800
C  0.59300 43.73600 30.34200
C  -0.95300 43.22000 30.08900
C  -1.13800 43.28200 28.57200
C  -1.38000 41.84700 30.70000
C  0.61600 45.10400 31.03100
C  0.83500 45.07200 32.66200
H  0.44900 43.82800 33.44500
N  -2.11200 43.55400 25.61500
C  -2.91600 43.25200 26.71500
C  -4.28300 43.05800 26.23700
C  -4.19500 43.25600 24.79700
C  -2.77800 43.50200 24.43900
C  -5.40800 42.67500 27.05200
C  -5.32600 43.09700 23.69600
O  -5.08400 43.06900 22.52700
C  -6.71700 42.82000 24.01000
N  0.14800 43.89400 23.72800
C  -0.87300 43.73400 22.79400
C  -0.35100 43.68300 21.33100
C  1.07900 44.18300 21.49000
C  1.27000 44.08700 23.01500
C  -0.54700 42.26800 20.67000
C  1.36900 45.64400 20.89600
C  1.27200 46.89700 21.88400
N  1.94000 44.36700 25.88800
C  2.88200 44.40400 24.92100
C  4.28100 44.40200 25.49500
C  4.01900 44.42600 26.88700
C  2.61900 44.32500 27.02000
C  5.57700 44.62200 24.75000
C  4.71200 44.52400 28.21800
O  5.87900 44.62000 28.47700
C  3.53900 44.41700 29.30500
C  3.81000 43.24600 30.13000
O  3.67900 42.12600 29.72100
O  4.14200 43.67900 31.37200
C  4.48500 42.64900 32.30100
H  -3.25200 42.96900 28.75400
H  -2.87100 43.77000 22.30600
H  3.30200 44.39000 22.76000
H  1.26500 43.06900 30.88300
H  -1.70300 43.90100 30.49300
H  -0.47100 41.35000 31.04100
H  -1.92100 41.27000 29.95000
H  -1.96800 41.97800 31.60800
H  -0.33500 45.62500 30.92000
H  1.32300 45.65700 30.41300
H  0.55300 45.97500 33.20500
H  1.92500 45.08700 32.66500
H  -6.28300 43.06900 26.53500
H  -5.40900 43.25800 27.97300
H  -5.45800 41.60700 27.26300
H  -6.65600 41.95100 24.66400
H  -7.27800 42.50800 23.12900
H  -7.17700 43.63000 24.57600
H  -1.08000 44.34500 20.86500
H  1.79200 43.54300 20.97000
H  -1.37700 41.84400 21.23600
H  0.38100 41.69700 20.63600
H  -0.97800 42.36300 19.67300
H  0.58600 45.70200 20.13900
H  2.26800 45.68500 20.28100
H  0.63600 47.73300 21.59100
H  2.25000 47.28100 22.17400
H  0.75200 46.55000 22.77600
H  6.10000 45.49300 25.14500
H  5.27000 44.74800 23.71200
H  6.20800 43.76000 24.96700
H  3.52800 45.34500 29.87800
H  4.06800 43.00300 33.24400
H  5.56600 42.56100 32.41000
H  4.23900 41.60500 32.10700

