158

Mg 29.36300 58.00800 40.79500
C  26.36700 56.38100 39.69700
C  31.09500 55.52800 39.17800
C  32.21300 60.03400 40.73700
C  27.45600 60.84100 41.60200
N  28.75000 56.10800 39.63100
C  27.48800 55.66700 39.33700
C  27.59100 54.36100 38.50300
C  29.11900 54.00800 38.47900
C  29.70400 55.26600 39.12200
C  29.58700 52.66800 39.22600
C  26.93600 54.48800 37.14800
C  27.05900 55.79200 36.40600
H  26.85300 55.80700 34.91700
N  31.34300 57.74100 40.25500
C  31.90500 56.63000 39.68400
C  33.33000 56.71600 39.47600
C  33.74800 57.98800 40.07900
C  32.44500 58.65000 40.41600
C  34.17200 55.67100 38.82500
C  35.15900 58.54100 40.20200
O  36.08500 57.99700 39.58500
C  35.49500 59.71200 41.02200
N  29.73900 60.13000 41.07000
C  30.99300 60.67600 41.08500
C  30.95000 62.16900 41.41000
C  29.39700 62.41300 41.70500
C  28.80400 61.02800 41.39000
C  32.07300 62.61300 42.41500
C  28.82200 63.57500 40.87600
C  28.71200 64.96200 41.60700
N  27.29800 58.47700 40.84400
C  26.66700 59.70500 41.22200
C  25.22400 59.52500 41.21100
C  25.04600 58.17100 40.66700
C  26.33600 57.64900 40.36400
C  24.22000 60.53500 41.69100
C  24.08700 57.26500 40.12900
O  22.84100 57.29900 40.11900
C  24.88600 56.10000 39.36900
C  24.45500 54.82600 40.05000
O  23.82700 54.00200 39.42700
O  24.95200 54.60000 41.27500
C  24.94200 53.21700 41.78200
H  31.71000 54.74000 38.74000
H  33.06600 60.70700 40.63100
H  26.85500 61.71000 41.87700
H  26.94600 53.67100 39.04800
H  29.35700 53.99400 37.41500
H  28.68900 52.22600 39.65600
H  30.29100 52.89900 40.02600
H  29.95200 51.92900 38.51200
H  25.89900 54.18200 37.28800
H  27.39100 53.77600 36.46000
H  28.01100 56.24400 36.68500
H  26.29300 56.47600 36.77000
H  33.73100 54.69300 38.63500
H  35.03400 55.61500 39.49000
H  34.63100 56.04100 37.90800
H  34.73200 59.80200 41.79500
H  35.54300 60.59200 40.38000
H  36.49100 59.51300 41.41900
H  31.22100 62.63600 40.46300
H  29.19300 62.64800 42.75000
H  31.55400 62.92800 43.32100
H  32.65700 63.49300 42.14900
H  32.74800 61.84600 42.79400
H  27.91800 63.25500 40.35600
H  29.52800 63.74900 40.06400
H  27.79700 64.96400 42.20000
H  28.70200 65.71800 40.82200
H  29.58500 64.98500 42.26000
H  24.23400 61.49500 41.17400
H  24.49100 60.81200 42.70900
H  23.20700 60.13500 41.73000
H  24.59900 56.22800 38.32600
H  24.34900 53.30400 42.69200
H  25.96200 52.92000 42.02600
H  24.42300 52.41300 41.26000
Mg -2.85000 34.77100 27.25400
C  -4.72000 33.08700 29.43600
C  -1.67300 36.82100 29.66100
C  -1.23100 36.62200 24.84300
C  -4.42700 32.97200 24.66800
N  -3.31700 34.99000 29.31600
C  -3.88100 34.05900 30.11600
C  -3.69500 34.36100 31.58800
C  -3.00400 35.77500 31.58700
C  -2.67400 35.97400 30.07300
C  -3.95700 36.95000 32.24300
C  -2.96000 33.23300 32.39800
C  -3.54600 32.72000 33.70600
H  -3.67400 33.73900 34.85700
N  -1.50200 36.41400 27.29400
C  -1.20800 37.12900 28.38500
C  -0.20400 38.10900 27.99300
C  0.02900 37.97500 26.59800
C  -0.96900 37.00700 26.16700
C  0.42600 38.96000 28.97900
C  0.92400 38.77800 25.67200
O  0.92600 38.54900 24.44800
C  1.86500 39.86500 26.23900
N  -3.04000 34.93700 25.02400
C  -2.12800 35.66200 24.32400
C  -1.92000 35.24000 22.87000
C  -2.97800 34.10000 22.72000
C  -3.50400 33.95300 24.20900
C  -1.97800 36.46900 21.79700
C  -2.45800 32.71300 22.25200
C  -3.17100 32.09600 21.00700
N  -4.37000 33.38900 27.02900
C  -4.80700 32.68800 25.95600
C  -5.69000 31.56700 26.36500
C  -5.64700 31.67700 27.73200
C  -4.89600 32.79300 28.05600
C  -6.38400 30.58700 25.57500
C  -6.07700 31.07800 28.91500
O  -6.70500 30.03600 29.07000
C  -5.56000 31.96800 30.08800
C  -6.75200 32.59400 30.74300
O  -7.40800 33.56100 30.33200
O  -6.96300 32.02700 31.95700
C  -7.97300 32.67600 32.86900
H  -1.27400 37.47300 30.44100
H  -0.67500 37.12700 24.05000
H  -4.81000 32.15900 24.04700
H  -4.65200 34.37900 32.11100
H  -2.11500 35.68100 32.21000
H  -3.74000 37.93200 31.82100
H  -3.66900 36.93000 33.29400
H  -5.03800 36.85700 32.14000
H  -1.99000 33.64100 32.67900
H  -2.72400 32.39200 31.74600
H  -2.97000 31.82100 33.92100
H  -4.56600 32.37100 33.54200
H  1.47700 38.83100 28.72000
H  0.27200 38.59800 29.99500
H  0.05000 39.98300 28.97800
H  1.32500 40.57500 26.86600
H  2.50900 40.19900 25.42500
H  2.62400 39.41400 26.87700
H  -0.93000 34.78300 22.88600
H  -3.79400 34.40500 22.06400
H  -2.68700 36.19000 21.01700
H  -0.97900 36.54800 21.36700
H  -2.38700 37.32300 22.33700
H  -2.65000 32.02200 23.07300
H  -1.38200 32.67700 22.08300
H  -2.35100 32.00100 20.29500
H  -3.94300 32.67200 20.49700
H  -3.48400 31.05200 21.01800
H  -6.24600 30.83300 24.52200
H  -7.38400 30.54900 26.00700
H  -5.85500 29.63800 25.48000
H  -4.97500 31.40100 30.81100
H  -8.50100 31.93800 33.47300
H  -8.73800 33.32000 32.43500
H  -7.53200 33.29900 33.64700

