158

Mg 48.02100 34.62100 27.26800
C  45.87700 33.07200 29.76600
C  48.67100 37.16900 29.52700
C  49.22100 36.32800 24.84900
C  47.10400 31.99400 25.23600
N  47.25700 35.02000 29.26900
C  46.49400 34.24300 30.18700
C  46.77500 34.79600 31.59800
C  47.03900 36.33200 31.35500
C  47.75800 36.15300 29.97400
C  45.85000 37.24300 31.29900
C  47.99400 34.03400 32.39100
C  47.60400 33.54800 33.84000
H  48.07900 34.38600 35.01100
N  48.90200 36.45300 27.16000
C  49.17600 37.29600 28.24700
C  49.81000 38.54300 27.75800
C  50.02700 38.26700 26.34300
C  49.33600 36.99300 26.07800
C  50.24000 39.67400 28.62200
C  50.69300 39.22600 25.45000
O  50.80100 38.98600 24.29200
C  51.03000 40.61700 25.92800
N  48.10300 34.25700 25.29400
C  48.77000 35.12700 24.51000
C  48.78900 34.58600 23.00900
C  48.29400 33.07300 23.21300
C  47.74500 33.11000 24.67700
C  47.94300 35.44100 21.98200
C  49.40800 32.01100 23.10900
C  50.71600 32.00600 23.95900
N  46.82500 32.90400 27.43800
C  46.59400 31.87600 26.57000
C  45.76300 30.85600 27.07700
C  45.47600 31.25400 28.34500
C  46.09400 32.52200 28.49200
C  45.63000 29.55200 26.40900
C  44.82200 30.90800 29.58200
O  44.20300 29.95800 29.95700
C  44.98600 32.12400 30.53100
C  45.49000 31.60500 31.76600
O  46.60700 31.12900 31.86700
O  44.48400 31.56200 32.71200
C  44.84000 30.83700 33.97900
H  48.88700 37.89700 30.31200
H  49.73900 36.81000 24.01700
H  46.86200 31.31500 24.41600
H  45.82500 34.81500 32.13200
H  47.68600 36.80200 32.09600
H  44.98500 36.58300 31.23900
H  45.81800 37.87500 30.41100
H  45.74700 37.84600 32.20200
H  48.87200 34.67500 32.47500
H  48.37300 33.16400 31.85500
H  47.85000 32.50800 34.05400
H  46.53300 33.63400 34.02000
H  51.31800 39.81300 28.69400
H  50.01200 39.41500 29.65600
H  49.68000 40.55000 28.29600
H  50.20200 41.19200 26.34200
H  51.28400 41.28500 25.10600
H  51.86200 40.61800 26.63300
H  49.82800 34.51700 22.68800
H  47.55000 32.81200 22.46100
H  48.55600 36.23300 21.55100
H  47.06900 35.91700 22.42800
H  47.53000 34.77400 21.22500
H  49.81500 32.23200 22.12200
H  49.07100 30.97500 23.08700
H  50.75800 31.01100 24.40100
H  50.69700 32.78300 24.72300
H  51.57500 32.05300 23.28900
H  46.08300 28.83000 27.08900
H  46.28500 29.55000 25.53800
H  44.63000 29.25100 26.09800
H  44.01600 32.60500 30.65000
H  45.19400 31.63400 34.63400
H  45.54400 30.01700 33.83700
H  43.97300 30.37200 34.44700
Mg 15.92500 51.21800 25.60700
C  17.57600 50.12500 28.52800
C  13.33400 52.43400 27.53500
C  14.37100 51.89300 22.84100
C  18.63000 49.72700 23.67600
N  15.58600 51.33700 27.83000
C  16.38400 50.83400 28.80200
C  15.80200 51.20700 30.18700
C  14.35400 51.79300 29.82700
C  14.36700 51.81600 28.27600
C  13.24000 50.80500 30.33000
C  16.69600 52.18700 30.92800
C  16.86200 52.05600 32.50800
H  15.98900 51.17900 33.43400
N  14.14500 52.13200 25.26100
C  13.21400 52.63400 26.13400
C  12.13200 53.23800 25.43400
C  12.53500 53.25000 24.03400
C  13.72000 52.35700 24.00700
C  10.93000 53.83200 26.13900
C  11.91000 53.90300 22.85900
O  12.43600 53.77400 21.74200
C  10.85400 54.73800 23.07400
N  16.46800 50.85300 23.56400
C  15.52000 51.11700 22.66400
C  15.93900 50.74900 21.26000
C  17.34400 50.14300 21.45800
C  17.53700 50.28600 22.99200
C  14.89400 49.83900 20.47200
C  18.58300 50.61200 20.64100
C  19.40800 49.50400 19.95200
N  17.67400 50.05500 25.95900
C  18.69500 49.52300 25.06500
C  19.79600 49.05700 25.89100
C  19.38500 49.24500 27.25300
C  18.11200 49.88100 27.25900
C  21.07400 48.42200 25.39500
C  19.74700 48.97100 28.59300
O  20.74100 48.41000 29.05200
C  18.63600 49.60900 29.53100
C  18.13600 48.44300 30.35300
O  17.31400 47.58000 30.05100
O  18.88100 48.42600 31.50800
C  18.52800 47.22800 32.33800
H  12.59400 52.88000 28.20200
H  13.89900 51.98100 21.86000
H  19.48200 49.25300 23.18300
H  15.79200 50.29200 30.77900
H  14.23100 52.80100 30.22300
H  13.54800 50.15100 31.14600
H  12.85000 50.21200 29.50300
H  12.35700 51.37600 30.61900
H  16.43400 53.23300 30.76800
H  17.71700 52.04800 30.57300
H  16.93500 53.06500 32.91300
H  17.90300 51.73900 32.57300
H  10.65200 53.27000 27.03000
H  10.05100 53.85300 25.49500
H  11.21900 54.83300 26.46000
H  10.00500 54.07900 23.25500
H  10.49000 55.31200 22.22200
H  11.14200 55.34300 23.93400
H  16.01400 51.68300 20.70400
H  17.35700 49.05400 21.48000
H  14.90600 48.75000 20.53100
H  14.95300 50.12200 19.42100
H  13.84800 50.01400 20.72500
H  19.28600 51.16500 21.26400
H  18.18300 51.28500 19.88200
H  20.30000 49.41100 20.57000
H  19.61800 49.90000 18.95800
H  18.92600 48.52700 19.91400
H  21.00600 47.33700 25.32300
H  21.82600 48.39900 26.18300
H  21.59200 48.75600 24.49700
H  19.16700 50.38800 30.07900
H  17.49300 47.17500 32.67600
H  19.27600 47.31500 33.12600
H  18.78400 46.30100 31.82500

