158

Mg 41.18400 8.86900 29.39300
C  43.04200 10.03200 32.05900
C  38.89200 7.63400 31.70900
C  39.27100 7.69800 26.89600
C  43.71700 9.71100 27.12200
N  41.15800 8.70800 31.70400
C  41.91600 9.38000 32.56900
C  41.30500 9.41500 34.01300
C  40.17200 8.34300 33.83000
C  40.01000 8.24500 32.30800
C  40.44000 6.92400 34.39400
C  40.78300 10.81100 34.36700
C  39.86200 10.88300 35.67600
H  40.30300 11.82600 36.80800
N  39.32000 7.80900 29.37000
C  38.55400 7.45000 30.37400
C  37.33500 6.86600 29.89900
C  37.34800 7.05800 28.46400
C  38.65400 7.51800 28.24400
C  36.20200 6.34900 30.82000
C  36.28300 6.86900 27.45300
O  36.55500 6.99100 26.27200
C  34.86900 6.60600 27.92600
N  41.50600 8.69400 27.33700
C  40.51300 8.15600 26.49400
C  41.09600 8.05600 25.02600
C  42.33000 8.92300 25.08300
C  42.50700 9.17800 26.57900
C  41.28500 6.54300 24.58800
C  42.28100 10.17000 24.28100
C  41.65100 11.44700 24.87400
N  43.04000 9.69800 29.47800
C  43.96400 10.05400 28.50100
C  45.02200 10.83400 29.05000
C  44.67800 10.87000 30.44900
C  43.44800 10.10900 30.65200
C  46.13400 11.46100 28.31800
C  45.19500 11.25300 31.79000
O  46.23800 11.80300 32.01200
C  44.08400 10.80200 32.83500
C  44.80400 9.95900 33.84000
O  45.14800 8.81600 33.70000
O  44.82300 10.61100 34.99800
C  45.22900 9.89500 36.25000
H  38.24500 7.31700 32.53000
H  38.69800 7.58500 25.97300
H  44.50400 10.00700 26.42500
H  42.10400 9.01500 34.63700
H  39.24400 8.71900 34.26100
H  40.83600 6.34700 33.55900
H  39.64700 6.45700 34.97900
H  41.37200 7.05800 34.94400
H  40.27200 11.28300 33.52800
H  41.64900 11.43600 34.58400
H  39.68500 9.87800 36.05900
H  38.96500 11.42200 35.37100
H  36.56800 6.00800 31.78800
H  35.70900 5.45900 30.42600
H  35.38300 7.05300 30.96700
H  34.85500 5.56600 28.25100
H  34.13400 6.73200 27.13100
H  34.53000 7.36600 28.63000
H  40.32100 8.54500 24.43500
H  43.11600 8.35500 24.58400
H  40.78800 5.81700 25.23200
H  42.35900 6.36100 24.55700
H  40.85400 6.41100 23.59600
H  41.86200 10.10000 23.27700
H  43.30200 10.41800 23.99100
H  42.20300 11.76100 25.76000
H  40.60300 11.20500 25.05000
H  41.68000 12.22900 24.11500
H  45.74600 11.81000 27.36100
H  46.83300 10.66000 28.07500
H  46.61300 12.27500 28.86100
H  43.58200 11.68600 33.23000
H  44.46300 10.18300 36.97000
H  46.29800 10.02000 36.42200
H  45.04000 8.83600 36.07500
Mg 48.02500 16.03800 28.55700
C  45.99300 15.65700 31.35200
C  50.17400 17.95300 30.44500
C  49.81700 16.38800 25.78200
C  45.45800 14.44600 26.61500
N  48.06000 16.69100 30.63200
C  47.17000 16.37600 31.60800
C  47.63300 16.78800 32.96300
C  48.73100 17.83900 32.62600
C  49.02200 17.56100 31.14700
C  48.16200 19.31300 32.93500
C  48.12900 15.59900 33.76800
C  48.15200 15.89000 35.31200
H  47.72000 17.22400 35.85100
N  49.74100 16.93100 28.17900
C  50.48200 17.71100 29.07200
C  51.71500 18.23700 28.41500
C  51.69000 17.66500 27.11700
C  50.32700 17.00100 26.94000
C  52.71800 19.12600 29.09800
C  52.83200 17.66200 26.09200
O  52.71100 17.18300 24.94900
C  54.24000 18.15700 26.39600
N  47.57600 15.68500 26.41100
C  48.57900 15.74000 25.52600
C  48.22500 15.11800 24.17400
C  46.82900 14.51900 24.48400
C  46.58300 14.87700 25.91900
C  48.25500 16.20300 23.02100
C  46.78900 12.92600 24.25900
C  45.57600 12.15900 23.80700
N  46.16500 15.14900 28.86700
C  45.21900 14.64000 27.97500
C  44.07600 14.32100 28.73600
C  44.32000 14.58700 30.09500
C  45.61100 15.19000 30.06900
C  42.85900 13.70500 28.21700
C  43.67500 14.64500 31.40000
O  42.53000 14.30100 31.74500
C  44.84300 15.18000 32.34600
C  44.31000 16.22900 33.24800
O  44.40100 17.44600 32.98400
O  43.84200 15.67400 34.45500
C  43.24900 16.55800 35.45600
H  50.84400 18.55100 31.06600
H  50.53400 16.46100 24.96100
H  44.74000 13.85800 26.04000
H  46.79000 17.23700 33.48800
H  49.64600 17.61900 33.17600
H  47.08300 19.45900 32.88400
H  48.65700 20.00300 32.25300
H  48.40600 19.63300 33.94800
H  49.18700 15.40600 33.59100
H  47.49700 14.75000 33.51000
H  49.13300 15.67600 35.73600
H  47.45700 15.12000 35.64600
H  53.53900 18.54300 29.51500
H  52.35100 19.71700 29.93700
H  53.13500 19.85400 28.40100
H  54.52100 17.83800 27.39900
H  54.19800 19.20600 26.10100
H  54.95200 17.63500 25.75600
H  49.02900 14.38400 24.13000
H  46.00700 14.96300 23.92300
H  48.91700 15.84600 22.23200
H  48.64300 17.11200 23.48000
H  47.25700 16.36100 22.61300
H  47.03700 12.42000 25.19200
H  47.61000 12.61800 23.61100
H  45.38700 11.44000 24.60400
H  45.86500 11.66200 22.88100
H  44.65600 12.72900 23.67300
H  43.10200 12.77500 27.70300
H  42.53800 14.42500 27.46400
H  42.20100 13.61800 29.08200
H  45.04000 14.34200 33.01600
H  42.19600 16.62200 35.18000
H  43.58800 17.59400 35.47400
H  43.24600 16.14100 36.46300

