158

Mg 25.81500 0.15000 29.41200
C  27.57800 0.14300 32.34600
C  22.88800 0.43000 31.16400
C  24.17600 0.03600 26.51500
C  28.85300 -0.47800 27.75000
N  25.37100 0.33100 31.46800
C  26.27400 0.43300 32.55700
C  25.57700 0.91700 33.89300
C  24.04300 0.98700 33.41200
C  24.08500 0.48000 31.96500
C  22.94000 0.29400 34.34700
C  26.14100 2.26100 34.43900
C  25.32800 2.81500 35.63800
H  26.03600 2.79300 36.98200
N  23.77100 0.23500 28.94800
C  22.68200 0.33500 29.74200
C  21.45600 0.40200 29.01600
C  21.88100 0.49600 27.68800
C  23.35500 0.21900 27.67200
C  20.07600 0.54800 29.53800
C  21.03800 0.80600 26.44700
O  21.45500 0.87100 25.25900
C  19.60300 1.06200 26.62100
N  26.44200 -0.30200 27.37000
C  25.51400 -0.20300 26.36300
C  26.28600 -0.34700 25.07100
C  27.75300 -0.25400 25.42900
C  27.69600 -0.44500 26.93600
C  25.83600 -1.66700 24.47200
C  28.33500 1.22000 24.95500
C  29.88700 1.28100 24.75700
N  27.74900 -0.32900 29.93300
C  28.85100 -0.54600 29.12600
C  30.03400 -0.75600 29.95200
C  29.57700 -0.48000 31.25300
C  28.22000 -0.13200 31.17000
C  31.36300 -1.16300 29.47600
C  29.91900 -0.33000 32.67100
O  30.93400 -0.60100 33.29600
C  28.66500 0.09200 33.38300
C  28.39700 -0.99300 34.33100
O  27.63300 -1.92400 34.11600
O  29.09700 -0.76800 35.46000
C  28.91200 -1.66700 36.60100
H  21.96400 0.60900 31.71800
H  23.68200 -0.05600 25.54500
H  29.81400 -0.51100 27.23300
H  25.51500 0.16700 34.68100
H  23.81900 2.05100 33.33200
H  22.30300 1.08500 34.74200
H  23.34400 -0.30000 35.16700
H  22.37200 -0.43400 33.76800
H  26.31400 2.91100 33.58100
H  27.13100 2.00300 34.81600
H  24.35900 2.32300 35.72500
H  25.09200 3.86100 35.44200
H  19.37900 -0.22600 29.22000
H  19.59500 1.50900 29.35400
H  20.16800 0.47000 30.62200
H  18.98800 1.13200 25.72500
H  19.55600 2.06300 27.05000
H  19.14400 0.27100 27.21500
H  25.93900 0.55500 24.56600
H  28.39100 -1.05300 25.05100
H  26.60500 -2.41900 24.30000
H  25.26400 -1.47400 23.56400
H  25.09600 -2.13200 25.12300
H  27.98400 2.06700 25.54400
H  27.85500 1.49000 24.01500
H  30.13300 1.32900 23.69700
H  30.39300 0.42400 25.20200
H  30.35700 2.13700 25.24200
H  31.65400 -2.20900 29.57700
H  32.07100 -0.69600 30.16100
H  31.62800 -0.81000 28.48000
H  28.74500 1.07800 33.84000
H  29.16400 -1.13700 37.52000
H  29.62500 -2.49200 36.60400
H  27.90600 -2.07800 36.67800
Mg -6.49900 25.91100 24.63700
C  -4.68900 27.18900 27.42100
C  -8.26100 24.03600 26.83200
C  -7.76900 24.34400 21.99900
C  -4.36800 27.77000 22.65600
N  -6.40300 25.60500 26.84000
C  -5.60600 26.24800 27.79100
C  -6.03700 25.78300 29.20200
C  -7.01200 24.58700 28.91000
C  -7.30200 24.81200 27.45900
C  -6.42600 23.15200 29.24000
C  -6.70300 26.86300 30.10000
C  -6.13900 26.74000 31.54800
H  -6.07300 25.39300 32.27900
N  -7.76100 24.35000 24.46000
C  -8.52800 23.82100 25.45200
C  -9.64100 23.03100 24.86400
C  -9.43900 23.06200 23.47500
C  -8.26700 23.96000 23.30100
C  -10.63200 22.17600 25.78200
C  -10.20400 22.42700 22.40600
O  -9.96300 22.50700 21.17300
C  -11.40200 21.72300 22.87600
N  -6.27800 26.16700 22.57100
C  -6.79200 25.26900 21.61000
C  -6.24400 25.53200 20.20600
C  -5.24400 26.77300 20.44600
C  -5.30800 26.96100 22.04100
C  -5.61800 24.30600 19.50600
C  -5.64600 28.08500 19.70700
C  -4.53700 28.73500 18.99200
N  -4.87500 27.23800 24.86800
C  -4.15300 27.96600 24.00300
C  -3.19000 28.67900 24.67100
C  -3.34500 28.45000 26.04900
C  -4.40700 27.54200 26.14100
C  -2.24300 29.65400 24.06500
C  -2.85900 28.76300 27.39900
O  -1.90500 29.48600 27.75200
C  -3.76700 27.93400 28.37800
C  -2.85600 27.13400 29.25500
O  -2.38100 26.01500 28.99500
O  -2.71400 27.76200 30.40900
C  -1.87800 27.10700 31.44900
H  -8.95300 23.57000 27.53700
H  -8.26300 23.88200 21.14200
H  -3.73400 28.35400 21.98500
H  -5.14300 25.41900 29.71000
H  -7.89600 24.65600 29.54500
H  -6.25500 22.60700 28.31100
H  -6.86500 22.71100 30.13500
H  -5.39300 23.36000 29.51700
H  -7.77200 26.73700 30.27300
H  -6.35700 27.82200 29.71600
H  -6.97300 27.19000 32.08800
H  -5.19900 27.26700 31.71000
H  -11.62400 22.61400 25.67200
H  -10.44600 22.26000 26.85300
H  -10.58800 21.11400 25.54100
H  -11.15400 20.82600 23.44300
H  -11.96200 21.38900 22.00300
H  -11.90300 22.56900 23.34700
H  -7.07700 25.95200 19.64100
H  -4.21400 26.47700 20.24500
H  -4.57400 24.53700 19.29500
H  -6.24700 24.03600 18.65700
H  -5.55500 23.47900 20.21200
H  -6.20700 28.71100 20.40200
H  -6.44900 27.92100 18.98800
H  -4.47600 29.75700 19.36700
H  -4.74000 28.72200 17.92100
H  -3.59100 28.21800 19.14900
H  -2.37900 29.62400 22.98400
H  -1.23000 29.42600 24.39700
H  -2.62300 30.60100 24.44900
H  -4.31200 28.53300 29.10800
H  -0.85800 27.46300 31.29900
H  -1.99900 26.02400 31.47800
H  -2.15100 27.35600 32.47500

