158

Mg -1.90200 34.58500 27.24400
C  -3.44500 32.60400 29.89000
C  -0.55400 36.52600 29.84000
C  -0.07500 36.01900 24.88400
C  -3.15500 32.29900 24.98100
N  -2.15500 34.65600 29.63500
C  -2.64600 33.67000 30.41100
C  -2.37200 33.95200 31.92900
C  -1.72700 35.36900 31.86100
C  -1.47600 35.58900 30.42100
C  -2.48900 36.59200 32.51600
C  -1.57400 32.80300 32.52900
C  -1.00600 32.95800 33.99500
H  -1.52900 32.05500 35.03300
N  -0.75100 36.13100 27.27500
C  -0.22900 36.76200 28.43500
C  0.69000 37.74800 27.93000
C  0.69600 37.75700 26.46000
C  -0.14000 36.65700 26.11000
C  1.49300 38.59800 28.86700
C  1.42200 38.70900 25.49600
O  1.38200 38.58500 24.27400
C  2.37900 39.87600 25.94600
N  -1.76100 34.33700 25.08300
C  -0.82300 34.95400 24.36300
C  -0.61300 34.25500 22.97000
C  -1.75900 33.18900 23.03900
C  -2.25200 33.23700 24.50800
C  -0.77500 35.22500 21.71300
C  -1.26000 31.80900 22.62200
C  -0.16000 31.11400 23.47800
N  -3.15500 32.98000 27.31500
C  -3.61700 32.16900 26.31000
C  -4.54800 31.16700 26.89200
C  -4.47500 31.40800 28.22900
C  -3.55800 32.42500 28.44500
C  -5.37100 30.15800 26.19200
C  -5.07700 30.86000 29.45600
O  -5.90800 30.02000 29.63400
C  -4.34600 31.59100 30.57400
C  -5.39400 32.14800 31.54000
O  -6.32900 32.86200 31.28100
O  -5.13400 31.69400 32.81000
C  -6.07500 32.00900 33.83900
H  -0.06400 37.14000 30.59800
H  0.77000 36.34400 24.27300
H  -3.55200 31.52900 24.31500
H  -3.22600 33.83700 32.59500
H  -0.81200 35.21600 32.43300
H  -3.55300 36.37500 32.41800
H  -2.44600 37.49700 31.90900
H  -2.20600 36.89000 33.52500
H  -0.77700 32.64500 31.80200
H  -2.18900 31.90900 32.42800
H  -1.33400 33.91100 34.41100
H  0.08100 32.88500 34.02800
H  1.67600 38.10400 29.82100
H  0.91800 39.50100 29.07300
H  2.45900 38.85000 28.43000
H  2.89100 40.44500 25.16900
H  3.15900 39.35300 26.49900
H  1.79100 40.52600 26.59300
H  0.34300 33.76900 23.16700
H  -2.55400 33.49200 22.35800
H  0.13100 35.35700 21.12000
H  -1.08900 36.20600 22.06800
H  -1.53200 34.87100 21.01300
H  -0.99400 31.73600 21.56700
H  -2.09600 31.11200 22.66300
H  0.00500 31.61300 24.43300
H  0.74700 31.06100 22.87600
H  -0.45900 30.10200 23.74900
H  -6.45200 30.22600 26.31900
H  -5.05100 29.17400 26.53600
H  -5.10000 30.09000 25.13900
H  -3.84400 30.83300 31.17500
H  -6.87700 32.65600 33.48400
H  -5.39200 32.49500 34.53500
H  -6.54300 31.07400 34.14700
Mg -11.62000 16.49900 42.61600
C  -8.45100 15.08300 41.79800
C  -10.38600 19.51400 41.20400
C  -14.71600 17.54700 42.35500
C  -12.79800 13.23000 43.10100
N  -9.60200 17.20300 41.62300
C  -8.48000 16.45500 41.48400
C  -7.26300 17.36300 41.07000
C  -7.93700 18.75000 40.88700
C  -9.43600 18.47700 41.24200
C  -7.33900 19.96900 41.69000
C  -6.61800 16.78800 39.78600
C  -5.16800 16.51100 39.82800
H  -4.59100 15.39100 38.86300
N  -12.40000 18.34200 42.08600
C  -11.75800 19.48400 41.56300
C  -12.72800 20.53700 41.47400
C  -13.97400 20.00400 41.84900
C  -13.71500 18.59200 42.15600
C  -12.28800 21.90800 41.02900
C  -15.25500 20.71600 41.80600
O  -15.27200 21.96600 41.66000
C  -16.62200 20.09100 42.07300
N  -13.42900 15.44400 42.50100
C  -14.61300 16.14200 42.52400
C  -15.88500 15.23800 42.51500
C  -15.22600 13.88100 42.99400
C  -13.71100 14.20100 42.83200
C  -17.09500 15.78000 43.39300
C  -15.61300 12.60000 42.14900
C  -16.08300 11.42700 43.08500
N  -10.82100 14.58700 42.57800
C  -11.43100 13.36900 42.84800
C  -10.44100 12.39600 42.92400
C  -9.21600 13.04700 42.54900
C  -9.55400 14.37900 42.21700
C  -10.67600 11.04700 43.36600
C  -7.81600 12.81400 42.35800
O  -7.22300 11.78200 42.46600
C  -7.23800 14.15600 41.88600
C  -6.36100 14.59100 42.96700
O  -6.71800 14.92900 44.04600
O  -5.05000 14.53200 42.57100
C  -4.08800 15.01300 43.63100
H  -10.05400 20.51500 40.92200
H  -15.75400 17.88400 42.32000
H  -13.11400 12.24000 43.43600
H  -6.57900 17.47900 41.91000
H  -7.87900 19.06700 39.84600
H  -7.28700 20.86600 41.07300
H  -6.34900 19.71200 42.06500
H  -7.96100 20.30100 42.52200
H  -6.81300 17.57200 39.05500
H  -7.18700 15.99800 39.29700
H  -4.88100 16.13500 40.81100
H  -4.63200 17.43900 39.63100
H  -12.33800 22.02500 39.94600
H  -11.26300 22.21700 41.23200
H  -12.93700 22.67200 41.45800
H  -16.64500 19.76900 43.11400
H  -16.70600 19.36300 41.26600
H  -17.36800 20.88500 42.06400
H  -16.13000 15.06000 41.46800
H  -15.46000 13.66400 44.03600
H  -16.87500 16.78000 43.76800
H  -17.28000 15.24700 44.32600
H  -18.03000 15.85600 42.83700
H  -14.81500 12.32500 41.45900
H  -16.48000 12.83700 41.53300
H  -16.49200 11.71700 44.05300
H  -15.31200 10.69700 43.33400
H  -16.93100 10.93300 42.61200
H  -9.83800 10.42000 43.67100
H  -11.24800 10.54200 42.58700
H  -11.32100 11.02900 44.24400
H  -6.69800 13.94700 40.96200
H  -4.46000 14.86000 44.64400
H  -4.01600 16.09200 43.49600
H  -3.12500 14.51900 43.50700

