158

Mg 47.80700 16.31200 27.94900
C  45.91200 15.98800 30.91100
C  49.89700 18.40800 29.65400
C  49.23800 17.01500 24.98500
C  45.25700 14.46400 26.31800
N  47.89100 17.05400 30.06600
C  47.02600 16.78600 31.07800
C  47.52800 17.36800 32.46700
C  48.61000 18.36600 31.89400
C  48.82400 17.99500 30.41200
C  48.17500 19.80200 32.03900
C  48.02000 16.32600 33.51400
C  47.83800 16.83500 35.00400
H  47.63000 18.27600 35.35400
N  49.50900 17.42800 27.48100
C  50.24600 18.18500 28.33300
C  51.41600 18.73800 27.65500
C  51.20800 18.42500 26.23900
C  49.91600 17.63000 26.12100
C  52.55700 19.41600 28.41800
C  52.16000 18.72200 25.08800
O  51.89400 18.28500 23.95000
C  53.42100 19.55100 25.31000
N  47.37600 15.78700 25.97100
C  48.09000 16.20300 24.91700
C  47.54700 15.64100 23.61200
C  46.30800 14.80700 24.10000
C  46.35500 14.96800 25.59000
C  47.20000 16.68800 22.54400
C  46.35700 13.29900 23.65000
C  45.73300 13.13500 22.25200
N  45.89300 15.50600 28.45200
C  44.94500 14.77900 27.70300
C  43.82200 14.44900 28.50400
C  44.20800 14.81900 29.79200
C  45.43500 15.51100 29.70600
C  42.66700 13.56200 28.09000
C  43.73700 14.77200 31.17500
O  42.75800 14.31700 31.74800
C  44.89500 15.53000 31.90900
C  44.29700 16.73000 32.67100
O  44.03200 17.84100 32.17900
O  44.05100 16.30400 34.00000
C  43.48600 17.36900 34.87000
H  50.57600 19.05100 30.21700
H  49.68200 17.24600 24.01400
H  44.52200 13.75100 25.94000
H  46.64200 17.90900 32.79800
H  49.56700 18.24500 32.40000
H  47.40400 20.15600 32.72300
H  48.04400 20.28400 31.07100
H  49.04100 20.31000 32.46400
H  49.05500 16.09300 33.26500
H  47.39800 15.44900 33.33600
H  48.62600 16.52200 35.68700
H  46.97000 16.29500 35.38000
H  53.43700 18.78200 28.30300
H  52.46900 19.35300 29.50200
H  52.67700 20.42000 28.01200
H  53.58900 20.03500 24.34800
H  54.24100 18.91700 25.64900
H  53.17200 20.35400 26.00400
H  48.25300 14.93400 23.17600
H  45.40300 15.26900 23.70600
H  47.82700 16.63500 21.65400
H  47.41800 17.69100 22.91100
H  46.18200 16.61600 22.16000
H  45.92400 12.60200 24.36700
H  47.40900 13.01300 23.67200
H  44.87600 12.49300 22.45600
H  46.44500 12.74900 21.52300
H  45.32500 14.04800 21.81700
H  43.06300 12.74100 27.49300
H  42.01300 14.26400 27.57300
H  42.11200 13.13900 28.92800
H  45.29700 14.80100 32.61200
H  42.42900 17.39400 34.60600
H  44.06300 18.29300 34.83600
H  43.47400 17.09600 35.92500
Mg -1.87900 34.18500 27.31400
C  -3.58300 32.14900 29.75200
C  -0.62600 36.03100 30.08600
C  -0.61800 36.45600 25.24000
C  -3.55100 32.58300 24.81600
N  -2.12200 34.08300 29.62800
C  -2.88400 33.24900 30.36800
C  -2.86400 33.51100 31.83200
C  -2.03200 34.86600 31.84800
C  -1.52400 35.04700 30.48300
C  -2.95100 36.10800 32.32900
C  -2.16900 32.33300 32.55700
C  -2.95700 31.70700 33.79400
H  -2.23500 31.77400 35.15400
N  -0.67300 35.89300 27.64800
C  -0.17200 36.39500 28.83900
C  0.77800 37.46100 28.49900
C  0.72700 37.69800 27.09500
C  -0.23700 36.70500 26.60000
C  1.61700 38.18000 29.45400
C  1.32700 38.72700 26.25200
O  1.12200 38.91300 25.06400
C  2.35400 39.61700 26.87700
N  -2.06500 34.46500 25.31900
C  -1.51900 35.55300 24.71300
C  -1.93500 35.57900 23.22900
C  -2.53800 34.19200 23.07600
C  -2.77200 33.74400 24.48200
C  -2.97600 36.76400 22.91200
C  -1.70400 33.20000 22.15400
C  -0.94300 32.08400 22.88800
N  -3.23000 32.67600 27.22000
C  -3.75700 32.10000 26.07800
C  -4.71400 31.10300 26.50900
C  -4.59500 31.07800 27.88500
C  -3.68800 32.03400 28.26500
C  -5.59100 30.25400 25.60300
C  -5.09600 30.38500 29.05800
O  -5.88000 29.44200 29.13900
C  -4.48100 31.03900 30.30400
C  -5.67500 31.53000 31.08900
O  -6.54100 32.28400 30.74200
O  -5.62900 30.90300 32.30900
C  -6.79700 30.82000 33.20500
H  -0.17500 36.70900 30.81400
H  -0.27000 37.21000 24.53000
H  -4.07900 32.25200 23.91900
H  -3.88500 33.76600 32.11600
H  -1.23700 34.78700 32.59000
H  -2.45400 36.50300 33.21500
H  -3.97600 35.76400 32.46900
H  -2.92800 36.88600 31.56600
H  -1.17800 32.70400 32.81700
H  -2.03400 31.58100 31.77900
H  -3.28500 30.69000 33.57800
H  -3.90600 32.22600 33.92900
H  1.53900 37.71300 30.43600
H  1.18100 39.17900 29.44200
H  2.61100 38.04000 29.02800
H  1.95100 40.19800 27.70700
H  2.73500 40.33800 26.15400
H  3.20100 39.06700 27.28500
H  -1.08100 35.77000 22.57900
H  -3.54200 34.31900 22.67300
H  -3.90400 36.47800 22.41800
H  -2.48100 37.60800 22.43000
H  -3.33700 37.06000 23.89700
H  -0.96900 33.69600 21.52000
H  -2.36000 32.76800 21.39800
H  -0.43600 32.53000 23.74400
H  -0.17200 31.70400 22.21900
H  -1.65200 31.30500 23.17000
H  -6.49500 30.00900 26.16100
H  -5.11300 29.33800 25.25500
H  -5.90800 30.89600 24.78200
H  -3.85500 30.32100 30.83400
H  -6.92500 29.79000 33.53900
H  -7.72300 31.04900 32.67800
H  -6.61300 31.42200 34.09500

