158

Mg 9.74700 4.21000 27.57500
C  10.88300 2.83600 30.39100
C  7.84200 6.48100 29.39300
C  8.67700 5.62300 24.68100
C  11.04300 1.51900 25.67400
N  9.34300 4.48800 29.65100
C  9.98200 3.88700 30.62600
C  9.69500 4.52900 32.07100
C  8.60700 5.54200 31.70000
C  8.52500 5.48700 30.19700
C  7.16100 5.40600 32.31500
C  10.99100 5.17800 32.63000
C  11.49100 4.59400 33.89400
H  11.83800 5.51500 35.12200
N  8.51100 5.82000 27.09900
C  7.79500 6.62400 27.98700
C  7.15700 7.72400 27.26600
C  7.47000 7.58800 25.85500
C  8.30300 6.34500 25.80300
C  6.24600 8.70300 27.98200
C  6.97900 8.31200 24.66000
O  7.35600 7.98000 23.55400
C  6.04100 9.52800 24.75700
N  9.73300 3.58000 25.42800
C  9.35200 4.42700 24.47700
C  9.83100 3.95500 23.14000
C  10.61600 2.64400 23.47900
C  10.37300 2.51100 24.92900
C  8.63000 3.72900 22.18500
C  12.13500 2.78800 23.13700
C  12.39100 2.88600 21.62900
N  10.66100 2.42100 27.93200
C  11.27700 1.52900 27.07900
C  12.07800 0.67300 27.88000
C  12.02100 1.15700 29.22200
C  11.11700 2.21700 29.14000
C  13.01300 -0.43500 27.42900
C  12.53800 0.93900 30.48000
O  13.33300 0.12000 30.90200
C  11.81100 2.04500 31.34900
C  11.16700 1.39900 32.56200
O  9.95400 1.18700 32.55600
O  12.06000 1.20400 33.56400
C  11.31500 0.77100 34.83100
H  7.44800 7.35500 29.91600
H  8.50700 5.95400 23.65400
H  11.54300 0.71400 25.13100
H  9.16200 3.80500 32.68700
H  8.98500 6.52300 31.98800
H  6.32200 5.61500 31.65100
H  7.16800 6.25400 33.00000
H  6.93800 4.46400 32.81600
H  10.76200 6.23900 32.72700
H  11.80400 5.16500 31.90400
H  12.42300 4.11600 33.59300
H  10.73400 3.89600 34.25300
H  6.32600 9.65400 27.45500
H  6.55100 8.85800 29.01700
H  5.26400 8.23500 28.04800
H  5.82600 9.90500 23.75700
H  6.51500 10.33200 25.32100
H  5.11700 9.20000 25.23200
H  10.51300 4.67100 22.68100
H  10.13600 1.77400 23.03000
H  8.41400 2.70600 21.87600
H  8.83400 4.18900 21.21800
H  7.67100 4.00800 22.62300
H  12.66300 1.86400 23.37300
H  12.50500 3.65900 23.67700
H  12.93200 2.06100 21.16600
H  12.94200 3.82200 21.53100
H  11.51600 3.05300 21.00000
H  12.65100 -0.74000 26.44700
H  12.98800 -1.23600 28.16900
H  14.06600 -0.19800 27.28400
H  12.52000 2.72500 31.82000
H  10.71000 -0.12300 34.68000
H  10.66900 1.58500 35.15700
H  11.99100 0.47500 35.63300
Mg 9.18100 48.89400 26.22900
C  7.09500 49.36500 28.94700
C  11.83800 49.95500 28.10000
C  11.10300 48.43300 23.51500
C  6.32800 48.17700 24.22700
N  9.38100 49.62300 28.31100
C  8.44800 49.68700 29.26800
C  9.05800 50.17000 30.57000
C  10.49300 50.64500 30.08400
C  10.63000 50.01300 28.73100
C  10.77100 52.19400 30.05100
C  9.22400 49.00000 31.60300
C  8.29500 49.05800 32.84500
H  8.42600 48.01500 33.95100
N  11.20700 49.00700 25.86600
C  12.09300 49.50800 26.79000
C  13.44600 49.33900 26.26200
C  13.34000 48.83700 24.97800
C  11.87000 48.77300 24.66400
C  14.73700 49.68800 26.90300
C  14.36000 48.43700 23.93800
O  14.08800 47.81300 22.89200
C  15.77800 48.67000 24.23700
N  8.75900 48.31400 24.14800
C  9.74400 48.31000 23.20000
C  9.19400 47.84500 21.87200
C  7.64100 47.88900 22.03600
C  7.54500 48.08400 23.58300
C  9.50100 48.68600 20.60300
C  6.95800 46.52800 21.55000
C  6.34300 46.64300 20.15200
N  7.16500 48.78500 26.42300
C  6.08500 48.59100 25.58400
C  4.81600 48.72400 26.21400
C  5.17100 48.96000 27.55000
C  6.59100 48.98500 27.64200
C  3.46600 48.72900 25.50400
C  4.69100 49.19200 28.88400
O  3.50800 49.21600 29.29200
C  5.89100 49.39000 29.81100
C  5.93300 48.21000 30.66700
O  6.65700 47.20100 30.72700
O  4.99400 48.52600 31.69900
C  4.70100 47.46800 32.59700
H  12.69400 50.34100 28.65700
H  11.78300 48.32800 22.66600
H  5.41900 48.06600 23.63300
H  8.40400 50.98500 30.87900
H  11.29400 50.13400 30.61700
H  9.92200 52.83600 30.29000
H  11.11200 52.52700 29.07100
H  11.46700 52.43200 30.85500
H  10.20700 48.89000 32.06200
H  9.21000 48.05300 31.06200
H  7.25600 49.04400 32.51500
H  8.49200 50.01800 33.32100
H  14.73800 49.98100 27.95200
H  15.25400 50.48600 26.37000
H  15.34700 48.78600 26.88300
H  16.01600 48.00800 25.07000
H  15.86000 49.72500 24.49700
H  16.29900 48.27900 23.36300
H  9.70500 46.89900 21.68900
H  7.20500 48.76100 21.54800
H  10.03300 49.58400 20.91900
H  8.70900 48.95200 19.90300
H  10.21900 48.10800 20.02100
H  6.08800 46.20700 22.12300
H  7.59100 45.64500 21.46400
H  5.36000 46.17400 20.11300
H  7.07200 46.14600 19.51200
H  6.30300 47.64100 19.71500
H  3.14000 47.91900 24.85200
H  3.34200 49.68100 24.98900
H  2.65300 48.74700 26.22900
H  5.87200 50.35400 30.32000
H  5.31200 47.39000 33.49600
H  4.47300 46.47200 32.21600
H  3.73300 47.73700 33.02100

