158

Mg -2.38000 16.99700 27.56400
C  -2.76200 14.96400 30.34300
C  -2.85300 19.76200 29.60600
C  -2.53800 19.03900 24.69900
C  -2.71500 14.24800 25.41700
N  -2.96600 17.30500 29.76900
C  -2.84200 16.33500 30.74100
C  -2.88000 16.98700 32.14900
C  -3.15600 18.44600 31.88600
C  -2.97900 18.56800 30.36400
C  -4.49300 19.02400 32.33000
C  -1.61400 16.65200 32.99600
C  -1.21100 17.61200 34.16700
H  -0.83400 16.78400 35.47200
N  -2.47900 19.13200 27.23400
C  -2.67400 20.05300 28.19100
C  -2.69700 21.37700 27.54300
C  -2.33400 21.16000 26.16100
C  -2.44900 19.69900 25.96000
C  -3.01500 22.58000 28.37900
C  -2.11400 22.14000 25.02100
O  -2.01300 21.85500 23.86700
C  -1.99100 23.60000 25.45200
N  -2.59200 16.65700 25.37500
C  -2.65100 17.61700 24.39800
C  -2.77900 17.00000 23.01000
C  -2.62100 15.47100 23.23100
C  -2.62600 15.45500 24.72400
C  -4.03500 17.44200 22.26100
C  -1.41900 14.99900 22.40300
C  -0.09400 14.68900 23.17900
N  -2.67400 15.01000 27.79300
C  -2.70400 13.97500 26.90500
C  -2.80700 12.69600 27.50400
C  -2.63000 13.03400 28.81900
C  -2.66300 14.44500 28.99400
C  -3.03000 11.38600 26.95400
C  -2.59300 12.47800 30.16400
O  -2.54800 11.30400 30.56000
C  -2.66200 13.67900 31.24500
C  -1.68000 13.51000 32.23600
O  -0.51600 13.82300 32.14500
O  -2.23700 13.05900 33.46500
C  -1.39400 12.88700 34.67700
H  -2.98200 20.58700 30.30900
H  -2.48100 19.64100 23.79000
H  -2.72500 13.35900 24.78200
H  -3.68600 16.64200 32.79700
H  -2.48200 19.14800 32.37700
H  -5.23400 18.32300 32.71400
H  -4.98700 19.58400 31.53500
H  -4.39300 19.73100 33.15300
H  -0.71100 16.47900 32.41000
H  -1.78100 15.70700 33.51300
H  -2.12800 18.08100 34.52300
H  -0.42600 18.34600 33.98400
H  -2.14700 23.22300 28.53000
H  -3.45600 22.32100 29.34200
H  -3.77200 23.08900 27.78300
H  -2.05100 24.13200 24.50300
H  -1.19500 23.85800 26.15100
H  -2.94300 23.79800 25.94500
H  -1.91000 17.35300 22.45500
H  -3.53900 14.95400 22.95100
H  -4.74800 17.90100 22.94600
H  -4.39000 16.59900 21.66800
H  -3.88500 18.19200 21.48400
H  -1.12600 15.59500 21.53900
H  -1.74900 14.03300 22.02200
H  -0.11500 14.95600 24.23500
H  0.64100 15.27500 22.62700
H  0.24100 13.65600 23.08100
H  -2.36400 10.66600 27.43000
H  -2.88900 11.27800 25.87800
H  -4.02400 11.10300 27.30100
H  -3.57500 13.71700 31.83900
H  -1.79700 13.47500 35.50200
H  -0.33600 13.13900 34.59500
H  -1.41900 11.82700 34.92900
Mg -13.09500 15.59300 43.14600
C  -10.44300 13.43400 42.32900
C  -11.65700 18.01800 41.39900
C  -16.16400 17.17100 42.95900
C  -14.78100 12.72800 44.50300
N  -11.31200 15.60800 41.82100
C  -10.35500 14.73600 41.72700
C  -9.09000 15.34800 41.08000
C  -9.37100 16.88500 41.11900
C  -10.90600 16.84800 41.49200
C  -8.49100 17.65100 42.20000
C  -8.70300 14.80500 39.75000
C  -7.22100 14.68800 39.38500
H  -6.63500 15.60000 38.21600
N  -13.76300 17.42800 42.43500
C  -13.00900 18.25000 41.68400
C  -13.66200 19.45900 41.39600
C  -15.00800 19.28800 41.88400
C  -15.04500 17.89400 42.46700
C  -13.11100 20.71300 40.72300
C  -16.10200 20.36700 41.84000
O  -15.89200 21.42900 41.16900
C  -17.48700 20.32000 42.48400
N  -15.21100 14.93000 43.59200
C  -16.18400 15.84000 43.54100
C  -17.51700 15.15200 44.07800
C  -17.01600 13.76100 44.73300
C  -15.59500 13.76400 44.19600
C  -18.42000 16.08400 44.97800
C  -17.81400 12.50300 44.51200
C  -18.13200 11.63000 45.75600
N  -12.69200 13.49900 43.53400
C  -13.43200 12.56800 44.16200
C  -12.62100 11.35700 44.28200
C  -11.41100 11.60600 43.64600
C  -11.53500 12.93900 43.13600
C  -13.02600 10.10600 44.96700
C  -10.09700 11.12600 43.27200
O  -9.47100 10.11200 43.53700
C  -9.47200 12.35600 42.37900
C  -8.23900 12.85100 43.06500
O  -8.16500 13.51800 44.08300
O  -7.16300 12.33200 42.38000
C  -5.79700 12.53600 42.76200
H  -11.08600 18.90200 41.10500
H  -17.17400 17.58400 42.91700
H  -15.35500 11.88800 44.89800
H  -8.33700 15.11800 41.83400
H  -9.25600 17.37000 40.15000
H  -9.06400 17.75400 43.12200
H  -8.11600 18.62300 41.87900
H  -7.64000 17.01200 42.43300
H  -9.23800 15.48000 39.08200
H  -9.06100 13.77600 39.76100
H  -7.21200 13.68900 38.94900
H  -6.64600 14.75500 40.30900
H  -12.06800 20.62200 40.42000
H  -13.27600 21.59100 41.34800
H  -13.64600 20.82100 39.77900
H  -17.53000 19.67600 43.36200
H  -18.06300 19.76800 41.74100
H  -17.91100 21.30200 42.69100
H  -18.15200 14.93200 43.22000
H  -16.91000 13.92800 45.80500
H  -17.71900 16.76100 45.46700
H  -18.96900 15.46400 45.68600
H  -19.19700 16.54900 44.37200
H  -17.38100 11.78000 43.82100
H  -18.82400 12.80800 44.23700
H  -19.13400 11.66700 46.18400
H  -17.70100 11.92900 46.71200
H  -17.81300 10.59700 45.61800
H  -12.18000 9.77200 45.56700
H  -13.19800 9.51200 44.07000
H  -13.86300 10.15100 45.66400
H  -9.25400 11.96800 41.38500
H  -5.55200 13.20200 43.59000
H  -5.39100 12.97500 41.85100
H  -5.22400 11.61100 42.83200

