158

Mg 40.70500 9.89400 30.04500
C  42.56300 11.10300 32.68300
C  38.23200 8.79300 32.12300
C  39.12200 8.54200 27.49700
C  43.36300 10.82900 27.83400
N  40.49100 9.84500 32.19200
C  41.33700 10.48800 33.04400
C  40.65000 10.55900 34.49500
C  39.34100 9.73700 34.26000
C  39.35300 9.41700 32.83500
C  39.20900 8.42500 35.06400
C  40.28400 11.96700 34.94200
C  39.95200 12.06600 36.42400
H  40.91500 12.90000 37.34500
N  38.96000 8.64400 29.85600
C  38.04100 8.41000 30.83800
C  36.86000 7.87200 30.31500
C  37.13400 7.67600 28.90000
C  38.46900 8.24700 28.68900
C  35.69300 7.29700 31.20100
C  36.29500 7.07800 27.76700
O  36.72900 6.90000 26.58500
C  34.92000 6.60100 28.17500
N  41.20400 9.79600 27.93700
C  40.32800 9.11900 27.16500
C  40.81500 9.14000 25.70600
C  42.15300 10.00900 25.74500
C  42.31000 10.13100 27.24500
C  41.11500 7.66000 25.16000
C  41.89100 11.46700 25.23400
C  40.60200 12.25400 25.60500
N  42.60200 10.78500 30.20100
C  43.48500 11.15400 29.25700
C  44.59200 11.79800 29.84100
C  44.21200 11.95000 31.21100
C  43.03600 11.19300 31.35600
C  45.93300 12.21000 29.20800
C  44.66900 12.49100 32.46000
O  45.63000 13.12700 32.76900
C  43.45900 12.03400 33.48500
C  44.11200 11.33100 34.54200
O  44.86300 10.36700 34.46500
O  43.71100 11.83500 35.72500
C  44.06400 11.13900 36.92300
H  37.33600 8.54800 32.69700
H  38.67800 8.27300 26.53600
H  44.26000 11.06900 27.26000
H  41.27800 10.08600 35.25000
H  38.40000 10.28700 34.27400
H  38.14200 8.20500 35.08700
H  39.66300 8.64600 36.02900
H  39.80800 7.67000 34.55600
H  39.51000 12.29900 34.25100
H  41.15000 12.61900 34.83200
H  39.99500 11.07900 36.88600
H  38.93500 12.45600 36.43200
H  34.68900 7.37900 30.78400
H  35.69700 7.54500 32.26200
H  35.73600 6.20800 31.21700
H  35.08800 5.84700 28.94400
H  34.43200 6.13800 27.31700
H  34.39600 7.51600 28.45200
H  40.10200 9.59600 25.02000
H  42.96900 9.40900 25.34200
H  41.67200 7.03100 25.85400
H  41.61500 7.61900 24.19200
H  40.16800 7.13300 25.04400
H  42.04200 11.49500 24.15500
H  42.65300 12.19500 25.51300
H  40.18600 12.56400 24.64700
H  40.77000 13.11100 26.25600
H  39.89000 11.59100 26.09700
H  46.69300 12.43800 29.95600
H  45.79100 13.06700 28.54900
H  46.38500 11.43800 28.58500
H  43.15900 13.00000 33.89200
H  45.15300 11.13300 36.97000
H  43.70400 10.11800 36.79400
H  43.59400 11.50800 37.83400
Mg 16.99100 52.63600 26.43000
C  18.86000 51.05700 28.90000
C  14.63800 53.33500 28.87900
C  14.94900 53.89600 24.11600
C  19.15400 51.42500 24.00800
N  16.85900 52.38300 28.66800
C  17.72900 51.72400 29.46100
C  17.50100 52.06800 30.93000
C  16.00200 52.48900 30.90200
C  15.77900 52.81200 29.35700
C  15.04800 51.30500 31.37100
C  18.45800 53.11800 31.60600
C  19.01700 52.78700 33.04400
H  17.87400 52.33200 33.93400
N  15.08100 53.49700 26.49200
C  14.26600 53.71800 27.54400
C  13.05400 54.34800 27.14800
C  13.18900 54.64800 25.77500
C  14.48800 54.05400 25.39600
C  11.96200 54.74000 28.13900
C  12.22900 55.36700 24.84900
O  12.45000 55.56800 23.64800
C  10.92500 55.91700 25.36600
N  16.97300 52.47800 24.33100
C  16.13000 53.23300 23.63600
C  16.67500 53.42600 22.14500
C  17.96900 52.69300 22.18800
C  18.07500 52.16600 23.63400
C  15.77600 52.83900 21.01100
C  19.23700 53.54500 21.68600
C  20.22500 54.00100 22.83200
N  18.64600 51.38200 26.36700
C  19.43400 50.94900 25.32400
C  20.49700 50.13500 25.81400
C  20.31900 50.11700 27.22700
C  19.16000 50.89100 27.54100
C  21.57400 49.36800 24.94100
C  20.88200 49.70200 28.47000
O  21.82400 48.97800 28.70600
C  19.96600 50.34200 29.63300
C  19.44900 49.21700 30.45200
O  18.59300 48.42200 30.08200
O  20.18800 49.16700 31.63700
C  19.72200 48.08600 32.47900
H  13.98200 53.54600 29.72700
H  14.40100 54.35600 23.29100
H  19.99000 51.21000 23.33900
H  17.61300 51.15100 31.50900
H  15.79000 53.39900 31.46400
H  15.58500 50.39600 31.64400
H  14.39300 50.95700 30.57200
H  14.50300 51.61700 32.26100
H  17.89900 54.05300 31.61500
H  19.25700 53.25700 30.87700
H  19.53000 53.69400 33.36400
H  19.79200 52.03400 32.90100
H  10.96300 54.53400 27.75600
H  11.98900 55.82500 28.23600
H  12.12600 54.19900 29.07100
H  10.52700 56.51900 24.54900
H  11.13400 56.51200 26.25500
H  10.35200 55.02500 25.61700
H  16.83400 54.50400 22.12400
H  17.89800 51.80100 21.56600
H  14.77000 53.25700 21.02600
H  15.57800 51.81600 21.32900
H  16.18100 52.94800 20.00400
H  18.86800 54.41100 21.13700
H  19.65100 52.79600 21.01100
H  19.68200 54.05000 23.77600
H  20.58400 55.01900 22.68400
H  21.13000 53.39400 22.82900
H  21.03200 48.96000 24.08800
H  22.02400 48.46000 25.34300
H  22.34600 50.09600 24.69200
H  20.55000 51.03200 30.24200
H  18.63700 48.01000 32.55100
H  20.08800 48.22100 33.49600
H  20.08500 47.10900 32.16000

