158

Mg 53.58400 25.51300 44.03800
C  50.74800 27.46500 43.93800
C  51.72200 22.87000 42.80200
C  56.42700 23.76100 43.84000
C  55.44800 28.42000 45.08300
N  51.56300 25.25700 43.43600
C  50.59800 26.21800 43.35100
C  49.23200 25.72100 42.78500
C  49.43600 24.19800 42.94600
C  51.02000 24.05000 43.14200
C  48.51500 23.44700 43.99700
C  48.97200 26.22700 41.26200
C  50.15600 26.29600 40.30000
H  50.10100 25.51500 38.93600
N  53.99500 23.58400 43.40500
C  53.13700 22.67400 42.86900
C  53.84400 21.49600 42.47900
C  55.21700 21.74900 42.86600
C  55.29900 23.07700 43.37000
C  53.16400 20.31300 41.96700
C  56.16000 20.62600 42.81700
O  55.81400 19.47500 42.52500
C  57.52600 20.74900 43.48800
N  55.70600 26.09900 44.13700
C  56.65600 25.12500 44.24300
C  57.97100 25.67000 44.87000
C  57.68000 27.20300 45.08200
C  56.20100 27.25200 44.73500
C  58.35800 25.00200 46.25000
C  58.45100 28.15300 44.15700
C  58.33100 27.89800 42.61200
N  53.18800 27.48400 44.50500
C  54.00800 28.56400 45.00000
C  53.20400 29.62300 45.42800
C  51.95900 29.28400 44.92200
C  51.95000 27.98300 44.42000
C  53.59700 30.90100 46.17900
C  50.58800 29.78400 44.82300
O  50.07300 30.81800 45.18900
C  49.77300 28.66200 44.08500
C  49.50700 29.12800 42.69200
O  50.33400 29.32500 41.79800
O  48.21700 29.39900 42.56400
C  47.67800 29.95300 41.36000
H  51.14700 22.02000 42.42800
H  57.34100 23.18200 43.98800
H  55.98800 29.26200 45.52200
H  48.35400 26.06800 43.33000
H  49.17800 23.70300 42.01000
H  49.03300 22.76000 44.66600
H  47.79100 22.89600 43.39700
H  48.01600 24.26000 44.52400
H  48.51900 27.21900 41.27900
H  48.19700 25.64100 40.76900
H  51.04100 25.84700 40.75100
H  50.46700 27.30800 40.03900
H  53.61700 19.89900 41.06700
H  52.10400 20.47400 41.77600
H  53.25700 19.49500 42.68100
H  57.91100 19.73500 43.38400
H  57.55800 21.02800 44.54100
H  58.10300 21.42900 42.86100
H  58.82500 25.62300 44.19400
H  57.68300 27.56300 46.11000
H  59.01900 24.16600 46.02300
H  57.44500 24.56300 46.65400
H  58.81200 25.65000 46.99900
H  59.49800 28.04800 44.44300
H  58.00300 29.14100 44.26900
H  59.28400 27.58700 42.18300
H  58.05500 28.84800 42.15400
H  57.59700 27.17200 42.26100
H  54.46500 30.86100 46.83600
H  52.79300 31.34400 46.76800
H  53.90500 31.66800 45.46800
H  48.80800 28.40700 44.52500
H  46.59800 30.05900 41.46900
H  47.85200 29.44500 40.41100
H  47.99900 30.99100 41.27900
Mg 29.52600 57.67900 40.35800
C  26.73900 55.94600 39.25700
C  31.47700 55.12900 39.25300
C  32.12400 59.81100 40.61300
C  27.31000 60.37700 41.15800
N  29.16000 55.73500 39.30600
C  27.92700 55.24000 39.04200
C  28.12700 53.90700 38.30500
C  29.52500 53.47300 38.85100
C  30.11700 54.83900 39.14000
C  29.36100 52.72500 40.21700
C  28.16300 54.17700 36.75000
C  26.94300 53.74400 35.89300
H  26.40900 54.83600 34.91900
N  31.53900 57.55600 39.86600
C  32.17300 56.34100 39.56000
C  33.53600 56.67600 39.50800
C  33.73900 58.04900 39.89600
C  32.43500 58.57500 40.08700
C  34.55900 55.72200 39.01000
C  35.10700 58.66600 39.86800
O  36.11600 57.96200 39.64200
C  35.35900 60.14800 39.92100
N  29.69700 59.84000 40.81100
C  30.88900 60.44000 40.93500
C  30.73800 61.93100 41.12500
C  29.29000 61.94900 41.68000
C  28.70200 60.65500 41.18000
C  31.71700 62.50700 42.25900
C  28.51200 63.21800 41.33200
C  27.56600 63.73100 42.44700
N  27.46100 58.09800 40.31900
C  26.72500 59.23600 40.65000
C  25.29100 58.95900 40.56500
C  25.20700 57.66100 39.95100
C  26.54900 57.18100 39.85000
C  24.12000 59.81700 40.99600
C  24.26200 56.66800 39.39200
O  23.12600 56.67700 39.24500
C  25.25700 55.52500 38.82400
C  24.91700 54.20000 39.34000
O  25.42300 53.74300 40.37800
O  24.24300 53.46300 38.38500
C  23.94500 52.01800 38.75300
H  32.16900 54.30600 39.06400
H  33.03500 60.30300 40.96100
H  26.60200 61.18100 41.36700
H  27.30400 53.20500 38.43900
H  30.07800 52.96100 38.06300
H  28.37500 52.27300 40.31500
H  29.64700 53.32500 41.08100
H  30.11300 51.93700 40.26100
H  29.05900 53.69300 36.36300
H  28.22000 55.24900 36.56100
H  26.16400 53.23000 36.45600
H  27.27700 52.84500 35.37400
H  34.81100 56.17200 38.05000
H  34.18500 54.73300 38.74500
H  35.43500 55.55300 39.63700
H  34.52600 60.76300 39.58200
H  36.30000 60.37700 39.42000
H  35.52600 60.42000 40.96300
H  30.92200 62.51700 40.22500
H  29.25700 61.72100 42.74600
H  32.20800 61.67700 42.76700
H  31.16400 63.08800 42.99600
H  32.46600 63.19200 41.86100
H  27.81900 63.08800 40.50100
H  29.31300 63.93100 41.13500
H  27.45000 63.02600 43.26900
H  26.55600 63.90400 42.07700
H  28.03900 64.56800 42.96100
H  23.97800 60.70700 40.38200
H  24.09000 59.99500 42.07100
H  23.24900 59.17900 40.84700
H  25.10100 55.50900 37.74600
H  22.86700 51.87600 38.82300
H  24.35200 51.58900 39.66900
H  24.18800 51.30600 37.96400

