158

Mg 35.39600 47.86500 24.88200
C  35.58900 46.15000 27.95600
C  33.74600 50.54000 26.52100
C  34.77000 49.38800 21.85400
C  36.64400 45.09800 23.36800
N  34.68900 48.22800 26.98800
C  35.00200 47.42300 28.10300
C  34.70100 48.24300 29.36400
C  33.94600 49.48300 28.86500
C  34.15200 49.47900 27.35500
C  32.48000 49.61700 29.38600
C  36.01400 48.50600 30.11900
C  36.10300 47.89200 31.50700
H  35.79700 48.80300 32.76400
N  34.52000 49.82400 24.28500
C  33.94700 50.75800 25.12600
C  33.50700 51.91600 24.33300
C  33.83700 51.62100 22.92300
C  34.40300 50.22700 22.93700
C  32.83600 53.15800 24.95500
C  33.56200 52.42200 21.61200
O  33.80100 52.06800 20.44200
C  33.00200 53.79900 21.72000
N  35.55700 47.24400 22.85800
C  35.31300 48.05900 21.83100
C  35.66800 47.37700 20.52500
C  36.36000 46.06000 21.02700
C  36.16600 46.08900 22.49600
C  34.41600 47.15800 19.66800
C  37.86800 45.95000 20.67600
C  38.80000 46.95400 21.28000
N  36.13000 46.01600 25.49600
C  36.61900 45.03200 24.74300
C  37.19100 43.94600 25.60600
C  36.75500 44.33300 26.87200
C  36.05800 45.56800 26.75500
C  37.80400 42.57600 25.08600
C  36.66600 43.88900 28.25300
O  37.15100 43.00000 28.93400
C  36.06000 45.20700 29.06000
C  34.95900 44.61300 29.79400
O  33.85100 44.31100 29.41300
O  35.37400 44.36200 31.05700
C  34.52200 43.48400 31.86200
H  33.16300 51.33500 26.99000
H  34.57800 49.90000 20.90800
H  37.28600 44.33800 22.91900
H  34.03400 47.59500 29.93100
H  34.38300 50.40100 29.25900
H  31.77200 49.26400 28.63600
H  32.26700 50.66400 29.60500
H  32.32300 49.10900 30.33800
H  36.02900 49.59500 30.12700
H  36.94500 48.16800 29.66500
H  37.00500 47.30300 31.67300
H  35.39100 47.06600 31.50500
H  31.82200 53.25000 24.56500
H  33.35600 54.11300 24.88700
H  32.81700 53.17400 26.04500
H  32.95000 54.31900 20.76400
H  33.69100 54.43000 22.28100
H  32.08900 53.78500 22.31500
H  36.30600 48.02200 19.92100
H  35.88400 45.14500 20.67500
H  34.49000 46.15200 19.25400
H  34.43400 47.80700 18.79300
H  33.49100 47.31800 20.22000
H  37.91300 46.11300 19.59900
H  38.27500 44.96000 20.87700
H  39.67800 47.15700 20.66700
H  39.15300 46.44100 22.17500
H  38.29400 47.89100 21.51000
H  38.70300 42.35400 25.66200
H  37.86900 42.56500 23.99800
H  36.94900 41.96000 25.36400
H  36.83600 45.59800 29.71700
H  33.80600 44.04400 32.46200
H  35.09400 43.02000 32.66500
H  34.05500 42.68800 31.28200
Mg -0.70100 44.04500 26.33400
C  1.74400 43.74800 28.77400
C  -3.17900 43.83300 28.77000
C  -3.02700 43.87900 23.88100
C  1.75200 44.23400 23.90400
N  -0.67300 43.95900 28.53600
C  0.48400 43.78700 29.35100
C  0.05200 43.64800 30.79900
C  -1.47700 43.56600 30.67900
C  -1.79900 43.84200 29.20900
C  -2.15300 42.35100 31.37100
C  0.49000 44.96900 31.45400
C  0.13400 45.18700 32.87700
H  -0.12000 44.04700 33.84300
N  -2.80800 43.83900 26.35100
C  -3.62900 43.80700 27.43600
C  -4.95900 43.72000 27.00700
C  -4.98500 43.73100 25.58600
C  -3.58800 43.72500 25.17500
C  -6.11000 43.67200 27.98800
C  -6.15000 43.67300 24.61100
O  -6.03800 43.75300 23.36100
C  -7.64200 43.59600 25.12700
N  -0.64400 43.91000 24.20600
C  -1.72300 43.90400 23.43300
C  -1.41900 44.08000 21.98200
C  0.10400 44.48100 21.98400
C  0.48100 44.19600 23.46100
C  -1.59900 42.83900 21.08700
C  0.24300 45.96600 21.63900
C  1.62500 46.35800 21.05400
N  1.34700 44.05600 26.26600
C  2.23200 44.10800 25.23800
C  3.62000 44.00200 25.72500
C  3.42300 43.76200 27.10100
C  2.05300 43.83300 27.38800
C  4.84900 44.33900 25.01500
C  4.20100 43.56800 28.30700
O  5.39300 43.39600 28.51400
C  3.16200 43.63000 29.45700
C  3.24500 42.41300 30.30700
O  2.79900 41.30500 29.93100
O  3.80500 42.71200 31.52800
C  4.20800 41.56600 32.39600
H  -3.91900 43.59300 29.53700
H  -3.74200 43.77500 23.06200
H  2.50300 44.28900 23.11300
H  0.59400 42.86900 31.33500
H  -1.84500 44.46300 31.17700
H  -2.85100 41.79400 30.74600
H  -2.72600 42.69300 32.23300
H  -1.46000 41.57400 31.69200
H  -0.07900 45.72900 30.91900
H  1.55700 45.18700 31.40400
H  -0.72600 45.85600 32.86900
H  1.02600 45.72400 33.19900
H  -6.78600 44.45700 27.65000
H  -5.87200 43.89500 29.02800
H  -6.48700 42.65100 27.92700
H  -8.36600 43.32000 24.36000
H  -7.73600 44.62300 25.48000
H  -7.78300 42.82600 25.88600
H  -2.06800 44.88900 21.64700
H  0.60100 43.81400 21.28000
H  -1.28000 41.87800 21.49000
H  -1.07400 43.02700 20.15000
H  -2.65600 42.71100 20.85300
H  0.22900 46.60300 22.52300
H  -0.56800 46.30900 20.99600
H  2.39400 46.33000 21.82600
H  1.54700 47.31600 20.53900
H  1.89500 45.74000 20.19800
H  4.89200 43.63900 24.18000
H  5.74600 44.19700 25.61800
H  4.69000 45.37300 24.70700
H  3.37400 44.54200 30.01400
H  5.23500 41.62900 32.75400
H  4.11200 40.59000 31.91900
H  3.58900 41.59000 33.29300

