158

Mg 24.43500 -5.20500 45.88400
C  26.87800 -3.42000 44.27800
C  22.12500 -3.99800 43.84800
C  22.29200 -7.69800 46.89600
C  27.01500 -6.96700 47.65200
N  24.56400 -3.96700 44.25100
C  25.61500 -3.21800 43.79800
C  25.15600 -2.29000 42.70000
C  23.60400 -2.26200 42.84700
C  23.42600 -3.48300 43.69200
C  22.87000 -1.13400 43.55600
C  25.69400 -2.69000 41.31500
C  26.18100 -1.50400 40.50500
H  27.01200 -1.75300 39.14800
N  22.45000 -5.77200 45.45300
C  21.62400 -5.04400 44.62400
C  20.30200 -5.65900 44.64600
C  20.34900 -6.84900 45.48200
C  21.76100 -6.78200 46.04000
C  19.17100 -5.11900 43.72800
C  19.21400 -7.72800 45.77400
O  18.09300 -7.48800 45.26200
C  19.23100 -8.70300 46.86400
N  24.67700 -7.01000 47.26000
C  23.63900 -7.87300 47.40400
C  24.13100 -9.14600 48.09100
C  25.42000 -8.62400 48.77400
C  25.72100 -7.45500 47.88500
C  23.22900 -9.90300 49.05300
C  26.52700 -9.78600 48.86300
C  27.06300 -10.03400 50.32100
N  26.57900 -5.24400 45.97000
C  27.47200 -5.92600 46.78800
C  28.79000 -5.36400 46.65800
C  28.70800 -4.43400 45.57600
C  27.31800 -4.37100 45.26900
C  30.03600 -5.63400 47.34300
C  29.41900 -3.49100 44.82500
O  30.61500 -3.17300 44.92200
C  28.31300 -2.72400 43.90200
C  28.28300 -1.28600 44.39800
O  28.16400 -0.93000 45.56500
O  28.36000 -0.42500 43.37200
C  28.11400 1.01600 43.80400
H  21.32800 -3.40700 43.39100
H  21.66100 -8.58200 47.01200
H  27.92900 -7.44300 48.01300
H  25.54000 -1.28300 42.86200
H  23.04300 -2.43600 41.92900
H  23.54500 -0.41800 44.02400
H  22.22000 -1.54200 44.33000
H  22.22900 -0.64200 42.82500
H  24.90100 -3.24900 40.81900
H  26.51100 -3.40000 41.43700
H  26.73700 -0.76300 41.07900
H  25.24100 -1.08700 40.14500
H  18.40400 -4.63100 44.32900
H  18.68600 -5.87300 43.10900
H  19.46600 -4.39600 42.96700
H  18.21400 -8.92600 47.18700
H  19.67900 -8.18300 47.71100
H  19.85100 -9.55300 46.57800
H  24.36500 -9.78500 47.23900
H  25.31100 -8.16700 49.75800
H  22.37700 -9.25000 49.24000
H  23.93200 -9.99800 49.88100
H  22.89300 -10.83900 48.60700
H  27.42600 -9.44900 48.34700
H  26.15900 -10.71600 48.42900
H  26.67000 -9.27200 50.99400
H  28.15200 -10.00500 50.37300
H  26.72800 -11.03300 50.59800
H  29.79700 -5.61000 48.40700
H  30.75700 -4.95600 46.88700
H  30.45400 -6.63900 47.30100
H  28.42600 -2.75200 42.81800
H  27.75600 1.56400 42.93300
H  28.94500 1.48700 44.32800
H  27.17500 1.10900 44.35000
Mg -10.65200 40.24600 39.53900
C  -9.21300 36.98900 38.86800
C  -7.82400 41.60600 38.28200
C  -12.25200 43.10500 39.36300
C  -13.56300 38.56500 40.55700
N  -8.82000 39.39700 38.68200
C  -8.41000 38.06900 38.44800
C  -6.95800 37.99400 37.92100
C  -6.53100 39.40700 38.52100
C  -7.76600 40.23400 38.39000
C  -5.97000 39.34700 40.00200
C  -6.88500 37.88200 36.35900
C  -6.16600 36.66000 35.82700
H  -6.85800 35.91300 34.72500
N  -10.08300 42.12600 38.93800
C  -8.83600 42.54600 38.49700
C  -8.83200 43.94800 38.37900
C  -10.08300 44.42000 38.69300
C  -10.86600 43.22300 39.03700
C  -7.53600 44.73000 37.93000
C  -10.57400 45.81700 38.52400
O  -9.78300 46.61100 38.13200
C  -11.95700 46.35700 38.81500
N  -12.63000 40.76100 39.83900
C  -13.08500 42.04500 39.69300
C  -14.49700 42.21100 40.17700
C  -14.90200 40.73500 40.46400
C  -13.64600 39.97700 40.30800
C  -14.56500 43.00000 41.41600
C  -15.95500 40.22500 39.47300
C  -17.37400 40.15600 40.00900
N  -11.25200 38.16900 39.88500
C  -12.45600 37.69200 40.30000
C  -12.32100 36.23500 40.60300
C  -11.13500 35.93800 39.95300
C  -10.51600 37.15000 39.52400
C  -13.26800 35.30000 41.26900
C  -10.21800 34.83400 39.53800
O  -10.36700 33.64800 39.70900
C  -8.99400 35.48200 38.79800
C  -7.77500 35.00800 39.45700
O  -7.35700 35.51300 40.53900
O  -7.12300 34.00700 38.69800
C  -5.77800 33.68900 39.21100
H  -6.88900 41.93200 37.82100
H  -12.78400 44.05500 39.44100
H  -14.51200 38.09900 40.82900
H  -6.41800 37.16200 38.37300
H  -5.86100 39.97800 37.87900
H  -6.76500 39.67500 40.67100
H  -5.14900 40.05400 40.12300
H  -5.75400 38.31300 40.27100
H  -6.29600 38.73100 36.01200
H  -7.87900 37.82700 35.91500
H  -6.01200 35.87800 36.57100
H  -5.21100 36.90800 35.36400
H  -7.52000 44.91200 36.85600
H  -6.67400 44.12000 38.20100
H  -7.39400 45.66200 38.47800
H  -12.60600 46.08500 37.98300
H  -11.76200 47.42500 38.72000
H  -12.26700 45.96900 39.78600
H  -15.09900 42.71000 39.41800
H  -15.26600 40.62800 41.48600
H  -13.84300 42.53700 42.08800
H  -15.57600 43.08700 41.81400
H  -14.47900 44.08500 41.35200
H  -15.79700 39.22100 39.08000
H  -15.94000 40.96900 38.67700
H  -17.85600 39.28800 39.55900
H  -17.99000 41.03800 39.83400
H  -17.41300 40.02600 41.09000
H  -13.29200 35.52500 42.33500
H  -12.93700 34.30500 40.97100
H  -14.22700 35.35800 40.75500
H  -8.90300 35.18800 37.75200
H  -5.73000 33.71600 40.29900
H  -4.97400 34.38900 38.98000
H  -5.51400 32.66100 38.96300

