158

Mg -0.09100 8.13200 26.89000
C  0.50800 10.01900 29.62500
C  -0.20800 5.30400 28.87500
C  -0.34600 6.27500 24.04200
C  0.23900 10.98200 24.85100
N  0.12900 7.73700 28.96300
C  0.31500 8.69300 29.90800
C  0.23800 8.03500 31.37800
C  0.29300 6.47400 31.09100
C  0.09200 6.49700 29.53000
C  1.65500 5.67600 31.41300
C  -1.11300 8.41500 32.05600
C  -1.19400 8.37600 33.60100
H  0.02600 7.92000 34.43900
N  -0.40900 6.13800 26.47400
C  -0.33500 5.13300 27.46600
C  -0.56300 3.84000 26.80900
C  -0.64300 4.06000 25.38700
C  -0.43700 5.53700 25.21000
C  -0.66400 2.49100 27.51700
C  -0.90400 3.07200 24.21600
O  -0.92200 3.44000 23.08900
C  -1.28500 1.66400 24.57400
N  -0.10800 8.58600 24.84900
C  -0.25400 7.64500 23.84100
C  -0.17600 8.32500 22.39400
C  -0.34000 9.80700 22.72100
C  0.00900 9.79500 24.19700
C  1.18200 8.11800 21.64600
C  -1.64400 10.48700 22.32500
C  -2.99900 9.80900 22.47200
N  0.40600 10.11700 27.17300
C  0.48700 11.17000 26.25200
C  0.86500 12.32700 26.99100
C  0.98000 11.91500 28.29900
C  0.58800 10.60200 28.35100
C  1.17900 13.66900 26.36900
C  1.27500 12.32900 29.65400
O  1.65900 13.46200 30.06000
C  0.84900 11.15200 30.55300
C  2.11900 10.85000 31.37700
O  3.14400 10.33100 30.98800
O  1.90200 11.13200 32.68600
C  2.90900 10.63000 33.63200
H  -0.27100 4.40500 29.49200
H  -0.24200 5.66200 23.14400
H  0.24200 11.85700 24.19700
H  1.14400 8.32000 31.91400
H  -0.45700 5.82900 31.54900
H  1.53200 4.72600 31.93300
H  2.25500 6.35500 32.01900
H  2.20500 5.46600 30.49600
H  -1.92000 7.78300 31.68500
H  -1.44100 9.42700 31.81500
H  -2.10200 7.84100 33.87600
H  -1.35600 9.41300 33.89500
H  -1.65400 2.06700 27.68300
H  -0.16200 2.62700 28.47600
H  -0.05300 1.74000 27.01600
H  -0.40000 1.07300 24.80800
H  -1.62500 1.25000 23.62400
H  -2.01800 1.74200 25.37600
H  -0.95400 8.03000 21.69000
H  0.43600 10.35300 22.18400
H  1.09100 7.33900 20.88900
H  1.97600 7.78000 22.31200
H  1.44400 8.92600 20.96400
H  -1.44800 10.70400 21.27500
H  -1.72600 11.39900 22.91600
H  -3.31600 9.53100 21.46700
H  -3.71000 10.49100 22.94000
H  -2.88600 8.95000 23.13300
H  1.20700 14.48400 27.09200
H  0.58900 14.01300 25.51900
H  2.16700 13.40800 25.98900
H  0.03400 11.47000 31.20300
H  2.73700 11.06900 34.61500
H  3.95100 10.78800 33.35300
H  2.67900 9.57300 33.76600
Mg 50.07200 45.35500 41.11300
C  46.85400 46.07900 40.10500
C  49.70100 42.11400 39.98700
C  53.54100 44.82900 41.22400
C  50.71900 48.77900 41.63200
N  48.39600 44.18000 40.23600
C  47.08900 44.67700 39.95500
C  46.23500 43.51100 39.38500
C  47.17200 42.23300 39.50400
C  48.49800 42.88100 39.92700
C  46.55900 41.17900 40.53100
C  45.71100 43.68400 37.96900
C  44.61500 42.70600 37.48000
H  44.91900 41.88500 36.21900
N  51.34600 43.67700 40.82900
C  51.00800 42.41700 40.31400
C  52.19100 41.57600 40.27800
C  53.29300 42.41400 40.72500
C  52.74600 43.72900 40.95800
C  52.24000 40.11200 39.87400
C  54.65500 41.87600 40.96800
O  54.85800 40.66100 40.86900
C  55.88500 42.60600 41.56200
N  51.85800 46.61100 41.33500
C  53.15300 46.13400 41.36500
C  54.15600 47.26800 41.66000
C  53.19500 48.44300 41.99700
C  51.83700 47.87900 41.68300
C  55.31300 46.98700 42.72700
C  53.48600 49.76400 41.26900
C  53.27900 51.06400 42.07500
N  49.06200 47.08400 41.02700
C  49.41800 48.39500 41.24300
C  48.28000 49.31400 41.13400
C  47.25900 48.39500 40.59500
C  47.76800 47.07200 40.59100
C  48.28200 50.75600 41.31300
C  45.88100 48.37400 40.05500
O  45.09400 49.29800 39.76800
C  45.60600 46.91100 39.83000
C  44.45900 46.50300 40.80500
O  44.48000 46.55200 41.99900
O  43.43400 46.12700 40.02400
C  42.13500 45.84700 40.69000
H  49.56900 41.06400 39.72000
H  54.62400 44.70100 41.27700
H  50.84900 49.79300 42.01600
H  45.29800 43.43200 39.93600
H  47.17400 41.71700 38.54400
H  46.27800 40.26600 40.00600
H  45.63900 41.51800 41.00700
H  47.28700 41.02200 41.32700
H  46.52800 43.46900 37.28000
H  45.28100 44.68300 37.90300
H  43.75600 43.32100 37.21100
H  44.31200 42.01500 38.26700
H  51.38100 39.87000 39.24800
H  52.12800 39.49300 40.76400
H  53.19800 39.92800 39.38900
H  55.54500 43.28500 42.34400
H  56.32400 43.23400 40.78700
H  56.59300 41.90200 41.99800
H  54.76100 47.55100 40.79900
H  53.25700 48.62500 43.07000
H  55.44800 47.86700 43.35400
H  56.21000 46.67000 42.19600
H  55.01000 46.20000 43.41800
H  52.79300 49.79000 40.42800
H  54.54500 49.78900 41.01300
H  52.85700 50.86900 43.06100
H  52.47300 51.55600 41.53000
H  54.16400 51.70000 42.08200
H  47.38100 51.01900 41.86700
H  48.10100 51.09500 40.29300
H  49.18300 51.26300 41.65900
H  45.40000 46.78800 38.76600
H  41.74700 44.96800 40.17700
H  41.48000 46.67700 40.42500
H  42.17900 45.65800 41.76300

