158

Mg -2.60900 16.74800 27.29800
C  -3.13800 14.49400 30.10100
C  -3.18300 19.35800 29.58800
C  -2.27000 18.81600 24.78800
C  -2.55500 13.96300 25.22800
N  -3.20700 16.78900 29.62400
C  -3.35500 15.81000 30.54700
C  -3.38800 16.44100 31.97100
C  -3.64100 17.97500 31.70800
C  -3.35200 18.06100 30.18900
C  -5.00000 18.50100 32.08100
C  -2.32200 16.13300 33.09700
C  -2.90800 15.83100 34.47100
H  -2.00200 16.06200 35.68800
N  -2.66100 18.87400 27.12600
C  -2.91000 19.70000 28.22100
C  -2.76200 21.09700 27.69600
C  -2.49200 21.01600 26.28600
C  -2.52900 19.51600 26.00700
C  -2.86400 22.34100 28.56100
C  -2.22300 22.13300 25.31500
O  -2.09700 21.98900 24.10100
C  -1.93900 23.46500 25.86300
N  -2.64300 16.37700 25.30600
C  -2.25000 17.41200 24.48800
C  -2.16800 16.96100 23.05600
C  -2.04000 15.41400 23.23700
C  -2.33900 15.19600 24.68100
C  -3.37500 17.41800 22.19900
C  -0.65000 14.84800 22.81100
C  0.63000 15.35000 23.53800
N  -2.78300 14.69900 27.59400
C  -2.81700 13.73200 26.55800
C  -2.91500 12.40000 27.23100
C  -3.02600 12.64300 28.54300
C  -2.99300 14.06600 28.73500
C  -3.01900 11.06000 26.49800
C  -3.30400 12.04200 29.76800
O  -3.49800 10.87600 30.05400
C  -3.26200 13.22400 30.89300
C  -1.99600 12.95900 31.67300
O  -0.85700 13.13300 31.25900
O  -2.34200 12.53800 32.91000
C  -1.27000 12.54500 33.85400
H  -3.38800 20.10600 30.35600
H  -1.95700 19.59000 24.08400
H  -2.46300 13.05800 24.62400
H  -4.35100 16.01300 32.25200
H  -2.91500 18.43300 32.37900
H  -4.95700 19.23600 32.88400
H  -5.72500 17.69600 32.19500
H  -5.20800 19.16700 31.24400
H  -1.69300 16.99600 33.31800
H  -1.57600 15.39400 32.80600
H  -3.25300 14.81000 34.63700
H  -3.84800 16.37500 34.56800
H  -2.84100 22.19800 29.64100
H  -3.65700 23.04100 28.30000
H  -1.92800 22.89600 28.60300
H  -2.86600 23.93300 26.19500
H  -1.56500 24.08700 25.05000
H  -1.17000 23.55300 26.63000
H  -1.21100 17.36400 22.72300
H  -2.79800 14.94800 22.60700
H  -4.12900 17.69300 22.93600
H  -3.84200 16.70500 21.51900
H  -3.21000 18.35900 21.67400
H  -0.57400 14.84600 21.72300
H  -0.55400 13.76600 22.89800
H  0.40900 16.14000 24.25600
H  1.38700 15.83900 22.92500
H  1.06700 14.49900 24.06100
H  -2.49700 11.05100 25.54100
H  -4.01500 10.61800 26.47000
H  -2.46100 10.31300 27.06300
H  -4.16100 13.14300 31.50400
H  -0.53300 13.34700 33.81200
H  -0.71900 11.60400 33.83900
H  -1.70300 12.44800 34.85000
Mg -10.74400 37.84300 41.61200
C  -8.69500 35.02800 41.33300
C  -8.31700 39.67400 39.84600
C  -12.82400 40.51600 41.32700
C  -13.21200 35.84500 42.88400
N  -8.72000 37.37700 40.64600
C  -8.14000 36.13100 40.59800
C  -6.81400 36.22400 39.90600
C  -6.62800 37.77900 39.69700
C  -8.00600 38.28300 39.99100
C  -5.34200 38.41800 40.39800
C  -6.80500 35.44600 38.57500
C  -5.49800 34.59300 38.32600
H  -4.44200 35.15300 37.29000
N  -10.53200 39.82800 40.90400
C  -9.45300 40.33700 40.21400
C  -9.58000 41.73700 39.99300
C  -10.86800 42.10000 40.45200
C  -11.52300 40.78800 40.92600
C  -8.53900 42.56100 39.19700
C  -11.53500 43.46600 40.44800
O  -10.81000 44.45000 40.04600
C  -12.84500 43.76400 41.01900
N  -12.76400 38.13200 41.90500
C  -13.36900 39.33500 41.88600
C  -14.88100 39.23200 42.27800
C  -14.98800 37.73400 42.84300
C  -13.56900 37.15200 42.46000
C  -15.32500 40.36700 43.32900
C  -16.24300 37.00600 42.32900
C  -16.23000 36.04500 41.16800
N  -10.94500 35.84400 42.14500
C  -11.97900 35.21100 42.68900
C  -11.57000 33.78100 43.01300
C  -10.27100 33.68200 42.46700
C  -9.95100 34.97200 41.92600
C  -12.47400 32.77800 43.68000
C  -9.18900 32.80900 42.24800
O  -9.13000 31.65700 42.56800
C  -8.11400 33.64500 41.46300
C  -6.79300 33.56300 42.08700
O  -6.31800 32.49500 42.34100
O  -6.33200 34.74500 42.59400
C  -5.26000 34.73200 43.56900
H  -7.49200 40.20200 39.36200
H  -13.49100 41.37800 41.40100
H  -14.05600 35.19100 43.11500
H  -6.00200 35.95900 40.58300
H  -6.43300 38.07500 38.66600
H  -4.80800 37.73800 41.06200
H  -5.68800 39.18000 41.09700
H  -4.72500 38.97900 39.69600
H  -6.84200 36.10900 37.71100
H  -7.65200 34.76100 38.52900
H  -5.88300 33.64900 37.94100
H  -4.92700 34.35100 39.22200
H  -8.12700 43.17700 39.99700
H  -8.99600 43.13300 38.39000
H  -7.78900 41.93700 38.70900
H  -13.01100 43.36300 42.01900
H  -13.59400 43.43900 40.29700
H  -13.00300 44.84200 41.07000
H  -15.33500 39.31000 41.29000
H  -15.12500 37.76200 43.92400
H  -15.87800 41.14000 42.79600
H  -14.46900 40.84000 43.81100
H  -15.93600 39.99500 44.15100
H  -16.98000 37.76000 42.05200
H  -16.64000 36.42500 43.16100
H  -16.97200 36.38300 40.44500
H  -16.43500 35.00900 41.43800
H  -15.22600 36.07800 40.74300
H  -12.76500 32.01600 42.95700
H  -13.31300 33.32200 44.11600
H  -11.98300 32.19500 44.45900
H  -8.01800 33.23600 40.45700
H  -5.62900 34.82200 44.59100
H  -4.58400 35.57100 43.40500
H  -4.64200 33.83400 43.55700

