158

Mg 26.58200 0.36000 29.15300
C  28.32100 -0.15100 32.09900
C  23.68800 0.95300 30.98000
C  24.80100 0.31100 26.19600
C  29.40200 -0.70300 27.33700
N  26.09600 0.27900 31.28200
C  27.00200 0.21000 32.30300
C  26.34300 0.34600 33.74500
C  24.79000 0.45800 33.27600
C  24.85400 0.54300 31.76100
C  23.75400 -0.56600 33.72300
C  26.90700 1.43700 34.60700
C  27.36400 1.02800 36.06300
H  27.03500 1.91400 37.17200
N  24.56000 0.78800 28.66200
C  23.52300 1.04700 29.56400
C  22.32400 1.36800 28.80800
C  22.64600 1.16300 27.42000
C  24.06200 0.70200 27.39200
C  21.07200 1.80200 29.49900
C  21.72300 1.27000 26.21800
O  22.01500 1.03400 25.05100
C  20.28600 1.50500 26.59700
N  27.04900 -0.21700 26.95300
C  26.14900 -0.05900 26.00900
C  26.74200 0.05700 24.55500
C  28.32800 -0.13800 24.97700
C  28.28300 -0.40600 26.52300
C  26.23400 -1.03000 23.50600
C  29.24600 1.00600 24.59400
C  29.57900 1.12200 23.11700
N  28.44000 -0.33700 29.52800
C  29.48500 -0.78300 28.75400
C  30.63100 -1.14700 29.55400
C  30.22400 -0.91000 30.89800
C  28.88600 -0.39900 30.83100
C  31.89600 -1.57200 28.99600
C  30.67900 -0.94300 32.30600
O  31.71500 -1.08200 32.87300
C  29.41000 -0.46800 33.10300
C  29.04100 -1.44200 34.10100
O  28.25800 -2.37600 33.89100
O  29.75200 -1.15200 35.21700
C  29.56000 -2.11500 36.36100
H  22.83700 1.24900 31.59700
H  24.19400 0.27500 25.28900
H  30.33500 -0.90100 26.80600
H  26.46300 -0.63400 34.20800
H  24.38900 1.37300 33.71200
H  24.32200 -1.30900 34.28300
H  23.21300 -1.08800 32.93400
H  23.02200 -0.10300 34.38400
H  26.11200 2.17600 34.71100
H  27.72800 1.96800 34.12600
H  28.44200 0.87000 36.09700
H  26.96100 0.05000 36.32600
H  20.79300 2.82500 29.24500
H  21.19400 1.84500 30.58100
H  20.27100 1.06800 29.41100
H  19.84800 0.71600 27.20800
H  19.73100 1.63600 25.66800
H  20.31500 2.51400 27.00900
H  26.56900 1.07200 24.19900
H  28.68800 -1.05300 24.50500
H  25.50700 -1.69900 23.96800
H  27.08900 -1.56400 23.09200
H  25.69700 -0.51400 22.71000
H  30.14500 1.05200 25.20900
H  28.68100 1.91700 24.78900
H  28.99900 1.95700 22.72400
H  29.31800 0.18500 22.62400
H  30.63500 1.37800 23.03300
H  32.12800 -1.06200 28.06100
H  31.89400 -2.61400 28.67500
H  32.73600 -1.40000 29.66900
H  29.69300 0.40400 33.69300
H  29.43200 -3.14600 36.03200
H  28.67800 -1.75100 36.88900
H  30.43800 -2.09400 37.00600
Mg 35.98700 49.34400 24.71800
C  36.46900 47.66800 27.85700
C  35.08000 52.11000 26.45900
C  35.44700 50.82500 21.77300
C  37.33900 46.50900 23.11700
N  35.68700 49.76000 26.96700
C  35.91900 48.91100 28.05100
C  35.65400 49.71000 29.40000
C  35.25600 51.16000 28.89000
C  35.33800 51.01500 27.36500
C  33.90500 51.72600 29.41000
C  36.78100 49.75000 30.56000
C  36.58900 49.06100 31.90500
H  35.13700 48.99400 32.48000
N  35.23300 51.19500 24.17300
C  35.03700 52.19100 25.06800
C  34.68800 53.42800 24.28200
C  34.54800 52.99000 22.90200
C  35.06300 51.59000 22.89100
C  34.24800 54.85600 24.97700
C  34.17600 53.70100 21.62700
O  33.95500 53.09000 20.55200
C  33.93100 55.24100 21.65700
N  36.37700 48.74400 22.70300
C  36.02700 49.56700 21.71100
C  36.41400 49.01300 20.33300
C  37.29200 47.72600 20.88600
C  36.92700 47.62700 22.28500
C  35.23800 48.64800 19.43300
C  38.85400 47.81800 20.64300
C  39.52300 49.20000 20.77200
N  36.63400 47.41900 25.29800
C  37.23300 46.39800 24.52900
C  37.64500 45.33900 25.44700
C  37.37300 45.81300 26.72600
C  36.78100 47.05500 26.62100
C  38.30000 44.07900 25.09100
C  37.32400 45.39200 28.12300
O  37.61100 44.26500 28.62800
C  36.88700 46.67000 28.98600
C  35.62900 46.16900 29.76200
O  34.44400 46.42600 29.45600
O  35.97500 45.43600 30.83600
C  34.93400 44.96400 31.69800
H  34.86800 53.09900 26.87200
H  35.11500 51.20500 20.80400
H  37.84200 45.67600 22.62300
H  34.83100 49.29400 29.98100
H  36.04400 51.87600 29.12600
H  33.74300 52.63400 28.82800
H  33.87900 52.04500 30.45200
H  33.03200 51.07700 29.33300
H  36.91400 50.77500 30.90500
H  37.71100 49.36200 30.14400
H  37.17800 49.51500 32.70100
H  37.01600 48.06200 31.81600
H  33.90800 54.72700 26.00500
H  33.41700 55.34200 24.46700
H  35.03600 55.59000 24.81000
H  34.86400 55.72300 21.95000
H  33.10800 55.46100 22.33800
H  33.62900 55.50500 20.64300
H  36.97200 49.80400 19.83200
H  37.07500 46.81800 20.32400
H  35.39000 49.17100 18.48800
H  34.32900 49.07100 19.86000
H  34.99600 47.60200 19.24900
H  39.08200 47.43300 19.64900
H  39.34200 47.11300 21.31700
H  39.02900 49.83700 21.50500
H  39.63100 49.78200 19.85600
H  40.51400 48.94600 21.15000
H  37.47300 43.37100 25.13800
H  39.06200 43.65100 25.74200
H  38.70400 44.06800 24.07800
H  37.71200 46.96600 29.63400
H  34.57700 44.00000 31.33400
H  34.08300 45.63300 31.82900
H  35.36500 44.93100 32.69800

