158

Mg 47.83800 15.10800 28.61200
C  45.67400 15.11100 31.43100
C  50.10200 16.87800 30.27400
C  49.61000 15.13600 25.77200
C  45.13400 13.55500 26.78400
N  47.88100 15.85100 30.65400
C  46.96400 15.68200 31.70900
C  47.60000 16.20000 33.07700
C  48.98500 16.73700 32.61700
C  49.03300 16.48000 31.05800
C  49.26600 18.23700 33.08000
C  47.68300 15.14600 34.20900
C  46.71300 15.33000 35.43000
H  46.38700 16.73100 36.01300
N  49.65300 15.79800 28.07800
C  50.46100 16.57600 28.93400
C  51.71900 16.83100 28.28400
C  51.62700 16.37400 26.92800
C  50.23100 15.71800 26.84300
C  52.83700 17.67200 28.93300
C  52.50500 16.65600 25.78200
O  52.27200 16.21600 24.71000
C  53.90900 17.37500 25.98400
N  47.38600 14.37800 26.69800
C  48.33700 14.54900 25.69900
C  47.95700 13.96300 24.32900
C  46.47000 13.51700 24.64900
C  46.29300 13.89300 26.10700
C  47.94700 15.09300 23.26100
C  46.36400 11.98100 24.42000
C  47.43200 11.08300 25.11100
N  45.83200 14.46000 28.99900
C  44.87300 13.81500 28.15900
C  43.67700 13.53800 28.88000
C  43.94500 14.05700 30.19400
C  45.21600 14.55400 30.18300
C  42.39700 12.85200 28.34800
C  43.41300 14.21800 31.60900
O  42.35500 13.81300 32.00900
C  44.50500 14.97200 32.40400
C  43.93300 16.14500 33.00700
O  44.01300 17.29200 32.60400
O  43.25100 15.70800 34.04200
C  42.31100 16.80600 34.41200
H  50.80100 17.51700 30.81900
H  50.18400 15.22300 24.84700
H  44.44300 12.99900 26.14800
H  46.94100 17.02000 33.36000
H  49.83500 16.17100 32.99800
H  49.31800 18.99800 32.30200
H  50.22000 18.26000 33.60500
H  48.47300 18.66300 33.69400
H  48.70700 15.21100 34.57600
H  47.52600 14.15600 33.78000
H  47.04200 14.71400 36.26600
H  45.71000 14.98400 35.18300
H  53.70200 17.12700 29.31100
H  52.38800 18.32900 29.67800
H  53.07600 18.37200 28.13200
H  54.36300 16.80300 26.79300
H  53.86400 18.46400 25.99600
H  54.44700 17.01700 25.10700
H  48.70100 13.21800 24.04800
H  45.65300 14.03600 24.14700
H  46.95300 15.52800 23.16000
H  48.09300 14.55200 22.32600
H  48.69600 15.86500 23.43800
H  46.47000 11.75900 23.35800
H  45.33300 11.80200 24.72700
H  46.86600 10.33000 25.65800
H  47.97900 11.69100 25.83100
H  48.08800 10.58800 24.39400
H  41.94400 12.22500 29.11600
H  42.54500 12.18900 27.49500
H  41.63300 13.54300 27.99400
H  44.98800 14.38900 33.18900
H  41.87200 17.27600 33.53300
H  42.68400 17.68100 34.94400
H  41.47000 16.42400 34.99100
Mg 36.02000 49.71400 24.86300
C  36.09700 47.64800 27.84100
C  35.31500 52.39200 26.95100
C  35.54400 51.41100 22.10700
C  36.61200 46.65500 23.10500
N  35.74100 50.00600 27.12300
C  35.87400 49.06300 28.10300
C  35.65900 49.71400 29.52700
C  35.15000 51.12900 29.10700
C  35.39500 51.21300 27.61700
C  33.73700 51.41000 29.69300
C  37.03400 49.77200 30.41300
C  36.82000 49.39800 31.92600
H  35.59600 49.87700 32.61500
N  35.54800 51.67800 24.53200
C  35.39300 52.66000 25.55400
C  35.25800 53.93200 24.91400
C  35.15500 53.68600 23.48800
C  35.38900 52.19300 23.30000
C  35.35900 55.23500 25.67700
C  34.83800 54.72600 22.35100
O  34.76200 54.39300 21.15900
C  34.57800 56.12900 22.63600
N  35.89100 49.04000 22.84400
C  35.90600 50.01200 21.93200
C  36.35600 49.44900 20.56100
C  36.87500 47.97900 20.95000
C  36.40400 47.87000 22.40100
C  35.21400 49.52900 19.36800
C  38.44000 47.90700 20.71100
C  38.93300 47.05300 19.56600
N  36.22600 47.59800 25.28400
C  36.41500 46.49300 24.48800
C  36.67000 45.31900 25.28200
C  36.46100 45.67700 26.55200
C  36.26500 47.08300 26.57600
C  36.86200 43.90100 24.78600
C  36.37200 45.24000 27.92900
O  36.44500 44.14500 28.42700
C  36.23900 46.47900 28.75500
C  35.08200 46.35700 29.65000
O  33.87400 46.30800 29.24700
O  35.43500 46.11000 30.92800
C  34.46200 45.67000 31.85800
H  35.24400 53.25500 27.61600
H  35.42700 51.93900 21.15800
H  37.02900 45.94200 22.39100
H  34.86300 49.12500 29.98300
H  35.81500 51.90300 29.49000
H  32.91900 51.20300 29.00200
H  33.66700 52.46100 29.97400
H  33.59000 50.74000 30.54100
H  37.40500 50.79300 30.32300
H  37.76700 49.14700 29.90300
H  37.66400 49.82100 32.47000
H  36.84600 48.31200 32.02600
H  34.39100 55.72400 25.57400
H  36.13200 55.82600 25.18500
H  35.72900 55.20700 26.70200
H  35.28100 56.63800 23.29500
H  33.60900 56.05600 23.12900
H  34.63000 56.67500 21.69400
H  37.17300 50.11200 20.27800
H  36.29300 47.23200 20.41100
H  34.18700 49.78800 19.62700
H  35.18000 48.59600 18.80600
H  35.54200 50.33100 18.70800
H  38.91500 47.57100 21.63400
H  38.84200 48.91000 20.57100
H  38.43300 47.33000 18.63700
H  38.78600 45.97500 19.62300
H  39.98200 47.28700 19.38100
H  35.88300 43.46600 24.58600
H  37.40400 43.33200 25.54100
H  37.44300 43.95300 23.86500
H  37.09300 46.70500 29.39300
H  33.98100 46.40600 32.50300
H  34.97500 45.08000 32.61800
H  33.60900 45.10000 31.48900

