158

Mg 2.90700 -1.25100 42.04700
C  6.26200 -0.30300 41.90100
C  2.05400 1.65100 40.37200
C  -0.22900 -2.62400 41.46000
C  3.95600 -4.41800 43.24900
N  4.03400 0.55800 41.32700
C  5.39300 0.74000 41.41600
C  5.75700 2.00100 40.72600
C  4.39000 2.62700 40.43800
C  3.39800 1.56400 40.74800
C  4.09400 3.95300 41.25500
C  6.76300 1.82000 39.55300
C  6.97500 0.47700 38.80900
H  6.66900 0.45600 37.29900
N  1.18900 -0.57800 41.05500
C  1.04600 0.70200 40.53500
C  -0.37700 0.75700 40.09700
C  -1.07800 -0.39400 40.50200
C  -0.03600 -1.25100 41.07100
C  -0.96100 2.10300 39.48300
C  -2.57200 -0.55200 40.43500
O  -3.29700 0.32100 39.97400
C  -3.27800 -1.63600 41.19900
N  2.08100 -3.30400 42.26100
C  0.73400 -3.53000 41.91600
C  0.32100 -5.01200 42.19900
C  1.69300 -5.57100 42.78400
C  2.64700 -4.37500 42.77900
C  -0.96600 -5.17300 43.01800
C  2.28100 -6.82400 42.06100
C  2.87900 -7.90200 43.01200
N  4.70200 -2.14900 42.67400
C  4.98800 -3.43200 43.19900
C  6.41100 -3.56500 43.30400
C  6.94700 -2.38300 42.86000
C  5.84500 -1.53100 42.49100
C  7.03400 -4.78500 43.90400
C  8.19300 -1.63500 42.59600
O  9.32100 -2.01500 42.82300
C  7.76800 -0.30000 42.04000
C  8.38000 0.82300 42.81600
O  9.28500 1.49700 42.39100
O  7.98100 0.87500 44.14300
C  8.66000 1.77800 45.10700
H  1.63000 2.57500 39.97300
H  -1.09900 -3.15600 41.06700
H  4.21000 -5.44600 43.51800
H  6.32700 2.61700 41.42100
H  4.13000 2.84200 39.40100
H  3.04600 4.21000 41.09800
H  4.59100 4.85300 40.89300
H  4.31900 3.88800 42.31900
H  7.68900 2.23600 39.94900
H  6.54700 2.64200 38.87000
H  6.38100 -0.33600 39.22800
H  8.03500 0.22600 38.84800
H  -0.22900 2.78800 39.05500
H  -1.57300 2.63700 40.20900
H  -1.50200 1.74100 38.60800
H  -4.35800 -1.52000 41.10800
H  -2.95200 -1.35400 42.20000
H  -3.03700 -2.64200 40.85700
H  0.04100 -5.49100 41.26100
H  1.54100 -5.82300 43.83400
H  -1.36600 -4.18400 43.24600
H  -0.71800 -5.70400 43.93700
H  -1.76300 -5.66300 42.46000
H  3.06300 -6.44800 41.40200
H  1.57100 -7.23700 41.34400
H  3.87800 -8.07800 42.61300
H  2.31100 -8.82200 43.14900
H  3.09100 -7.60400 44.03900
H  7.28000 -5.46800 43.09200
H  6.34500 -5.25900 44.60300
H  7.94700 -4.42700 44.38000
H  8.23700 -0.24300 41.05800
H  8.19800 2.76300 45.04700
H  9.70000 1.99100 44.86200
H  8.57500 1.45100 46.14300
Mg 35.66700 2.76100 30.20900
C  33.28400 3.87500 32.74400
C  37.88400 2.61300 32.79300
C  37.97800 2.40700 27.95600
C  33.16700 3.17500 27.85600
N  35.58400 3.35900 32.58500
C  34.53400 3.68800 33.34600
C  34.91400 3.57800 34.84600
C  36.52800 3.57300 34.78200
C  36.65900 3.07500 33.30800
C  37.22400 4.90900 35.18700
C  34.20500 2.31900 35.47000
C  33.62500 2.56500 36.91700
H  34.21800 3.71200 37.88300
N  37.67100 2.40300 30.32300
C  38.40200 2.43100 31.46400
C  39.76400 2.08500 31.04800
C  39.89500 2.12100 29.69800
C  38.48900 2.32800 29.23700
C  40.90000 1.83500 32.08900
C  41.03000 1.85300 28.76800
O  40.87600 1.83100 27.60900
C  42.46400 1.55800 29.32000
N  35.55100 2.90300 28.11900
C  36.66900 2.66000 27.42100
C  36.30800 2.33700 25.94000
C  34.80900 2.73400 25.86300
C  34.43600 2.93100 27.36600
C  37.10300 3.14800 24.80900
C  33.95100 1.73300 25.02100
C  33.21500 2.49000 23.98500
N  33.62000 3.29200 30.23800
C  32.76700 3.43800 29.20300
C  31.48000 3.77400 29.76000
C  31.61400 3.82900 31.10800
C  32.96400 3.69400 31.38400
C  30.16400 3.89300 29.04800
C  30.86900 4.12900 32.34400
O  29.71300 4.37500 32.56400
C  31.96800 4.07100 33.40700
C  31.93900 5.29600 34.23900
O  32.44100 6.39700 33.90900
O  31.23000 5.02200 35.37500
C  31.10800 6.09700 36.35900
H  38.70000 2.54100 33.51500
H  38.72600 2.21400 27.18400
H  32.39000 3.19800 27.08900
H  34.61400 4.49400 35.35500
H  37.01400 2.83400 35.41900
H  38.00700 5.09000 34.45100
H  37.66400 4.90700 36.18400
H  36.53800 5.75600 35.18500
H  34.83400 1.42900 35.49100
H  33.32800 1.99700 34.90800
H  33.73800 1.60200 37.41400
H  32.58100 2.79100 36.69900
H  41.17900 0.78100 32.09700
H  40.63100 1.95000 33.13900
H  41.82000 2.41300 32.00000
H  42.51000 0.60200 29.84300
H  42.84400 2.41200 29.87900
H  43.02300 1.60400 28.38500
H  36.34900 1.24900 25.88800
H  34.70000 3.77800 25.57100
H  37.57700 4.03900 25.22000
H  36.43200 3.57400 24.06200
H  37.69200 2.34200 24.37200
H  33.23100 1.10000 25.53900
H  34.67000 1.08700 24.51600
H  32.38900 1.86000 23.65600
H  33.92300 2.64100 23.17000
H  32.84300 3.41500 24.42500
H  30.30300 4.87700 28.60000
H  29.28000 3.99200 29.67800
H  30.02100 3.20300 28.21600
H  31.68300 3.24600 34.05900
H  30.79000 5.60900 37.28100
H  30.41100 6.88000 36.06100
H  32.09300 6.47700 36.63100

