158

Mg 42.49700 42.04200 26.40000
C  41.42500 44.22200 28.95200
C  43.47000 39.69700 28.80500
C  43.75800 40.08900 23.88300
C  41.37500 44.42700 24.11500
N  42.67000 42.12500 28.71200
C  42.03400 43.04800 29.53000
C  42.10000 42.52400 31.01600
C  42.82500 41.15300 30.92800
C  43.01800 40.95200 29.37300
C  44.03600 41.02000 31.86400
C  40.69300 42.42100 31.64000
C  40.65100 41.79600 33.08600
H  39.95500 42.38100 34.41100
N  43.54100 40.21700 26.43300
C  43.76400 39.36200 27.46200
C  44.46200 38.21000 27.03000
C  44.47300 38.21000 25.64400
C  43.93400 39.51900 25.20100
C  45.00500 37.24900 28.01100
C  44.96500 37.16400 24.61600
O  44.92400 37.41000 23.44200
C  45.58000 35.95900 25.19200
N  42.65700 42.22800 24.36200
C  43.04600 41.23800 23.50100
C  42.86700 41.74400 22.07400
C  41.87600 42.83500 22.23900
C  41.92800 43.21300 23.69400
C  44.18100 42.04300 21.42000
C  40.42700 42.64700 21.54000
C  39.63100 41.43300 22.11600
N  41.54800 43.99400 26.44300
C  41.20800 44.87000 25.43100
C  40.59500 46.04400 26.01900
C  40.60800 45.82600 27.42400
C  41.17500 44.51500 27.61900
C  40.02000 47.21900 25.23300
C  40.26900 46.36600 28.71500
O  39.81200 47.47600 29.02400
C  40.65300 45.32200 29.78300
C  41.42500 45.99800 30.85100
O  42.61300 46.30300 30.83100
O  40.50900 46.30400 31.88900
C  40.98900 46.91300 33.10400
H  43.76200 38.95500 29.55100
H  44.15100 39.52400 23.03500
H  40.79700 44.93500 23.34100
H  42.67200 43.30800 31.51400
H  42.11300 40.36500 31.17100
H  44.92800 41.13800 31.25000
H  44.06800 40.09600 32.44100
H  44.16300 41.85500 32.55400
H  39.93200 41.94500 31.02100
H  40.40200 43.47000 31.70200
H  41.70200 41.74300 33.37000
H  40.32700 40.76000 32.98400
H  44.43700 36.32400 27.90400
H  44.96300 37.49000 29.07300
H  46.04800 37.17300 27.70300
H  46.57500 35.99300 25.63700
H  45.79100 35.27900 24.36700
H  44.86700 35.39600 25.79500
H  42.42700 40.95500 21.46500
H  42.34000 43.68800 21.74300
H  45.03400 42.26500 22.06100
H  44.11700 42.90300 20.75500
H  44.48300 41.26700 20.71600
H  40.67900 42.42000 20.50400
H  39.78000 43.51400 21.67300
H  38.57700 41.70100 22.04300
H  39.83300 41.23400 23.16800
H  39.88900 40.52600 21.57000
H  39.17100 47.64400 25.76900
H  39.72700 46.87800 24.24000
H  40.88300 47.88000 25.15800
H  39.61300 45.07600 29.99600
H  41.35800 46.21000 33.85100
H  40.22100 47.56000 33.52600
H  41.80300 47.61700 32.93100
Mg -5.45600 25.27300 26.02600
C  -4.02200 26.48500 28.99900
C  -7.25600 22.92200 27.96300
C  -6.42000 23.77400 23.13200
C  -3.69300 27.60100 24.20700
N  -5.72500 24.83900 28.29200
C  -4.97900 25.47700 29.26400
C  -5.38600 24.91300 30.63000
C  -6.36500 23.71700 30.24100
C  -6.50600 23.78200 28.70800
C  -5.88800 22.34000 30.78800
C  -5.83000 26.05900 31.70900
C  -6.75600 25.50800 32.80200
H  -6.19800 24.78500 33.96700
N  -6.70300 23.63200 25.64100
C  -7.34900 22.77500 26.53500
C  -8.16100 21.83500 25.76800
C  -7.91600 22.15200 24.42000
C  -6.98700 23.22400 24.33100
C  -9.01500 20.71200 26.37800
C  -8.55000 21.44300 23.16400
O  -8.32700 21.79500 22.04500
C  -9.41500 20.29600 23.32800
N  -4.90600 25.55300 23.89400
C  -5.55100 24.83400 22.89800
C  -5.20400 25.38200 21.50900
C  -4.51100 26.73400 21.86000
C  -4.35800 26.70000 23.38600
C  -4.37300 24.33900 20.71100
C  -5.39300 27.94000 21.31200
C  -4.82000 28.64500 20.00400
N  -4.10900 26.71700 26.44400
C  -3.44500 27.61800 25.59900
C  -2.51300 28.46600 26.31700
C  -2.74400 28.02800 27.64600
C  -3.73500 27.01500 27.67500
C  -1.56700 29.49500 25.84800
C  -2.26800 28.24600 29.01500
O  -1.38800 28.98100 29.52200
C  -3.18400 27.38500 29.92100
C  -2.36100 26.50900 30.80800
O  -1.66500 25.51100 30.52700
O  -2.46200 26.94400 32.01700
C  -1.70100 26.27400 33.06000
H  -7.83600 22.23400 28.58200
H  -6.76000 23.38600 22.17000
H  -3.17000 28.33800 23.59300
H  -4.44600 24.46100 30.94900
H  -7.39000 23.84900 30.58900
H  -4.89200 22.28600 31.22700
H  -5.66900 21.51600 30.10900
H  -6.50400 22.02700 31.63100
H  -6.25800 26.96600 31.28100
H  -4.91100 26.44300 32.15000
H  -7.46500 24.80100 32.37100
H  -7.32800 26.32400 33.24300
H  -10.01800 20.88500 25.98700
H  -9.05500 20.68900 27.46700
H  -8.68800 19.69900 26.14800
H  -8.82200 19.52800 23.82400
H  -9.83300 19.88400 22.40900
H  -10.27700 20.60500 23.91900
H  -6.11400 25.51300 20.92500
H  -3.55600 26.70700 21.33500
H  -5.01300 23.56300 20.29100
H  -3.62500 23.85000 21.33500
H  -3.94600 24.94300 19.91100
H  -5.44200 28.70800 22.08300
H  -6.38300 27.65000 20.95900
H  -4.99400 27.93700 19.19300
H  -3.73400 28.74500 19.97800
H  -5.18700 29.65100 19.79700
H  -1.04400 29.98000 26.67200
H  -2.15700 30.33100 25.47100
H  -0.78600 29.25500 25.12700
H  -3.80300 28.03000 30.54500
H  -1.07200 27.11700 33.34800
H  -1.02400 25.43500 32.90000
H  -2.30000 26.04700 33.94100

