158

Mg 8.57800 3.56100 27.75600
C  10.07100 2.18200 30.65900
C  6.72500 5.61100 29.69000
C  7.29700 4.95300 24.97500
C  10.08700 1.05700 25.86600
N  8.46000 3.89200 29.95800
C  9.23300 3.27100 30.94400
C  8.87100 3.86700 32.34100
C  7.62200 4.71400 31.94300
C  7.58600 4.78000 30.39300
C  6.37700 4.11500 32.61000
C  10.06200 4.73600 33.01300
C  10.88900 4.05600 34.02500
H  11.32900 4.77700 35.30700
N  7.24200 5.07200 27.39300
C  6.55400 5.83800 28.33700
C  5.78000 6.75400 27.67400
C  5.83600 6.51600 26.26000
C  6.78000 5.46600 26.15200
C  4.90700 7.71400 28.43300
C  5.01400 7.12900 25.12800
O  5.16000 6.84200 23.96000
C  4.00000 8.19500 25.47600
N  8.68400 3.08800 25.80600
C  8.16700 3.85500 24.81500
C  8.48300 3.45400 23.42400
C  9.32800 2.12300 23.67700
C  9.45100 2.12600 25.16100
C  7.22700 3.10900 22.65200
C  10.79100 2.11000 23.01800
C  11.18100 0.81500 22.25500
N  9.69400 1.90500 28.16300
C  10.28400 0.99700 27.24800
C  11.16900 0.08900 27.97000
C  11.10300 0.52800 29.35800
C  10.19700 1.60900 29.38600
C  12.05100 -0.99300 27.37500
C  11.69900 0.39200 30.64300
O  12.55500 -0.37200 31.05500
C  11.02700 1.47600 31.52200
C  10.50500 0.87400 32.79600
O  9.34000 0.62800 33.04900
O  11.50800 0.80600 33.68500
C  11.06500 0.30800 35.07600
H  6.22100 6.24500 30.42300
H  6.79100 5.40100 24.11700
H  10.74600 0.34700 25.36200
H  8.69200 2.98600 32.95700
H  7.59700 5.73100 32.33500
H  5.91700 4.92000 33.18400
H  6.55600 3.27200 33.27700
H  5.74900 3.69200 31.82600
H  9.69000 5.67000 33.43300
H  10.74400 5.01100 32.20900
H  11.76800 3.62000 33.55000
H  10.36400 3.15700 34.34900
H  5.22300 8.73900 28.23900
H  5.04900 7.61200 29.50900
H  3.84600 7.51400 28.28700
H  4.39900 9.03400 26.04700
H  3.16900 7.71400 25.99000
H  3.60000 8.61400 24.55300
H  9.05600 4.24300 22.93800
H  8.70900 1.26000 23.43000
H  6.31700 3.44400 23.14900
H  7.06500 2.06000 22.40100
H  7.20800 3.60500 21.68100
H  11.41500 2.19900 23.90700
H  10.90200 2.94200 22.32300
H  12.24200 0.68400 22.46700
H  11.17300 0.97900 21.17800
H  10.79000 -0.16400 22.53300
H  12.85100 -1.22000 28.08000
H  12.65800 -0.68800 26.52300
H  11.51600 -1.91800 27.16000
H  11.79300 2.23900 31.66500
H  10.20400 0.90800 35.37100
H  11.77900 0.29300 35.89900
H  10.77800 -0.73900 34.96900
Mg 23.80700 -6.47700 46.62200
C  26.50000 -4.42100 45.68200
C  22.02500 -4.91500 44.18000
C  21.45400 -8.65400 47.35700
C  26.06300 -8.25700 48.57800
N  24.30600 -4.94700 44.99500
C  25.38000 -4.10800 44.94100
C  25.29300 -3.00900 43.78000
C  23.78800 -3.16200 43.34200
C  23.31700 -4.41000 44.21900
C  22.90400 -1.89400 43.48100
C  26.27400 -3.17800 42.59800
C  26.97700 -1.84500 42.23300
H  27.03200 -1.34700 40.73600
N  21.99100 -6.78900 45.80600
C  21.36100 -5.96400 44.88300
C  19.96800 -6.40800 44.76900
C  19.72100 -7.39800 45.71500
C  21.08300 -7.70800 46.36600
C  18.99300 -5.81600 43.75000
C  18.45800 -8.04900 45.96100
O  17.43200 -7.73400 45.32700
C  18.24300 -9.12700 47.01100
N  23.82700 -8.19200 47.73500
C  22.67100 -8.84000 47.93000
C  22.91300 -10.12200 48.81700
C  24.34300 -9.98400 49.29000
C  24.80400 -8.76700 48.47000
C  21.89800 -10.11000 50.00300
C  25.20500 -11.23500 49.04100
C  25.72600 -11.63800 47.69200
N  25.87500 -6.21200 47.25900
C  26.67900 -7.13100 48.00100
C  28.01800 -6.55300 48.15700
C  28.00300 -5.42400 47.34500
C  26.67800 -5.35800 46.73400
C  29.22800 -7.25000 48.85000
C  28.78600 -4.36500 46.74600
O  30.02700 -4.19100 46.81700
C  27.86500 -3.72900 45.65100
C  27.91100 -2.28900 45.80500
O  28.65200 -1.51300 45.26400
O  26.88500 -1.87900 46.55100
C  26.66700 -0.44000 46.69800
H  21.47800 -4.25000 43.50800
H  20.69100 -9.36400 47.68100
H  26.71000 -8.82500 49.25000
H  25.52500 -2.08500 44.30800
H  23.85600 -3.46700 42.29800
H  22.53700 -1.51900 42.52500
H  23.37100 -1.00000 43.89400
H  22.06400 -2.17300 44.11700
H  25.86900 -3.63200 41.69300
H  27.05800 -3.86700 42.90900
H  27.99200 -1.99300 42.60100
H  26.54100 -1.04100 42.82500
H  18.84300 -6.46200 42.88500
H  19.30500 -4.81100 43.46900
H  18.02800 -5.74100 44.25100
H  17.19000 -9.39500 47.09800
H  18.61400 -8.74600 47.96300
H  18.78000 -10.03800 46.74700
H  22.82500 -10.95300 48.11800
H  24.36500 -9.75300 50.35500
H  22.18900 -10.23800 51.04600
H  21.22200 -10.95600 49.87600
H  21.42600 -9.12900 49.95200
H  24.66700 -12.09200 49.44400
H  25.97300 -11.12900 49.80700
H  26.73500 -12.02600 47.83200
H  25.88900 -10.68700 47.18500
H  25.12000 -12.38500 47.17800
H  28.98900 -8.31300 48.80800
H  29.29500 -6.92300 49.88700
H  30.18700 -7.01200 48.38900
H  28.42400 -3.77600 44.71600
H  27.42400 0.08300 47.28200
H  25.78800 -0.20900 47.30000
H  26.53300 0.06400 45.74100

