158

Mg 8.19400 3.02700 27.61200
C  9.45400 1.60100 30.62900
C  6.04200 4.94000 29.49100
C  6.74100 4.15400 24.76700
C  9.91600 0.54500 25.90700
N  7.96200 3.33900 29.85100
C  8.50300 2.64000 30.83100
C  8.07400 3.18900 32.22000
C  6.89000 4.16900 31.87400
C  6.89200 4.12700 30.30400
C  5.50500 3.74100 32.58900
C  9.18100 3.79400 33.09300
C  9.40200 3.06000 34.48100
H  9.84300 3.98000 35.68700
N  6.73500 4.35800 27.21700
C  6.02900 5.13200 28.10700
C  5.29000 6.14200 27.47200
C  5.34400 5.88100 26.06400
C  6.30600 4.77200 25.96500
C  4.50400 7.19100 28.20800
C  4.62000 6.61200 24.85900
O  5.00600 6.35200 23.69500
C  3.68700 7.76900 25.06200
N  8.24000 2.42700 25.56900
C  7.65300 3.00800 24.58300
C  7.88100 2.33600 23.29200
C  8.68400 1.07900 23.65800
C  9.03600 1.33700 25.17200
C  6.51300 2.00700 22.58200
C  9.94300 0.79400 22.78000
C  10.17200 -0.66800 22.46400
N  9.56500 1.42900 28.14900
C  10.19800 0.57900 27.25800
C  10.88500 -0.36300 28.09300
C  10.70100 0.04200 29.40600
C  9.82300 1.08200 29.36200
C  11.44300 -1.64100 27.66200
C  11.00700 -0.23700 30.78200
O  11.71500 -1.07000 31.36200
C  10.15900 0.71500 31.66300
C  9.35000 -0.25000 32.36800
O  8.27800 -0.71300 32.00000
O  9.80500 -0.43100 33.65100
C  8.89000 -1.03700 34.54000
H  5.41700 5.50200 30.18900
H  6.31800 4.47500 23.81300
H  10.34400 -0.30500 25.37200
H  7.60200 2.32300 32.68400
H  7.07400 5.22800 32.05500
H  4.72300 3.42400 31.89900
H  4.93800 4.36600 33.27900
H  5.73400 2.86100 33.19000
H  9.01800 4.86500 33.21100
H  10.08200 3.81400 32.48100
H  10.19700 2.33500 34.30900
H  8.51700 2.49600 34.77700
H  3.44900 6.91500 28.22800
H  4.55700 8.10500 27.61700
H  4.86200 7.35600 29.22400
H  3.42300 8.12800 24.06700
H  4.15600 8.66700 25.46500
H  2.84400 7.66200 25.74600
H  8.39700 2.99100 22.59000
H  8.09500 0.16600 23.57200
H  5.75900 2.19200 23.34700
H  6.40200 0.98700 22.21400
H  6.40800 2.71600 21.76100
H  10.80500 1.24300 23.27300
H  9.75600 1.13300 21.76100
H  11.21900 -0.94300 22.34300
H  9.60900 -1.03200 21.60500
H  9.82400 -1.35100 23.23900
H  10.83800 -2.10100 26.88000
H  11.53200 -2.35600 28.48000
H  12.48900 -1.48600 27.40000
H  10.67200 1.28300 32.43900
H  9.46600 -1.30100 35.42700
H  8.41800 -1.93800 34.14800
H  8.08000 -0.35900 34.80800
Mg 23.55400 -4.87400 46.15600
C  25.35100 -2.22500 44.73500
C  20.84000 -3.82700 44.32900
C  22.03500 -7.74700 47.18400
C  26.42800 -5.84000 47.94800
N  23.20900 -3.29700 44.61800
C  24.08900 -2.32600 44.17200
C  23.50600 -1.40300 43.07100
C  21.97700 -1.74500 43.30500
C  21.99600 -3.04400 44.11400
C  21.19800 -0.63400 44.01800
C  24.16700 -1.72100 41.69900
C  24.82600 -0.59900 40.91000
H  24.77100 -0.69200 39.43500
N  21.77100 -5.72900 45.68800
C  20.78500 -5.13200 44.96500
C  19.63800 -6.02000 44.89500
C  19.89700 -7.14500 45.76100
C  21.33700 -6.91500 46.23800
C  18.36400 -5.55100 44.18600
C  18.85300 -8.11500 46.18200
O  17.73400 -7.92500 45.78000
C  19.13300 -9.41600 46.96900
N  24.22800 -6.50400 47.34400
C  23.35000 -7.52400 47.72000
C  24.01300 -8.68000 48.46200
C  25.43700 -8.21000 48.60800
C  25.36900 -6.75500 48.02400
C  23.28600 -8.90000 49.82600
C  26.51900 -9.08500 47.90200
C  27.70700 -9.31700 48.82200
N  25.48400 -4.07300 46.49300
C  26.53100 -4.57200 47.28200
C  27.61200 -3.69100 47.16500
C  27.17300 -2.76400 46.22000
C  25.88500 -3.02300 45.77500
C  28.99100 -3.72400 47.78900
C  27.64300 -1.62600 45.51600
O  28.74400 -1.08700 45.51500
C  26.50600 -1.24800 44.39800
C  26.25100 0.19300 44.58500
O  25.72800 0.65000 45.60700
O  26.60000 0.94700 43.42500
C  26.19600 2.35000 43.53100
H  20.00400 -3.38100 43.78600
H  21.63600 -8.67000 47.61000
H  27.31900 -5.98700 48.56100
H  23.75700 -0.37600 43.33500
H  21.54500 -1.89700 42.31600
H  21.86300 0.20000 44.24000
H  21.02900 -1.02400 45.02100
H  20.20800 -0.34400 43.66600
H  23.34600 -2.20600 41.17000
H  24.85000 -2.55700 41.84700
H  25.86200 -0.72900 41.22300
H  24.51700 0.38300 41.26800
H  18.56000 -4.98000 43.27800
H  17.82500 -4.94900 44.91800
H  17.71400 -6.35400 43.84100
H  18.23600 -10.02600 47.07400
H  19.19600 -9.17300 48.02900
H  19.99700 -9.98800 46.63100
H  23.83000 -9.53700 47.81500
H  25.68100 -8.28800 49.66700
H  23.82300 -8.73300 50.76000
H  22.92900 -9.92400 49.92500
H  22.43100 -8.23600 49.95400
H  26.84500 -8.56000 47.00400
H  26.24700 -10.09500 47.59500
H  28.56600 -9.43000 48.16100
H  27.68500 -10.26800 49.35500
H  28.01500 -8.61300 49.59500
H  29.69000 -4.22400 47.11900
H  28.91700 -4.28500 48.72100
H  29.48000 -2.76500 47.95900
H  26.90900 -1.39100 43.39600
H  26.66300 2.98200 42.77500
H  26.25900 2.83100 44.50700
H  25.14100 2.35100 43.25400

