158

Mg 2.05900 8.70300 26.88800
C  2.64600 10.18300 29.91500
C  2.48800 5.59200 28.47000
C  1.77500 7.11800 23.79900
C  2.32300 11.74200 25.17800
N  2.36700 7.99400 29.02600
C  2.32100 8.84500 30.08400
C  2.19800 8.07200 31.42900
C  2.36500 6.59100 30.93700
C  2.42000 6.71200 29.41800
C  3.57500 5.86200 31.58300
C  0.87600 8.37300 32.16800
C  0.97200 8.45300 33.70800
H  2.20000 7.78200 34.41000
N  1.88200 6.69000 26.29300
C  2.10700 5.58700 27.05700
C  1.82500 4.42300 26.31200
C  1.45800 4.87000 25.00300
C  1.68300 6.31800 24.99900
C  1.93400 2.99500 26.88000
C  1.00400 4.10300 23.83000
O  0.50400 4.65300 22.84700
C  1.26600 2.61400 23.76200
N  2.05700 9.33100 24.80900
C  2.02300 8.51800 23.73900
C  2.18600 9.33000 22.43700
C  1.69400 10.67300 22.94700
C  1.95000 10.63900 24.41300
C  3.65100 9.27400 21.93000
C  0.24100 11.07900 22.69100
C  -0.10600 12.40300 21.90600
N  2.60000 10.56200 27.40500
C  2.66800 11.70500 26.59600
C  3.17900 12.75600 27.49300
C  3.09800 12.24100 28.78400
C  2.70000 10.88800 28.69000
C  3.45100 14.20800 27.11600
C  3.18800 12.54500 30.18700
O  3.44500 13.59400 30.75900
C  2.90600 11.24800 30.96200
C  3.93800 11.01500 32.01900
O  5.03600 10.46800 31.94700
O  3.43000 11.55300 33.22900
C  4.49300 11.78800 34.20000
H  2.50000 4.66200 29.04300
H  1.82900 6.65300 22.81200
H  2.55800 12.69800 24.70500
H  3.09700 8.39900 31.95200
H  1.49500 5.96700 31.14100
H  4.19200 6.53700 32.17700
H  4.24700 5.36100 30.88700
H  3.15400 5.01700 32.12700
H  0.22700 7.54600 31.88200
H  0.39500 9.26400 31.76700
H  0.02200 8.05200 34.06000
H  0.98100 9.50400 33.99800
H  2.82200 2.53800 26.44500
H  1.06800 2.35800 26.70100
H  2.08500 3.00800 27.96000
H  2.27000 2.30000 24.04800
H  1.11400 2.22100 22.75700
H  0.61400 2.02500 24.40800
H  1.55600 8.96400 21.62700
H  2.24500 11.47400 22.45500
H  4.38600 8.83000 22.60300
H  3.91100 10.33200 21.92900
H  3.65900 8.76000 20.96900
H  -0.24500 11.14000 23.66500
H  -0.26200 10.28100 22.14500
H  0.77200 12.51100 21.26900
H  -0.17700 13.29800 22.52500
H  -1.02700 12.37600 21.32400
H  3.77100 14.87800 27.91400
H  2.59700 14.66600 26.61700
H  4.34400 14.06200 26.50900
H  1.98000 11.29800 31.53400
H  5.40000 12.14700 33.71300
H  4.75400 10.88500 34.75200
H  4.14100 12.47200 34.97200
Mg 26.36200 50.83600 26.48500
C  24.49700 52.02700 29.25400
C  28.87700 50.03800 28.85800
C  28.05800 49.79800 24.00300
C  23.96500 52.44800 24.43900
N  26.66500 51.17700 28.81100
C  25.63000 51.29400 29.68600
C  25.96700 50.99200 31.17500
C  27.40000 50.37400 30.98100
C  27.72600 50.54700 29.41900
C  28.47400 50.95200 31.92200
C  24.85200 50.22000 32.05900
C  25.43600 49.33400 33.28200
H  24.90100 49.71900 34.72400
N  28.18700 49.93900 26.42300
C  29.12400 49.72600 27.47300
C  30.29600 49.10800 26.80300
C  29.95700 48.83800 25.46700
C  28.72800 49.56900 25.24400
C  31.49600 48.70100 27.60200
C  30.72400 47.97600 24.47200
O  30.28200 47.70600 23.33900
C  32.11000 47.39600 24.81600
N  26.17100 51.25700 24.44400
C  26.93200 50.55400 23.58600
C  26.42500 50.59900 22.20500
C  25.09600 51.42400 22.33200
C  25.07300 51.86900 23.80900
C  27.46500 51.19300 21.20100
C  23.81200 50.68000 21.88200
C  22.77200 51.49400 21.06700
N  24.66100 52.09300 26.73900
C  23.75900 52.62400 25.80600
C  22.66700 53.22600 26.46100
C  22.93600 53.07700 27.78800
C  24.11400 52.36100 27.92900
C  21.55900 53.92400 25.75800
C  22.36800 53.30400 29.14400
O  21.37600 53.92900 29.52200
C  23.42600 52.63100 30.12300
C  23.88300 53.67200 31.09300
O  24.55600 54.70900 30.81700
O  23.27600 53.41000 32.28500
C  23.34800 54.41000 33.37400
H  29.65900 49.66500 29.52300
H  28.68100 49.39100 23.20300
H  23.22100 52.81500 23.72800
H  26.09700 51.92000 31.73100
H  27.44700 49.30300 31.17600
H  29.26800 51.39900 31.32400
H  28.98600 50.15500 32.46200
H  28.09800 51.64700 32.67400
H  24.27400 49.56700 31.40400
H  24.06300 50.83200 32.49600
H  26.51800 49.29900 33.15700
H  25.04500 48.32300 33.16200
H  31.34200 48.96400 28.64900
H  32.35400 49.24000 27.20000
H  31.71500 47.63500 27.55400
H  32.72800 48.06200 25.41900
H  32.59500 46.98400 23.93200
H  31.89200 46.59400 25.52100
H  26.29400 49.57900 21.84400
H  25.21700 52.38500 21.83300
H  28.31800 51.48600 21.81400
H  27.08300 52.08600 20.70500
H  27.67900 50.41100 20.47300
H  23.28400 50.29900 22.75600
H  24.01100 49.85200 21.20200
H  21.80000 51.33400 21.53400
H  22.83100 51.11900 20.04600
H  23.03900 52.54900 21.00700
H  21.18400 53.29100 24.95400
H  21.84000 54.91300 25.39500
H  20.70200 54.12200 26.40300
H  22.87300 51.83600 30.62400
H  23.76000 55.36200 33.04000
H  24.08500 54.11500 34.12100
H  22.40600 54.67800 33.85200

