158

Mg 34.88300 3.36300 30.22700
C  32.49300 4.46300 32.56900
C  37.20500 3.71400 32.79400
C  37.18600 2.63200 28.00000
C  32.55100 3.72300 27.71700
N  34.76900 4.01200 32.42800
C  33.66400 4.34700 33.15700
C  33.95900 4.45000 34.66600
C  35.56300 4.64500 34.63700
C  35.91100 4.04800 33.25700
C  36.19700 6.06400 35.02600
C  33.45400 3.14800 35.38600
C  33.05300 3.38800 36.86300
H  33.70800 4.43500 37.61300
N  36.82100 3.10100 30.32100
C  37.59900 3.26900 31.46000
C  38.83400 2.44100 31.25400
C  38.94400 2.13900 29.86100
C  37.61600 2.65900 29.33200
C  39.65700 1.97400 32.44400
C  39.95300 1.32100 29.09200
O  39.94800 1.33900 27.85400
C  40.96700 0.53000 29.75800
N  34.87100 3.36000 28.09800
C  35.95000 3.11300 27.35900
C  35.71100 3.12700 25.83000
C  34.15000 3.38300 25.80200
C  33.82400 3.47900 27.28600
C  36.57400 4.11600 24.99900
C  33.17100 2.51900 25.00000
C  32.68900 1.17200 25.53900
N  32.86800 3.80100 30.12500
C  32.07400 3.93200 29.05200
C  30.70500 4.28100 29.48800
C  30.79500 4.38900 30.86900
C  32.15500 4.19800 31.23400
C  29.53700 4.42900 28.54400
C  30.06100 4.58900 32.10600
O  28.85600 4.77900 32.28700
C  31.16000 4.77200 33.25300
C  31.01000 6.14600 33.81800
O  31.18700 7.13900 33.07300
O  30.71800 6.10100 35.16600
C  30.87100 7.33900 35.90100
H  38.01000 3.73500 33.53100
H  37.97300 2.26100 27.34100
H  31.72000 3.97900 27.05600
H  33.64700 5.36400 35.17200
H  35.94300 3.96600 35.40000
H  37.08400 6.15400 34.39900
H  36.42400 6.04300 36.09200
H  35.45500 6.82600 34.78700
H  34.24800 2.40200 35.37800
H  32.55700 2.85900 34.83800
H  33.11300 2.35300 37.20200
H  31.99500 3.63600 36.77500
H  40.08500 2.80300 33.00700
H  40.46800 1.32300 32.11600
H  39.04700 1.30500 33.05100
H  41.78300 1.13700 30.15200
H  41.41800 -0.07200 28.96800
H  40.49100 -0.12700 30.48600
H  35.87400 2.15000 25.37500
H  34.04900 4.40300 25.43000
H  37.36400 4.62200 25.55400
H  35.90700 4.77500 24.44400
H  37.07600 3.56600 24.20300
H  33.62300 2.32800 24.02600
H  32.32300 3.17400 24.80400
H  32.74300 0.98900 26.61200
H  33.19200 0.41900 24.93200
H  31.60800 1.22000 25.40600
H  29.38500 3.49200 28.00700
H  29.76500 5.24600 27.85900
H  28.68400 4.68800 29.17000
H  30.84100 4.04600 34.00100
H  29.87300 7.47600 36.31700
H  31.27000 8.18800 35.34600
H  31.56800 7.20000 36.72700
Mg 30.33800 58.31800 40.48000
C  27.91000 56.11400 39.24300
C  32.69900 55.86800 39.64900
C  32.77400 60.66100 40.58900
C  27.94800 60.79700 40.53600
N  30.26700 56.19900 39.57000
C  29.17100 55.54700 39.12800
C  29.56500 54.22100 38.43700
C  30.94800 53.97100 39.10800
C  31.37800 55.41400 39.51800
C  30.90700 53.02000 40.35500
C  29.48400 54.44300 36.88400
C  29.10900 53.27300 35.98700
H  28.06200 53.41900 34.87600
N  32.37700 58.23600 40.31000
C  33.21200 57.14500 39.90800
C  34.58900 57.58900 39.78900
C  34.69400 58.89200 40.20700
C  33.23200 59.29900 40.36800
C  35.77000 56.79200 39.39000
C  36.04000 59.68200 40.54800
O  37.09900 59.13700 40.37500
C  35.98800 61.07800 41.08500
N  30.40000 60.39500 40.60700
C  31.50500 61.13800 40.69800
C  31.22100 62.63200 40.87900
C  29.64200 62.58500 41.00400
C  29.31200 61.14800 40.66200
C  31.99500 63.28600 42.01400
C  28.84100 63.49700 40.03300
C  27.69500 64.31000 40.57100
N  28.31600 58.46300 40.32400
C  27.44400 59.57300 40.32200
C  26.09200 59.13300 40.10800
C  26.21200 57.77600 39.64100
C  27.58900 57.44700 39.78500
C  24.87800 60.03300 40.20200
C  25.47500 56.62600 39.18300
O  24.32000 56.51400 38.80500
C  26.59500 55.54800 38.85100
C  26.10400 54.33600 39.64600
O  26.11900 54.26100 40.87200
O  25.80500 53.31200 38.73300
C  25.48600 52.09700 39.38000
H  33.51300 55.15800 39.49100
H  33.62800 61.34100 40.54800
H  27.16000 61.55200 40.58900
H  28.83400 53.48100 38.76100
H  31.68100 53.70100 38.34700
H  31.17700 53.64600 41.20600
H  31.69500 52.27300 40.26000
H  29.92500 52.55200 40.42500
H  30.51600 54.64700 36.59600
H  28.89800 55.34000 36.68300
H  28.80300 52.53500 36.72800
H  30.03700 52.93400 35.52600
H  35.39600 55.86900 38.94700
H  36.40400 56.49100 40.22400
H  36.38700 57.38900 38.71800
H  36.98100 61.26500 41.49200
H  35.19000 61.13100 41.82600
H  35.86700 61.68600 40.18800
H  31.47000 63.00900 39.88700
H  29.39700 62.79700 42.04500
H  32.51600 62.53200 42.60500
H  31.34600 63.89800 42.64000
H  32.66000 63.99300 41.51700
H  28.34100 62.96300 39.22500
H  29.53800 64.19300 39.56500
H  27.98200 65.32700 40.30300
H  27.41600 64.17300 41.61500
H  26.75600 64.18500 40.03200
H  24.79800 60.27200 41.26200
H  24.04600 59.47800 39.76800
H  25.06100 60.94300 39.63100
H  26.53100 55.26800 37.79900
H  25.10700 51.47800 38.56700
H  24.67300 52.31100 40.07300
H  26.36500 51.69000 39.87900

