158

Mg 24.66200 -6.79400 46.93000
C  27.05200 -4.60400 45.78000
C  22.38800 -5.27600 44.81000
C  22.53200 -9.39100 47.31100
C  27.22000 -8.70800 48.41200
N  24.79900 -5.20900 45.31700
C  25.83500 -4.40300 45.19000
C  25.55100 -3.29600 44.27200
C  24.03500 -3.29000 44.17000
C  23.70200 -4.67500 44.80900
C  23.23200 -2.19700 44.87900
C  26.27700 -3.24800 42.88200
C  26.55000 -1.79100 42.24200
H  26.00000 -1.57600 40.82300
N  22.60300 -7.15000 46.33100
C  21.86800 -6.35000 45.51600
C  20.52600 -6.83000 45.55900
C  20.49900 -8.06100 46.29100
C  21.89700 -8.24200 46.71500
C  19.46400 -6.03900 44.82700
C  19.30200 -8.83200 46.63400
O  18.20000 -8.42200 46.21100
C  19.41800 -10.09000 47.50900
N  24.89300 -8.75700 47.73900
C  23.86000 -9.63800 47.72900
C  24.25000 -10.91400 48.44400
C  25.69200 -10.73900 48.97500
C  25.98400 -9.30000 48.34900
C  23.21200 -11.39400 49.54200
C  26.73700 -11.80400 48.53000
C  27.77900 -12.19300 49.63800
N  26.69800 -6.69200 47.22300
C  27.60400 -7.45500 47.95800
C  28.87200 -6.73900 48.07300
C  28.73500 -5.66500 47.17300
C  27.40200 -5.64900 46.68700
C  30.00600 -7.12100 48.90000
C  29.46900 -4.49200 46.69400
O  30.58100 -4.07300 47.01200
C  28.38200 -3.77700 45.66100
C  28.44900 -2.27200 45.75000
O  28.76400 -1.49500 44.83400
O  28.03800 -1.78000 46.98400
C  28.16400 -0.33100 47.23900
H  21.62100 -4.70500 44.28400
H  21.91200 -10.27800 47.45700
H  28.05300 -9.17900 48.93800
H  25.79400 -2.33700 44.73000
H  23.68600 -3.29600 43.13800
H  23.39500 -1.18100 44.52000
H  23.26000 -2.20200 45.96800
H  22.20000 -2.45900 44.64800
H  25.75000 -3.79800 42.10300
H  27.25100 -3.73200 42.82200
H  27.63000 -1.66900 42.31800
H  26.16800 -0.99300 42.87800
H  19.60200 -6.22100 43.76100
H  19.63500 -4.99500 45.09100
H  18.40800 -6.24000 45.00700
H  20.07100 -10.73100 46.91600
H  18.36600 -10.37200 47.53000
H  19.92400 -9.83200 48.43900
H  24.28100 -11.70600 47.69500
H  25.65400 -10.70100 50.06300
H  22.68500 -12.27200 49.16900
H  22.48000 -10.61600 49.76100
H  23.73800 -11.72900 50.43600
H  27.35100 -11.29200 47.79000
H  26.39700 -12.75700 48.12600
H  28.77600 -11.98300 49.24900
H  27.69400 -13.24200 49.92000
H  27.61100 -11.58000 50.52300
H  30.43100 -6.23600 49.37200
H  30.78200 -7.71200 48.41300
H  29.67100 -7.84700 49.64100
H  28.71800 -4.07400 44.66800
H  28.43800 0.26300 46.36700
H  28.90800 -0.03200 47.97700
H  27.23700 0.00100 47.70700
Mg 48.44200 34.28400 27.81600
C  46.40200 32.70000 30.17800
C  48.66800 36.95400 29.98800
C  49.82500 36.15800 25.26400
C  47.45600 31.81900 25.57200
N  47.78000 34.66900 29.91400
C  47.04800 33.83500 30.68200
C  47.09100 34.31300 32.10600
C  47.28800 35.85200 31.89600
C  47.98500 35.83600 30.53000
C  45.96100 36.77700 31.87500
C  48.33100 33.56200 32.78800
C  48.18100 33.49400 34.32400
H  47.21300 34.49000 35.02800
N  49.27200 36.18500 27.69700
C  49.34100 37.11500 28.75400
C  50.19600 38.18400 28.33500
C  50.47500 37.99800 27.00700
C  49.88900 36.74200 26.57300
C  50.64300 39.32200 29.22600
C  51.30000 38.87500 26.06200
O  51.21200 38.72000 24.84600
C  52.21300 39.97300 26.60100
N  48.47500 34.11300 25.77000
C  49.17100 34.96200 24.94600
C  49.32100 34.33000 23.53900
C  48.70400 32.92400 23.67900
C  48.13300 32.93500 25.10500
C  48.82900 35.26400 22.41600
C  49.63500 31.74900 23.36500
C  50.52000 31.79200 22.05800
N  47.30000 32.47800 27.85100
C  46.99000 31.61300 26.84700
C  46.10600 30.58400 27.31300
C  45.87200 30.94500 28.71800
C  46.52400 32.15700 28.91100
C  45.68800 29.39400 26.48500
C  45.21900 30.53000 29.90900
O  44.54800 29.59100 30.30000
C  45.38800 31.78800 30.84200
C  45.57100 31.44000 32.29700
O  46.39100 30.75500 32.83500
O  44.49200 32.01400 32.92600
C  44.34300 31.59400 34.38300
H  48.64200 37.76100 30.72300
H  50.34400 36.62500 24.42400
H  47.19000 30.99100 24.91100
H  46.10500 34.24400 32.56500
H  48.02100 36.17300 32.63600
H  45.88500 37.38400 32.77700
H  45.11300 36.10500 31.74500
H  45.91900 37.45700 31.02400
H  49.25600 34.08900 32.55200
H  48.35200 32.49800 32.55100
H  49.17100 33.80400 34.65800
H  47.94500 32.51000 34.72900
H  51.70900 39.31300 29.45200
H  50.11900 39.25300 30.17900
H  50.36100 40.24500 28.71900
H  51.64600 40.78600 27.05500
H  52.72200 40.39600 25.73500
H  52.83500 39.44100 27.32100
H  50.38400 34.22200 23.32300
H  47.83300 32.77200 23.04200
H  48.47200 34.51900 21.70600
H  49.51900 35.97300 21.96000
H  47.94600 35.87700 22.59600
H  49.07100 30.81600 23.39100
H  50.36400 31.68200 24.17200
H  50.32800 32.63900 21.39900
H  50.20800 30.98400 21.39700
H  51.57600 31.63000 22.27600
H  46.39000 29.20900 25.67200
H  44.75300 29.57800 25.95600
H  45.64100 28.47400 27.06800
H  44.46700 32.34000 30.66000
H  44.30300 30.53300 34.63200
H  43.54600 32.04400 34.97400
H  45.26500 32.00900 34.79000

