158

Mg 53.75100 24.67600 45.34900
C  51.05900 26.55200 44.28600
C  51.99000 21.81600 44.13500
C  56.62200 22.87100 45.52700
C  55.40100 27.50700 46.27600
N  51.77600 24.30800 44.12500
C  50.95500 25.24600 43.88000
C  49.79200 24.68400 43.05000
C  49.82600 23.21300 43.42400
C  51.26100 23.05000 43.87400
C  48.67200 22.59700 44.32500
C  49.91600 24.72900 41.49700
C  48.60700 24.90700 40.64300
H  48.26900 23.82600 39.59300
N  54.18000 22.66300 44.98700
C  53.32800 21.66700 44.53700
C  54.01000 20.41400 44.60300
C  55.39300 20.65900 44.82300
C  55.46200 22.12400 45.14700
C  53.29700 19.07200 44.27800
C  56.45700 19.58100 44.93500
O  56.18300 18.41800 44.72400
C  57.95500 19.86700 45.24500
N  55.81300 25.18900 45.55900
C  56.73000 24.20100 45.72800
C  57.85900 24.76000 46.52200
C  57.52900 26.21400 46.66900
C  56.12300 26.32600 46.17500
C  58.11900 24.05900 47.90400
C  58.50200 27.14400 46.01900
C  59.85800 27.33900 46.84500
N  53.36300 26.68500 45.43100
C  54.09700 27.73600 45.85700
C  53.28600 28.89400 45.77300
C  52.08500 28.47800 45.20100
C  52.20200 27.12400 44.97200
C  53.75400 30.28600 46.18600
C  50.80500 28.97300 44.79300
O  50.34900 30.11100 44.69100
C  50.11000 27.69600 44.10700
C  49.68100 28.08500 42.68400
O  50.42900 28.48400 41.78600
O  48.34100 28.00400 42.61200
C  47.77200 28.61200 41.46200
H  51.37100 20.94600 43.90400
H  57.52500 22.31200 45.78200
H  55.90800 28.29900 46.83100
H  48.82600 25.13600 43.27300
H  49.60900 22.57600 42.56600
H  48.40300 21.61000 43.94900
H  47.80400 23.25200 44.38700
H  49.16000 22.51900 45.29700
H  50.33000 23.86000 40.98400
H  50.48300 25.62800 41.25700
H  48.77500 25.78600 40.02200
H  47.73700 24.99800 41.29400
H  53.87300 18.50200 43.54800
H  52.33300 19.15800 43.77700
H  53.13500 18.38400 45.10800
H  58.41500 20.61400 44.59800
H  58.54000 18.96600 45.06100
H  57.94300 19.98500 46.32800
H  58.75200 24.66700 45.90400
H  57.49900 26.45500 47.73200
H  57.53200 23.14100 47.92400
H  57.85200 24.64500 48.78400
H  59.17700 23.80700 47.96600
H  58.02700 28.11600 45.88700
H  58.80200 26.72700 45.05800
H  59.86000 27.03700 47.89200
H  60.12000 28.39500 46.79100
H  60.65500 26.82600 46.30800
H  53.17000 31.00300 45.60900
H  54.82800 30.47200 46.18300
H  53.31800 30.57400 47.14300
H  49.18600 27.38900 44.59600
H  46.76100 28.91400 41.73400
H  47.78300 27.86600 40.66800
H  48.31400 29.47700 41.08000
Mg -5.18900 25.33100 26.06300
C  -3.52300 26.69000 28.76100
C  -6.70000 23.04100 28.23600
C  -6.69000 23.74300 23.45600
C  -3.24300 27.21500 23.92800
N  -5.06200 24.93100 28.28000
C  -4.42000 25.72500 29.20000
C  -4.87000 25.49000 30.64700
C  -5.55800 24.11100 30.39500
C  -5.84400 23.99200 28.84800
C  -4.71100 22.77200 30.81000
C  -5.81100 26.60600 31.19200
C  -5.60600 26.85700 32.69100
H  -5.18500 25.67200 33.53200
N  -6.54300 23.63400 25.92900
C  -6.98800 22.83700 26.89400
C  -7.86000 21.75400 26.38300
C  -7.92900 22.03000 24.97500
C  -7.00500 23.17600 24.69800
C  -8.39300 20.61500 27.24100
C  -8.71900 21.28500 23.83800
O  -8.45500 21.45200 22.67000
C  -9.76800 20.32500 24.17600
N  -4.89300 25.43400 23.98900
C  -5.79400 24.79000 23.14900
C  -5.73200 25.50200 21.78800
C  -4.80500 26.71200 21.99700
C  -4.26400 26.48300 23.43400
C  -5.26300 24.54700 20.59400
C  -5.51100 28.02300 21.86400
C  -6.23600 28.49600 20.57000
N  -3.63200 26.66400 26.27300
C  -2.93700 27.37900 25.34100
C  -2.00400 28.26700 25.95400
C  -2.10900 28.00600 27.27400
C  -3.15500 27.07000 27.45800
C  -1.04500 29.19500 25.24900
C  -1.62400 28.37500 28.63500
O  -0.80900 29.20500 29.00300
C  -2.50400 27.49300 29.61600
C  -1.52900 26.61100 30.33200
O  -0.95800 25.61400 29.89800
O  -1.53500 26.97100 31.65800
C  -0.81800 26.26300 32.72200
H  -7.19600 22.36100 28.93200
H  -7.27500 23.51800 22.56200
H  -2.74800 27.88800 23.22500
H  -3.92300 25.32000 31.15800
H  -6.52200 24.03700 30.89800
H  -3.69600 23.00900 31.13000
H  -4.66800 21.93000 30.12000
H  -5.20500 22.49400 31.74100
H  -6.89100 26.48000 31.10900
H  -5.69200 27.53600 30.63700
H  -6.56400 27.21300 33.07100
H  -4.85400 27.62200 32.88400
H  -9.42500 20.46900 26.92200
H  -8.41700 20.82400 28.31100
H  -7.82500 19.70000 27.07300
H  -9.39600 19.39500 24.60500
H  -10.30600 20.37300 23.22900
H  -10.39100 20.84600 24.90200
H  -6.77200 25.78700 21.62700
H  -3.91600 26.85700 21.38100
H  -5.48800 23.51900 20.87800
H  -4.20200 24.72200 20.41600
H  -5.82300 24.74800 19.68000
H  -4.81100 28.82700 22.09100
H  -6.18300 28.17500 22.70900
H  -5.93700 27.83200 19.75900
H  -5.79900 29.46800 20.34200
H  -7.32600 28.50700 20.56600
H  -0.70000 28.64300 24.37400
H  -0.22400 29.37300 25.94300
H  -1.54900 30.09400 24.89200
H  -3.04100 28.14300 30.30700
H  -0.11500 25.57300 32.25600
H  -1.57400 25.74100 33.30900
H  -0.34600 26.97400 33.39900

