158

Mg 48.80700 34.03000 26.83400
C  47.07000 32.89100 29.60600
C  49.14300 37.14000 28.61000
C  50.02800 35.48800 24.07600
C  47.80700 31.29500 25.03300
N  48.23400 34.90900 28.93400
C  47.57400 34.14700 29.88800
C  47.61500 34.89100 31.18400
C  47.90400 36.40300 30.80300
C  48.53900 36.17100 29.40900
C  46.69400 37.41500 30.73400
C  48.88200 34.32400 31.89600
C  49.19400 34.59500 33.41500
H  48.12100 35.34000 34.17100
N  49.80000 35.87400 26.49800
C  49.76400 37.01500 27.31300
C  50.32200 38.14000 26.57000
C  50.68800 37.69000 25.31500
C  50.09600 36.33400 25.21100
C  50.37400 39.58400 27.05100
C  51.41800 38.39400 24.17000
O  51.82300 37.79900 23.17600
C  51.71200 39.82800 24.09400
N  48.92800 33.48100 24.89800
C  49.61300 34.19600 23.91500
C  49.75300 33.35400 22.56300
C  49.20800 31.94100 23.02700
C  48.54500 32.25400 24.35500
C  49.03800 33.99500 21.33400
C  50.13500 30.75600 22.91500
C  50.69900 30.16100 24.23100
N  47.70400 32.41000 27.16600
C  47.35400 31.29900 26.36900
C  46.55000 30.38100 27.03200
C  46.36200 30.99800 28.29500
C  47.16000 32.16900 28.33400
C  45.92600 29.02600 26.64900
C  45.71900 30.79600 29.53400
O  45.02200 29.87100 29.99000
C  46.02900 32.07400 30.36600
C  46.45800 31.62200 31.78700
O  47.52500 31.12000 32.15800
O  45.33900 31.74500 32.60400
C  45.49100 31.51800 34.01700
H  49.25700 38.13400 29.04700
H  50.37300 35.92300 23.13500
H  47.50000 30.35600 24.56700
H  46.72700 34.76900 31.80500
H  48.72400 36.86500 31.35300
H  46.64400 38.04000 31.62500
H  45.76500 36.89700 30.49500
H  46.73900 38.16600 29.94600
H  49.79400 34.69100 31.42700
H  48.84200 33.24200 31.76500
H  50.16300 35.09400 33.43500
H  49.23700 33.63000 33.91800
H  51.34800 39.98000 26.76400
H  50.35500 39.68900 28.13600
H  49.55900 40.17000 26.62600
H  50.92500 40.43500 24.54300
H  51.81100 40.21400 23.07900
H  52.67900 39.83000 24.59700
H  50.81100 33.27600 22.31200
H  48.38700 31.77500 22.33000
H  48.91900 35.07800 21.31800
H  48.03400 33.59900 21.18300
H  49.67600 33.73500 20.48900
H  50.98600 30.88300 22.24700
H  49.58700 29.90600 22.50800
H  50.04000 29.30700 24.39000
H  50.60600 30.82400 25.09100
H  51.75400 29.91900 24.10300
H  46.30500 28.71500 25.67500
H  44.84000 29.11800 26.64400
H  46.31500 28.36200 27.42100
H  45.23200 32.81500 30.43500
H  44.77400 32.19300 34.48500
H  46.49500 31.73800 34.37800
H  45.33400 30.47900 34.31000
Mg -11.19800 16.90400 41.64400
C  -7.77100 16.09000 41.45200
C  -10.39900 20.15800 40.88300
C  -14.38900 17.53700 41.64200
C  -11.79900 13.42600 42.20100
N  -9.24900 18.03500 41.37800
C  -8.02700 17.47900 41.27000
C  -7.00400 18.56300 40.82800
C  -7.89100 19.87200 40.71200
C  -9.27300 19.35600 40.99300
C  -7.45400 21.16100 41.53600
C  -6.39300 18.21200 39.47900
C  -4.83700 18.08100 39.23300
H  -4.25600 18.55000 37.91500
N  -12.26100 18.61500 41.12800
C  -11.78500 19.82600 40.95300
C  -12.89300 20.85300 40.78500
C  -14.04000 20.05200 40.93000
C  -13.64400 18.66000 41.15400
C  -12.71400 22.36400 40.57200
C  -15.42800 20.50400 40.92700
O  -15.65600 21.74500 40.96700
C  -16.60100 19.63200 41.06900
N  -12.84300 15.66300 41.81900
C  -14.08300 16.17800 41.82200
C  -15.16900 15.14800 42.16300
C  -14.29200 13.82000 42.08800
C  -12.84300 14.27300 42.07800
C  -15.81800 15.47500 43.57800
C  -14.66300 13.01300 40.83800
C  -15.15400 11.55800 41.10100
N  -10.05700 15.13900 41.86100
C  -10.44300 13.81800 42.11400
C  -9.26200 13.00000 42.22900
C  -8.21400 13.86400 41.97600
C  -8.73000 15.09500 41.70900
C  -9.19000 11.60800 42.77600
C  -6.76600 13.93200 41.85400
O  -5.88400 13.05800 41.86000
C  -6.44200 15.38900 41.59200
C  -5.67100 15.90300 42.69900
O  -6.00500 15.90400 43.88000
O  -4.40300 16.30300 42.33600
C  -3.61100 16.98900 43.32200
H  -10.17600 21.22400 40.80100
H  -15.47900 17.52700 41.57700
H  -12.17600 12.43600 42.46500
H  -6.20900 18.78200 41.54200
H  -7.90900 20.12800 39.65300
H  -6.40700 20.93600 41.73700
H  -8.06200 21.45500 42.39200
H  -7.30400 22.03300 40.90000
H  -6.70700 18.77700 38.60100
H  -6.73000 17.18500 39.34200
H  -4.59800 17.04100 39.45300
H  -4.27100 18.64800 39.97300
H  -12.40400 22.71600 39.58800
H  -11.93600 22.74700 41.23300
H  -13.64300 22.86000 40.85200
H  -17.48000 20.26200 40.92800
H  -16.69500 19.16000 42.04600
H  -16.57500 18.86600 40.29400
H  -15.98300 15.19300 41.43900
H  -14.40400 13.22700 42.99600
H  -15.17000 16.19600 44.07700
H  -15.74400 14.57000 44.18000
H  -16.85200 15.77100 43.40200
H  -13.92600 12.92300 40.04000
H  -15.50500 13.55600 40.40800
H  -16.18900 11.38000 40.81000
H  -15.12500 11.22700 42.13900
H  -14.52100 10.90600 40.49900
H  -9.62700 11.64000 43.77300
H  -8.18300 11.23100 42.95700
H  -9.78000 10.96000 42.12700
H  -5.82000 15.50900 40.70500
H  -2.98200 16.16800 43.66500
H  -4.20300 17.36500 44.15600
H  -3.01700 17.83900 42.98800

