158

Mg 29.55400 58.81700 39.58100
C  27.06900 56.36300 38.48500
C  31.89300 56.70700 38.14300
C  31.71700 61.27900 39.79700
C  26.84700 61.01000 39.96300
N  29.48000 56.75500 38.37600
C  28.42700 55.91300 38.15600
C  28.85100 54.60200 37.47800
C  30.42500 54.65500 37.52800
C  30.66100 56.11200 38.07300
C  31.09900 53.48200 38.28000
C  28.22000 54.32800 36.04300
C  27.87000 55.62100 35.26000
H  27.90200 55.43400 33.77400
N  31.54400 58.88300 39.25900
C  32.34800 57.99300 38.53400
C  33.69900 58.44400 38.63200
C  33.68400 59.79100 39.29200
C  32.27200 60.04900 39.41600
C  34.84500 57.54600 38.08800
C  34.84600 60.58800 39.69600
O  36.00100 60.15000 39.49100
C  34.65100 61.84700 40.43000
N  29.30900 60.90500 39.66500
C  30.38000 61.62600 40.01900
C  30.00100 63.03900 40.54900
C  28.43300 62.99800 40.37600
C  28.16500 61.57900 39.92400
C  30.33000 63.23200 42.03400
C  27.80200 64.11700 39.58000
C  26.75900 64.92200 40.28500
N  27.37100 58.73300 39.50100
C  26.47100 59.70600 39.67600
C  25.12500 59.16400 39.58000
C  25.30000 57.83400 39.17200
C  26.68600 57.65500 39.02700
C  23.82900 59.89200 39.78100
C  24.58100 56.67300 38.77800
O  23.37600 56.49600 38.81200
C  25.70900 55.63600 38.24500
C  25.69500 54.39800 39.13600
O  26.57400 54.04900 39.89800
O  24.54100 53.72300 38.83500
C  24.57200 52.33100 39.23400
H  32.71500 56.12400 37.72200
H  32.25900 62.20900 39.98100
H  26.05400 61.74100 40.13400
H  28.55900 53.90900 38.26700
H  30.82900 54.51100 36.52600
H  32.13600 53.38900 37.95700
H  30.57100 52.56400 38.02300
H  31.14700 53.60900 39.36100
H  27.24400 53.90200 36.27300
H  28.62600 53.51500 35.44100
H  28.47800 56.50400 35.45600
H  26.81900 55.80700 35.48000
H  34.82400 57.49800 36.99900
H  34.59900 56.51300 38.33400
H  35.87000 57.76000 38.39200
H  35.55200 62.03000 41.01400
H  33.85000 61.78300 41.16700
H  34.54300 62.73200 39.80300
H  30.51500 63.84800 40.02900
H  27.99300 63.06500 41.37100
H  29.67700 64.02800 42.39100
H  31.38900 63.46100 42.15100
H  30.19500 62.40800 42.73500
H  27.38800 63.66800 38.67800
H  28.58600 64.80200 39.25700
H  26.05600 65.27500 39.53100
H  27.28100 65.74000 40.78300
H  26.31200 64.37400 41.11400
H  23.03500 59.29400 39.33300
H  23.76300 60.90200 39.37500
H  23.68700 59.97800 40.85800
H  25.49700 55.29200 37.23300
H  24.93600 51.77000 38.37300
H  23.55600 52.02300 39.48100
H  25.28200 52.00700 39.99500
Mg -11.60200 15.33200 41.32800
C  -8.34300 14.02600 41.23500
C  -10.42600 18.21800 39.84200
C  -14.80900 16.41900 40.87800
C  -12.78200 12.13700 42.32900
N  -9.53100 16.02300 40.65500
C  -8.38600 15.32200 40.74500
C  -7.24400 16.13200 40.07400
C  -7.83100 17.53000 39.92300
C  -9.34500 17.25800 40.10800
C  -7.26300 18.59900 40.97500
C  -6.65400 15.61600 38.72200
C  -5.14600 15.76500 38.56100
H  -4.78800 16.06000 37.12500
N  -12.43800 17.17100 40.65600
C  -11.79300 18.20300 40.13200
C  -12.75100 19.28500 39.89000
C  -13.99800 18.88600 40.33200
C  -13.81700 17.38700 40.59200
C  -12.46500 20.63400 39.39600
C  -15.31000 19.70100 40.39800
O  -15.30300 20.88300 40.04800
C  -16.59100 19.20800 40.92300
N  -13.51300 14.43600 41.67500
C  -14.71200 15.08100 41.44200
C  -15.92700 14.18000 41.69100
C  -15.26200 12.84800 42.12000
C  -13.78500 13.10300 42.02400
C  -16.92800 14.88300 42.65100
C  -15.66200 11.72300 41.10500
C  -16.16200 10.35800 41.71400
N  -10.82800 13.38500 41.69800
C  -11.38500 12.21500 42.10800
C  -10.24700 11.30700 42.43100
C  -9.06300 11.98300 42.02800
C  -9.42400 13.23600 41.59700
C  -10.42000 9.92400 42.99800
C  -7.60300 11.81700 41.98500
O  -6.85400 10.85200 42.23300
C  -7.12500 13.08300 41.31100
C  -6.08800 13.73200 42.19000
O  -6.27300 14.42400 43.21500
O  -4.82100 13.42600 41.70900
C  -3.70700 13.98000 42.39600
H  -10.02000 19.10700 39.35500
H  -15.81800 16.76200 40.63900
H  -13.13400 11.19600 42.75800
H  -6.36000 16.22500 40.70500
H  -7.61900 17.86700 38.90800
H  -8.05500 19.19400 41.42800
H  -6.63500 19.30400 40.43100
H  -6.72300 18.05000 41.74600
H  -7.08700 16.09800 37.84500
H  -6.89200 14.55400 38.67700
H  -4.66800 14.83700 38.87500
H  -4.76200 16.58900 39.16200
H  -11.52700 20.72400 38.84800
H  -12.36300 21.36300 40.20000
H  -13.33100 20.99800 38.84400
H  -16.97000 18.57400 40.12100
H  -17.14900 20.07700 41.27100
H  -16.34500 18.52600 41.73700
H  -16.38800 14.01900 40.71600
H  -15.49900 12.69300 43.17200
H  -16.93700 14.43300 43.64300
H  -17.88700 15.01100 42.14900
H  -16.53100 15.88700 42.79700
H  -14.80300 11.38500 40.52400
H  -16.47100 12.04400 40.44900
H  -17.14100 10.16500 41.27500
H  -16.08000 10.35100 42.80100
H  -15.38800 9.65500 41.40300
H  -10.72100 9.82200 44.04100
H  -9.47100 9.43600 42.77700
H  -11.05100 9.31900 42.34600
H  -6.63700 12.83800 40.36700
H  -3.54300 15.01700 42.10000
H  -2.88700 13.33800 42.07200
H  -3.87200 13.96200 43.47300

