158

Mg 25.01600 -6.90900 46.87000
C  27.55100 -4.73900 46.10900
C  22.88100 -5.17600 44.70800
C  22.95700 -9.58600 46.89800
C  27.34200 -8.81800 48.73300
N  25.30500 -5.24300 45.52000
C  26.44400 -4.45300 45.30400
C  26.29200 -3.49100 44.20900
C  24.63600 -3.42300 43.97400
C  24.21100 -4.68700 44.83100
C  24.01900 -2.09200 44.41100
C  27.05300 -3.84300 42.94900
C  27.78400 -2.59400 42.34900
H  27.48800 -2.23600 40.86800
N  23.15100 -7.33200 45.93200
C  22.40200 -6.43200 45.27700
C  21.09700 -7.05900 44.96700
C  21.16300 -8.37700 45.43000
C  22.43200 -8.49800 46.14200
C  19.93700 -6.34700 44.28400
C  19.98100 -9.36300 45.29100
O  19.04400 -9.07400 44.50600
C  19.89300 -10.69300 45.97400
N  25.10100 -8.99300 47.72800
C  24.05100 -9.80100 47.72000
C  24.27600 -11.17400 48.37400
C  25.63000 -10.76300 49.11000
C  26.07000 -9.45500 48.48000
C  23.13600 -11.67700 49.25900
C  26.75200 -11.78700 49.05100
C  27.38900 -12.20800 50.38100
N  27.02300 -6.77800 47.47600
C  27.78300 -7.62500 48.24600
C  29.12400 -6.98700 48.44700
C  28.99600 -5.83000 47.64400
C  27.72100 -5.73100 47.09200
C  30.29300 -7.55500 49.28600
C  29.76100 -4.71800 47.17900
O  30.96900 -4.51000 47.39400
C  28.89200 -3.97300 46.11800
C  28.72300 -2.61800 46.53500
O  28.01100 -2.26900 47.48700
O  29.32400 -1.84000 45.63300
C  28.89600 -0.40200 45.57200
H  22.18800 -4.62600 44.06700
H  22.32800 -10.47900 46.89000
H  28.12800 -9.30800 49.31000
H  26.56000 -2.48900 44.54400
H  24.45400 -3.52100 42.90300
H  24.61400 -1.22300 44.69200
H  23.24400 -2.15600 45.17500
H  23.51000 -1.75900 43.50700
H  26.40600 -4.27400 42.18500
H  27.80000 -4.59800 43.19400
H  28.81400 -2.88500 42.55500
H  27.82100 -1.74900 43.03600
H  19.87200 -6.90400 43.34900
H  20.02000 -5.30400 43.97900
H  19.01900 -6.60000 44.81300
H  19.98100 -10.65600 47.06000
H  20.73900 -11.25900 45.58400
H  19.01900 -11.26300 45.66100
H  24.52700 -11.98200 47.68600
H  25.25700 -10.48400 50.09600
H  23.25600 -11.45900 50.32000
H  23.03300 -12.74900 49.09200
H  22.17100 -11.19800 49.09700
H  27.58100 -11.44900 48.43000
H  26.42700 -12.75000 48.65700
H  27.33900 -13.29000 50.50400
H  26.93300 -11.59900 51.16200
H  28.42600 -11.87600 50.41000
H  29.76400 -8.15500 50.02700
H  30.77900 -6.69000 49.73600
H  30.94100 -8.11300 48.60900
H  29.22900 -4.03600 45.08300
H  29.27300 0.00000 44.63200
H  29.24100 0.18600 46.42200
H  27.80800 -0.39200 45.51000
Mg -5.00500 24.63500 27.39700
C  -3.47400 26.49500 29.79300
C  -6.12200 22.36200 29.65100
C  -6.29300 22.78700 24.86700
C  -3.47300 26.82400 24.84500
N  -4.80600 24.47100 29.41100
C  -4.25700 25.39900 30.22100
C  -4.65800 25.15200 31.64100
C  -4.97800 23.61500 31.64100
C  -5.31900 23.43000 30.12000
C  -3.94600 22.58100 32.09200
C  -5.68400 26.15500 32.14800
C  -6.21200 26.03900 33.59300
H  -5.70000 24.97000 34.51300
N  -6.14000 22.86100 27.29300
C  -6.40300 22.05100 28.31500
C  -7.32400 20.97000 27.83300
C  -7.48900 21.13100 26.44500
C  -6.59800 22.25200 26.14000
C  -7.98000 20.01500 28.80800
C  -8.27900 20.32200 25.45100
O  -8.35800 20.62200 24.27800
C  -9.13200 19.24700 25.90600
N  -4.94100 24.83900 25.14400
C  -5.59300 23.93200 24.40900
C  -5.66500 24.35100 22.90300
C  -4.78500 25.69900 22.95600
C  -4.36000 25.77600 24.38000
C  -5.03700 23.29000 22.02500
C  -5.59100 27.01100 22.49200
C  -4.79400 27.87900 21.52700
N  -3.63900 26.26900 27.31300
C  -3.22200 27.05700 26.25700
C  -2.40600 28.13100 26.82800
C  -2.48400 27.95700 28.25600
C  -3.24600 26.85700 28.43000
C  -1.65000 29.05600 26.04100
C  -2.00900 28.48600 29.50900
O  -1.29000 29.44900 29.74300
C  -2.74600 27.59000 30.59100
C  -1.76400 27.04800 31.55400
O  -1.06300 26.16300 31.20600
O  -1.88000 27.59100 32.76700
C  -1.00100 27.02600 33.84200
H  -6.48800 21.80100 30.51300
H  -6.67700 22.26600 23.98800
H  -3.14400 27.48100 24.03700
H  -3.82100 25.26300 32.33000
H  -5.92500 23.46600 32.15800
H  -3.12800 23.16000 32.52100
H  -3.54100 21.96800 31.28700
H  -4.38500 21.93600 32.85400
H  -6.52900 26.21500 31.46100
H  -5.33500 27.18800 32.14200
H  -7.29700 25.95900 33.65800
H  -5.98600 27.02100 34.00900
H  -7.37700 19.15800 29.10800
H  -8.90500 19.71500 28.31500
H  -8.23300 20.47600 29.76300
H  -9.91500 19.55800 26.59900
H  -8.49300 18.56100 26.46100
H  -9.52700 18.72300 25.03600
H  -6.68400 24.43900 22.52500
H  -3.95300 25.52900 22.27200
H  -4.73700 22.45700 22.66100
H  -4.18300 23.61100 21.43000
H  -5.74600 22.85300 21.32100
H  -5.88200 27.63300 23.33800
H  -6.46100 26.68100 21.92300
H  -5.52000 27.96900 20.71900
H  -3.92600 27.40400 21.07100
H  -4.43700 28.80400 21.98000
H  -2.18200 29.45000 25.17500
H  -0.80900 28.57000 25.54500
H  -1.31600 29.88100 26.67100
H  -3.43600 28.20700 31.16700
H  -0.31000 27.81300 34.14600
H  -0.51200 26.12100 33.48000
H  -1.58700 26.66500 34.68700

