158

Mg 3.03300 -0.92600 42.92500
C  6.49400 -0.34100 42.49300
C  2.32200 1.87500 41.11100
C  -0.28400 -1.98600 42.59800
C  3.87400 -4.15900 44.29500
N  4.30100 0.51000 41.85400
C  5.67500 0.60000 41.82200
C  6.14800 1.94600 41.15700
C  4.79300 2.61600 40.79500
C  3.71900 1.63600 41.25300
C  4.67700 4.10700 41.19300
C  7.03400 1.66500 39.96900
C  6.49800 0.74400 38.85700
H  6.23900 1.25400 37.40100
N  1.35600 -0.07300 42.20200
C  1.23000 1.13000 41.62100
C  -0.19800 1.54000 41.60000
C  -0.96900 0.46300 41.96100
C  0.04100 -0.62100 42.25700
C  -0.63700 2.89000 41.05200
C  -2.52600 0.43400 42.04400
O  -3.27700 1.35800 41.64400
C  -3.23800 -0.78100 42.66900
N  2.00800 -2.82500 43.33100
C  0.57100 -2.93000 43.11700
C  0.09000 -4.36500 43.50900
C  1.34400 -4.98600 44.15100
C  2.50600 -3.96400 43.92200
C  -1.21500 -4.44000 44.42000
C  1.57300 -6.47400 43.66200
C  1.45900 -7.58400 44.72600
N  4.72900 -2.00600 43.40500
C  4.89100 -3.25900 43.98600
C  6.27500 -3.41200 44.30400
C  6.92500 -2.33800 43.75300
C  5.94700 -1.52000 43.17300
C  6.93800 -4.54600 45.07000
C  8.25900 -1.66200 43.65800
O  9.41900 -1.90100 44.02100
C  7.97400 -0.38300 42.72100
C  8.42100 0.90000 43.27000
O  9.14100 1.67800 42.71100
O  7.95100 1.08800 44.58700
C  8.32000 2.42900 45.14700
H  2.11900 2.87200 40.71600
H  -1.25600 -2.39600 42.31200
H  4.12900 -5.14500 44.68800
H  6.70800 2.53500 41.88400
H  4.63900 2.56000 39.71800
H  3.94400 4.25100 41.98700
H  4.30700 4.63600 40.31500
H  5.62800 4.53900 41.50500
H  7.95100 1.18800 40.31600
H  7.36200 2.63900 39.60800
H  5.54100 0.32800 39.17000
H  7.16200 -0.12100 38.84400
H  -1.17600 2.88100 40.10500
H  0.23600 3.54000 40.99200
H  -1.24200 3.33700 41.84100
H  -2.68300 -1.23600 43.48900
H  -3.27400 -1.49400 41.84400
H  -4.22300 -0.57500 43.08700
H  -0.18100 -4.84900 42.57100
H  1.14300 -5.00200 45.22200
H  -1.59600 -3.42800 44.56000
H  -0.96800 -4.86600 45.39200
H  -1.95900 -5.07600 43.94000
H  2.56100 -6.47400 43.20100
H  0.86100 -6.64800 42.85400
H  2.37800 -8.15200 44.86600
H  0.73700 -8.31900 44.37100
H  1.16700 -7.19800 45.70400
H  6.45100 -4.56000 46.04500
H  8.02300 -4.55300 45.16600
H  6.59300 -5.49900 44.66900
H  8.54000 -0.71300 41.85000
H  7.35300 2.91400 45.27800
H  8.78300 3.16400 44.48900
H  8.89000 2.35800 46.07300
Mg 48.09200 35.76300 28.34900
C  46.31200 33.57600 30.69800
C  48.42600 37.95300 30.99900
C  48.88800 37.93600 26.18100
C  46.87300 33.44500 25.77400
N  47.41400 35.79600 30.51400
C  46.79900 34.81300 31.29600
C  46.73300 35.19100 32.80500
C  47.05100 36.75800 32.79600
C  47.67800 36.88700 31.33600
C  45.88200 37.70100 33.09400
C  47.87100 34.44000 33.61300
C  47.44400 33.88200 35.07200
H  46.47600 34.78300 35.88200
N  48.85000 37.65500 28.55800
C  48.95100 38.36000 29.69900
C  49.70000 39.53800 29.35200
C  49.86100 39.57400 27.90500
C  49.17200 38.34400 27.47300
C  50.18500 40.52400 30.47600
C  50.63700 40.56700 27.05500
O  50.75400 40.41900 25.89800
C  51.21800 41.69500 27.75300
N  47.92300 35.71300 26.25500
C  48.35400 36.80900 25.55900
C  48.09400 36.56100 24.04800
C  47.56000 35.07100 23.84400
C  47.46800 34.66700 25.33200
C  47.15900 37.71200 23.44800
C  48.55500 34.12300 23.16400
C  48.19200 33.79500 21.73000
N  47.04000 33.82500 28.22300
C  46.66600 33.02500 27.11200
C  45.96600 31.83700 27.55400
C  45.77700 32.09500 28.89100
C  46.45000 33.26900 29.30100
C  45.53800 30.64900 26.77300
C  45.07000 31.48700 30.07800
O  44.41500 30.44700 30.11800
C  45.21400 32.59000 31.18600
C  45.34100 31.99000 32.53500
O  46.35400 31.44100 32.91100
O  44.07200 32.06300 33.18500
C  44.00200 31.86200 34.59200
H  48.59100 38.76300 31.71200
H  49.21200 38.65200 25.42300
H  46.47700 32.85300 24.94600
H  45.72400 34.95900 33.14700
H  47.75800 37.00800 33.58600
H  46.05400 38.59000 33.70000
H  44.96900 37.20600 33.42400
H  45.55900 38.11900 32.14100
H  48.71700 35.12100 33.71100
H  48.24300 33.67400 32.93300
H  48.33900 33.60500 35.62900
H  46.92700 32.96600 34.78800
H  51.16800 40.92800 30.23500
H  50.26500 40.04100 31.45000
H  49.56300 41.41800 30.52500
H  50.43200 42.03200 28.42900
H  51.45600 42.51200 27.07100
H  52.08100 41.27900 28.27200
H  49.05900 36.62600 23.54400
H  46.56300 34.95100 23.42000
H  46.82500 38.26100 24.32800
H  46.25500 37.26800 23.03100
H  47.54500 38.34700 22.65000
H  48.60100 33.18800 23.72200
H  49.52800 34.61400 23.17200
H  47.14300 33.91400 21.45800
H  48.37300 32.75200 21.47000
H  48.88900 34.32400 21.08000
H  46.33900 29.93600 26.57700
H  45.08500 31.07600 25.87800
H  44.71000 30.22600 27.34200
H  44.22900 33.05600 31.18100
H  43.06100 32.14700 35.06200
H  44.81600 32.29700 35.17200
H  44.24100 30.80900 34.74800

