158

Mg 35.84300 0.54900 29.37500
C  33.85200 2.07200 31.99300
C  38.10500 -0.18200 31.70700
C  37.69700 -0.45300 26.78000
C  33.23100 1.34300 27.17800
N  35.92700 0.91200 31.68400
C  35.05600 1.52700 32.52100
C  35.53700 1.50000 33.97200
C  36.96100 0.76000 33.84500
C  37.03600 0.52400 32.29800
C  38.11100 1.63600 34.44600
C  34.49800 0.77800 34.93800
C  34.07200 1.57500 36.17400
H  35.08300 2.60800 36.81400
N  37.68200 -0.20700 29.31300
C  38.47500 -0.45500 30.34100
C  39.75900 -0.97600 29.88700
C  39.66400 -1.03700 28.44600
C  38.26100 -0.63200 28.12000
C  40.93400 -1.47400 30.84800
C  40.74100 -1.56000 27.39600
O  40.54500 -1.67100 26.16800
C  42.13600 -1.97800 27.95300
N  35.40100 0.13600 27.34600
C  36.37800 -0.09900 26.44700
C  35.79800 -0.04300 24.99700
C  34.29400 0.24600 25.19200
C  34.34600 0.65200 26.65000
C  36.59900 0.79100 23.96700
C  33.34500 -0.95700 24.85200
C  32.66800 -1.00000 23.43700
N  33.91200 1.42700 29.51200
C  33.02100 1.74500 28.48700
C  31.90000 2.55500 29.06400
C  32.15900 2.62600 30.40400
C  33.38600 1.95600 30.62500
C  30.66700 3.15300 28.30400
C  31.64200 3.22700 31.62300
O  30.65700 3.88900 31.82800
C  32.70200 2.88000 32.70300
C  33.08100 4.20700 33.23800
O  34.09100 4.83400 32.99700
O  32.23000 4.63100 34.25500
C  32.71300 5.76300 35.12200
H  38.79700 -0.41100 32.52100
H  38.42300 -0.69900 26.00300
H  32.56800 1.82200 26.45400
H  35.71700 2.53000 34.27900
H  36.96100 -0.19600 34.36800
H  37.76600 2.44100 35.09500
H  38.73400 1.95800 33.61200
H  38.64200 0.97900 35.13600
H  34.88300 -0.18500 35.27300
H  33.59300 0.63200 34.34700
H  33.74200 0.88700 36.95200
H  33.26000 2.21000 35.82000
H  40.62000 -1.46700 31.89200
H  41.72700 -0.72800 30.78900
H  41.33500 -2.46000 30.61400
H  42.80000 -2.08100 27.09500
H  41.94100 -2.82900 28.60600
H  42.52300 -1.23800 28.65300
H  35.97800 -1.04600 24.61200
H  33.84000 1.04900 24.61100
H  37.46800 1.17600 24.50100
H  36.12500 1.72100 23.65400
H  36.91000 0.19900 23.10600
H  32.62800 -1.01700 25.67100
H  34.01000 -1.81300 24.97300
H  32.87000 -1.93700 22.91900
H  33.03700 -0.15900 22.85100
H  31.58900 -0.97600 23.58700
H  29.75800 2.68400 28.68000
H  30.81100 3.10800 27.22400
H  30.60700 4.21900 28.52400
H  32.15900 2.47500 33.55700
H  33.70100 5.40300 35.40800
H  32.12700 5.96300 36.01900
H  32.77500 6.74100 34.64600
Mg 16.75900 52.40200 26.87200
C  18.68100 50.70700 29.26700
C  14.67900 53.41900 29.45100
C  14.70900 53.77600 24.41400
C  18.71000 51.08800 24.42400
N  16.47200 51.77100 29.00700
C  17.60600 51.28800 29.80800
C  17.42800 51.53800 31.36100
C  15.93200 51.92100 31.26300
C  15.71400 52.52600 29.85100
C  14.83500 50.85700 31.47300
C  18.45200 52.60100 31.95400
C  18.51100 52.67400 33.44700
H  17.43300 51.92600 34.22100
N  15.16400 53.59400 26.93500
C  14.44000 53.84000 28.06400
C  13.24800 54.74100 27.71000
C  13.25000 54.91100 26.30100
C  14.39300 54.03200 25.81400
C  12.33200 55.28800 28.81700
C  12.31800 55.77300 25.40200
O  12.40300 55.74600 24.18100
C  11.22400 56.68600 26.01200
N  16.67600 52.33300 24.70300
C  15.75800 52.96500 23.92300
C  16.11700 52.85700 22.38300
C  17.56300 52.33900 22.54700
C  17.63700 51.75600 23.95200
C  15.20200 51.94500 21.48300
C  18.78100 53.32600 22.32900
C  20.06100 52.74800 21.61300
N  18.32200 51.11600 26.81600
C  19.05800 50.68900 25.72000
C  20.21600 49.81900 26.13600
C  20.08600 49.83600 27.51200
C  18.97400 50.64600 27.87900
C  21.34500 49.26900 25.32300
C  20.64800 49.32000 28.78600
O  21.63000 48.59700 29.04200
C  19.79100 49.91600 29.90000
C  19.11400 48.88400 30.81900
O  18.31900 48.01300 30.45700
O  19.66700 49.03300 32.05500
C  19.32500 48.12200 33.12400
H  13.99400 53.69000 30.25700
H  14.12200 54.16500 23.57900
H  19.36800 50.66900 23.66000
H  17.40100 50.61500 31.94000
H  15.83500 52.76900 31.94200
H  14.00500 50.88500 30.76700
H  14.33000 50.98200 32.43000
H  15.17200 49.82000 31.47900
H  18.03100 53.56800 31.68000
H  19.42200 52.48000 31.47200
H  18.58300 53.74700 33.62600
H  19.46300 52.17700 33.63600
H  12.21400 56.36400 28.69000
H  12.69100 55.27600 29.84600
H  11.36900 54.77900 28.77900
H  10.55900 57.12000 25.26500
H  11.71700 57.52100 26.50900
H  10.72200 56.12700 26.80200
H  16.08400 53.86200 21.96200
H  17.81900 51.52600 21.86700
H  14.47400 51.36700 22.05400
H  15.75800 51.22900 20.87700
H  14.68500 52.68200 20.86900
H  19.19000 53.69100 23.27100
H  18.61900 54.11600 21.59700
H  19.99400 51.66700 21.49100
H  20.86000 53.00000 22.31100
H  20.30100 53.30600 20.70800
H  21.26900 49.23300 24.23600
H  21.54700 48.29400 25.76500
H  22.31000 49.74500 25.49700
H  20.41800 50.60100 30.47100
H  19.80600 47.15700 32.96600
H  18.25700 47.90400 33.15600
H  19.67500 48.47600 34.09400

