158

Mg 16.87200 52.70400 26.46900
C  18.88500 51.25000 28.83600
C  14.48000 53.33400 28.96200
C  14.98400 54.09400 24.10500
C  19.36000 52.05200 24.00900
N  16.69800 52.34300 28.67900
C  17.70500 51.83000 29.42200
C  17.33500 51.84700 30.95300
C  15.84200 52.33300 30.92400
C  15.67700 52.80500 29.44200
C  14.80200 51.21100 31.24600
C  18.32000 52.82800 31.70200
C  18.74300 52.38200 33.18000
H  17.67100 51.76600 34.10800
N  14.94700 53.58800 26.53100
C  14.12800 53.71000 27.61900
C  12.88800 54.21300 27.17000
C  12.95200 54.36200 25.77500
C  14.36200 53.96900 25.39100
C  11.70700 54.38900 28.08300
C  11.85600 54.64600 24.76800
O  12.09900 54.74000 23.57200
C  10.53400 54.96000 25.22500
N  17.13200 52.94300 24.30000
C  16.24300 53.75900 23.64000
C  16.72400 53.90700 22.13000
C  18.11900 53.20500 22.16200
C  18.23600 52.81300 23.60100
C  15.79100 53.12900 21.15300
C  19.31900 54.08200 21.65000
C  19.67600 55.37800 22.45500
N  18.73500 51.72000 26.38800
C  19.59900 51.50300 25.33900
C  20.67000 50.64100 25.79100
C  20.41000 50.48600 27.14200
C  19.23200 51.22700 27.48400
C  21.78100 50.17300 24.97400
C  20.90200 49.91200 28.44600
O  21.99900 49.27300 28.55600
C  19.97900 50.46200 29.59200
C  19.54100 49.31500 30.33500
O  18.60900 48.60900 29.98400
O  20.07100 49.32900 31.58000
C  19.63500 48.36300 32.68200
H  13.73500 53.53900 29.73400
H  14.38400 54.58700 23.33800
H  20.14700 52.03200 23.25200
H  17.34700 50.84600 31.38400
H  15.73800 53.20000 31.57700
H  15.13800 50.40800 31.90200
H  14.52900 50.70800 30.31900
H  13.93800 51.82800 31.49000
H  17.92200 53.83800 31.60400
H  19.27400 52.71300 31.18700
H  19.01800 53.35700 33.58200
H  19.68100 51.82600 33.17300
H  11.04400 53.59500 27.73900
H  11.14800 55.31600 27.95000
H  11.84600 54.22900 29.15200
H  10.65800 55.83300 25.86500
H  10.11000 54.18100 25.85900
H  9.87800 55.20600 24.39000
H  16.76900 54.97600 21.92400
H  18.16100 52.28900 21.57300
H  16.42100 52.86500 20.30300
H  14.93300 53.67800 20.76400
H  15.49500 52.18700 21.61500
H  19.07500 54.51700 20.68000
H  20.19900 53.44500 21.56300
H  20.28700 54.97400 23.26300
H  18.72600 55.66800 22.90300
H  20.11900 56.14200 21.81500
H  21.35200 49.41300 24.32100
H  22.41900 49.68600 25.71200
H  22.21800 50.97500 24.38000
H  20.68900 51.07400 30.14800
H  20.50100 47.75600 32.94700
H  18.83400 47.79700 32.20600
H  19.20700 49.00100 33.45600
Mg -12.03000 15.88000 42.70500
C  -8.84000 14.56000 41.76900
C  -11.08000 18.89300 41.49800
C  -15.35700 16.75800 42.75300
C  -12.97900 12.45200 43.53700
N  -10.19700 16.57900 41.78600
C  -8.94700 15.93600 41.72600
C  -7.77900 16.94200 41.39000
C  -8.55000 18.33700 41.62200
C  -10.03100 17.94500 41.49900
C  -8.26800 18.97800 43.01400
C  -7.16900 16.75300 39.98900
C  -5.65800 16.72800 39.71500
H  -5.33800 15.51800 38.76200
N  -13.07100 17.58900 42.23700
C  -12.44800 18.70900 41.68500
C  -13.41100 19.64300 41.36400
C  -14.73700 19.06800 41.69500
C  -14.43500 17.77300 42.25400
C  -13.15200 20.94900 40.72700
C  -16.13000 19.68500 41.53900
O  -16.20100 20.86200 41.13900
C  -17.36400 18.92800 41.84100
N  -13.83600 14.85500 43.35500
C  -15.10400 15.46800 43.23900
C  -16.17500 14.54200 43.67400
C  -15.43400 13.16000 43.91100
C  -13.96700 13.49300 43.62500
C  -17.19400 15.08000 44.77100
C  -16.04800 11.92500 43.20000
C  -15.65300 11.76500 41.74900
N  -11.13800 13.92000 42.74600
C  -11.69100 12.67200 43.06500
C  -10.69800 11.67900 42.94000
C  -9.54300 12.35000 42.46100
C  -9.89600 13.67900 42.27000
C  -10.92900 10.23900 43.33500
C  -8.14100 12.23400 42.10600
O  -7.40300 11.32300 42.12300
C  -7.65200 13.62400 41.65200
C  -6.56300 13.87000 42.56500
O  -6.66700 13.90500 43.79600
O  -5.33000 13.99800 41.92000
C  -4.16300 14.14900 42.85300
H  -10.85600 19.96100 41.45100
H  -16.37300 17.11200 42.94200
H  -13.29800 11.45600 43.85200
H  -7.05000 16.80700 42.18900
H  -8.22100 19.01100 40.83100
H  -7.29900 18.71100 43.43700
H  -9.02300 18.84700 43.78900
H  -8.21000 20.06100 42.91000
H  -7.58600 17.39600 39.21300
H  -7.48500 15.73600 39.75800
H  -5.08300 16.58600 40.63000
H  -5.33600 17.63400 39.20100
H  -13.93200 21.17800 40.00100
H  -12.29200 21.01800 40.06100
H  -13.17000 21.84800 41.34200
H  -17.32200 18.03800 41.21300
H  -18.07800 19.68900 41.52400
H  -17.41300 18.84700 42.92700
H  -16.73700 14.32500 42.76600
H  -15.40200 12.94400 44.97900
H  -18.16700 14.66500 44.50800
H  -17.35300 16.15300 44.87300
H  -16.98000 14.73100 45.78200
H  -17.11500 11.88800 43.42200
H  -15.59500 11.07400 43.70900
H  -15.22100 12.73300 41.49300
H  -16.46800 11.47400 41.08600
H  -14.83800 11.04900 41.65100
H  -10.06400 9.58100 43.25400
H  -11.77300 9.82900 42.78000
H  -11.28700 10.16000 44.36200
H  -7.28800 13.57500 40.62600
H  -4.36100 13.47100 43.68300
H  -4.13100 15.18200 43.19900
H  -3.25600 13.92900 42.28900

