158

Mg 43.85000 4.91500 47.41100
C  42.05600 7.96500 47.46000
C  40.77000 3.27700 47.43900
C  45.46200 2.05700 46.69800
C  46.74900 6.77300 46.59900
N  41.67100 5.57000 47.30200
C  41.21000 6.86900 47.30400
C  39.68900 6.98200 47.51500
C  39.27800 5.44300 47.67100
C  40.58800 4.74300 47.50800
C  38.51000 5.11000 49.04200
C  38.93300 7.57600 46.32400
C  39.61900 8.05300 45.01600
H  39.25200 7.21500 43.79700
N  43.26000 2.92400 47.20300
C  41.95300 2.44400 47.24600
C  42.05100 1.04600 47.04900
C  43.38000 0.65600 46.94200
C  44.11400 1.84700 46.94200
C  40.76800 0.14400 46.88500
C  43.87200 -0.75100 46.89900
O  43.07300 -1.70100 46.90300
C  45.29300 -1.12600 46.81400
N  45.80000 4.43200 46.75900
C  46.28400 3.15500 46.68900
C  47.86900 3.16100 46.31800
C  48.19000 4.71900 46.24400
C  46.81400 5.36400 46.50800
C  48.64000 2.34500 47.38500
C  48.95700 5.20600 44.98100
C  50.46200 5.04100 45.00400
N  44.35300 6.95800 47.11100
C  45.57200 7.51500 46.96900
C  45.42300 8.96600 46.99300
C  44.09900 9.20500 47.31200
C  43.40800 7.99200 47.24700
C  46.61000 9.96800 47.01900
C  43.04800 10.21700 47.55400
O  43.25700 11.43400 47.64300
C  41.65200 9.52900 47.58800
C  40.86700 9.81500 48.86400
O  40.99500 9.19600 49.96000
O  40.20300 10.99800 48.77700
C  39.19400 11.13600 49.82500
H  39.79400 2.78800 47.47400
H  46.08900 1.19600 46.45700
H  47.66000 7.37300 46.56600
H  39.37400 7.51800 48.41000
H  38.78000 5.03400 46.79200
H  38.14000 6.02000 49.51400
H  39.31400 4.70100 49.65500
H  37.74200 4.35600 48.87200
H  38.51400 8.48200 46.76300
H  37.98600 7.03700 46.29800
H  40.70300 8.05300 45.13000
H  39.30500 9.03500 44.66300
H  39.87000 0.75400 46.98000
H  40.65600 -0.69400 47.57300
H  40.80100 -0.29400 45.88700
H  45.73200 -0.52200 47.60800
H  45.65800 -0.85100 45.82400
H  45.54600 -2.17300 46.97900
H  48.00300 2.76200 45.31200
H  48.83000 4.96500 47.09100
H  49.50600 1.84900 46.94700
H  47.93500 1.58900 47.73000
H  49.01500 2.99000 48.18000
H  48.66300 6.16600 44.55800
H  48.56300 4.59000 44.17200
H  50.76200 4.25400 45.69600
H  51.03900 5.94200 45.21500
H  50.78200 4.63800 44.04300
H  47.49200 9.43300 47.36900
H  46.28000 10.81100 47.62700
H  46.73100 10.26400 45.97700
H  41.03500 9.84100 46.74600
H  39.57800 11.43900 50.79900
H  38.58200 10.23500 49.87100
H  38.54300 11.92500 49.45000
Mg 47.38700 25.71300 29.49500
C  48.41100 28.17000 31.97400
C  46.15200 23.74600 31.92800
C  47.29800 23.33500 27.23200
C  49.21200 27.73100 27.19300
N  47.14700 26.08400 31.63500
C  47.66700 27.07800 32.40300
C  47.14900 26.89000 33.81900
C  46.57300 25.41600 33.83600
C  46.55700 25.07300 32.33800
C  47.60100 24.50800 34.59100
C  46.09900 27.96900 34.13700
C  46.15800 28.77400 35.50700
H  46.85900 27.91700 36.65800
N  46.64900 23.76700 29.63100
C  46.19100 23.16000 30.67200
C  45.63500 21.92600 30.32600
C  45.97200 21.76200 28.90700
C  46.69800 22.97800 28.51100
C  44.79300 21.04500 31.27600
C  45.58900 20.62300 27.97500
O  45.86400 20.67900 26.78800
C  44.81300 19.47900 28.39800
N  48.09500 25.58900 27.47900
C  47.78900 24.50300 26.75100
C  48.21800 24.71100 25.26100
C  48.66200 26.20600 25.24600
C  48.60600 26.59600 26.69800
C  49.13400 23.65700 24.66900
C  47.80900 27.05300 24.32500
C  48.57500 27.69100 23.15800
N  48.55400 27.67600 29.48400
C  49.28900 28.25500 28.50700
C  49.89600 29.50000 28.94400
C  49.53100 29.54800 30.34300
C  48.77600 28.37800 30.59900
C  50.74100 30.49000 28.08100
C  49.70500 30.23700 31.53100
O  50.25500 31.27200 31.81800
C  49.05000 29.30900 32.71200
C  50.08900 28.95000 33.67600
O  51.15900 28.44800 33.34000
O  49.72600 29.44400 34.91400
C  50.63200 29.17000 36.03600
H  45.70200 23.20200 32.76000
H  47.19700 22.63300 26.40200
H  49.64100 28.25700 26.33800
H  48.08500 27.01300 34.36400
H  45.59100 25.35100 34.30400
H  48.54300 25.02200 34.78200
H  47.92300 23.73900 33.89000
H  47.24900 23.96000 35.46500
H  45.12500 27.48700 34.06100
H  45.99900 28.77300 33.40700
H  45.19400 29.08200 35.91100
H  46.73200 29.70100 35.51100
H  43.87800 20.69400 30.80000
H  44.49300 21.45500 32.24000
H  45.36400 20.22000 31.70200
H  43.74600 19.69500 28.35600
H  45.09400 19.13800 29.39500
H  44.97900 18.66500 27.69200
H  47.32100 24.58300 24.65500
H  49.67800 26.14600 24.85800
H  49.89000 23.45600 25.42800
H  49.54600 24.09700 23.76100
H  48.45800 22.84400 24.40100
H  47.26500 27.77800 24.93000
H  46.96900 26.55700 23.83900
H  48.05500 27.54500 22.21100
H  49.59400 27.31600 23.06700
H  48.43700 28.76900 23.24700
H  50.99400 30.06800 27.10900
H  51.67100 30.53400 28.64900
H  50.16000 31.40700 27.99100
H  48.26600 29.85700 33.23500
H  51.53800 29.67300 35.69700
H  50.80500 28.09500 36.07900
H  50.26700 29.52800 36.99900

