158

Mg 3.07800 -0.60000 44.50500
C  6.39100 0.37600 43.56600
C  1.85200 2.04500 42.73500
C  0.08200 -2.13900 44.52200
C  4.58000 -3.60900 45.94300
N  4.01000 1.12900 43.34300
C  5.35800 1.31100 43.10000
C  5.56000 2.59000 42.19100
C  4.11900 3.25100 42.17500
C  3.22700 2.09600 42.83100
C  3.91900 4.56600 42.91700
C  6.01100 2.16300 40.82200
C  7.40900 2.59300 40.29000
H  7.40900 3.29200 38.87800
N  1.17400 -0.04400 43.91200
C  0.90800 1.10000 43.17100
C  -0.52000 1.20800 43.03000
C  -1.12200 -0.01200 43.52100
C  0.06700 -0.83900 44.02400
C  -1.24200 2.36300 42.19900
C  -2.56700 -0.36900 43.59400
O  -3.46800 0.28300 43.08200
C  -3.05200 -1.73300 44.23100
N  2.51200 -2.56000 45.14400
C  1.18500 -2.91500 45.02100
C  0.92400 -4.36500 45.53600
C  2.36200 -4.87000 45.78100
C  3.24000 -3.59700 45.63300
C  0.17200 -4.32000 46.92100
C  2.77900 -6.00600 44.71700
C  2.67700 -7.43200 45.32400
N  5.11000 -1.49100 44.77400
C  5.50500 -2.62300 45.46500
C  6.91700 -2.54700 45.61200
C  7.33500 -1.45000 44.83100
C  6.16300 -0.80200 44.39500
C  7.73200 -3.46600 46.43100
C  8.48200 -0.72300 44.32000
O  9.64500 -0.87300 44.53400
C  7.96400 0.41400 43.44400
C  8.54400 1.63100 43.97400
O  9.31600 2.35800 43.35200
O  8.02600 1.97200 45.22200
C  8.24300 3.27800 45.76300
H  1.41800 2.84500 42.13200
H  -0.81700 -2.72900 44.71100
H  4.89900 -4.51900 46.45400
H  6.36700 3.13200 42.68400
H  3.78600 3.43200 41.15300
H  4.77000 4.94000 43.48600
H  3.00400 4.42100 43.49200
H  3.76400 5.30200 42.12800
H  5.29400 2.45100 40.05300
H  5.95600 1.07400 40.80300
H  8.11500 1.76400 40.23500
H  7.67800 3.37900 40.99700
H  -1.89100 1.83900 41.49700
H  -0.56400 3.09100 41.75300
H  -1.88200 3.02900 42.77800
H  -4.11600 -1.66800 44.46000
H  -2.62500 -1.96200 45.20800
H  -2.86400 -2.47500 43.45500
H  0.33900 -4.97700 44.85000
H  2.47600 -5.26800 46.78900
H  -0.71600 -3.79000 46.57500
H  0.61300 -3.63000 47.64000
H  -0.10600 -5.24700 47.42200
H  3.80600 -5.74600 44.45800
H  2.13800 -5.93700 43.83900
H  2.20200 -7.37800 46.30300
H  3.68000 -7.83600 45.46500
H  2.07300 -7.97900 44.60000
H  7.16500 -3.55500 47.35700
H  8.75700 -3.15200 46.62800
H  7.85500 -4.43100 45.94000
H  8.26100 0.40700 42.39500
H  7.41700 3.95500 45.54300
H  9.14600 3.70800 45.33000
H  8.24700 3.24300 46.85300
Mg -0.25500 43.28800 24.61100
C  2.02800 42.98700 27.33600
C  -2.73300 42.34800 26.84200
C  -2.33900 43.30800 22.05700
C  2.54400 43.58300 22.42200
N  -0.33500 42.83500 26.87500
C  0.71900 42.82500 27.75000
C  0.28000 42.60300 29.19400
C  -1.27300 42.15100 29.00100
C  -1.49400 42.48300 27.51500
C  -1.66100 40.67400 29.33300
C  0.55400 43.91200 30.05400
C  1.05200 43.63700 31.44100
H  0.80100 42.25400 32.04000
N  -2.27300 43.07600 24.45300
C  -3.05700 42.65400 25.48000
C  -4.38500 42.61700 24.84200
C  -4.40700 42.83200 23.51400
C  -2.92400 43.06500 23.27700
C  -5.56600 42.19500 25.64500
C  -5.54200 42.90400 22.44700
O  -5.35900 43.20800 21.27100
C  -6.92800 42.63800 22.89600
N  0.04600 43.36900 22.55200
C  -0.96400 43.42400 21.68000
C  -0.54900 43.76100 20.19600
C  1.01000 43.91400 20.43000
C  1.21100 43.65700 21.90800
C  -1.05800 42.72700 19.15800
C  1.42100 45.31100 19.90200
C  0.97200 46.51400 20.67700
N  1.85600 43.22100 24.78600
C  2.85400 43.35900 23.80300
C  4.08900 43.38400 24.44400
C  3.85000 43.13000 25.80600
C  2.43800 42.98400 25.97500
C  5.39400 43.46000 23.84400
C  4.48400 42.95700 27.13200
O  5.68100 43.00800 27.46800
C  3.26800 42.97400 28.13700
C  3.49800 41.76300 28.93800
O  2.98800 40.64100 28.71900
O  4.28100 42.17600 30.00000
C  4.65500 41.07200 30.85200
H  -3.50300 42.03500 27.55000
H  -3.03000 43.29500 21.21200
H  3.40800 43.89400 21.83200
H  0.73100 41.66600 29.51900
H  -1.85300 42.93700 29.48300
H  -2.26200 40.70800 30.24200
H  -0.85600 39.99400 29.61300
H  -2.30300 40.24400 28.56500
H  -0.39000 44.45200 30.13500
H  1.17800 44.61000 29.49500
H  0.53500 44.37600 32.05200
H  2.12800 43.78200 31.34400
H  -6.12400 41.44000 25.09200
H  -6.21100 43.06200 25.78700
H  -5.23800 41.82600 26.61700
H  -7.16500 41.57500 22.94300
H  -7.50500 43.10600 22.09900
H  -7.23600 43.23000 23.75800
H  -0.95300 44.75400 20.00400
H  1.55300 43.15700 19.86400
H  -0.22100 42.15400 18.76000
H  -1.52300 43.24900 18.32100
H  -1.75100 41.98900 19.56300
H  1.01200 45.41100 18.89600
H  2.50900 45.33900 19.83800
H  1.85100 46.98700 21.11300
H  0.43400 46.22100 21.57800
H  0.46600 47.23800 20.03900
H  6.05800 43.37600 24.70400
H  5.55500 44.36400 23.25600
H  5.58200 42.70700 23.07800
H  3.30500 43.86800 28.75900
H  5.69200 41.24900 31.13600
H  4.65900 40.03900 30.50400
H  4.05700 41.03100 31.76300

