158

Mg 0.93700 7.75300 25.86200
C  1.69100 9.45000 28.84100
C  0.75900 4.86500 27.65600
C  0.69000 6.24600 22.91900
C  1.61700 10.91200 24.12100
N  1.21600 7.22300 28.06300
C  1.42500 8.01400 29.06800
C  1.26000 7.28300 30.44600
C  1.31600 5.75600 29.97000
C  1.11200 5.93400 28.48300
C  2.58400 4.93100 30.21600
C  -0.05600 7.69100 31.12400
C  -0.08500 7.89200 32.63500
H  1.15000 7.70100 33.42200
N  0.75500 5.91900 25.38800
C  0.58000 4.83800 26.27100
C  0.31600 3.60500 25.52400
C  0.40000 3.95300 24.16300
C  0.61700 5.46500 24.11000
C  -0.06200 2.28200 26.08000
C  0.32800 3.06700 22.93300
O  0.38700 3.41700 21.76500
C  0.34400 1.57300 23.02000
N  1.20000 8.51200 23.81500
C  0.99600 7.60900 22.75600
C  1.04600 8.35200 21.41200
C  0.93700 9.85900 21.85800
C  1.33800 9.81100 23.34800
C  2.36600 8.13000 20.59600
C  -0.43500 10.62500 21.70100
C  -0.53000 11.41100 20.41000
N  1.51400 9.80200 26.34700
C  1.76400 10.91900 25.50900
C  1.96500 12.06200 26.46100
C  1.99500 11.53600 27.71900
C  1.76700 10.18200 27.64200
C  2.02600 13.51500 26.07200
C  2.21700 11.91200 29.11400
O  2.71600 12.92500 29.56900
C  1.88100 10.56000 29.91100
C  3.15200 10.47800 30.77100
O  4.17000 9.93400 30.45900
O  2.90300 11.17800 31.89500
C  4.02700 11.40700 32.83900
H  0.55000 3.93200 28.18300
H  0.61400 5.70700 21.97200
H  1.57700 11.88100 23.62100
H  2.20700 7.40700 30.97100
H  0.51300 5.15700 30.40000
H  3.18900 4.80300 29.31900
H  2.30000 3.97600 30.65800
H  3.22400 5.40000 30.96300
H  -0.72300 6.86400 30.87900
H  -0.42000 8.63600 30.72100
H  -0.98300 7.33100 32.89200
H  -0.46900 8.88100 32.88600
H  -1.03100 1.93000 25.72500
H  -0.29700 2.39900 27.13800
H  0.59800 1.42000 25.98600
H  1.04800 1.15300 23.73800
H  0.50200 1.14600 22.03000
H  -0.62300 1.16000 23.30700
H  0.27300 8.09400 20.68800
H  1.52500 10.67600 21.44000
H  3.04200 7.55100 21.22400
H  2.77900 9.11900 20.39800
H  2.02000 7.72200 19.64600
H  -0.70200 11.11300 22.63800
H  -1.27300 9.97900 21.43600
H  -1.14700 12.30300 20.51500
H  -0.98900 10.93700 19.54200
H  0.45800 11.77100 20.12400
H  0.97500 13.79600 26.14500
H  2.41900 13.71400 25.07500
H  2.63200 14.09200 26.77100
H  1.04400 10.78300 30.57200
H  4.84600 12.06500 32.54700
H  4.62900 10.51500 33.01300
H  3.53000 11.83400 33.71000
Mg 25.72300 0.09300 29.29900
C  27.47600 -0.20300 32.33700
C  22.91600 0.46300 31.02000
C  24.21800 0.35300 26.38000
C  28.65700 -0.85600 27.67000
N  25.35500 0.26900 31.44800
C  26.17400 0.15500 32.53800
C  25.44200 0.49200 33.81900
C  23.90200 0.63200 33.38300
C  24.06000 0.41100 31.87000
C  22.84800 -0.31600 34.15600
C  25.94800 1.82600 34.43300
C  27.03600 1.79300 35.52500
H  26.88800 2.53100 36.73400
N  23.81200 0.36500 28.79300
C  22.81900 0.69200 29.62700
C  21.59700 0.91200 28.87300
C  21.95600 0.81000 27.52100
C  23.41700 0.59100 27.51900
C  20.24400 0.87100 29.54900
C  20.99500 0.85700 26.28200
O  21.32300 0.79100 25.11000
C  19.51400 1.08800 26.43900
N  26.31700 -0.30100 27.37100
C  25.55200 0.02700 26.29400
C  26.20900 -0.24600 24.94900
C  27.66500 -0.58300 25.40800
C  27.54100 -0.65700 26.89200
C  25.59300 -1.40900 24.02400
C  28.75600 0.36700 24.81300
C  28.88600 1.68200 25.58900
N  27.73700 -0.50900 29.82700
C  28.80100 -0.77700 29.10800
C  29.98500 -1.02600 29.87100
C  29.55100 -0.86100 31.20600
C  28.16600 -0.51600 31.11800
C  31.38300 -1.34500 29.39800
C  29.85800 -0.96100 32.59800
O  30.89200 -1.33300 33.11600
C  28.58100 -0.48400 33.33800
C  28.22000 -1.52300 34.33700
O  27.36800 -2.44400 34.16500
O  28.88900 -1.35300 35.51600
C  28.51900 -2.40800 36.52600
H  21.92700 0.50000 31.48200
H  23.76000 0.37700 25.38900
H  29.49600 -1.11400 27.02000
H  25.48000 -0.35200 34.50800
H  23.54300 1.65900 33.44300
H  22.01500 0.34200 34.40500
H  23.13800 -0.63500 35.15700
H  22.44600 -1.11700 33.53500
H  25.14200 2.39500 34.89700
H  26.19500 2.49200 33.60600
H  27.96300 2.05600 35.01500
H  27.30200 0.75000 35.69600
H  20.30100 1.55600 30.39500
H  20.14100 -0.10600 30.02200
H  19.31400 1.12900 29.04300
H  18.92300 1.02800 25.52500
H  19.38700 2.15000 26.65100
H  19.14000 0.46100 27.24800
H  26.13800 0.66100 24.34800
H  28.02200 -1.58400 25.16400
H  26.13800 -2.30700 24.31500
H  25.66500 -1.22600 22.95200
H  24.55500 -1.41900 24.35800
H  28.52500 0.57700 23.76900
H  29.70400 -0.17100 24.81100
H  28.41300 1.64100 26.57000
H  28.47100 2.50000 25.00000
H  29.93200 1.97000 25.69700
H  31.55100 -0.82000 28.45800
H  31.41000 -2.42200 29.23700
H  32.03400 -0.93000 30.16700
H  28.83400 0.38400 33.94700
H  29.15100 -2.17300 37.38300
H  28.86200 -3.40000 36.23200
H  27.48900 -2.45200 36.88000

