158

Mg 15.84400 51.77100 25.23400
C  17.36900 50.71000 28.16000
C  13.06100 52.74600 27.14200
C  14.35200 52.49900 22.47800
C  18.52700 50.33900 23.38800
N  15.28900 51.74100 27.44900
C  16.21700 51.46400 28.43800
C  15.65200 51.81400 29.84500
C  14.18500 52.34400 29.50500
C  14.09800 52.27500 27.94700
C  13.04100 51.67000 30.33800
C  16.66000 52.65100 30.63700
C  16.95300 52.22600 32.05300
H  15.93200 51.44300 32.81900
N  13.99500 52.54900 24.88500
C  12.99300 52.87100 25.79900
C  11.84900 53.49700 25.05000
C  12.27800 53.53800 23.63100
C  13.60900 52.84400 23.61400
C  10.69200 54.20700 25.74300
C  11.57400 54.03100 22.48800
O  11.93900 53.93700 21.30500
C  10.30100 54.79000 22.69200
N  16.41200 51.59100 23.18100
C  15.56300 51.96500 22.22800
C  16.09400 51.58800 20.82400
C  17.47600 50.87100 21.14000
C  17.46700 50.93400 22.65100
C  15.03000 50.73000 20.05500
C  18.66400 51.63800 20.43200
C  18.41200 52.16800 19.04800
N  17.57000 50.68700 25.63100
C  18.56900 50.19200 24.78000
C  19.52800 49.41500 25.65400
C  19.05900 49.63700 26.93900
C  17.84100 50.41500 26.87400
C  20.63100 48.60800 25.17900
C  19.51100 49.51200 28.36500
O  20.57100 49.10400 28.85500
C  18.41400 50.20400 29.23200
C  18.01000 49.13100 30.21900
O  17.02600 48.42500 30.10300
O  18.78600 49.22200 31.38400
C  18.46800 48.34000 32.54800
H  12.28300 53.22500 27.73900
H  13.97200 52.85300 21.51700
H  19.32400 49.83500 22.83600
H  15.49900 50.81800 30.26100
H  14.13200 53.37400 29.85800
H  12.23300 51.29800 29.70700
H  12.64700 52.35600 31.08700
H  13.36000 50.78900 30.89500
H  16.23100 53.64900 30.72600
H  17.55400 52.76500 30.02300
H  17.12700 53.17000 32.57000
H  17.83800 51.59600 31.95800
H  10.63700 53.93400 26.79700
H  9.71700 53.97200 25.31600
H  10.75700 55.29300 25.81200
H  9.93600 55.05600 21.70000
H  10.56300 55.68400 23.25700
H  9.53900 54.20800 23.21100
H  16.06700 52.51600 20.25400
H  17.47300 49.80400 20.91800
H  15.48100 49.97000 19.41700
H  14.28400 51.36500 19.57600
H  14.45000 50.12700 20.75300
H  19.54700 51.00000 20.47200
H  18.81000 52.52100 21.05400
H  19.30100 51.99500 18.44200
H  18.27500 53.22800 19.26100
H  17.56700 51.85400 18.43500
H  20.29600 48.13600 24.25600
H  20.82900 47.78800 25.86900
H  21.46200 49.30100 25.04600
H  18.90200 50.97600 29.82700
H  19.29000 47.64300 32.71200
H  17.57300 47.74800 32.36000
H  18.30200 49.00100 33.39800
Mg -10.14500 40.06000 43.56000
C  -8.94600 36.98100 42.41500
C  -7.35600 41.50700 42.11500
C  -11.50600 43.18900 43.97400
C  -13.24800 38.52900 44.31000
N  -8.35300 39.29400 42.47400
C  -7.99000 37.95600 42.20100
C  -6.67200 37.84900 41.46900
C  -6.05600 39.26400 41.73500
C  -7.28400 40.11600 42.13000
C  -4.84300 39.26300 42.79500
C  -6.84600 37.47700 39.98000
C  -5.82400 36.42600 39.35000
H  -4.76700 36.94300 38.26700
N  -9.43300 42.05100 43.16100
C  -8.28300 42.42200 42.56500
C  -8.14300 43.83300 42.39700
C  -9.33900 44.37800 43.02900
C  -10.21300 43.23300 43.42000
C  -6.96700 44.50600 41.74900
C  -9.61700 45.87100 43.12600
O  -8.83800 46.71000 42.65200
C  -10.90600 46.43300 43.73600
N  -12.00300 40.73200 44.26600
C  -12.33700 42.06200 44.29900
C  -13.88500 42.17200 44.56700
C  -14.24500 40.76000 45.09100
C  -13.12500 39.94000 44.49900
C  -14.20000 43.31700 45.53300
C  -15.66500 40.36400 44.59300
C  -15.82200 39.95600 43.09700
N  -10.94600 38.13200 43.55100
C  -12.22600 37.66300 43.79700
C  -12.32700 36.23800 43.50300
C  -11.05700 35.99200 43.01000
C  -10.25100 37.14400 42.97700
C  -13.57100 35.42600 43.53400
C  -10.26800 34.94400 42.49700
O  -10.60700 33.68900 42.37600
C  -8.85400 35.53700 41.99700
C  -7.71300 34.75600 42.53900
O  -7.33800 34.57400 43.71800
O  -7.05200 34.16200 41.56200
C  -6.29300 33.00600 41.94500
H  -6.38900 41.97300 41.91500
H  -12.04600 44.13800 43.95000
H  -14.14800 37.97700 44.59000
H  -5.96400 37.09600 41.81400
H  -5.63100 39.57600 40.78200
H  -5.10800 38.53400 43.56000
H  -4.83300 40.25700 43.24300
H  -3.91900 39.06900 42.24800
H  -6.73400 38.42800 39.45900
H  -7.85900 37.10900 39.81900
H  -6.51300 35.70600 38.90900
H  -5.17300 35.87400 40.02800
H  -7.10100 45.52900 41.39800
H  -6.54500 44.07100 40.84300
H  -6.11800 44.62300 42.42300
H  -11.81600 46.19600 43.18500
H  -10.90900 47.51300 43.87700
H  -10.97700 46.12000 44.77800
H  -14.26100 42.37100 43.56400
H  -14.08800 40.60400 46.15800
H  -13.33300 43.91500 45.81400
H  -14.73600 42.89700 46.38500
H  -14.88200 44.03000 45.07100
H  -16.37400 41.13600 44.89300
H  -16.07200 39.47900 45.08100
H  -16.01400 40.89300 42.57500
H  -16.49200 39.09600 43.06800
H  -14.88000 39.52500 42.75800
H  -13.39700 34.35400 43.43700
H  -14.15100 35.70000 42.65300
H  -14.12500 35.48200 44.47100
H  -8.76900 35.52400 40.91100
H  -6.93400 32.44100 42.62200
H  -5.36500 33.23100 42.46900
H  -6.08100 32.48500 41.01200

