158

Mg 2.40800 0.19100 45.21700
C  5.56000 1.70700 44.59400
C  1.07300 3.14800 43.96600
C  -0.40700 -1.42100 45.07000
C  4.16800 -2.96000 45.61700
N  3.24000 2.25100 44.40200
C  4.53000 2.55600 44.25100
C  4.71600 3.95900 43.82600
C  3.22700 4.51600 43.61600
C  2.47700 3.25500 44.06400
C  2.82500 5.89500 44.32000
C  5.43900 4.07500 42.44600
C  5.17300 3.01700 41.38900
H  5.73200 3.20300 40.03100
N  0.59100 0.75600 44.64100
C  0.15100 2.02700 44.19600
C  -1.23900 1.94000 43.85900
C  -1.69500 0.64000 44.30200
C  -0.43700 -0.06200 44.71900
C  -2.02800 3.14500 43.36100
C  -3.15200 0.19400 44.26000
O  -3.92200 0.88900 43.67700
C  -3.72300 -0.92700 45.05600
N  2.00200 -1.84200 45.36600
C  0.71300 -2.29000 45.30000
C  0.59700 -3.77900 45.27500
C  2.02600 -4.23000 45.37000
C  2.79200 -2.93400 45.42400
C  -0.33500 -4.36500 46.36500
C  2.44900 -5.30700 44.41200
C  2.99700 -6.65200 45.00700
N  4.41700 -0.49400 45.35900
C  4.96800 -1.79300 45.58800
C  6.40600 -1.70600 45.64800
C  6.65100 -0.38600 45.22200
C  5.43900 0.31900 45.01700
C  7.44600 -2.68800 45.88500
C  7.71200 0.68700 44.90600
O  8.95500 0.57200 44.96100
C  7.04100 2.03600 44.58000
C  7.38200 3.05000 45.48400
O  7.69000 4.24000 45.24100
O  7.07300 2.62700 46.68300
C  6.76100 3.60000 47.65100
H  0.50100 3.97200 43.53600
H  -1.35700 -1.95600 45.02000
H  4.69500 -3.90200 45.78700
H  5.18900 4.55300 44.60900
H  2.90300 4.66700 42.58600
H  1.91800 5.70000 44.89100
H  2.71700 6.73400 43.63300
H  3.68200 6.02600 44.98100
H  6.49200 4.35400 42.46700
H  4.96700 4.92600 41.95500
H  4.09600 3.05000 41.23100
H  5.54800 2.07600 41.79100
H  -3.05200 3.17200 43.73400
H  -1.95800 3.03100 42.27900
H  -1.58600 4.01300 43.85000
H  -3.33800 -0.96900 46.07500
H  -3.63000 -1.90900 44.59300
H  -4.78400 -0.77200 45.25000
H  0.19900 -4.01500 44.28700
H  2.17900 -4.62700 46.37300
H  -0.88200 -3.51000 46.76200
H  0.25400 -4.80100 47.17100
H  -0.99200 -5.12300 45.93800
H  3.18100 -4.83800 43.75300
H  1.59300 -5.54400 43.78000
H  2.87500 -6.77200 46.08300
H  4.05100 -6.72800 44.73800
H  2.44200 -7.45500 44.52200
H  8.13100 -2.10900 46.50500
H  7.93600 -2.92000 44.94000
H  7.12300 -3.62100 46.34600
H  7.35300 2.22900 43.55300
H  5.84000 4.07200 47.30900
H  7.37000 4.49200 47.80000
H  6.45700 3.20200 48.61900
Mg 25.57200 0.46700 29.11500
C  27.50800 0.47200 31.91100
C  22.81000 1.24900 30.95600
C  23.74600 0.41700 26.29300
C  28.36100 -0.45500 27.23200
N  25.21700 0.55000 31.28900
C  26.17500 0.73800 32.23800
C  25.52300 1.27200 33.58700
C  23.95000 1.40900 33.25400
C  23.99000 1.04500 31.72800
C  23.04000 0.59500 34.20200
C  26.10200 2.56600 34.18800
C  26.82900 2.47600 35.50300
H  26.37900 3.11700 36.81700
N  23.52400 0.71700 28.64700
C  22.57700 1.10400 29.55200
C  21.30100 1.33100 28.87700
C  21.54800 1.09400 27.46100
C  23.00600 0.79400 27.40200
C  20.04800 1.83800 29.47300
C  20.56100 1.10900 26.27400
O  20.88100 0.93500 25.11700
C  19.10500 1.41700 26.51100
N  25.96600 -0.06500 26.97800
C  25.07800 0.07200 26.02700
C  25.67600 -0.12200 24.56200
C  27.19700 -0.23700 24.92200
C  27.19700 -0.25000 26.45300
C  25.24400 -1.27300 23.77500
C  28.05500 0.98300 24.40400
C  29.38100 0.71200 23.71300
N  27.46900 -0.06600 29.48400
C  28.52700 -0.34100 28.60100
C  29.79700 -0.46700 29.36300
C  29.41000 -0.08300 30.66900
C  28.01100 0.06000 30.69500
C  31.16700 -0.80200 28.85500
C  29.94100 0.14800 31.97700
O  31.10800 0.12300 32.36600
C  28.70600 0.43900 32.83900
C  28.66800 -0.64500 33.90500
O  28.00000 -1.67000 33.78200
O  29.45600 -0.30300 34.90200
C  29.32800 -1.21500 36.01100
H  21.94900 1.65100 31.49500
H  23.29400 0.28100 25.30800
H  29.21200 -0.66200 26.58000
H  25.65800 0.42100 34.25500
H  23.70900 2.46600 33.37200
H  22.04900 1.04900 34.22600
H  23.35100 0.73000 35.23800
H  22.92200 -0.47700 34.03900
H  25.37400 3.36800 34.31000
H  26.73400 2.97400 33.39900
H  27.76400 3.02100 35.37400
H  27.00500 1.46900 35.88200
H  19.16600 1.21100 29.34100
H  19.71600 2.69800 28.89300
H  20.10500 2.16600 30.51100
H  18.76800 0.60300 27.15100
H  18.59600 1.28700 25.55600
H  19.00900 2.37500 27.02200
H  25.30100 0.83800 24.20700
H  27.63700 -1.15500 24.53200
H  24.60800 -0.89300 22.97600
H  24.63100 -1.94200 24.38000
H  25.97800 -1.86100 23.22400
H  28.09600 1.68500 25.23700
H  27.37200 1.44600 23.69200
H  30.05400 0.87900 24.55400
H  29.59800 1.49300 22.98500
H  29.47600 -0.29800 23.31500
H  31.12400 -0.46800 27.81800
H  31.25600 -1.88100 28.97800
H  31.94000 -0.29800 29.43500
H  28.76000 1.41000 33.33200
H  29.13500 -2.23600 35.68300
H  28.53700 -0.82400 36.65100
H  30.25200 -1.18100 36.58700

