158

Mg 7.22900 53.69200 41.47100
C  6.39100 50.30300 40.90800
C  10.40600 52.89000 40.52100
C  7.91100 56.90100 41.17000
C  3.84900 54.37700 42.06100
N  8.20800 51.78800 40.63600
C  7.72200 50.50200 40.58600
C  8.77100 49.45400 40.04600
C  10.05700 50.27500 40.32000
C  9.55300 51.75000 40.51300
C  10.87100 49.83000 41.52500
C  8.52600 48.99900 38.52600
C  7.81500 50.11300 37.66000
H  7.90400 49.87300 36.17000
N  8.91700 54.70300 40.86400
C  10.15500 54.22600 40.59200
C  11.04100 55.22900 40.24600
C  10.37100 56.40500 40.34500
C  9.03200 56.08500 40.85500
C  12.48100 55.05600 40.06200
C  10.84300 57.77900 39.90600
O  11.97000 57.93900 39.44300
C  9.92700 58.85900 39.77700
N  5.98300 55.40600 41.32500
C  6.63600 56.59700 41.52500
C  5.64300 57.58800 42.08200
C  4.31700 56.84300 42.37400
C  4.71500 55.48000 41.83900
C  6.17100 58.35300 43.21000
C  3.05600 57.57300 41.79100
C  1.80200 57.46100 42.60100
N  5.43300 52.56000 41.67100
C  4.15900 53.03700 41.92500
C  3.34800 51.85900 41.98600
C  4.15900 50.76300 41.63500
C  5.42900 51.30300 41.35900
C  1.85100 51.85700 42.37200
C  4.18700 49.31900 41.52400
O  3.41400 48.42800 41.83000
C  5.61700 48.93200 40.98600
C  5.39800 47.97800 39.77900
O  4.73700 48.22400 38.78700
O  5.87200 46.73300 40.13500
C  5.47900 45.66600 39.13800
H  11.44700 52.64400 40.30000
H  8.21500 57.94200 41.29800
H  2.81700 54.61800 42.32400
H  8.72900 48.56400 40.67400
H  10.76900 50.27100 39.49500
H  10.15000 49.71200 42.33400
H  11.73900 50.47500 41.66500
H  11.22600 48.82200 41.31300
H  7.93300 48.09200 38.41400
H  9.53000 48.91400 38.10900
H  8.27600 51.09400 37.77200
H  6.77900 50.20800 37.98500
H  12.83900 55.01700 39.03300
H  12.76700 54.13900 40.57600
H  13.03700 55.82000 40.60700
H  8.90300 58.53500 39.59500
H  10.14200 59.49200 38.91700
H  9.96000 59.54000 40.62700
H  5.42100 58.28300 41.27200
H  4.18300 56.66300 43.44000
H  7.03000 57.78700 43.56700
H  5.39400 58.38000 43.97400
H  6.33100 59.42400 43.07900
H  2.95300 56.86700 40.96700
H  3.23700 58.60500 41.49300
H  1.48600 58.40800 43.03900
H  1.97500 56.73700 43.39700
H  0.96200 57.15600 41.97800
H  1.70200 50.94300 42.94800
H  1.32400 51.86300 41.41800
H  1.66000 52.76700 42.94100
H  6.13500 48.38400 41.77300
H  5.96600 46.06000 38.24500
H  4.41500 45.52900 38.94900
H  5.81800 44.71500 39.54900
Mg 9.34600 47.72800 26.25400
C  7.21400 48.13800 29.03600
C  11.85100 49.08400 28.49300
C  11.55700 47.73900 23.70600
C  6.79500 47.07500 24.24500
N  9.50400 48.46800 28.53300
C  8.50500 48.25100 29.45100
C  8.88400 48.54100 30.90100
C  10.43000 48.93100 30.71800
C  10.63800 48.90500 29.15700
C  10.81200 50.29600 31.38400
C  8.67200 47.36300 31.89100
C  9.62200 46.83500 32.96000
H  8.94800 46.31500 34.23500
N  11.43400 48.24500 26.11800
C  12.24100 48.80800 27.13900
C  13.55800 48.88600 26.57200
C  13.45000 48.39200 25.22200
C  12.12000 48.12400 24.99900
C  14.84000 49.40700 27.21900
C  14.62200 48.33600 24.21300
O  14.50800 47.94800 23.09600
C  16.05100 48.67400 24.61900
N  9.20400 47.42300 24.24300
C  10.19700 47.43400 23.39200
C  9.78000 47.03900 21.94400
C  8.27600 46.97200 22.12200
C  8.05300 47.12000 23.67500
C  10.29700 47.95900 20.79200
C  7.67200 45.63400 21.48800
C  7.34600 45.64600 20.00400
N  7.39100 47.60800 26.53300
C  6.40600 47.27500 25.60000
C  5.08300 47.36900 26.20200
C  5.34000 47.71000 27.55200
C  6.73700 47.84700 27.67900
C  3.69100 47.04300 25.51300
C  4.74200 48.07200 28.78000
O  3.57500 48.12900 29.08500
C  5.91900 48.29600 29.77000
C  5.60900 47.23200 30.83900
O  5.98500 46.06000 30.83200
O  5.04500 47.78600 31.99500
C  4.53900 46.63500 32.77800
H  12.69800 49.41000 29.10000
H  12.22300 47.74900 22.84100
H  5.98600 46.88000 23.53800
H  8.34600 49.44600 31.18400
H  11.05500 48.20900 31.24300
H  11.71100 50.18600 31.99100
H  10.02900 50.63500 32.06200
H  10.93100 51.15600 30.72400
H  8.53700 46.49700 31.24400
H  7.71800 47.64400 32.33700
H  10.39900 47.50900 33.32000
H  10.01500 45.91500 32.52800
H  14.47300 49.66900 28.21100
H  15.17800 50.30900 26.70900
H  15.54500 48.62600 27.50300
H  16.14400 48.00600 25.47500
H  16.04400 49.75800 24.72500
H  16.82900 48.34200 23.93100
H  10.20000 46.05800 21.72600
H  7.89800 47.88600 21.66500
H  11.03400 48.68700 21.13000
H  9.57100 48.52300 20.20700
H  10.72100 47.26800 20.06400
H  6.77600 45.24100 21.96900
H  8.38800 44.83300 21.67300
H  7.57000 46.56400 19.46100
H  6.31400 45.31300 19.89200
H  7.99100 44.97400 19.43700
H  3.87600 46.69000 24.49900
H  3.20400 48.01800 25.47000
H  3.26200 46.28200 26.16500
H  5.79000 49.30900 30.15100
H  3.98100 45.97900 32.11000
H  3.88700 46.97200 33.58400
H  5.29000 45.97300 33.21000

