158

Mg 2.17100 -1.98800 43.79100
C  5.55400 -0.89900 43.55900
C  1.25100 0.93900 42.29300
C  -0.86900 -3.12200 43.95800
C  3.44500 -5.00200 45.25500
N  3.31400 -0.18400 42.93500
C  4.65500 0.02000 42.93700
C  4.96900 1.31800 42.18100
C  3.59500 2.08100 42.09600
C  2.66300 0.85800 42.36600
C  3.33400 3.33200 43.03400
C  5.52700 1.12500 40.74500
C  6.80600 1.90300 40.55000
H  7.01900 2.56200 39.19900
N  0.49300 -1.27800 43.08200
C  0.24600 -0.04300 42.57400
C  -1.17100 0.09800 42.15700
C  -1.81900 -1.09700 42.63900
C  -0.73700 -1.89400 43.24200
C  -1.77300 1.29100 41.46400
C  -3.29600 -1.47000 42.45200
O  -4.07300 -0.64400 41.98400
C  -3.88600 -2.83900 42.79900
N  1.38100 -3.95500 44.37400
C  0.09700 -3.98500 44.56700
C  -0.29800 -5.29500 45.24000
C  1.08900 -6.00800 45.55800
C  2.03500 -4.91500 45.12900
C  -1.18100 -5.20100 46.42800
C  1.46900 -7.43000 44.96600
C  1.87200 -8.52700 46.03500
N  4.09300 -2.88600 44.25800
C  4.43600 -4.08900 44.78500
C  5.91200 -4.23600 44.78100
C  6.38100 -2.98600 44.40200
C  5.24500 -2.17100 44.05600
C  6.60700 -5.47500 45.22500
C  7.55600 -2.14800 44.21700
O  8.71800 -2.34700 44.45000
C  7.04300 -0.76600 43.64800
C  7.28000 0.21500 44.66700
O  6.98100 0.23400 45.84500
O  8.13500 1.10100 44.13000
C  8.43000 2.29900 44.86400
H  0.98100 1.94900 41.97500
H  -1.88900 -3.49500 44.07100
H  3.83800 -5.93900 45.65300
H  5.61800 1.88400 42.85000
H  3.25700 2.31300 41.08700
H  4.14400 3.47900 43.74800
H  2.45900 3.12000 43.64700
H  3.17900 4.16200 42.34400
H  4.75000 1.40700 40.03400
H  5.77800 0.07300 40.60500
H  7.59400 1.16900 40.71800
H  6.94600 2.63600 41.34400
H  -1.94400 1.97700 42.29400
H  -2.71300 1.20500 40.92000
H  -0.97000 1.81700 40.94800
H  -4.81100 -2.97200 42.23700
H  -4.08500 -2.84100 43.87100
H  -3.29200 -3.60500 42.30100
H  -0.86700 -5.92900 44.56000
H  1.14600 -6.06300 46.64500
H  -2.22900 -5.21000 46.12800
H  -0.98300 -4.25400 46.93000
H  -1.14400 -6.03100 47.13300
H  2.24300 -7.41600 44.19900
H  0.59600 -7.80200 44.43000
H  2.92700 -8.78700 45.94900
H  1.33900 -9.46200 45.85900
H  1.65200 -8.13600 47.02900
H  7.54900 -5.75100 44.75200
H  5.95100 -6.34100 45.14000
H  6.91200 -5.35000 46.26400
H  7.53300 -0.64400 42.68200
H  7.56200 2.75600 45.33900
H  8.81000 3.03200 44.15300
H  9.18000 2.00100 45.59700
Mg 24.98600 -5.14700 46.33700
C  27.26700 -2.83200 44.69100
C  22.75200 -4.49200 43.95300
C  23.40500 -7.86500 47.32200
C  27.83900 -6.04100 48.25800
N  25.06100 -3.82500 44.55300
C  25.98900 -2.88800 44.18700
C  25.44100 -2.03600 42.97600
C  23.93800 -2.41900 43.02800
C  23.89800 -3.65800 43.87300
C  22.92000 -1.36000 43.55500
C  26.07500 -2.43000 41.63900
C  26.34600 -1.31500 40.51800
H  25.79400 -1.57200 39.08600
N  23.18900 -5.95300 45.90200
C  22.42400 -5.50900 44.84800
C  21.23400 -6.27700 44.84900
C  21.32500 -7.22900 45.94400
C  22.67200 -7.10500 46.44500
C  20.00800 -6.00100 43.94800
C  20.31100 -8.21500 46.50500
O  19.24900 -8.43700 45.88500
C  20.57500 -9.15500 47.70900
N  25.56200 -6.75400 47.53600
C  24.73000 -7.76400 47.85200
C  25.35700 -8.92100 48.58000
C  26.81200 -8.24300 48.85600
C  26.76200 -6.94500 48.17300
C  24.49800 -9.42800 49.74600
C  28.01900 -9.08100 48.46200
C  28.18000 -10.46800 49.20200
N  27.06900 -4.48900 46.63000
C  27.99600 -4.84700 47.53800
C  29.21200 -4.06200 47.42500
C  28.94700 -3.27500 46.31900
C  27.64600 -3.59600 45.83000
C  30.56400 -4.25200 48.11700
C  29.55200 -2.32200 45.40800
O  30.69400 -1.87600 45.39900
C  28.48900 -2.03000 44.30800
C  28.11400 -0.63700 44.40800
O  27.83200 0.07000 45.35600
O  28.23500 -0.08400 43.04900
C  28.09800 1.42400 42.87500
H  22.05200 -4.25000 43.15000
H  23.00200 -8.83400 47.62300
H  28.74400 -6.37200 48.77000
H  25.63100 -0.98000 43.17000
H  23.66300 -2.77000 42.03300
H  23.39500 -0.38200 43.63400
H  22.57800 -1.59400 44.56400
H  22.04200 -1.32200 42.91000
H  25.53000 -3.25300 41.17600
H  27.03700 -2.90400 41.83300
H  27.39900 -1.07200 40.37100
H  25.89300 -0.42500 40.95400
H  19.39100 -5.22900 44.40800
H  19.44600 -6.92800 43.83500
H  20.42800 -5.73000 42.98000
H  20.89700 -8.58100 48.57800
H  21.25500 -9.91700 47.32900
H  19.60800 -9.61600 47.91100
H  25.59100 -9.73300 47.89100
H  26.80000 -8.18900 49.94500
H  23.41600 -9.29600 49.72900
H  24.94600 -9.17800 50.70800
H  24.47000 -10.51800 49.74700
H  28.92800 -8.58700 48.80600
H  28.13700 -9.46000 47.44700
H  28.03700 -11.27100 48.47900
H  27.48700 -10.48100 50.04400
H  29.21400 -10.52000 49.54200
H  30.93300 -5.21200 47.75500
H  30.40500 -4.30400 49.19400
H  31.22300 -3.41300 47.89100
H  28.81300 -2.40600 43.33700
H  28.62600 1.97900 43.65100
H  27.02900 1.63400 42.84500
H  28.55700 1.68500 41.92200

