158

Mg 34.30700 3.34900 29.72500
C  32.18000 4.00100 32.45700
C  36.86000 3.35300 32.00600
C  36.38000 2.85200 27.20900
C  31.61200 3.62900 27.55600
N  34.42100 3.46400 31.97100
C  33.44200 3.71100 32.87300
C  33.94500 3.53200 34.33700
C  35.47400 3.47900 34.11500
C  35.59000 3.40600 32.59600
C  36.31600 4.70300 34.78200
C  33.29200 2.29500 35.06600
C  32.74700 2.54200 36.52900
H  33.60900 3.48300 37.48700
N  36.28400 3.09100 29.63400
C  37.20600 3.20600 30.62000
C  38.64700 3.00700 30.19300
C  38.51800 2.80100 28.74600
C  37.01700 2.85500 28.46900
C  39.81700 3.15200 31.10600
C  39.55100 2.60700 27.66100
O  39.31600 2.38300 26.48600
C  40.97800 2.72300 28.07400
N  34.06600 3.48400 27.64700
C  35.06000 3.08400 26.82300
C  34.57900 2.80800 25.43300
C  33.00900 2.90400 25.59500
C  32.85200 3.28600 27.01700
C  35.17500 3.88600 24.44900
C  32.35500 1.58100 25.14500
C  31.06400 1.74200 24.44000
N  32.30100 3.79600 29.87100
C  31.27500 3.87700 28.91900
C  30.02300 4.18900 29.55000
C  30.37500 4.29800 30.94700
C  31.70800 3.97900 31.06500
C  28.69600 4.40300 28.97300
C  29.86600 4.64100 32.29400
O  28.87500 5.20900 32.63300
C  31.01500 4.36400 33.26700
C  31.23700 5.62100 34.00500
O  31.51800 6.68700 33.48200
O  31.09700 5.48200 35.32700
C  31.49100 6.61200 36.17100
H  37.77400 3.36100 32.60400
H  37.01200 2.41800 26.43200
H  30.78200 3.57700 26.84800
H  33.75700 4.44300 34.90500
H  35.86300 2.55300 34.53900
H  37.07900 4.17600 35.35400
H  35.71800 5.32400 35.44900
H  36.87700 5.26800 34.03600
H  34.07100 1.54200 35.18200
H  32.47400 1.95100 34.43300
H  32.69500 1.62700 37.11900
H  31.67700 2.74300 36.47400
H  40.10600 4.19000 31.27600
H  40.76000 2.69300 30.80800
H  39.72300 2.56900 32.02200
H  41.55800 2.68500 27.15200
H  41.30900 1.88200 28.68300
H  41.10900 3.69100 28.55800
H  34.99600 1.82100 25.23300
H  32.52000 3.67900 25.00500
H  36.01000 4.44900 24.86600
H  34.37900 4.62100 24.33300
H  35.39100 3.38500 23.50600
H  32.14000 0.88200 25.95300
H  33.00600 1.02900 24.46700
H  30.40900 1.01100 24.91500
H  31.17700 1.57100 23.36900
H  30.59200 2.71000 24.60700
H  28.41000 5.42000 29.24200
H  27.97400 3.64900 29.28900
H  28.68600 4.20900 27.90000
H  30.65000 3.57300 33.92100
H  31.16000 6.37700 37.18300
H  31.16000 7.59900 35.84800
H  32.57700 6.51300 36.16700
Mg 36.12500 49.27600 25.67000
C  36.56800 47.30100 28.62600
C  34.58300 51.64700 27.51600
C  35.13200 50.70300 22.84700
C  37.40400 46.56900 23.90700
N  35.44900 49.39700 27.91500
C  35.88800 48.56200 28.95200
C  35.50700 49.22300 30.29600
C  34.71300 50.54500 29.92300
C  35.01300 50.60500 28.36300
C  33.13900 50.54300 30.25800
C  36.82200 49.50800 31.03500
C  36.90600 49.24900 32.54500
H  35.69500 48.87300 33.41800
N  35.17800 51.00900 25.25400
C  34.63000 51.86600 26.12700
C  34.10600 53.01100 25.43500
C  34.12400 52.74800 24.04300
C  34.83700 51.41900 24.00600
C  33.72600 54.19700 26.31000
C  33.36700 53.54400 22.97400
O  33.32600 53.17400 21.80200
C  32.54800 54.72500 23.30600
N  36.33400 48.75700 23.60800
C  35.79200 49.47700 22.64400
C  36.36600 49.00300 21.19900
C  36.99800 47.59000 21.60400
C  36.98000 47.64700 23.16500
C  35.33100 49.01600 20.00700
C  38.43400 47.36000 20.96600
C  39.50800 48.40600 21.40300
N  36.80000 47.37800 26.10000
C  37.32000 46.40600 25.29100
C  37.73300 45.16200 26.00300
C  37.45100 45.56500 27.26500
C  36.91000 46.84900 27.33100
C  38.35300 43.93000 25.51000
C  37.57400 45.06200 28.69300
O  38.01300 44.05900 29.23700
C  37.04500 46.18000 29.56100
C  35.90300 45.68000 30.32800
O  34.75300 45.53200 29.87700
O  36.36800 45.26900 31.54700
C  35.41600 44.77400 32.51700
H  34.17400 52.49200 28.07400
H  34.99200 51.16600 21.86700
H  37.85700 45.80800 23.26800
H  34.97900 48.44300 30.84500
H  35.20000 51.31000 30.52700
H  32.86900 51.39600 30.88100
H  32.91800 49.63800 30.82400
H  32.55400 50.54300 29.33800
H  37.11000 50.55100 30.89900
H  37.59000 48.83200 30.66100
H  37.47900 50.03600 33.03800
H  37.64400 48.44700 32.55800
H  32.75400 54.12100 26.79700
H  33.81200 55.11400 25.72700
H  34.49100 54.26200 27.08400
H  33.25400 55.54700 23.42900
H  31.86900 54.56700 24.14400
H  31.94900 54.97200 22.43000
H  36.98800 49.87000 20.97500
H  36.28200 46.81100 21.34200
H  34.36000 49.21500 20.46100
H  35.26400 48.00900 19.59500
H  35.59600 49.77300 19.26900
H  38.20800 47.42500 19.90200
H  38.86500 46.40400 21.26400
H  40.08600 48.63000 20.50600
H  40.16100 47.90500 22.11800
H  39.09000 49.23200 21.97800
H  37.63600 43.11000 25.47200
H  39.26700 43.75400 26.07700
H  38.71900 44.13700 24.50400
H  37.86800 46.47600 30.21200
H  35.49200 43.69800 32.67700
H  34.39500 45.04800 32.25100
H  35.62600 45.22900 33.48500

