158

Mg 1.59400 -2.95900 45.00900
C  4.93300 -2.07600 44.32900
C  0.66800 -0.43000 42.97300
C  -1.49600 -4.37300 44.89100
C  2.75500 -5.82000 46.81200
N  2.79900 -1.46100 43.75800
C  4.12700 -1.34000 43.55800
C  4.34300 -0.19200 42.47800
C  2.90000 0.44100 42.30700
C  2.05200 -0.51900 43.17700
C  2.75900 1.88900 42.79600
C  4.83900 -0.69400 41.18300
C  5.98600 0.13300 40.49500
H  5.50400 0.85100 39.19800
N  -0.19900 -2.46500 44.09800
C  -0.34400 -1.34400 43.35800
C  -1.74800 -1.25800 42.92100
C  -2.40400 -2.39300 43.45500
C  -1.39200 -3.15700 44.20200
C  -2.37700 -0.14500 42.10200
C  -3.87500 -2.66000 43.31200
O  -4.57900 -1.88400 42.70700
C  -4.52700 -3.89500 44.02400
N  0.65500 -4.75200 45.79500
C  -0.62100 -5.13300 45.65600
C  -0.88700 -6.54800 46.00000
C  0.45400 -6.92600 46.89800
C  1.36700 -5.72800 46.54300
C  -2.14600 -6.85600 46.83800
C  1.10600 -8.30800 46.43000
C  1.48900 -9.21200 47.66300
N  3.40700 -3.82100 45.53300
C  3.74800 -4.92500 46.22300
C  5.19200 -4.99500 46.43700
C  5.67500 -3.87600 45.75300
C  4.54700 -3.22000 45.21200
C  5.99600 -6.07200 47.09500
C  6.93300 -3.16400 45.32200
O  8.07600 -3.43400 45.58500
C  6.47700 -2.12800 44.27100
C  6.99000 -0.85700 44.70600
O  6.95300 -0.48700 45.88100
O  7.70900 -0.26100 43.72900
C  8.45200 0.94400 44.02300
H  0.25600 0.37400 42.35800
H  -2.42300 -4.92800 44.73100
H  3.13100 -6.66800 47.38700
H  5.05500 0.51700 42.90000
H  2.63400 0.26700 41.26500
H  2.17500 2.16200 43.67500
H  2.38000 2.48300 41.96500
H  3.73200 2.21500 43.16200
H  4.06900 -0.80800 40.42100
H  5.28000 -1.66300 41.41400
H  6.81700 -0.52000 40.22700
H  6.38100 0.91700 41.14100
H  -3.12000 0.43900 42.64600
H  -2.86900 -0.61800 41.25200
H  -1.65200 0.51400 41.62500
H  -4.17700 -4.83000 43.58700
H  -5.61600 -3.91400 44.08200
H  -4.19300 -3.98100 45.05800
H  -0.74200 -7.10300 45.07300
H  0.25500 -6.87900 47.96900
H  -2.64500 -7.72700 46.41200
H  -2.76900 -5.96200 46.85300
H  -1.79000 -7.03200 47.85300
H  2.03300 -8.14800 45.87800
H  0.43300 -8.88700 45.79800
H  2.55900 -9.12100 47.84800
H  1.38300 -10.28600 47.50800
H  0.86900 -8.95400 48.52100
H  5.93300 -6.96700 46.47700
H  5.73400 -6.32700 48.12200
H  7.04400 -5.78200 47.17200
H  6.78600 -2.36000 43.25200
H  7.80400 1.80800 43.87900
H  9.28200 1.03300 43.32300
H  8.77000 0.97600 45.06600
Mg 27.57600 50.82800 26.11300
C  25.48000 51.72900 28.81700
C  29.68500 49.50400 28.35000
C  29.80900 50.57200 23.65200
C  25.34000 52.53900 24.00400
N  27.53500 50.61800 28.35300
C  26.59900 51.06600 29.28800
C  26.99100 50.63100 30.66000
C  28.46500 50.24900 30.52800
C  28.61800 50.12300 28.97700
C  29.55400 51.22000 31.16300
C  26.07900 49.52000 31.21800
C  25.62000 49.59000 32.64300
H  26.56000 49.97500 33.73700
N  29.48700 50.08600 26.00000
C  30.17900 49.51800 27.03400
C  31.50500 49.10600 26.60400
C  31.59300 49.45900 25.24800
C  30.28800 50.08500 24.91000
C  32.46600 48.32200 27.42400
C  32.76000 49.42700 24.31800
O  32.69700 49.94300 23.20500
C  34.03200 48.87000 24.83400
N  27.61200 51.61600 24.12100
C  28.59800 51.23500 23.24600
C  28.21700 51.41900 21.72600
C  26.84000 52.16700 21.89500
C  26.52500 52.10800 23.43300
C  29.25700 52.22200 20.92000
C  25.70000 51.54900 21.06800
C  25.19500 50.17200 21.49800
N  25.80600 51.97700 26.32500
C  24.97500 52.54000 25.38100
C  23.80600 53.18600 25.96200
C  23.96800 52.88500 27.31800
C  25.19700 52.15600 27.49800
C  22.68400 54.00000 25.26900
C  23.41000 53.04900 28.62700
O  22.34600 53.58800 28.97600
C  24.34700 52.33000 29.60700
C  24.79500 53.38000 30.66200
O  25.59800 54.31800 30.42200
O  24.16700 53.15300 31.86500
C  24.68800 53.91600 33.04000
H  30.48600 49.12000 28.98500
H  30.38300 50.51000 22.72500
H  24.55700 53.04400 23.43500
H  26.93900 51.51300 31.29800
H  28.59000 49.20200 30.80600
H  29.04900 51.96000 31.78500
H  30.09600 51.64600 30.31900
H  30.22800 50.70500 31.84800
H  26.48300 48.51200 31.12100
H  25.18000 49.56200 30.60300
H  25.14400 48.65100 32.92800
H  24.84500 50.35600 32.65600
H  33.45500 48.74700 27.59000
H  32.63400 47.34700 26.96700
H  32.05000 48.03500 28.39000
H  34.70800 48.80600 23.98100
H  33.75900 47.84600 25.09200
H  34.29000 49.51500 25.67500
H  28.31400 50.39600 21.36400
H  26.83500 53.20300 21.55600
H  30.08000 52.63600 21.50200
H  28.68000 53.00300 20.42400
H  29.70700 51.62300 20.12800
H  26.20900 51.50200 20.10600
H  24.86700 52.24200 20.94600
H  25.36200 49.46700 20.68300
H  24.19800 50.10700 21.93300
H  25.87200 49.78300 22.25800
H  21.77700 54.09300 25.86600
H  22.40200 53.37100 24.42400
H  23.03000 55.01400 25.06900
H  23.78000 51.52600 30.07500
H  24.78100 54.97800 32.81300
H  25.65200 53.49700 33.32800
H  23.96100 53.97700 33.85000

