158

Mg 44.64300 4.94700 46.75400
C  42.65600 7.79800 46.95100
C  41.76400 2.92000 46.64600
C  46.52900 2.30400 45.77600
C  47.48200 7.06400 46.47600
N  42.47600 5.33200 46.75700
C  41.90200 6.56400 46.90400
C  40.36100 6.47100 46.97700
C  40.15400 4.82400 46.81800
C  41.53500 4.26200 46.74900
C  39.20000 4.20400 47.96100
C  39.48100 7.30300 46.02300
C  40.05300 7.36600 44.57700
H  39.26800 6.71700 43.42100
N  44.21500 2.91100 46.30500
C  42.97700 2.29800 46.32800
C  43.17600 0.86700 46.18900
C  44.55700 0.61400 45.99100
C  45.16600 1.97300 46.00100
C  42.03200 -0.11200 46.26300
C  45.22700 -0.73100 45.77200
O  44.46900 -1.69300 45.96600
C  46.58800 -0.94200 45.48300
N  46.67600 4.77700 46.10400
C  47.25000 3.53600 45.81500
C  48.78400 3.59700 45.69400
C  49.03800 5.17300 45.72500
C  47.65100 5.66600 46.23800
C  49.58000 2.85800 46.78300
C  49.44900 5.75500 44.32700
C  50.98200 5.84100 44.10300
N  45.09900 7.01300 46.78000
C  46.26100 7.72100 46.77600
C  45.91900 9.09900 46.90800
C  44.52900 9.16100 47.01700
C  44.07400 7.91400 46.83200
C  46.97500 10.13600 46.94000
C  43.40700 10.07700 47.10800
O  43.44700 11.34200 47.20500
C  42.13300 9.28600 47.04600
C  41.25800 9.41200 48.23000
O  41.25200 8.67100 49.20700
O  40.43700 10.48100 48.05500
C  39.51000 10.63800 49.15800
H  40.85100 2.33100 46.53600
H  47.21800 1.50100 45.50700
H  48.39500 7.65600 46.38400
H  40.17700 6.81700 47.99400
H  39.67100 4.58200 45.87100
H  39.72100 3.61200 48.71300
H  38.39200 3.68700 47.44300
H  38.86900 5.06100 48.54800
H  39.47300 8.31700 46.42400
H  38.43800 7.01500 45.88700
H  40.97100 6.77900 44.59000
H  40.22700 8.42800 44.40500
H  41.77400 -0.44900 45.25900
H  41.20600 0.38600 46.76900
H  42.20300 -0.98200 46.89800
H  46.76900 -1.98600 45.22900
H  47.16600 -0.74300 46.38500
H  46.93600 -0.41100 44.59700
H  49.03500 3.13500 44.73900
H  49.78200 5.38700 46.49100
H  50.42000 3.44500 47.15500
H  49.95900 1.87500 46.50100
H  48.86300 2.74500 47.59700
H  49.15300 6.80200 44.26400
H  48.96700 5.16800 43.54500
H  51.21500 5.40300 43.13300
H  51.51100 5.18600 44.79500
H  51.47800 6.80500 44.21600
H  47.65600 9.98200 47.77700
H  46.50800 11.09600 47.16300
H  47.51600 10.11800 45.99400
H  41.61300 9.53100 46.11900
H  38.60200 10.15600 48.79700
H  39.25500 11.69300 49.25600
H  39.88100 10.25100 50.10700
Mg 26.75400 50.50800 26.85200
C  24.97300 51.76800 29.65500
C  29.38900 49.79900 28.97300
C  28.78700 50.04500 24.13800
C  24.37000 51.96400 24.82400
N  27.03700 50.50900 29.05100
C  26.11700 51.01200 29.97400
C  26.63200 50.71200 31.36700
C  28.14800 50.49500 31.07500
C  28.22900 50.26900 29.60100
C  29.11700 51.65500 31.57600
C  25.86000 49.42800 31.84100
C  25.22100 49.49800 33.26200
H  25.97100 50.21300 34.38400
N  28.72600 49.75300 26.60800
C  29.64700 49.53200 27.61800
C  30.85700 49.08200 27.03800
C  30.79600 49.23700 25.60200
C  29.40900 49.71900 25.37100
C  31.98100 48.50900 27.84800
C  31.90600 49.00500 24.57600
O  31.73100 49.40500 23.41100
C  33.21700 48.43600 24.87800
N  26.59300 50.93500 24.86900
C  27.51500 50.55500 23.89400
C  26.88100 50.73900 22.49000
C  25.45100 51.24500 22.71900
C  25.44200 51.40700 24.24900
C  27.68600 51.71000 21.51000
C  24.34000 50.28900 22.23800
C  24.34000 48.77600 22.75700
N  24.97500 51.59000 27.09000
C  24.12900 52.20300 26.20500
C  23.08900 52.90200 26.84600
C  23.34600 52.74600 28.21500
C  24.56800 51.99100 28.31400
C  21.96200 53.60800 26.08300
C  22.85800 53.00000 29.59200
O  21.86000 53.67700 29.90000
C  23.92800 52.43600 30.59300
C  24.49100 53.47500 31.50900
O  25.58400 53.99200 31.34900
O  23.59400 53.94300 32.37200
C  24.11200 55.07700 33.14500
H  30.23100 49.61900 29.64400
H  29.33400 49.98800 23.19400
H  23.56500 52.32100 24.17800
H  26.46200 51.53800 32.05700
H  28.51200 49.57300 31.52800
H  29.87400 51.25900 32.25300
H  28.65200 52.44300 32.16900
H  29.60700 52.24300 30.80000
H  26.48100 48.53300 31.87600
H  25.01400 49.15400 31.21100
H  25.05600 48.43300 33.42600
H  24.25100 49.96500 33.09200
H  32.86800 49.14100 27.81800
H  32.15600 47.50500 27.46000
H  31.70400 48.45700 28.90100
H  33.78300 48.92300 25.67200
H  33.94200 48.55000 24.07200
H  32.98600 47.41800 25.19200
H  26.89200 49.74100 22.05300
H  25.45000 52.19700 22.18900
H  28.46300 52.21200 22.08700
H  27.11700 52.42400 20.91300
H  28.22900 51.17400 20.73200
H  24.42900 50.25400 21.15300
H  23.45000 50.91200 22.32500
H  23.36200 48.52200 23.16600
H  25.13300 48.57400 23.47700
H  24.57700 48.09300 21.94100
H  22.28200 54.08200 25.15500
H  21.52700 54.45100 26.62000
H  21.18000 52.87000 25.90900
H  23.58900 51.66400 31.28300
H  24.45700 55.96200 32.61000
H  24.91700 54.73300 33.79400
H  23.31900 55.41100 33.81500

