158

Mg 26.33400 50.91400 26.05900
C  24.10400 51.97900 28.63800
C  28.39100 49.89600 28.54600
C  28.39400 50.21200 23.65300
C  24.14800 52.28200 23.79200
N  26.24300 50.90800 28.38200
C  25.20500 51.39700 29.13900
C  25.45600 51.09300 30.65000
C  26.91000 50.39100 30.59000
C  27.22500 50.44800 29.10800
C  28.00100 51.06500 31.48500
C  24.39900 50.16100 31.30900
C  24.82100 49.36600 32.62200
H  23.68800 49.32000 33.70400
N  28.16900 50.21100 26.12300
C  28.90200 49.77600 27.22200
C  30.21000 49.31700 26.77900
C  30.22700 49.48500 25.38800
C  28.93800 50.00000 25.05000
C  31.14700 48.64700 27.73400
C  31.35700 49.14500 24.45100
O  31.27700 49.39300 23.27200
C  32.66100 48.56700 25.01400
N  26.26200 51.11200 24.05600
C  27.19200 50.67200 23.25700
C  26.84500 50.85200 21.81000
C  25.32300 51.36800 21.87100
C  25.19900 51.57800 23.34400
C  27.77900 51.79200 21.10200
C  24.35800 50.38300 21.18000
C  24.02800 50.76800 19.75900
N  24.58100 52.02100 26.14300
C  23.83900 52.55500 25.11100
C  22.61700 53.17500 25.63000
C  22.71800 53.05700 27.03900
C  23.90200 52.30500 27.27900
C  21.50600 53.70200 24.76200
C  22.01500 53.21500 28.31800
O  20.91100 53.67600 28.64200
C  22.96900 52.50000 29.37400
C  23.31700 53.58500 30.39400
O  24.19300 54.44800 30.29300
O  22.61700 53.38200 31.54200
C  23.01300 54.10000 32.76800
H  29.09300 49.63900 29.34200
H  29.09100 50.02700 22.83300
H  23.42700 52.62500 23.04800
H  25.51100 52.00100 31.25100
H  26.75000 49.35600 30.89300
H  28.86200 51.31300 30.86500
H  28.26800 50.38700 32.29600
H  27.63200 51.97500 31.95900
H  24.13500 49.51600 30.47100
H  23.57500 50.81400 31.59800
H  25.68100 49.82500 33.10900
H  24.98800 48.36400 32.22700
H  31.06600 47.57500 27.55500
H  30.80800 48.78300 28.76100
H  32.17300 49.01200 27.69100
H  33.23900 48.26300 24.14100
H  32.50700 47.73200 25.69900
H  33.10300 49.42100 25.52800
H  26.88400 49.86400 21.34900
H  25.22500 52.38600 21.49200
H  28.47600 52.27000 21.79000
H  27.25900 52.60600 20.59700
H  28.39800 51.24800 20.38900
H  23.39800 50.26800 21.68400
H  24.85400 49.41300 21.14800
H  24.56400 50.09000 19.09600
H  24.35600 51.75700 19.43700
H  22.94600 50.71200 19.64000
H  21.96700 54.49400 24.17100
H  20.69700 54.02300 25.41800
H  21.07000 52.94900 24.10500
H  22.52700 51.62400 29.84700
H  23.37700 55.09200 32.50300
H  23.70000 53.52400 33.38800
H  22.11800 54.19500 33.38300
Mg -11.62200 16.20300 43.12500
C  -8.24600 16.88800 43.15300
C  -12.27700 19.52200 41.99300
C  -14.76500 15.33800 42.58100
C  -10.80700 12.71400 43.49600
N  -10.41200 17.94000 42.50700
C  -9.04300 17.96700 42.79900
C  -8.52400 19.35700 42.35800
C  -9.82600 20.23800 42.42100
C  -10.92800 19.20100 42.30900
C  -9.92100 20.93200 43.81800
C  -7.86700 19.30400 40.89400
C  -6.59600 20.09500 40.55400
H  -5.46000 19.38500 39.74300
N  -13.28900 17.25600 42.21700
C  -13.36800 18.57500 41.84900
C  -14.74200 18.97100 41.61400
C  -15.46800 17.73100 41.61600
C  -14.51500 16.72000 42.20200
C  -15.20200 20.34900 41.26600
C  -16.94800 17.69300 41.27700
O  -17.55500 18.70300 41.01800
C  -17.67100 16.30700 41.12400
N  -12.59900 14.30400 43.02400
C  -13.97300 14.29400 42.94500
C  -14.53600 12.83800 43.17400
C  -13.32100 11.92600 43.18100
C  -12.14900 13.00200 43.26100
C  -15.56200 12.70100 44.26100
C  -13.19800 11.00400 41.92400
C  -13.58900 9.52900 42.19200
N  -9.87500 14.97000 43.43800
C  -9.73500 13.59800 43.56600
C  -8.28900 13.26900 43.71900
C  -7.62800 14.55000 43.62300
C  -8.71200 15.50700 43.34900
C  -7.69000 11.91300 43.93800
C  -6.38700 15.28500 43.60200
O  -5.25600 14.95800 43.90100
C  -6.70000 16.75700 43.11300
C  -6.02500 17.77400 43.88000
O  -6.16700 17.92000 45.07600
O  -5.16300 18.48100 43.09200
C  -4.36100 19.57800 43.64700
H  -12.46300 20.56400 41.72600
H  -15.80100 15.02600 42.42900
H  -10.48100 11.70900 43.77400
H  -7.75900 19.77100 43.01500
H  -9.77500 21.03000 41.67400
H  -9.04300 21.43400 44.22500
H  -10.04000 20.07700 44.48200
H  -10.70100 21.68600 43.92400
H  -8.67800 19.61900 40.23800
H  -7.58900 18.26500 40.71800
H  -6.22300 20.70600 41.37600
H  -6.89900 20.86900 39.84900
H  -15.57700 20.39200 40.24400
H  -14.36200 21.02700 41.40900
H  -15.98800 20.49000 42.00900
H  -18.56600 16.52600 40.54200
H  -17.92700 15.94000 42.11800
H  -17.03000 15.59100 40.60900
H  -15.14000 12.70300 42.27700
H  -13.24500 11.35400 44.10500
H  -15.39000 11.67800 44.59500
H  -16.60300 12.74000 43.94100
H  -15.33000 13.42800 45.03900
H  -12.14800 11.00200 41.63200
H  -13.82800 11.40200 41.12800
H  -12.67200 8.94000 42.17000
H  -14.37900 9.30900 41.47400
H  -14.00200 9.44300 43.19700
H  -6.62300 12.10600 44.05400
H  -7.91000 11.30600 43.06000
H  -8.04300 11.38800 44.82600
H  -6.35300 16.75800 42.07900
H  -3.58700 19.12800 44.27000
H  -4.88200 20.11100 44.44300
H  -3.90400 20.20100 42.87800

