158

Mg 7.88200 3.45100 27.25700
C  9.34300 1.85200 30.02600
C  6.10100 5.45200 29.37300
C  6.68400 5.02600 24.46300
C  9.06000 0.80200 25.18600
N  7.81100 3.65300 29.46300
C  8.63200 3.02500 30.39500
C  8.44700 3.55300 31.89200
C  7.37300 4.73000 31.62100
C  7.09100 4.66900 30.04800
C  6.10000 4.42200 32.44300
C  9.78200 3.89800 32.54000
C  9.74400 4.83400 33.72500
H  10.56600 4.57400 34.96600
N  6.55600 5.03800 26.98300
C  5.98100 5.72300 27.97100
C  5.18300 6.78200 27.39400
C  5.57500 6.82200 25.97000
C  6.29000 5.58400 25.73200
C  4.35600 7.77400 28.12300
C  5.29600 7.85300 24.93000
O  5.76200 7.78500 23.79400
C  4.67400 9.14500 25.35800
N  7.95500 3.07700 25.13800
C  7.36200 3.82700 24.20800
C  7.39500 3.26900 22.81500
C  7.96600 1.89200 23.03800
C  8.39300 1.93100 24.52700
C  5.93900 3.21500 22.15600
C  9.19800 1.48700 22.13300
C  8.97900 0.16700 21.39600
N  8.94400 1.67300 27.51600
C  9.36200 0.74800 26.59000
C  10.15900 -0.19800 27.31300
C  10.19400 0.12800 28.63000
C  9.45100 1.33500 28.71200
C  10.93000 -1.29600 26.70600
C  10.73500 -0.16700 29.91100
O  11.37300 -1.15400 30.30700
C  10.23800 0.99500 30.84700
C  9.55100 0.29300 31.93300
O  8.50600 -0.33700 31.94000
O  10.39800 0.41400 33.02900
C  9.85600 -0.05900 34.28200
H  5.45200 6.07100 29.99600
H  6.19300 5.50200 23.61100
H  9.27200 -0.07500 24.57200
H  8.04800 2.73700 32.49500
H  7.79100 5.67000 31.98300
H  6.08800 3.43800 32.91300
H  5.22500 4.42400 31.79300
H  5.97100 5.27600 33.10800
H  10.40400 4.37300 31.78000
H  10.18100 2.95400 32.91000
H  8.73500 5.10100 34.04100
H  10.07400 5.75200 33.23900
H  4.10200 7.45400 29.13300
H  3.39500 8.00100 27.66100
H  4.85800 8.74000 28.17100
H  3.71700 9.03000 25.86800
H  4.51600 9.64000 24.40000
H  5.42000 9.69600 25.93200
H  7.95500 3.96500 22.19000
H  7.17300 1.14500 22.99100
H  5.70900 2.23300 21.74200
H  5.78800 4.05800 21.48200
H  5.27100 3.39600 22.99700
H  10.13600 1.49400 22.68900
H  9.22300 2.24700 21.35100
H  8.21500 -0.47400 21.83600
H  9.88700 -0.40100 21.59900
H  8.88700 0.38400 20.33200
H  11.85900 -1.43400 27.25900
H  11.19500 -1.19300 25.65300
H  10.31200 -2.18000 26.86300
H  11.12000 1.55400 31.16000
H  9.70900 0.84000 34.88000
H  10.53500 -0.67900 34.86700
H  8.90400 -0.58900 34.29600
Mg 34.55300 2.71800 28.61500
C  32.88500 3.51500 31.50700
C  37.52600 2.36300 30.51500
C  36.30400 2.54300 25.78500
C  31.61000 3.54200 26.73800
N  35.12000 2.85800 30.75600
C  34.24300 3.18600 31.80600
C  34.93700 3.13200 33.18800
C  36.43900 2.82400 32.79900
C  36.38400 2.65500 31.22800
C  37.56000 3.85600 33.15400
C  34.25600 2.12600 34.16700
C  33.79300 2.61600 35.51600
H  34.49400 3.84700 36.20000
N  36.62600 2.36100 28.24300
C  37.67900 2.28300 29.14900
C  38.85600 1.96300 28.42700
C  38.48000 2.01500 27.00300
C  37.11400 2.33500 26.94400
C  40.26000 1.83300 29.06500
C  39.40300 1.90700 25.73300
O  38.96100 1.93700 24.58700
C  40.82700 1.59900 25.84300
N  34.03700 3.06500 26.57000
C  34.98000 2.89500 25.60200
C  34.35400 2.99900 24.28400
C  32.83400 2.85000 24.52800
C  32.81500 3.23300 26.07200
C  34.83200 4.36400 23.62300
C  32.27700 1.42400 24.29400
C  30.73000 1.37700 24.15100
N  32.64900 3.41800 28.93500
C  31.52800 3.58100 28.14600
C  30.35300 3.76800 29.01200
C  30.87800 3.84300 30.30800
C  32.22700 3.56400 30.23700
C  28.91700 4.07600 28.56600
C  30.48900 3.98600 31.69300
O  29.43500 4.13500 32.24000
C  31.76100 3.93700 32.46300
C  32.07700 5.15300 33.26100
O  32.81900 6.07500 32.98500
O  31.29000 5.24600 34.43000
C  31.08200 6.59900 34.92300
H  38.38900 2.16200 31.15400
H  36.68500 2.34800 24.78000
H  30.65700 3.61100 26.20900
H  34.99100 4.07400 33.73400
H  36.64700 1.83800 33.21500
H  37.28700 4.50500 33.98700
H  37.78200 4.31400 32.19000
H  38.43400 3.32200 33.52900
H  34.90100 1.28000 34.40600
H  33.40800 1.74400 33.59800
H  33.89800 1.79900 36.23000
H  32.74100 2.86200 35.37000
H  40.96400 2.42200 28.47800
H  40.65000 0.81700 29.01200
H  40.29100 2.20400 30.08900
H  40.94100 0.59800 26.26000
H  41.37400 2.38600 26.36200
H  41.11500 1.41800 24.80800
H  34.82100 2.21200 23.69200
H  32.35200 3.65200 23.96900
H  34.01500 5.03000 23.34400
H  35.27900 4.07300 22.67200
H  35.55100 4.97700 24.16500
H  32.50800 0.91900 25.23200
H  32.81700 0.94300 23.47900
H  30.47900 0.84100 23.23600
H  30.28500 2.36400 24.02300
H  30.16400 0.85200 24.92000
H  28.40100 4.47300 29.44100
H  28.41000 3.18000 28.20900
H  28.90800 4.77300 27.72900
H  31.62300 3.13400 33.18700
H  31.00200 7.39100 34.17800
H  31.80700 6.93700 35.66300
H  30.10200 6.47200 35.38200

