158

Mg 7.36100 3.21400 28.17600
C  8.80800 1.77600 31.12500
C  5.38500 5.07000 30.11800
C  6.02600 4.36300 25.33200
C  9.02000 0.75500 26.38000
N  7.08100 3.38500 30.40900
C  7.84000 2.76700 31.38500
C  7.55600 3.40100 32.76800
C  6.41300 4.43000 32.38700
C  6.25000 4.35900 30.91200
C  5.17100 4.28200 33.28500
C  8.84200 4.00200 33.27700
C  8.76200 5.08600 34.40900
H  9.36600 4.81200 35.76200
N  5.90700 4.61600 27.78200
C  5.17000 5.17200 28.72600
C  4.20700 6.03700 28.05100
C  4.47100 5.88900 26.61600
C  5.51400 4.94300 26.51400
C  3.25400 6.89500 28.78700
C  3.82400 6.56000 25.47100
O  4.11100 6.41300 24.31000
C  2.81500 7.70700 25.75700
N  7.35800 2.61400 26.22100
C  6.84800 3.32700 25.15700
C  7.22600 2.84000 23.80800
C  8.07800 1.62100 24.14600
C  8.10200 1.58100 25.71000
C  6.09000 2.67800 22.70500
C  9.56400 1.54900 23.55400
C  10.61200 2.32900 24.30800
N  8.72100 1.62200 28.59500
C  9.33100 0.77000 27.72400
C  10.24900 -0.10200 28.40000
C  10.09100 0.22400 29.79800
C  9.08700 1.32100 29.84500
C  11.12900 -1.14200 27.93700
C  10.48500 -0.07300 31.16300
O  11.35000 -0.79600 31.59100
C  9.72500 0.99400 32.05500
C  9.02900 0.28100 33.15300
O  7.95900 -0.32500 33.01300
O  9.79000 0.23900 34.31400
C  9.29300 -0.49200 35.53700
H  4.74500 5.66600 30.77200
H  5.73100 4.85400 24.40200
H  9.52500 -0.06100 25.85800
H  7.23800 2.66000 33.50100
H  6.71800 5.45300 32.61000
H  4.69500 5.22800 33.54100
H  5.46200 3.80700 34.22200
H  4.44600 3.59000 32.85600
H  9.36700 4.52400 32.47800
H  9.57100 3.30200 33.68600
H  7.69400 5.16800 34.60900
H  9.09400 6.05300 34.03200
H  3.10600 6.59300 29.82400
H  2.26800 6.77800 28.33800
H  3.47700 7.95900 28.70800
H  1.85200 7.20200 25.82700
H  2.91200 8.36700 24.89400
H  3.10100 8.30800 26.62100
H  7.88100 3.65400 23.49700
H  7.57800 0.76700 23.68900
H  5.14100 2.68100 23.24100
H  6.10200 1.70700 22.21000
H  6.17900 3.47800 21.97100
H  9.61600 1.81200 22.49800
H  9.93300 0.52700 23.63800
H  10.21400 3.08600 24.98300
H  11.23300 2.77200 23.52900
H  11.20700 1.68800 24.95900
H  11.70100 -0.81600 27.06900
H  10.53200 -2.04200 27.78900
H  11.83100 -1.33900 28.74800
H  10.40100 1.66600 32.58500
H  10.06900 -1.12500 35.96700
H  8.46200 -1.18700 35.41900
H  9.12400 0.33500 36.22700
Mg 50.23200 35.04400 26.23100
C  48.09600 33.62600 28.71300
C  50.18300 37.98800 28.09500
C  52.09800 36.51600 23.77100
C  49.75400 32.26200 24.28400
N  49.28000 35.69700 28.12700
C  48.54000 34.89800 29.00200
C  48.29200 35.63400 30.31700
C  48.82300 37.08000 30.03500
C  49.48300 36.94000 28.65600
C  47.82800 38.26400 30.18500
C  49.23600 34.90000 31.38500
C  48.73100 34.68400 32.81700
H  47.47200 35.52000 33.31000
N  51.03000 36.98800 25.99500
C  50.89500 38.03400 26.89000
C  51.67800 39.13100 26.44300
C  52.34400 38.75500 25.23700
C  51.89400 37.37500 24.93700
C  51.75700 40.42700 27.15900
C  53.30900 39.53400 24.37600
O  53.82000 39.06000 23.37300
C  53.66600 40.93900 24.72800
N  50.75400 34.58000 24.20500
C  51.58100 35.26800 23.39900
C  51.78500 34.50500 22.08600
C  51.46600 33.08400 22.53000
C  50.53900 33.33400 23.69300
C  51.05200 35.11200 20.87000
C  52.72500 32.22300 22.99200
C  53.49300 31.47200 21.88500
N  49.20700 33.24600 26.47000
C  49.08400 32.23300 25.56000
C  48.30700 31.13000 26.14400
C  47.79200 31.68300 27.33000
C  48.46100 32.93500 27.52700
C  48.08000 29.75000 25.51900
C  46.99500 31.39600 28.45800
O  46.45200 30.31900 28.70400
C  47.13300 32.60400 29.38400
C  47.62700 31.96800 30.67400
O  48.59000 31.24000 30.79500
O  46.59200 32.03500 31.54600
C  46.66100 31.18400 32.73900
H  50.13600 38.84900 28.76600
H  52.74300 37.03400 23.05800
H  49.93500 31.29500 23.80900
H  47.22600 35.75000 30.51100
H  49.70200 37.21900 30.66400
H  46.97900 37.83300 30.71600
H  47.51600 38.66800 29.22100
H  48.34400 38.97300 30.83300
H  50.13300 35.50300 31.52400
H  49.44700 33.90900 30.98400
H  49.47000 34.99300 33.55600
H  48.48700 33.62400 32.87700
H  52.81900 40.49500 27.39500
H  51.16900 40.60500 28.06000
H  51.38300 41.21500 26.50500
H  52.77900 41.56300 24.83600
H  54.38900 41.40100 24.05600
H  54.12600 40.93000 25.71600
H  52.85000 34.60100 21.87400
H  51.01200 32.39900 21.81400
H  50.48400 34.24900 20.52100
H  51.67700 35.37100 20.01500
H  50.50900 36.04400 21.02600
H  52.33900 31.54400 23.75100
H  53.42600 32.83000 23.56600
H  54.55700 31.68900 21.98800
H  53.05200 31.66700 20.90700
H  53.26100 30.41200 21.97900
H  48.79300 29.34100 24.80300
H  47.09100 29.62600 25.07800
H  48.07500 29.14900 26.42800
H  46.14100 33.02600 29.54300
H  45.86600 31.52500 33.40200
H  47.59600 31.21900 33.29800
H  46.32600 30.19300 32.43400

