158

Mg 48.14300 35.13600 27.83500
C  46.29600 33.61900 30.52700
C  48.41100 37.85000 29.84000
C  48.97400 36.87600 25.15400
C  47.38600 32.26900 25.87800
N  47.42200 35.63900 29.98200
C  46.95000 34.78000 30.90600
C  47.18000 35.30400 32.26000
C  47.30500 36.86400 31.99700
C  47.80900 36.81100 30.53200
C  46.02200 37.76700 32.08600
C  48.43100 34.73700 33.10700
C  48.15200 34.50200 34.58700
H  47.20300 35.49600 35.31600
N  48.66800 37.08100 27.51600
C  48.83600 38.00600 28.47700
C  49.50800 39.18700 27.96300
C  49.66200 38.93600 26.56600
C  49.12600 37.59100 26.36400
C  49.65800 40.50100 28.72200
C  50.18700 39.84500 25.37300
O  50.17000 39.52900 24.22800
C  50.71400 41.23200 25.75700
N  48.24700 34.61700 25.78700
C  48.56000 35.54800 24.95400
C  48.62000 34.90900 23.49800
C  48.22400 33.41800 23.75100
C  47.97800 33.39700 25.26100
C  47.65500 35.65200 22.47400
C  49.47500 32.45100 23.49100
C  49.32900 31.63100 22.23800
N  47.15600 33.22200 28.15700
C  46.85700 32.21800 27.22000
C  46.02900 31.23700 27.83900
C  45.71600 31.76600 29.11300
C  46.45400 32.99400 29.26800
C  45.59700 29.91600 27.22500
C  44.88500 31.55300 30.28600
O  43.91700 30.83400 30.50100
C  45.21100 32.74600 31.25000
C  45.47800 32.35000 32.61900
O  46.45200 31.63900 32.95400
O  44.61400 32.87800 33.52400
C  44.66000 32.46200 34.95800
H  48.63600 38.69900 30.48900
H  49.32300 37.27900 24.20200
H  47.20800 31.49800 25.12500
H  46.26200 35.17600 32.83400
H  48.05200 37.36100 32.61600
H  45.37300 37.56000 32.93600
H  45.52800 37.54700 31.14000
H  46.23600 38.83400 32.02600
H  49.17600 35.52500 32.99700
H  48.93200 33.86500 32.68600
H  49.09000 34.33800 35.11800
H  47.69900 33.51400 34.50700
H  50.55600 41.05100 28.44300
H  49.83300 40.18800 29.75100
H  48.72300 41.04500 28.58500
H  50.88000 41.73400 24.80400
H  51.67600 41.10100 26.25400
H  50.03700 41.81900 26.37800
H  49.63900 35.06500 23.14200
H  47.32700 32.99300 23.30200
H  48.15900 35.98700 21.56700
H  47.13900 36.49500 22.93500
H  46.95400 34.90300 22.10500
H  49.65400 31.71600 24.27600
H  50.33300 33.10900 23.35200
H  48.47600 31.95600 21.64300
H  49.02600 30.63900 22.57300
H  50.17400 31.66700 21.55100
H  46.35500 29.13300 27.21600
H  45.18700 30.22500 26.26300
H  44.74100 29.58000 27.81200
H  44.21500 33.18600 31.21800
H  43.77100 32.00400 35.39100
H  44.73900 33.31900 35.62700
H  45.60300 31.96700 35.19100
Mg 26.71400 50.36600 26.19500
C  24.81100 51.51800 28.88500
C  29.10100 49.38800 28.56700
C  28.62100 49.48200 23.76200
C  24.36300 51.76400 24.03800
N  27.01300 50.63600 28.54200
C  25.94400 50.95400 29.29200
C  26.40500 50.66800 30.76100
C  27.81300 50.09800 30.74000
C  28.05900 50.02200 29.21700
C  29.02600 50.95300 31.31700
C  25.36200 49.89400 31.61800
C  24.81000 50.69600 32.86900
H  24.62500 49.89500 34.14100
N  28.58700 49.54300 26.19700
C  29.35800 49.11200 27.20700
C  30.51100 48.35400 26.71100
C  30.44200 48.40700 25.31500
C  29.20300 49.24300 25.05100
C  31.55200 47.78200 27.49200
C  31.46900 47.92600 24.24900
O  31.35800 48.12200 23.09700
C  32.71900 47.13700 24.66500
N  26.64300 50.84800 24.17400
C  27.44000 50.15600 23.38100
C  27.07000 50.21600 21.87900
C  25.66600 50.93200 22.01500
C  25.49700 51.13000 23.51000
C  27.98200 50.82900 20.91700
C  24.42800 50.18900 21.39700
C  23.75600 51.01800 20.31800
N  24.92700 51.39800 26.40400
C  24.07100 51.92700 25.39700
C  23.05600 52.70100 26.04200
C  23.34300 52.46400 27.41000
C  24.42800 51.75300 27.56900
C  21.99300 53.54000 25.40700
C  22.79000 52.78300 28.75000
O  21.78000 53.44900 29.03600
C  23.73600 52.16300 29.75700
C  24.23400 53.29600 30.56100
O  25.15400 54.01700 30.18200
O  23.45000 53.57500 31.65900
C  24.11300 54.48700 32.63400
H  29.73500 48.81900 29.25100
H  29.21300 49.00200 22.98000
H  23.62000 52.03400 23.28400
H  26.61400 51.65700 31.16800
H  27.74300 49.13500 31.24500
H  28.65100 51.92900 31.62500
H  29.70600 51.36900 30.57400
H  29.60300 50.39600 32.05500
H  25.78400 48.95400 31.97300
H  24.45900 49.59200 31.08700
H  23.84500 51.11400 32.58400
H  25.57200 51.44400 33.08600
H  31.46000 47.93300 28.56700
H  32.52300 48.20700 27.23700
H  31.54200 46.71500 27.27000
H  33.62400 47.68300 24.93300
H  32.93600 46.55900 23.76600
H  32.63600 46.42300 25.48400
H  26.91100 49.16800 21.62700
H  25.81500 51.91200 21.56000
H  28.78600 51.36800 21.41800
H  27.49500 51.48500 20.19600
H  28.34000 49.98700 20.32500
H  23.75700 49.86000 22.19000
H  24.78100 49.30100 20.87200
H  23.69800 50.47800 19.37300
H  24.30200 51.89100 19.96100
H  22.73600 51.27300 20.60700
H  21.99400 53.59800 24.31900
H  21.97200 54.54800 25.82300
H  21.07700 53.00400 25.65900
H  23.21400 51.38100 30.30800
H  23.99800 55.55900 32.47400
H  25.17800 54.27100 32.71600
H  23.74500 54.35300 33.65200

