158

Mg 47.21500 34.98300 27.43900
C  45.66800 33.25100 30.12700
C  47.52300 37.75400 29.40300
C  48.65100 36.66400 24.93200
C  46.49100 32.35600 25.43200
N  46.64900 35.43500 29.50700
C  46.17200 34.54400 30.48600
C  46.37500 35.22000 31.90200
C  46.44300 36.66300 31.49400
C  46.89400 36.64100 30.09300
C  45.09100 37.42500 31.53900
C  47.60500 34.76000 32.67700
C  47.40900 34.63500 34.19100
H  46.39300 35.45800 34.90600
N  48.14600 36.96800 27.18600
C  48.16500 37.91900 28.16100
C  48.93400 39.07400 27.77300
C  49.27100 38.77800 26.40200
C  48.75200 37.43900 26.13500
C  49.06900 40.34000 28.56700
C  50.08800 39.62200 25.45200
O  50.49600 39.11600 24.39800
C  50.65700 41.00200 25.83600
N  47.53100 34.55600 25.52300
C  48.15100 35.39700 24.66300
C  47.95300 34.98200 23.16500
C  47.59000 33.45900 23.34500
C  47.13200 33.46000 24.84100
C  46.99700 35.88700 22.34700
C  48.70300 32.39700 22.97400
C  48.31100 31.33500 22.01100
N  46.26800 33.17700 27.71400
C  46.06000 32.19400 26.77400
C  45.47200 30.99000 27.34700
C  45.23100 31.44200 28.71900
C  45.79800 32.74100 28.82700
C  45.09400 29.70200 26.74400
C  44.67600 31.10300 30.05800
O  44.16200 29.99700 30.29100
C  44.74600 32.35200 30.93400
C  45.16300 31.86600 32.26900
O  46.27700 31.44900 32.52400
O  44.07500 31.71100 33.03500
C  44.18600 31.37300 34.48500
H  47.60500 38.63300 30.04600
H  49.07000 37.22000 24.09100
H  46.27300 31.55900 24.71800
H  45.53600 34.91700 32.52800
H  47.17900 37.15300 32.13100
H  44.34800 36.79100 32.02300
H  44.87800 37.86100 30.56300
H  45.24100 38.19700 32.29400
H  48.57000 35.22300 32.47000
H  47.73900 33.75600 32.27500
H  48.38300 34.91500 34.59500
H  47.28400 33.59100 34.47700
H  50.11000 40.63400 28.43900
H  48.81700 40.11900 29.60500
H  48.46900 41.15900 28.17100
H  51.37500 41.29000 25.06800
H  51.29400 40.78600 26.69300
H  49.94000 41.80800 25.99600
H  48.90900 35.01800 22.64200
H  46.71700 33.14300 22.77400
H  47.59700 36.73800 22.02800
H  46.18300 36.33700 22.91600
H  46.65000 35.38900 21.44100
H  48.96200 32.03200 23.96800
H  49.48600 33.02800 22.55400
H  47.22900 31.20900 21.95800
H  48.76100 30.39200 22.32100
H  48.79400 31.62400 21.07800
H  45.46300 29.61300 25.72200
H  44.04300 29.42200 26.81500
H  45.64700 28.96800 27.33000
H  43.80100 32.89200 30.87000
H  43.75300 32.22700 35.00600
H  45.20600 31.27300 34.85700
H  43.63000 30.47500 34.75200
Mg 41.05100 40.89900 26.87500
C  40.40400 43.39700 29.11400
C  42.16500 38.79900 29.33700
C  41.83100 38.74500 24.44200
C  40.71200 43.35700 24.18700
N  41.26700 41.04900 29.00800
C  40.80900 42.15400 29.74900
C  41.05000 41.90600 31.26900
C  41.58900 40.46200 31.28100
C  41.74500 40.06700 29.82300
C  42.90200 40.30200 31.98800
C  39.74800 42.10200 32.21100
C  39.99100 42.01700 33.78000
H  39.18400 42.93500 34.65600
N  41.81300 38.98700 26.93100
C  42.22500 38.29000 28.03300
C  42.59200 36.94600 27.60500
C  42.56000 36.98800 26.16400
C  42.00600 38.28800 25.77000
C  43.01200 35.83000 28.49000
C  43.00600 35.81800 25.22100
O  43.04800 35.98400 23.96600
C  43.27400 34.45100 25.75600
N  40.97300 40.95600 24.60600
C  41.39300 39.91100 23.89000
C  41.39500 40.04000 22.36600
C  40.88200 41.58200 22.33800
C  40.83700 42.01800 23.78100
C  42.70700 39.64300 21.62000
C  39.45200 41.76400 21.65700
C  38.31300 41.37300 22.55700
N  40.67700 42.99500 26.61700
C  40.58800 43.85400 25.52900
C  40.31600 45.15100 26.06000
C  40.18900 45.03500 27.43500
C  40.40700 43.71700 27.70100
C  40.24200 46.43000 25.23800
C  39.94400 45.70200 28.66800
O  39.67300 46.85200 29.00900
C  40.13600 44.69000 29.83500
C  41.38600 45.18600 30.52700
O  42.47900 45.23600 29.98900
O  41.16700 45.47900 31.89800
C  42.29000 45.89400 32.72900
H  42.35400 38.13200 30.18000
H  41.97000 37.95100 23.70500
H  40.63800 44.11300 23.40100
H  41.76500 42.69600 31.50000
H  40.80700 39.88200 31.77100
H  42.70200 39.66500 32.85000
H  43.22000 41.29500 32.30400
H  43.69700 39.87800 31.37500
H  39.06500 41.32000 31.88000
H  39.21900 42.98100 31.84300
H  41.06900 42.00100 33.94400
H  39.66200 40.99000 33.93800
H  42.30800 35.00200 28.57700
H  43.09000 36.21900 29.50500
H  43.97000 35.34800 28.29400
H  42.60200 34.09300 26.53500
H  44.16900 34.57600 26.36500
H  43.33300 33.74800 24.92500
H  40.62600 39.43800 21.88300
H  41.61200 42.11200 21.72600
H  43.51900 39.24500 22.22800
H  43.07900 40.54200 21.13000
H  42.49200 38.91300 20.83900
H  39.57400 41.11400 20.79000
H  39.31700 42.81700 21.41100
H  38.60900 41.04400 23.55300
H  37.73400 40.61700 22.02700
H  37.72300 42.28700 22.62100
H  39.93000 46.25200 24.20900
H  41.24800 46.85000 25.23600
H  39.55400 47.03100 25.83300
H  39.19100 44.84400 30.35700
H  42.27200 45.39300 33.69700
H  42.21700 46.97800 32.82000
H  43.22000 45.49800 32.32100

