158

Mg 1.16600 8.47700 26.78500
C  1.17700 10.40900 29.66000
C  1.63200 5.73000 28.73000
C  1.11900 6.61900 23.89400
C  1.17900 11.37500 24.91400
N  1.35400 8.16800 28.97100
C  1.13400 9.03900 29.93500
C  0.95800 8.39500 31.25600
C  1.42100 6.93400 31.00100
C  1.47400 6.91300 29.41700
C  2.77900 6.59800 31.56900
C  -0.47800 8.63700 31.81200
C  -0.53600 8.92000 33.33000
H  0.54200 8.26100 34.20600
N  1.31000 6.42400 26.37600
C  1.48100 5.49200 27.31100
C  1.49000 4.16900 26.65000
C  1.33100 4.41900 25.24800
C  1.20800 5.86100 25.10800
C  1.60300 2.90600 27.37600
C  1.36100 3.42400 24.10800
O  1.43200 3.79700 22.97200
C  1.49600 1.93000 24.37700
N  0.91700 8.92200 24.75200
C  0.95700 8.00200 23.74700
C  1.01900 8.64300 22.35100
C  0.74500 10.22800 22.70300
C  1.04300 10.16800 24.20400
C  2.31600 8.41900 21.58300
C  -0.73300 10.73900 22.44200
C  -0.96200 11.89800 21.29300
N  1.24500 10.49300 27.15100
C  1.33400 11.56400 26.29500
C  1.55800 12.83000 26.98800
C  1.54100 12.35200 28.30900
C  1.22500 11.00100 28.35500
C  1.92400 14.22000 26.52300
C  1.79700 12.76300 29.66700
O  2.18500 13.85600 30.06800
C  1.33900 11.59200 30.55600
C  2.28600 11.42500 31.67800
O  3.49600 11.31100 31.55500
O  1.63600 11.59000 32.91100
C  2.52700 11.69800 34.13100
H  1.61100 4.89300 29.43000
H  1.54100 6.10300 23.02800
H  1.05700 12.29800 24.34300
H  1.70500 8.91200 31.85800
H  0.64800 6.23900 31.32700
H  3.52700 6.19500 30.88700
H  2.51200 5.86300 32.32800
H  3.26900 7.40200 32.11800
H  -1.17100 7.83300 31.56500
H  -0.85700 9.58600 31.43200
H  -1.48300 8.60400 33.76800
H  -0.60500 9.98900 33.53400
H  2.66500 2.69500 27.25100
H  1.02600 2.04700 27.03400
H  1.19800 3.00900 28.38300
H  0.61700 1.49000 24.84900
H  2.42600 1.75800 24.91800
H  1.66600 1.46000 23.40900
H  0.17700 8.33500 21.73200
H  1.47200 10.85600 22.18800
H  1.99500 8.07800 20.59900
H  2.90800 7.70700 22.15800
H  2.78300 9.40000 21.49700
H  -1.14900 11.04300 23.40200
H  -1.34400 9.89100 22.13400
H  -1.36700 12.81600 21.72000
H  -1.68900 11.42000 20.63700
H  -0.11500 12.28900 20.72900
H  2.12900 14.13200 25.45600
H  2.77500 14.68800 27.01900
H  1.05800 14.84700 26.73300
H  0.46000 11.78400 31.17200
H  3.28500 10.92000 34.22300
H  1.92400 11.52100 35.02100
H  2.90300 12.72100 34.16000
Mg -10.27100 37.87300 41.12600
C  -8.15500 35.34100 40.12600
C  -8.22100 40.17500 39.51700
C  -12.64400 40.37600 41.71900
C  -12.69600 35.49000 41.87800
N  -8.43000 37.76900 39.89500
C  -7.68300 36.62400 39.68100
C  -6.40900 36.90900 38.91300
C  -6.37100 38.49200 38.74400
C  -7.71300 38.87200 39.55500
C  -5.04900 39.22500 39.25000
C  -6.21700 36.08400 37.62000
C  -7.47100 36.05800 36.68200
H  -7.20600 35.97900 35.17000
N  -10.41600 40.00400 40.77000
C  -9.45800 40.68000 40.07300
C  -9.84300 42.07500 39.92500
C  -11.07500 42.17800 40.65000
C  -11.44800 40.81300 41.06700
C  -9.06100 43.12400 39.16600
C  -11.89200 43.46900 40.84100
O  -11.36400 44.56800 40.59600
C  -13.27300 43.55000 41.42400
N  -12.40900 37.89500 41.58700
C  -13.04100 39.03800 41.96400
C  -14.46800 38.76700 42.51300
C  -14.54500 37.18400 42.42100
C  -13.05200 36.85000 42.02200
C  -14.83400 39.39000 43.90100
C  -15.52900 36.52200 41.41500
C  -16.13600 35.13300 41.84700
N  -10.38700 35.77400 41.17400
C  -11.46800 34.97500 41.44600
C  -11.04200 33.57700 41.41500
C  -9.71800 33.69500 40.91200
C  -9.36400 35.09800 40.72400
C  -11.77400 32.35900 41.95900
C  -8.48800 32.98300 40.47900
O  -8.19700 31.80400 40.30400
C  -7.47600 34.01500 39.96800
C  -6.11900 33.97200 40.55400
O  -5.60800 34.84500 41.28300
O  -5.57200 32.71200 40.36400
C  -4.37600 32.32700 41.12700
H  -7.60100 40.94100 39.04700
H  -13.44400 41.08300 41.94800
H  -13.35800 34.68100 42.19600
H  -5.61400 36.63300 39.60600
H  -6.45000 38.82700 37.71000
H  -5.31100 40.16000 39.74400
H  -4.37000 39.36200 38.40900
H  -4.60200 38.59800 40.02100
H  -5.85000 35.08800 37.87100
H  -5.50100 36.52000 36.92400
H  -8.01900 36.98400 36.85800
H  -8.21800 35.35300 37.04700
H  -9.41700 44.13700 38.97800
H  -9.02400 42.64400 38.18800
H  -8.01900 43.03100 39.47200
H  -13.17800 43.37300 42.49500
H  -13.82100 42.78700 40.87200
H  -13.77600 44.51500 41.35000
H  -15.18200 39.03900 41.73500
H  -14.72600 36.87700 43.45100
H  -15.09300 38.64800 44.65700
H  -15.79100 39.87800 43.71600
H  -14.16100 40.06000 44.43700
H  -15.15300 36.47000 40.39400
H  -16.43700 37.11500 41.30300
H  -17.22000 35.23200 41.79400
H  -15.77900 34.76300 42.80800
H  -15.87200 34.33500 41.15300
H  -11.32600 31.40900 41.66900
H  -12.82100 32.42300 41.66400
H  -11.82500 32.30600 43.04600
H  -7.30200 33.87500 38.90200
H  -3.93000 31.48200 40.60400
H  -4.57000 32.16300 42.18700
H  -3.65400 33.12800 40.96600

