158

Mg 6.93500 53.76700 40.07400
C  6.39800 50.31400 40.21000
C  10.10100 53.14700 39.30900
C  7.24200 57.08500 39.37600
C  3.45600 54.10700 40.52000
N  8.01800 51.93300 39.56100
C  7.68100 50.61600 39.74900
C  8.77700 49.65500 39.36000
C  9.98400 50.58900 39.49400
C  9.35900 52.01000 39.38000
C  10.74200 50.47000 40.84000
C  8.65100 48.94100 37.98000
C  7.89700 49.57700 36.81400
H  8.72400 50.10900 35.60800
N  8.55300 54.94100 39.41900
C  9.79100 54.54200 39.15000
C  10.58400 55.67100 38.79500
C  9.76500 56.84400 38.81000
C  8.47600 56.33200 39.19600
C  12.08000 55.63400 38.42500
C  10.18500 58.22700 38.47700
O  11.37900 58.47500 38.31500
C  9.19700 59.36200 38.26200
N  5.53400 55.35100 40.05100
C  5.88700 56.64700 39.72800
C  4.67700 57.59900 39.66000
C  3.54700 56.67100 40.20100
C  4.22000 55.25800 40.27900
C  4.90300 58.91200 40.55000
C  2.19600 56.75600 39.42400
C  1.07600 57.42900 40.25400
N  5.16400 52.57200 40.49000
C  3.85100 52.80700 40.72300
C  3.16200 51.65600 41.14600
C  4.11900 50.57200 40.96400
C  5.33600 51.24300 40.52400
C  1.74400 51.61600 41.67400
C  4.36000 49.15200 41.07900
O  3.63600 48.26400 41.45800
C  5.79300 48.97400 40.61700
C  5.73000 47.99600 39.51900
O  5.49300 48.26200 38.34900
O  5.99800 46.77000 39.97100
C  5.77300 45.69400 38.97700
H  11.18100 53.00600 39.24100
H  7.26200 58.15400 39.15100
H  2.38400 54.25800 40.66500
H  8.81200 48.79700 40.03100
H  10.71500 50.39600 38.70800
H  10.17600 49.80900 41.49700
H  10.95600 51.43000 41.31000
H  11.70700 49.99300 40.66300
H  8.11100 48.03700 38.26200
H  9.64600 48.67900 37.62000
H  7.40100 50.44800 37.24300
H  7.11800 48.93800 36.39800
H  12.68100 56.17400 39.15600
H  12.21900 55.91500 37.38100
H  12.35100 54.59100 38.58900
H  8.84700 59.73700 39.22400
H  8.36100 59.17100 37.58900
H  9.89300 60.02500 37.74900
H  4.45800 57.72100 38.59900
H  3.30200 56.92800 41.23200
H  4.07000 58.98600 41.24900
H  4.85600 59.72600 39.82700
H  5.89300 58.99200 41.00000
H  1.83100 55.78100 39.10400
H  2.26500 57.36700 38.52400
H  1.39500 57.80500 41.22600
H  0.28400 56.69400 40.40300
H  0.74900 58.32400 39.72500
H  1.11100 50.85600 41.21500
H  1.23700 52.58000 41.62900
H  1.78800 51.18800 42.67600
H  6.38900 48.43200 41.35300
H  4.69600 45.57300 38.86700
H  6.20900 44.73700 39.26600
H  6.12500 45.73000 37.94600
Mg 9.11700 47.74900 25.48500
C  6.90400 48.12800 28.12600
C  11.65300 48.57800 27.63400
C  11.24100 47.05100 22.99700
C  6.38300 47.41500 23.28400
N  9.26700 48.10400 27.63800
C  8.23300 48.12100 28.55800
C  8.69800 48.37400 29.97800
C  10.12600 49.00700 29.69100
C  10.41700 48.46000 28.24100
C  10.26800 50.61500 29.87900
C  8.75100 47.12000 30.88500
C  9.06400 47.48800 32.35200
H  9.24600 46.33000 33.33500
N  11.14100 47.77300 25.32700
C  12.02700 48.24600 26.30700
C  13.34300 48.16400 25.79300
C  13.25400 47.53500 24.49400
C  11.83000 47.42300 24.22900
C  14.59500 48.50800 26.58900
C  14.41900 47.21900 23.60400
O  14.31400 46.65400 22.49000
C  15.79700 47.41700 24.04700
N  8.84800 47.36700 23.44800
C  9.87800 46.99400 22.68700
C  9.41300 46.50100 21.30200
C  7.91300 46.51200 21.42800
C  7.67400 47.21400 22.81200
C  9.99700 47.39100 20.17300
C  7.39600 45.06700 21.30800
C  6.01300 44.97500 20.72900
N  7.06900 47.93800 25.54900
C  6.02200 47.81500 24.57900
C  4.76400 48.01200 25.24800
C  5.09000 48.17300 26.57900
C  6.44600 48.06300 26.78400
C  3.38600 47.86800 24.67100
C  4.48400 48.45300 27.85700
O  3.29300 48.58800 28.08600
C  5.63600 48.32600 28.96100
C  5.46500 47.27500 29.85900
O  5.47300 46.05100 29.54800
O  5.26500 47.68700 31.10500
C  5.29800 46.71900 32.19700
H  12.40700 49.00900 28.29500
H  11.90400 46.62100 22.24200
H  5.53900 47.28200 22.60400
H  8.06200 49.10400 30.47900
H  10.93300 48.59800 30.30000
H  9.26500 51.00700 30.05300
H  10.67600 51.17000 29.03400
H  10.98500 50.85800 30.66300
H  9.54700 46.47800 30.50800
H  7.87400 46.48900 30.74200
H  8.18400 48.06600 32.63500
H  9.92600 48.14900 32.44100
H  14.38700 48.79900 27.61800
H  15.09800 49.38500 26.18300
H  15.32200 47.69900 26.67300
H  16.14000 46.88100 24.93200
H  15.83500 48.48100 24.28200
H  16.40300 47.09000 23.20200
H  9.85300 45.52900 21.08000
H  7.57300 47.24800 20.69900
H  11.03500 47.69900 20.29700
H  9.30500 48.23100 20.11400
H  9.86800 46.90800 19.20400
H  7.25800 44.78900 22.35300
H  8.09600 44.43400 20.76300
H  5.25300 44.44500 21.30200
H  6.07700 44.51200 19.74400
H  5.53100 45.93600 20.55000
H  3.24300 48.73700 24.03000
H  2.74300 47.86800 25.55100
H  3.33600 46.97500 24.04700
H  5.76500 49.29200 29.44900
H  4.34300 46.61800 32.71300
H  5.97800 47.08900 32.96400
H  5.59700 45.68100 32.05500

