158

Mg -1.56700 17.96700 26.39400
C  -2.33400 15.76500 29.12800
C  -2.23800 20.64300 28.49800
C  -1.46200 20.02400 23.67300
C  -1.68500 15.22900 24.26100
N  -2.12500 18.19800 28.59900
C  -2.21000 17.13300 29.47800
C  -2.37900 17.72000 30.92700
C  -2.61300 19.22100 30.68900
C  -2.34200 19.38500 29.18700
C  -4.14600 19.61800 30.98300
C  -1.32100 17.35900 32.01500
C  -1.44000 18.11100 33.33200
H  -0.99900 17.34000 34.60600
N  -1.68400 19.98600 26.10700
C  -1.99100 20.91500 27.10800
C  -2.01900 22.26300 26.51100
C  -1.79500 22.09300 25.08500
C  -1.58300 20.66700 24.90700
C  -2.39500 23.53100 27.25700
C  -1.82000 23.19700 23.93300
O  -1.62200 22.87800 22.75700
C  -2.14000 24.57700 24.25900
N  -1.56200 17.64800 24.29100
C  -1.34200 18.65500 23.37300
C  -1.29200 18.15600 21.92100
C  -1.18100 16.62400 22.18200
C  -1.50200 16.43400 23.65300
C  -2.56400 18.48400 21.06100
C  0.20000 16.05200 21.79100
C  1.51200 16.76000 22.25000
N  -1.97100 15.91800 26.56100
C  -1.92000 14.91200 25.60700
C  -2.28000 13.60500 26.23300
C  -2.47300 13.90000 27.61300
C  -2.27500 15.32600 27.74800
C  -2.33900 12.33200 25.48200
C  -2.69700 13.26900 28.83600
O  -2.81500 12.06300 29.12800
C  -2.51200 14.50200 29.98400
C  -1.25300 14.17800 30.73900
O  -0.19500 14.22600 30.33800
O  -1.66300 13.55400 31.88300
C  -0.67500 12.87800 32.68200
H  -2.45800 21.54200 29.07700
H  -1.32600 20.62600 22.77200
H  -1.70200 14.32100 23.65300
H  -3.26800 17.16800 31.23200
H  -1.94000 19.80200 31.31800
H  -4.75300 18.72600 31.13900
H  -4.56200 20.13600 30.11900
H  -4.18400 20.33000 31.80800
H  -0.37100 17.58400 31.53000
H  -1.40800 16.30100 32.26400
H  -2.50500 18.31100 33.44800
H  -0.90300 19.04300 33.15500
H  -3.35400 23.91300 26.90700
H  -1.64800 24.30600 27.08500
H  -2.48800 23.33900 28.32600
H  -3.19500 24.63100 24.52900
H  -1.87600 25.15500 23.37300
H  -1.47900 24.93400 25.04900
H  -0.38000 18.47300 21.41500
H  -2.01700 16.17100 21.64900
H  -3.29800 17.68300 20.97300
H  -2.27600 18.74400 20.04200
H  -3.05500 19.37100 21.46100
H  0.18300 16.03400 20.70100
H  0.20900 14.99900 22.07400
H  1.53800 17.71200 22.78000
H  2.15900 16.92700 21.38900
H  2.03200 15.99800 22.83100
H  -2.80100 12.54800 24.51800
H  -2.98200 11.69200 26.08700
H  -1.33400 11.91000 25.49700
H  -3.39700 14.46400 30.61900
H  0.13200 12.53300 32.03500
H  -1.15500 11.96900 33.04300
H  -0.29600 13.51200 33.48400
Mg 46.57800 24.59000 28.50500
C  47.49000 27.04300 30.89400
C  45.68800 22.45800 31.34700
C  45.92700 22.05400 26.41700
C  48.22000 26.36300 26.11200
N  46.59900 24.72000 30.85400
C  46.86300 25.88200 31.50000
C  46.53500 25.83400 32.99800
C  46.36300 24.26200 33.21600
C  46.19100 23.71700 31.70600
C  47.45000 23.57000 33.97100
C  45.33700 26.68500 33.37800
C  45.42200 27.42100 34.80000
H  46.46800 27.11100 35.84400
N  45.71600 22.69500 28.76000
C  45.53600 21.96000 29.96900
C  45.05800 20.63500 29.70200
C  44.91300 20.48400 28.23400
C  45.54700 21.75000 27.76100
C  44.77000 19.64800 30.76200
C  44.35800 19.37100 27.39600
O  44.37600 19.41500 26.16600
C  43.77700 18.12600 28.11400
N  46.89300 24.26500 26.48000
C  46.67200 23.15000 25.88500
C  47.19100 23.18000 24.47000
C  47.79100 24.63800 24.31300
C  47.63100 25.14300 25.75100
C  48.40400 22.21600 24.12200
C  47.27400 25.49200 23.08500
C  46.23500 26.57700 23.44200
N  47.50300 26.39800 28.44100
C  48.18000 27.00800 27.37800
C  48.64900 28.27900 27.85600
C  48.40500 28.29400 29.22200
C  47.74100 27.12200 29.51900
C  49.22700 29.33800 27.03300
C  48.46600 29.14800 30.41800
O  48.79300 30.33600 30.54200
C  47.89500 28.35500 31.59700
C  48.94200 28.13700 32.64500
O  49.78200 27.26800 32.65700
O  48.91700 29.20500 33.56500
C  49.98200 29.24200 34.55600
H  45.29400 21.96700 32.23900
H  45.75000 21.28000 25.66700
H  48.77100 26.89600 25.33400
H  47.41200 26.24700 33.49600
H  45.51700 24.02200 33.86000
H  48.09500 24.33600 34.40000
H  48.07900 22.91600 33.36800
H  47.11900 22.93100 34.79000
H  44.32600 26.32000 33.19600
H  45.44900 27.48100 32.64100
H  44.47400 27.32100 35.32800
H  45.75600 28.40800 34.47900
H  43.90800 19.05800 30.45300
H  44.71000 20.11300 31.74600
H  45.71100 19.10800 30.66100
H  44.60200 17.62000 28.61600
H  43.38300 17.46200 27.34500
H  42.99100 18.51700 28.76000
H  46.26900 23.01400 23.91200
H  48.86400 24.62300 24.12300
H  49.24700 22.45700 24.77000
H  48.79100 22.47400 23.13600
H  48.11400 21.16500 24.12500
H  46.83600 24.68400 22.49900
H  48.15500 25.72200 22.48600
H  45.76000 26.35400 24.39700
H  45.47900 26.49100 22.66100
H  46.81000 27.50100 23.37500
H  48.52200 29.76900 26.32200
H  49.90000 28.86800 26.31500
H  49.63300 30.13500 27.65600
H  47.05500 28.94200 31.96900
H  49.87800 30.20800 35.05100
H  50.98000 29.16300 34.12400
H  49.86500 28.47700 35.32300

