158

Mg 35.86600 1.56300 30.44600
C  33.45300 2.25300 32.80500
C  38.24000 1.87000 32.92900
C  38.25800 1.15300 28.06400
C  33.45600 1.97300 27.85800
N  35.79300 2.06800 32.59300
C  34.70300 2.15500 33.38300
C  35.03500 2.24700 34.82400
C  36.58400 2.59600 34.83500
C  36.88300 2.10100 33.37000
C  36.82300 4.09900 35.15400
C  34.63900 1.00400 35.56500
C  33.95200 1.09500 36.91000
H  34.53700 2.24200 37.77700
N  37.93700 1.31800 30.54800
C  38.79400 1.41800 31.62700
C  40.19500 1.06200 31.21200
C  40.18400 0.92000 29.82400
C  38.73700 1.18500 29.39100
C  41.31100 1.09600 32.25500
C  41.35000 0.58600 28.88500
O  41.20600 0.42700 27.70600
C  42.77100 0.12100 29.49000
N  35.87400 1.81100 28.22400
C  36.95800 1.33600 27.56800
C  36.63000 1.22800 26.07900
C  35.10400 1.46400 25.98200
C  34.74900 1.70800 27.40200
C  37.57500 2.07100 25.10000
C  34.34200 0.34900 25.09700
C  33.70000 -0.76500 25.96400
N  33.87300 2.13100 30.28000
C  33.01500 2.13400 29.18200
C  31.67800 2.35100 29.67600
C  31.78900 2.39400 31.07000
C  33.12400 2.31700 31.38900
C  30.46500 2.59000 28.73100
C  31.05400 2.53500 32.26700
O  29.84500 2.71600 32.51500
C  32.15300 2.52600 33.48000
C  32.05900 3.87300 34.05700
O  32.69700 4.85400 33.73500
O  31.25400 3.80300 35.19600
C  31.27500 5.01200 36.15600
H  38.95300 2.07000 33.73200
H  39.01900 0.87900 27.32900
H  32.68200 1.77700 27.11200
H  34.44700 3.08100 35.20600
H  37.13800 1.95300 35.51800
H  37.09900 4.15000 36.20800
H  35.88900 4.64900 35.03900
H  37.62400 4.45800 34.50900
H  35.50900 0.40700 35.83900
H  34.23300 0.33200 34.80900
H  34.03700 0.12700 37.40500
H  32.92800 1.24900 36.57000
H  41.76800 0.11700 32.39900
H  40.84300 1.37500 33.19900
H  42.08500 1.81400 31.98300
H  43.28100 1.02000 29.83700
H  43.41600 -0.30500 28.72200
H  42.65200 -0.68200 30.21700
H  36.79100 0.16900 25.87300
H  34.93600 2.41900 25.48300
H  38.50500 2.38800 25.57100
H  37.04400 2.98300 24.82800
H  37.82700 1.53100 24.18700
H  34.97200 -0.04900 24.30200
H  33.43200 0.76900 24.66800
H  32.63800 -0.84100 25.73000
H  33.83500 -0.64500 27.03900
H  34.15500 -1.74000 25.79300
H  30.06700 1.64600 28.35700
H  30.73300 3.15900 27.84100
H  29.64300 3.10500 29.22700
H  31.94600 1.77800 34.24600
H  30.25500 5.34500 36.35200
H  31.82700 5.85700 35.74400
H  31.78200 4.73000 37.07900
Mg 46.13700 35.49900 28.07300
C  44.73700 33.23600 30.47500
C  46.67200 37.72100 30.51400
C  47.61600 37.31700 25.76300
C  45.45100 32.98000 25.67000
N  45.66900 35.46100 30.30100
C  45.25600 34.42400 31.07000
C  45.43600 34.79500 32.53800
C  45.55900 36.36500 32.46700
C  45.99400 36.60700 30.98200
C  44.22300 37.15800 32.66800
C  46.73600 34.17900 33.11100
C  46.91200 34.02000 34.62600
H  46.08500 34.79500 35.60200
N  46.88300 37.43700 28.11700
C  47.18200 38.14200 29.23600
C  48.05300 39.25700 28.88700
C  48.27600 39.12800 27.49200
C  47.56700 37.93600 27.03300
C  48.67700 40.13200 29.98300
C  49.10500 40.05400 26.56600
O  49.32000 39.91700 25.34100
C  49.76600 41.29000 27.24400
N  46.29700 35.23000 25.99200
C  47.03500 36.18400 25.28700
C  47.28500 35.66700 23.79200
C  46.27000 34.44800 23.72600
C  46.04300 34.15600 25.20100
C  47.00700 36.75900 22.67000
C  46.78000 33.24700 22.92700
C  45.76200 32.59000 22.00400
N  45.31200 33.52000 28.08700
C  45.14800 32.66000 27.01200
C  44.53100 31.41700 27.52000
C  44.23200 31.73100 28.86900
C  44.76700 32.95000 29.10400
C  44.25000 30.22000 26.80500
C  43.52100 31.23500 30.01700
O  42.84500 30.25900 30.08800
C  43.75600 32.23400 31.20700
C  44.23400 31.55700 32.40600
O  45.11000 30.72200 32.39900
O  43.63200 32.08000 33.54600
C  43.89300 31.39000 34.76100
H  46.75200 38.46300 31.31200
H  48.32900 37.80000 25.09200
H  45.14000 32.18200 24.99300
H  44.57900 34.66000 33.19700
H  46.30900 36.59000 33.22500
H  44.18500 37.65800 33.63600
H  43.34400 36.51900 32.58300
H  44.10900 37.91500 31.89200
H  47.54800 34.75800 32.67000
H  46.81200 33.17400 32.69700
H  47.98800 34.19400 34.65100
H  46.64500 32.98800 34.85200
H  48.44900 39.98700 31.03900
H  48.22100 41.07300 29.67400
H  49.75600 40.18400 29.83500
H  49.02900 41.81300 27.85300
H  50.13100 41.95500 26.46200
H  50.56800 40.89200 27.86600
H  48.30300 35.28800 23.70200
H  45.33900 34.82300 23.30100
H  46.08300 36.58500 22.11700
H  47.82200 36.64600 21.95400
H  46.84100 37.78400 23.00100
H  47.33400 32.54300 23.54700
H  47.46200 33.56800 22.13900
H  45.74800 33.12200 21.05300
H  44.76400 32.84200 22.36300
H  45.97700 31.52300 21.93700
H  44.38500 29.50100 27.61300
H  45.06500 30.16800 26.08400
H  43.23200 30.20800 26.41600
H  42.81600 32.73000 31.44700
H  44.53000 30.50800 34.69100
H  42.98600 31.06100 35.26700
H  44.28400 32.12100 35.46900

