158

Mg 2.60600 -3.04100 44.66900
C  5.93000 -2.18500 44.44200
C  1.75500 -0.82300 42.36100
C  -0.52900 -4.23300 44.94600
C  3.71500 -5.68200 46.83100
N  3.75300 -1.75100 43.43400
C  5.08200 -1.51600 43.50900
C  5.57500 -0.39100 42.50400
C  4.21800 0.06700 41.88000
C  3.16100 -0.80700 42.67900
C  3.77500 1.55900 41.96400
C  6.62900 -0.93800 41.43600
C  7.85300 -0.11300 41.15000
H  7.94100 0.37000 39.60500
N  0.81100 -2.72200 43.62000
C  0.67000 -1.58500 42.86700
C  -0.71600 -1.51800 42.39800
C  -1.44300 -2.51800 43.19700
C  -0.40000 -3.14300 44.03100
C  -1.29900 -0.48600 41.33000
C  -2.97300 -2.72600 43.25900
O  -3.74900 -2.21000 42.45900
C  -3.61600 -3.52200 44.31500
N  1.66200 -4.80800 45.70300
C  0.38100 -5.00900 45.63400
C  -0.03600 -6.28700 46.33400
C  1.35100 -6.89100 46.73400
C  2.36100 -5.76400 46.42100
C  -0.97800 -5.92300 47.49900
C  1.71100 -8.27900 45.96400
C  1.50900 -9.61800 46.67600
N  4.40700 -3.77100 45.59000
C  4.65300 -4.80400 46.39000
C  5.99600 -4.74400 46.82600
C  6.58300 -3.67400 46.11400
C  5.56600 -3.25400 45.26200
C  6.57600 -5.68000 47.76100
C  7.81600 -2.98600 45.79400
O  8.94100 -3.08300 46.28600
C  7.43600 -1.92800 44.74900
C  7.53500 -0.52200 45.27300
O  7.03400 -0.05700 46.28200
O  8.39500 0.18700 44.46700
C  8.65100 1.62000 44.85100
H  1.50900 -0.18600 41.51000
H  -1.48500 -4.71800 45.15100
H  3.99300 -6.47200 47.53200
H  6.06100 0.34400 43.14500
H  4.23300 -0.24600 40.83600
H  3.55800 1.97500 40.98100
H  4.65600 2.05500 42.37200
H  2.89600 1.76500 42.57400
H  6.10900 -1.35300 40.57300
H  7.01500 -1.90200 41.76700
H  8.73800 -0.65400 41.48500
H  7.90000 0.81400 41.72000
H  -1.73700 0.30200 41.94300
H  -2.20600 -0.89100 40.88100
H  -0.56300 -0.05000 40.65500
H  -3.43300 -4.54500 43.98700
H  -4.68700 -3.32300 44.27800
H  -3.22500 -3.28000 45.30300
H  -0.56900 -6.90000 45.60800
H  1.47400 -6.98800 47.81300
H  -0.86400 -6.65300 48.30000
H  -2.01300 -6.17200 47.26400
H  -0.95400 -4.87600 47.80100
H  2.71200 -8.16100 45.55000
H  1.09500 -8.22200 45.06600
H  1.33500 -9.48400 47.74400
H  2.41600 -10.16300 46.41700
H  0.67300 -10.13700 46.20600
H  6.84200 -6.50400 47.09800
H  5.90700 -5.96400 48.57300
H  7.42300 -5.33700 48.35500
H  8.13900 -2.16900 43.95200
H  8.31600 1.96700 45.82800
H  8.12600 2.27400 44.15600
H  9.68400 1.96200 44.78200
Mg 10.34600 47.37200 26.07400
C  8.32100 47.61200 28.90100
C  13.01900 48.18100 27.88700
C  12.26100 47.56800 23.08100
C  7.44300 47.32000 24.11200
N  10.56100 48.04900 28.24100
C  9.70800 47.79300 29.20000
C  10.39800 47.86800 30.52800
C  11.77000 48.57000 30.12600
C  11.82600 48.20800 28.64500
C  11.76100 50.14400 30.34000
C  10.47200 46.53900 31.35700
C  10.30700 46.62500 32.90300
H  10.47600 45.40900 33.87500
N  12.35700 47.74800 25.63200
C  13.30900 47.99700 26.53000
C  14.64100 47.83800 25.89500
C  14.41900 47.65000 24.54500
C  13.01300 47.69600 24.32700
C  15.99800 47.95200 26.66600
C  15.42500 47.37500 23.44300
O  15.15400 46.90800 22.33400
C  16.89600 47.47200 23.72300
N  9.93800 47.44500 23.88700
C  10.88600 47.57800 22.92800
C  10.24000 47.64200 21.59000
C  8.66500 47.57000 21.90200
C  8.66800 47.44600 23.45000
C  10.70300 48.93400 20.83000
C  7.94800 46.41400 21.15000
C  7.95400 45.03500 21.79300
N  8.33700 47.28500 26.35900
C  7.25200 47.26600 25.49100
C  6.05500 47.11400 26.26400
C  6.43100 47.30600 27.57200
C  7.81900 47.39500 27.62600
C  4.69900 46.95400 25.67900
C  5.80300 47.53400 28.90600
O  4.67800 47.80400 29.23400
C  7.08000 47.47200 29.83800
C  6.99500 46.13100 30.49900
O  6.98200 45.09400 29.87300
O  7.09800 46.31600 31.83200
C  7.13900 45.08400 32.56000
H  13.92200 48.37900 28.46800
H  12.74200 47.48400 22.10400
H  6.53900 47.26600 23.50200
H  9.79600 48.46900 31.20900
H  12.54600 48.20000 30.79700
H  12.67600 50.30600 30.91000
H  10.94200 50.50400 30.96300
H  11.85300 50.64700 29.37800
H  11.28400 45.95100 30.92700
H  9.55000 45.96500 31.26700
H  9.26800 46.93300 33.02100
H  10.92800 47.47500 33.18700
H  15.91800 47.78500 27.74000
H  16.37600 48.93600 26.39000
H  16.64900 47.12100 26.39300
H  17.22200 48.23800 24.42700
H  17.36500 47.50100 22.73900
H  17.27700 46.55500 24.17100
H  10.52100 46.65000 21.23700
H  8.16900 48.50300 21.63300
H  11.61200 49.41600 21.19100
H  9.80700 49.49600 20.56500
H  10.98200 48.50500 19.86700
H  8.37700 46.24700 20.16200
H  6.91400 46.68100 20.93300
H  7.12900 45.02300 22.50500
H  8.91100 44.87200 22.28900
H  7.66300 44.30400 21.03900
H  4.46200 47.77600 25.00300
H  4.05800 47.14400 26.54000
H  4.47900 45.95100 25.31400
H  7.07000 48.20800 30.64100
H  6.23400 44.52700 32.31800
H  6.92300 45.36800 33.59000
H  7.99600 44.41700 32.47300

