158

Mg 16.47000 -2.02300 27.93100
C  15.43600 0.17300 30.56900
C  18.59300 -3.55500 30.14900
C  17.92700 -3.43500 25.23800
C  14.90600 0.37100 25.79600
N  16.97100 -1.62600 30.05800
C  16.35800 -0.78100 30.95100
C  16.91800 -0.93300 32.38700
C  18.10200 -1.98100 32.15000
C  17.87800 -2.49000 30.70800
C  19.61600 -1.64300 32.41900
C  15.80700 -1.36800 33.33600
C  15.89800 -0.84600 34.77000
H  17.12800 -0.04500 35.15100
N  17.95400 -3.41700 27.71500
C  18.58500 -4.03500 28.74900
C  19.22700 -5.25000 28.17200
C  19.21800 -5.15200 26.76500
C  18.37200 -3.96400 26.45700
C  19.89100 -6.34700 29.01400
C  19.76600 -6.09500 25.66100
O  19.56300 -5.85200 24.52000
C  20.55800 -7.30700 26.04100
N  16.31900 -1.66400 25.87500
C  17.03800 -2.32400 24.90000
C  16.79800 -1.78300 23.47100
C  15.64900 -0.73800 23.65800
C  15.67800 -0.63900 25.25900
C  18.07800 -1.23500 22.68300
C  14.25700 -1.14300 23.02900
C  14.13500 -0.88500 21.50900
N  15.18900 -0.23400 28.06800
C  14.59400 0.58900 27.11300
C  13.74700 1.58100 27.75900
C  14.08100 1.38900 29.09300
C  14.97700 0.34100 29.22500
C  12.97900 2.63500 27.12000
C  13.90200 2.03600 30.32700
O  13.28300 3.04200 30.58900
C  14.67700 1.08400 31.41900
C  15.34900 2.00800 32.32100
O  16.36600 2.64000 32.15100
O  14.46200 2.29200 33.38500
C  14.69200 3.50200 34.09300
H  19.17600 -4.14300 30.86100
H  18.20500 -3.97300 24.32900
H  14.48000 1.10200 25.10500
H  17.28800 0.08800 32.48200
H  17.88300 -2.84600 32.77700
H  20.23800 -1.86300 31.55100
H  19.95000 -2.26300 33.25000
H  19.51100 -0.62600 32.79600
H  15.76000 -2.45400 33.42400
H  14.86300 -1.07100 32.87800
H  15.80500 -1.73300 35.39600
H  14.94300 -0.38900 35.02800
H  19.45900 -7.29600 28.69600
H  19.62300 -6.14100 30.05000
H  20.97900 -6.36900 28.94700
H  21.47700 -7.01100 26.54600
H  20.82600 -7.87000 25.14700
H  20.11700 -7.98000 26.77600
H  16.48600 -2.59300 22.81200
H  15.97000 0.23000 23.27500
H  19.03100 -1.39000 23.18900
H  17.97500 -0.16100 22.53000
H  18.12400 -1.57100 21.64700
H  13.42200 -0.70000 23.57100
H  14.11600 -2.21900 23.13200
H  13.30500 -0.21800 21.28000
H  13.84200 -1.87100 21.14700
H  15.03000 -0.49800 21.02200
H  13.45600 3.03800 26.22600
H  13.08800 3.45800 27.82500
H  11.91600 2.43600 26.98700
H  13.92600 0.62100 32.05900
H  15.50200 3.40500 34.81600
H  13.87600 3.83900 34.73100
H  14.91100 4.34000 33.43100
Mg 41.06500 9.19600 29.50200
C  42.76900 10.19700 32.35200
C  38.62500 8.07900 31.52000
C  39.47400 8.09700 26.73600
C  43.63500 10.42700 27.48000
N  40.91000 8.90300 31.70500
C  41.54900 9.63300 32.69800
C  40.90100 9.63400 34.06900
C  39.69700 8.62800 33.81900
C  39.75800 8.49600 32.25900
C  39.82300 7.25400 34.61300
C  40.44400 11.03000 34.47700
C  40.34800 11.11400 35.96800
H  41.16500 12.21000 36.65500
N  39.37600 8.09000 29.18800
C  38.36500 7.84000 30.11000
C  37.18400 7.31700 29.43600
C  37.43600 7.40400 28.08400
C  38.81300 7.82700 27.92900
C  35.83500 6.89100 30.10500
C  36.48000 7.22400 26.93100
O  36.75900 7.48900 25.76300
C  35.09000 6.72900 27.16300
N  41.54700 9.09900 27.35300
C  40.76100 8.55100 26.48900
C  41.29200 8.75700 25.05000
C  42.44700 9.76200 25.31600
C  42.57100 9.74600 26.81200
C  41.58900 7.38400 24.31600
C  42.18600 11.20000 24.77500
C  41.03300 12.03000 25.34500
N  42.89900 9.95200 29.79200
C  43.82800 10.46900 28.87100
C  44.96700 11.00800 29.57100
C  44.61700 10.98800 30.92500
C  43.31800 10.37500 31.03600
C  46.25400 11.64100 29.12500
C  45.05600 11.34700 32.25900
O  46.12500 11.85000 32.65500
C  43.80200 10.94100 33.25600
C  44.33300 9.99000 34.27500
O  44.75700 8.85800 34.09400
O  44.47600 10.75300 35.41900
C  45.17200 10.14800 36.56200
H  37.68800 7.95000 32.06400
H  39.01700 7.83000 25.78100
H  44.38400 10.89900 26.84000
H  41.65000 9.22500 34.74700
H  38.75500 9.07700 34.13400
H  40.81200 7.15600 35.06200
H  39.68600 6.38100 33.97500
H  39.03000 7.23700 35.36000
H  39.49100 11.26400 34.00300
H  41.16300 11.75600 34.09600
H  40.48600 10.12600 36.40800
H  39.31200 11.38200 36.17700
H  35.93700 6.74700 31.18000
H  35.65400 5.89600 29.69800
H  35.06800 7.63000 29.87700
H  35.00700 5.87500 27.83400
H  34.58200 6.71200 26.19800
H  34.77200 7.60300 27.73200
H  40.51800 9.15800 24.39600
H  43.36400 9.44700 24.81700
H  42.50100 7.48400 23.72700
H  40.72900 7.13200 23.69600
H  41.75700 6.67100 25.12300
H  41.95900 11.13100 23.71100
H  43.15700 11.68900 24.84700
H  40.48600 12.52600 24.54300
H  41.40300 12.78500 26.03900
H  40.24500 11.49900 25.87900
H  46.39200 12.53000 29.74000
H  46.08700 11.92300 28.08500
H  47.08600 11.03600 29.48400
H  43.42800 11.85700 33.71200
H  44.58500 10.08600 37.47800
H  46.07400 10.75100 36.66600
H  45.49100 9.12400 36.36900

