158

Mg 30.50000 57.98400 40.43800
C  27.79900 55.99900 39.18500
C  32.69400 55.49800 39.28400
C  33.03400 60.15000 40.87800
C  28.19200 60.57700 40.95000
N  30.23900 55.98300 39.31600
C  29.08300 55.36200 39.09200
C  29.38200 53.92400 38.46700
C  30.87700 53.72500 38.80400
C  31.33200 55.16400 39.19100
C  31.24500 52.73400 39.85100
C  29.12700 53.80500 36.86800
C  28.08700 52.92200 36.34700
H  27.06600 53.61400 35.43100
N  32.54100 57.87000 40.08900
C  33.29200 56.76600 39.64300
C  34.76400 57.10500 39.64400
C  34.83600 58.43600 40.18100
C  33.40100 58.90600 40.35600
C  35.89300 56.18800 39.24800
C  36.16700 59.16100 40.48600
O  37.17800 58.62600 40.13900
C  36.27100 60.31100 41.34500
N  30.62500 60.09900 40.91500
C  31.78900 60.71800 41.03800
C  31.61400 62.25100 41.27400
C  30.04200 62.37200 41.27600
C  29.58700 60.93300 41.10500
C  32.31300 62.76800 42.53200
C  29.43600 63.41300 40.22900
C  29.21900 64.80200 40.71400
N  28.38700 58.28200 40.21000
C  27.59400 59.40100 40.47800
C  26.17700 59.07200 40.25400
C  26.21000 57.75600 39.75100
C  27.58700 57.35500 39.72000
C  24.92800 59.86500 40.58000
C  25.39700 56.61600 39.34000
O  24.19400 56.48200 39.34100
C  26.37300 55.44100 39.07100
C  26.14800 54.30500 40.03300
O  26.45700 54.35500 41.24500
O  25.60800 53.23800 39.42700
C  25.37800 52.09400 40.35600
H  33.46900 54.73700 39.17500
H  33.77400 60.95200 40.90600
H  27.53200 61.44000 41.05600
H  28.70100 53.23400 38.96500
H  31.45800 53.45100 37.92400
H  30.30500 52.25700 40.12700
H  31.68500 53.06200 40.79300
H  31.91600 51.94000 39.52500
H  29.99800 53.30200 36.44700
H  29.05600 54.82700 36.49500
H  27.45500 52.52900 37.14400
H  28.53200 52.04400 35.87800
H  36.69600 55.98600 39.95600
H  36.33200 56.51400 38.30500
H  35.47900 55.19900 39.05400
H  35.40400 60.24600 42.00200
H  36.31300 61.22500 40.75300
H  37.10200 60.25700 42.04800
H  31.95200 62.84400 40.42400
H  29.72500 62.69800 42.26600
H  31.53900 63.21900 43.15200
H  33.20800 63.37800 42.40900
H  32.72500 61.89500 43.03900
H  28.48900 63.03700 39.84100
H  30.06800 63.46500 39.34300
H  30.03200 65.44100 40.37100
H  29.20400 64.87500 41.80100
H  28.39200 65.30900 40.21600
H  25.23000 60.65500 41.26700
H  24.11700 59.28300 41.01800
H  24.53900 60.39800 39.71200
H  26.14200 55.05700 38.07800
H  26.17300 51.91800 41.08100
H  25.38100 51.27700 39.63400
H  24.46600 52.14000 40.95100
Mg 0.49100 43.59800 26.29700
C  2.51500 42.78300 29.00000
C  -2.27400 43.04300 28.32100
C  -1.50400 43.64800 23.54000
C  3.27400 43.71000 24.30400
N  0.15800 42.88500 28.34400
C  1.11800 42.66800 29.30800
C  0.55400 42.57700 30.67300
C  -0.95300 42.41200 30.36300
C  -1.04900 42.82300 28.86700
C  -1.48900 40.96400 30.74600
C  0.87000 43.88400 31.47000
C  1.62300 43.76300 32.80200
H  1.38500 42.52700 33.64200
N  -1.61400 43.41400 25.95000
C  -2.56800 43.26000 26.92200
C  -3.86300 43.34300 26.27800
C  -3.67300 43.58600 24.87900
C  -2.23700 43.54600 24.75200
C  -5.14700 43.00900 26.97900
C  -4.64500 43.91400 23.79500
O  -4.41000 44.09500 22.59400
C  -6.08900 43.97800 24.10000
N  0.78800 43.77400 24.27200
C  -0.15400 43.72400 23.29500
C  0.52000 43.89200 21.87900
C  2.03500 44.18500 22.21900
C  2.06700 43.87000 23.72200
C  0.32600 42.81500 20.82000
C  2.61000 45.59500 21.90300
C  4.16200 45.69100 21.80900
N  2.57800 43.34600 26.57400
C  3.55600 43.42100 25.64400
C  4.80800 43.29200 26.37800
C  4.46000 42.97400 27.67600
C  3.10600 43.07300 27.74200
C  6.15300 43.41400 25.74300
C  4.95700 42.55300 28.94500
O  6.07400 42.27100 29.31200
C  3.69600 42.54900 29.86900
C  3.78800 41.29300 30.69600
O  3.13000 40.26600 30.59500
O  4.67100 41.39600 31.75500
C  4.85200 40.15500 32.54100
H  -3.11200 42.90300 29.00800
H  -2.06400 43.79000 22.61400
H  4.15200 43.66800 23.65600
H  0.92700 41.69100 31.18900
H  -1.49900 43.18800 30.89900
H  -2.57600 40.91800 30.81900
H  -1.00400 40.61500 31.65800
H  -1.23900 40.26000 29.95200
H  -0.00200 44.53400 31.53800
H  1.63000 44.43500 30.91600
H  1.24500 44.53200 33.47600
H  2.67500 43.93300 32.57600
H  -5.43500 42.08700 26.47500
H  -5.94400 43.74500 26.87300
H  -5.08900 42.71800 28.02800
H  -6.42100 42.94200 24.16000
H  -6.63200 44.45000 23.28000
H  -6.41200 44.40600 25.04900
H  0.14800 44.80400 21.41200
H  2.76600 43.47900 21.82800
H  -0.54200 42.21600 21.09600
H  1.15800 42.11800 20.72200
H  0.04700 43.30600 19.88800
H  2.31800 46.31200 22.67000
H  2.26400 45.99500 20.95000
H  4.68300 44.74400 21.66700
H  4.56600 46.19600 22.68700
H  4.49000 46.25300 20.93400
H  6.05100 43.24200 24.67200
H  6.70800 42.60500 26.21800
H  6.64700 44.37100 25.91400
H  3.90100 43.43500 30.47000
H  5.08800 39.24800 31.98400
H  4.18400 40.03900 33.39500
H  5.75000 40.25300 33.15000

