158

Mg 35.85000 1.42900 30.19200
C  33.54400 2.53600 32.63400
C  38.04700 0.83300 32.66700
C  37.95600 0.86400 27.81100
C  33.28600 2.05700 27.79700
N  35.75500 1.77300 32.40400
C  34.70600 2.11300 33.20700
C  35.14400 2.05400 34.70700
C  36.71900 1.78800 34.61700
C  36.83300 1.34500 33.13000
C  37.62000 3.07300 34.90300
C  34.26400 1.07300 35.53000
C  33.86200 1.51600 36.93200
H  34.60800 2.72700 37.50100
N  37.77600 0.87700 30.21500
C  38.55700 0.62600 31.33800
C  39.86200 0.26300 30.91200
C  39.98100 0.39700 29.48300
C  38.53900 0.72400 29.12600
C  40.95200 -0.09900 32.04200
C  41.12700 0.07200 28.53800
O  40.93200 0.25000 27.32200
C  42.48400 -0.25600 29.11600
N  35.56900 1.25900 28.10800
C  36.68000 1.21000 27.35100
C  36.38200 1.27500 25.78900
C  34.80600 1.50200 25.78600
C  34.50500 1.60200 27.31900
C  37.20200 2.32900 24.95800
C  33.89000 0.35900 25.20800
C  32.91200 0.66300 24.08300
N  33.75600 2.12400 30.14800
C  32.85700 2.22300 29.11300
C  31.51600 2.65800 29.61500
C  31.78200 2.85800 31.00900
C  33.16900 2.56800 31.28300
C  30.22500 2.77700 28.88800
C  31.16800 3.24900 32.26200
O  30.01900 3.65000 32.47800
C  32.23200 2.98800 33.32600
C  32.49400 4.26800 34.12100
O  33.27400 5.15600 33.81800
O  31.67100 4.20400 35.21800
C  31.82500 5.38700 36.02900
H  38.74300 0.47200 33.42700
H  38.67000 0.78000 26.98900
H  32.59200 2.44900 27.05100
H  34.94100 3.08300 35.00500
H  37.09300 0.89100 35.11000
H  38.32700 3.27900 34.09900
H  38.21600 2.80100 35.77400
H  37.06200 3.98500 35.11300
H  34.82400 0.15600 35.71400
H  33.39500 0.76700 34.94700
H  34.08000 0.65900 37.57000
H  32.78000 1.61200 36.83800
H  41.78800 0.60000 32.07300
H  41.48100 -0.97000 31.65600
H  40.53800 -0.32600 33.02400
H  43.24200 -0.31100 28.33500
H  42.43000 -1.25300 29.55400
H  42.70000 0.46600 29.90400
H  36.59500 0.27400 25.41500
H  34.65000 2.45400 25.27800
H  37.52500 1.85800 24.03000
H  38.07400 2.52600 25.58200
H  36.66200 3.23800 24.69100
H  33.42300 -0.18300 26.03000
H  34.63100 -0.33300 24.80800
H  31.93000 0.24600 24.30800
H  33.10200 0.17400 23.12800
H  32.88600 1.73300 23.87900
H  29.48900 2.31900 29.54900
H  30.27400 2.11900 28.02100
H  29.90200 3.76000 28.54400
H  31.78200 2.28900 34.03100
H  31.25000 6.27300 35.75700
H  32.80900 5.85400 36.07800
H  31.56600 5.06600 37.03800
Mg 36.68200 48.95100 24.63400
C  36.59400 47.43400 27.80300
C  36.08400 51.92800 26.22300
C  36.42200 50.23700 21.63300
C  37.07900 45.76000 23.26900
N  36.25100 49.54700 26.82900
C  36.36700 48.82800 27.92400
C  36.05200 49.62000 29.23700
C  35.81200 51.05300 28.69000
C  36.05500 50.85400 27.14900
C  34.46100 51.69400 29.07700
C  37.32800 49.52200 30.13000
C  37.03600 49.13700 31.61200
H  35.84500 49.77700 32.24800
N  36.24000 50.80300 23.96800
C  36.17500 51.92200 24.76000
C  36.10600 53.08100 23.92500
C  36.26000 52.66900 22.63400
C  36.26500 51.15400 22.67600
C  35.88100 54.47100 24.51800
C  36.28600 53.44700 21.38000
O  36.29000 52.88900 20.21300
C  36.33400 55.04600 21.30600
N  36.52900 48.08100 22.60800
C  36.55900 48.85700 21.60400
C  36.68100 48.02200 20.25000
C  37.05900 46.58500 20.79800
C  36.83200 46.77800 22.29000
C  35.40300 48.12000 19.34800
C  38.49600 46.18000 20.29800
C  39.64400 46.58400 21.25400
N  36.94500 47.07700 25.34000
C  37.10900 45.82100 24.70200
C  37.44600 44.76800 25.64400
C  37.12500 45.30100 26.86000
C  36.83700 46.69200 26.60800
C  37.82800 43.37600 25.27600
C  37.08400 44.97800 28.27400
O  37.29700 43.95200 28.90500
C  36.68200 46.42900 28.94700
C  35.42400 46.21900 29.72100
O  34.26400 46.29000 29.27500
O  35.71100 45.93500 31.05300
C  34.58700 45.81800 32.00000
H  35.99700 52.87000 26.76800
H  36.20400 50.53800 20.60700
H  37.24400 44.79500 22.78400
H  35.23600 49.10000 29.74000
H  36.54600 51.78900 29.01700
H  33.86400 51.95400 28.20300
H  34.57600 52.63700 29.61200
H  33.88200 51.14200 29.81800
H  37.80800 50.49600 30.22200
H  38.08900 48.84700 29.73700
H  37.89900 49.55900 32.12700
H  37.07900 48.04900 31.55900
H  36.89700 54.83400 24.66900
H  35.30700 54.46500 25.44500
H  35.44400 55.14500 23.78100
H  37.09400 55.50300 21.94000
H  35.33100 55.36100 21.59300
H  36.50600 55.23200 20.24600
H  37.57300 48.38800 19.74200
H  36.28100 45.84900 20.59400
H  34.58000 48.40600 20.00400
H  35.17200 47.12700 18.96300
H  35.41000 48.82300 18.51500
H  38.54400 46.52000 19.26400
H  38.50300 45.09400 20.20600
H  39.35000 47.16100 22.13100
H  40.35200 47.16800 20.66600
H  40.16400 45.66700 21.53100
H  38.40800 43.34400 24.35300
H  36.91900 42.78100 25.19500
H  38.52000 42.91600 25.98200
H  37.50300 46.66100 29.62500
H  34.74300 46.24200 32.99200
H  34.46300 44.81200 32.40100
H  33.61900 46.16800 31.64000

