158

Mg -2.06000 18.10900 27.35100
C  -2.63000 15.77200 29.63300
C  -2.81600 20.60100 29.55200
C  -1.62700 20.19400 24.81500
C  -1.60100 15.50200 24.94900
N  -2.79800 18.14600 29.27600
C  -2.79500 17.07800 30.17700
C  -2.88400 17.48500 31.70600
C  -3.12400 19.03000 31.57900
C  -2.89300 19.32500 30.05300
C  -4.54900 19.64600 32.09400
C  -1.79200 17.01300 32.65500
C  -1.39000 17.80600 33.92800
H  -0.77600 16.98500 35.00500
N  -2.25200 20.10600 27.20700
C  -2.56100 20.98000 28.21600
C  -2.38900 22.37000 27.72200
C  -1.82700 22.25300 26.40700
C  -1.78800 20.84100 26.08700
C  -2.69100 23.59200 28.68100
C  -1.26500 23.39700 25.60800
O  -0.72900 23.25000 24.51400
C  -1.26200 24.77100 26.14800
N  -1.82500 17.84800 25.17100
C  -1.55100 18.90300 24.43600
C  -1.35500 18.48900 22.92600
C  -1.06000 17.00500 22.99300
C  -1.49900 16.71200 24.43800
C  -2.60100 18.73600 22.05600
C  0.40900 16.64100 22.72600
C  1.52600 17.18100 23.73200
N  -1.92100 16.11000 27.27600
C  -1.86100 15.14000 26.27100
C  -1.97700 13.81300 26.84000
C  -2.33300 13.98200 28.13300
C  -2.32300 15.38100 28.30900
C  -1.80800 12.52700 26.20100
C  -2.63400 13.29900 29.31900
O  -2.66600 12.11100 29.48200
C  -2.83400 14.40100 30.39600
C  -1.79700 14.01700 31.39300
O  -0.57600 14.23300 31.32800
O  -2.35600 13.29500 32.47000
C  -1.49600 13.04200 33.61700
H  -2.66100 21.35100 30.33000
H  -1.39800 20.80300 23.93800
H  -1.27400 14.69600 24.28800
H  -3.84500 17.08000 32.02300
H  -2.33600 19.53900 32.13400
H  -4.27200 20.34600 32.88200
H  -5.15900 18.98800 32.71300
H  -5.12300 20.09800 31.28500
H  -0.84500 17.09800 32.12300
H  -1.95600 15.96100 32.88900
H  -2.25900 18.36400 34.27700
H  -0.57200 18.49600 33.71900
H  -1.75000 24.05300 28.98000
H  -3.22100 23.20800 29.55300
H  -3.35800 24.34300 28.25900
H  -2.24300 25.18800 26.37400
H  -0.80100 25.46700 25.44700
H  -0.64200 24.79400 27.04400
H  -0.51500 19.03600 22.49900
H  -1.62700 16.37400 22.30900
H  -3.32800 19.19700 22.72500
H  -3.05700 17.85300 21.60800
H  -2.31800 19.48300 21.31400
H  0.69100 16.87100 21.69800
H  0.46600 15.55800 22.61900
H  2.09500 16.38800 24.21800
H  1.05800 17.77100 24.52000
H  2.26900 17.85200 23.30000
H  -1.06200 12.57500 25.40700
H  -2.68200 11.99800 25.82200
H  -1.44100 11.85300 26.97500
H  -3.84600 14.24200 30.76800
H  -2.10500 13.43400 34.43100
H  -0.57600 13.62500 33.58300
H  -1.33200 11.96500 33.62100
Mg 6.36900 54.65600 40.65600
C  6.06000 50.95800 40.32200
C  9.61000 54.35400 39.77800
C  6.40300 57.89300 40.50300
C  2.85900 54.57400 41.73900
N  7.51500 52.86600 39.97500
C  7.29900 51.46400 40.02000
C  8.61100 50.70800 39.87200
C  9.65400 51.83700 40.00300
C  8.87900 53.12000 39.89700
C  10.50800 51.71900 41.30400
C  8.80100 49.93200 38.50600
C  8.49000 50.69400 37.27100
H  7.62800 50.08500 36.12700
N  7.71400 55.97900 40.13000
C  9.04900 55.67300 39.77800
C  9.71400 56.84700 39.39800
C  8.75300 57.96400 39.49500
C  7.57500 57.32900 40.07800
C  11.24000 56.98200 38.95500
C  9.02900 59.32800 39.06800
O  10.07300 59.64400 38.55200
C  7.98500 60.32800 39.11400
N  4.74200 56.04300 41.01600
C  5.13300 57.39200 40.95900
C  3.94400 58.35700 41.31300
C  2.90100 57.26000 41.85800
C  3.54600 55.85100 41.53700
C  4.31800 59.42700 42.38900
C  1.49900 57.42300 41.31800
C  0.48100 57.23400 42.41700
N  4.77900 53.14800 40.98900
C  3.45200 53.26600 41.38800
C  2.74800 52.03700 41.37900
C  3.77700 51.12800 41.02800
C  4.95000 51.83500 40.79100
C  1.36900 51.63500 41.71700
C  4.11700 49.74600 40.93500
O  3.35700 48.82400 41.27400
C  5.62800 49.57900 40.47300
C  5.49300 48.81100 39.22600
O  5.19200 49.21700 38.13300
O  5.98700 47.52800 39.40600
C  5.90300 46.63700 38.27100
H  10.68300 54.33200 39.57900
H  6.44200 58.97400 40.64800
H  1.78700 54.59200 41.95000
H  8.76800 49.95600 40.64500
H  10.32800 51.77800 39.14800
H  11.55700 51.91500 41.07900
H  10.50700 50.73300 41.76800
H  10.09300 52.36200 42.08000
H  8.27700 48.97600 38.49600
H  9.84900 49.65700 38.39300
H  9.43600 50.77100 36.73400
H  8.03100 51.66400 37.46000
H  11.72400 56.21200 39.55600
H  11.66200 57.91200 39.33600
H  11.24200 56.84400 37.87400
H  7.01600 60.15500 38.64600
H  8.41400 61.20800 38.63500
H  7.98000 60.64900 40.15600
H  3.60400 58.80000 40.37700
H  2.89200 57.15600 42.94300
H  3.48100 59.43500 43.08700
H  4.47300 60.36700 41.86000
H  5.26500 59.19600 42.87600
H  1.35600 56.61900 40.59600
H  1.25500 58.35600 40.81100
H  -0.22000 56.50300 42.01500
H  -0.10800 58.14900 42.46900
H  0.84200 56.88300 43.38300
H  0.89300 51.26900 40.80700
H  0.87600 52.55100 42.04200
H  1.29400 50.79300 42.40400
H  6.26900 49.14800 41.24200
H  4.86000 46.35400 38.13200
H  6.43300 45.71200 38.49600
H  6.24500 47.08800 37.33900

