158

Mg 35.58400 1.87000 29.97500
C  33.18400 2.91400 32.39900
C  37.96100 1.69500 32.57400
C  37.90900 1.24100 27.68200
C  33.17200 2.28100 27.43200
N  35.63400 2.35100 32.18400
C  34.50900 2.65900 32.94800
C  34.90600 2.75200 34.44400
C  36.47200 2.52300 34.44300
C  36.69100 2.10200 32.95300
C  37.38400 3.67600 34.86400
C  34.09500 1.69900 35.27800
C  33.18600 2.23600 36.50300
H  33.97900 3.33700 37.38300
N  37.75900 1.64300 30.05500
C  38.48100 1.49000 31.21000
C  39.86200 1.08400 30.82800
C  39.79800 0.89800 29.39400
C  38.44200 1.19200 28.96100
C  40.97900 0.88400 31.95900
C  40.89000 0.37100 28.47500
O  40.64700 0.07200 27.31700
C  42.33500 0.14200 28.95900
N  35.60400 2.01600 27.92000
C  36.67400 1.68800 27.17400
C  36.38800 1.77900 25.65400
C  34.89300 1.85800 25.56700
C  34.54900 2.08500 27.04100
C  37.15600 2.95800 24.96000
C  34.15100 0.60000 25.09500
C  32.96500 0.79500 24.16300
N  33.50800 2.28800 29.92900
C  32.68900 2.47100 28.78100
C  31.33600 2.75800 29.35200
C  31.54000 3.08200 30.75900
C  32.80500 2.63300 31.06500
C  30.16700 2.99000 28.46400
C  31.02900 3.56400 31.93100
O  29.93100 4.02300 32.18100
C  32.01500 3.39100 33.07500
C  32.14200 4.68000 33.77200
O  32.68000 5.66700 33.41100
O  31.40400 4.55600 34.86500
C  31.28700 5.72900 35.77300
H  38.60900 1.49000 33.42800
H  38.49800 0.94800 26.81000
H  32.39900 2.48500 26.68800
H  34.65000 3.73700 34.83300
H  36.68400 1.67900 35.09900
H  36.79300 4.50800 35.24800
H  37.89000 4.11000 34.00000
H  38.02300 3.43100 35.71200
H  34.70100 0.86200 35.62300
H  33.39700 1.22600 34.58700
H  32.71600 1.47300 37.12300
H  32.34600 2.73500 36.02000
H  40.66500 0.99900 32.99700
H  41.73300 1.64700 31.76800
H  41.45300 -0.09800 31.96700
H  42.65600 0.99200 29.56100
H  42.93000 -0.13400 28.08800
H  42.22800 -0.73200 29.60100
H  36.85500 0.86200 25.29300
H  34.52400 2.67800 24.95000
H  37.97900 2.69900 24.29400
H  37.42100 3.74300 25.66800
H  36.45700 3.38000 24.23900
H  33.91300 0.05000 26.00500
H  34.78300 -0.07900 24.52200
H  32.95400 1.80500 23.75400
H  32.13400 0.68400 24.86000
H  32.83700 0.17600 23.27400
H  29.33600 3.62500 28.77200
H  29.60600 2.09100 28.21100
H  30.51200 3.54200 27.59000
H  31.70600 2.59000 33.74600
H  30.42100 6.23200 35.34100
H  32.20200 6.32100 35.80300
H  31.01800 5.23300 36.70500
Mg 47.37800 15.65400 27.49900
C  45.48200 16.08100 30.41400
C  49.94300 17.53600 28.96800
C  48.94100 15.79000 24.59700
C  44.66100 14.17800 25.99800
N  47.64100 16.74700 29.45600
C  46.78300 16.55200 30.55000
C  47.53900 17.07900 31.80900
C  48.81400 17.80000 31.26700
C  48.85100 17.35600 29.79600
C  48.89500 19.26500 31.46300
C  47.81000 16.00100 32.92400
C  47.45200 16.38600 34.40000
H  47.43500 17.90200 34.82200
N  49.31500 16.35200 26.96000
C  50.21500 17.10600 27.66400
C  51.40900 17.30700 26.86700
C  51.06600 16.79900 25.56600
C  49.71600 16.30700 25.66100
C  52.69300 17.95300 27.40400
C  51.92000 16.66700 24.31400
O  51.49700 16.23000 23.27500
C  53.43400 17.08700 24.39900
N  46.99800 14.89500 25.55600
C  47.81400 15.03500 24.53000
C  47.12000 14.76700 23.19400
C  45.91200 13.89400 23.66000
C  45.82200 14.28100 25.14100
C  46.68300 16.06100 22.47100
C  46.15500 12.40600 23.47500
C  46.60900 11.59600 24.62100
N  45.45400 15.26900 28.02200
C  44.50800 14.58600 27.35700
C  43.28500 14.57900 28.15200
C  43.64500 15.09100 29.41200
C  44.95600 15.51300 29.22500
C  41.89900 13.93500 27.75700
C  43.19700 15.30400 30.74600
O  42.13400 15.02000 31.27800
C  44.41400 15.98300 31.47200
C  44.09200 17.22500 32.31300
O  43.95000 18.34600 31.94900
O  43.71900 16.75300 33.52500
C  43.21000 17.84000 34.43300
H  50.79400 18.02400 29.44800
H  49.38800 15.98400 23.62000
H  43.72300 13.78700 25.60000
H  46.99000 17.88200 32.30100
H  49.64100 17.41400 31.86200
H  47.92000 19.71200 31.65700
H  49.23800 19.72700 30.53700
H  49.54200 19.52100 32.30100
H  48.85600 15.69500 32.91400
H  47.22800 15.11600 32.66700
H  48.12600 15.91600 35.11600
H  46.42100 16.04600 34.50100
H  53.40000 17.15300 27.62400
H  52.45000 18.73800 28.12000
H  53.00700 18.57400 26.56500
H  53.58600 18.15800 24.53500
H  53.90100 16.61700 23.53400
H  53.78900 16.54400 25.27500
H  47.88000 14.18000 22.67900
H  44.97000 14.16700 23.18600
H  47.32400 16.27600 21.61700
H  46.75000 16.95100 23.09700
H  45.67600 15.98500 22.06000
H  46.98100 12.20700 22.79200
H  45.30800 12.03000 22.90000
H  47.04700 10.68600 24.21200
H  45.78200 11.13400 25.16000
H  47.32800 12.05000 25.30300
H  42.05200 12.86700 27.60100
H  41.46100 14.43100 26.89100
H  41.14300 14.02900 28.53700
H  44.62900 15.17100 32.16700
H  42.20700 18.15400 34.14600
H  43.91100 18.65500 34.25200
H  43.26900 17.64900 35.50500

