158

Mg 2.11600 -1.15400 44.62600
C  5.48400 -0.10200 44.33000
C  1.19100 1.85100 43.19200
C  -0.96500 -2.41000 44.24900
C  3.37900 -4.33700 45.44700
N  3.29300 0.67100 43.77100
C  4.63800 0.89500 43.92400
C  4.98800 2.26800 43.41700
C  3.57700 2.96400 43.25300
C  2.60500 1.82600 43.42900
C  3.31800 4.17800 44.21700
C  5.81500 2.33800 42.04600
C  5.58200 1.23300 40.92200
H  5.03800 1.70100 39.57000
N  0.32500 -0.38300 43.89600
C  0.14700 0.87500 43.42700
C  -1.25300 1.08200 43.11900
C  -1.95000 -0.12000 43.49300
C  -0.90600 -1.04100 43.91500
C  -1.67800 2.33200 42.48500
C  -3.42900 -0.33800 43.28500
O  -4.04400 0.52400 42.68000
C  -4.10000 -1.64800 43.74000
N  1.39700 -3.14500 44.58700
C  0.00600 -3.35200 44.60500
C  -0.35600 -4.80500 44.98400
C  1.02900 -5.30000 45.47100
C  2.04800 -4.21200 45.08300
C  -1.43300 -5.07100 45.96200
C  1.49900 -6.63600 44.86000
C  1.37400 -7.93800 45.72000
N  3.97500 -2.05300 45.01700
C  4.36600 -3.39100 45.28000
C  5.76500 -3.45000 45.52800
C  6.24000 -2.14400 45.24300
C  5.12700 -1.34300 44.82200
C  6.58000 -4.68700 46.00600
C  7.34300 -1.38000 45.23000
O  8.41000 -1.54700 45.82700
C  6.92200 0.04200 44.68900
C  7.17000 1.14700 45.64800
O  6.59000 1.33600 46.69400
O  8.17900 1.99100 45.17600
C  8.40000 3.22700 45.89300
H  0.95400 2.84400 42.80500
H  -1.96500 -2.84900 44.21700
H  3.73300 -5.26600 45.90000
H  5.56400 2.79800 44.17600
H  3.58400 3.29500 42.21400
H  3.11800 5.08000 43.63800
H  4.20900 4.34300 44.82300
H  2.41800 3.99900 44.80400
H  6.82900 2.17800 42.41500
H  5.82600 3.37600 41.71200
H  4.90400 0.48800 41.33800
H  6.42900 0.60400 40.64700
H  -1.13500 2.56700 41.57000
H  -1.39200 3.19100 43.09200
H  -2.73900 2.48700 42.28800
H  -4.00500 -2.54000 43.12100
H  -5.15000 -1.42400 43.92600
H  -3.73700 -1.77100 44.76100
H  -0.44300 -5.43700 44.10100
H  0.98000 -5.24100 46.55800
H  -2.17700 -4.32100 45.69400
H  -1.24600 -5.02100 47.03500
H  -1.95100 -5.97500 45.64300
H  2.57800 -6.65600 44.70900
H  1.08700 -6.90900 43.88900
H  0.50900 -7.77700 46.36400
H  2.31000 -8.07100 46.26200
H  1.25800 -8.83700 45.11400
H  6.35000 -5.56200 45.39900
H  6.33800 -5.00700 47.01900
H  7.64000 -4.43800 45.95900
H  7.52100 0.15900 43.78600
H  9.36800 3.07900 46.37100
H  7.73900 3.58000 46.68500
H  8.44500 3.93300 45.06300
Mg 8.82400 3.46100 27.51100
C  10.12200 2.01200 30.35300
C  6.79200 5.40500 29.50600
C  7.28200 4.78500 24.76800
C  10.08300 0.92200 25.60800
N  8.46700 3.62800 29.71000
C  9.15700 2.93900 30.69000
C  8.81200 3.44300 32.07000
C  7.65500 4.42800 31.71900
C  7.58700 4.48400 30.21800
C  6.29800 4.00200 32.34800
C  10.07000 4.05600 32.79600
C  10.38500 3.48400 34.20400
H  9.21600 2.91700 34.88100
N  7.25400 4.94700 27.17700
C  6.69800 5.69500 28.13800
C  5.95400 6.76900 27.58900
C  6.03100 6.59800 26.14900
C  6.90700 5.41500 25.93900
C  5.21300 7.86000 28.32300
C  5.41400 7.43800 25.00100
O  5.52600 7.10700 23.81100
C  4.59600 8.74700 25.39200
N  8.55500 2.87500 25.51700
C  7.99000 3.56900 24.53500
C  8.16700 2.95800 23.10900
C  9.10800 1.70400 23.40600
C  9.29500 1.85300 24.94400
C  6.83300 2.54900 22.51200
C  10.48900 1.60800 22.65600
C  10.66000 0.37000 21.73000
N  9.95400 1.88700 27.81900
C  10.49600 0.95800 26.94000
C  11.33400 0.07900 27.67900
C  11.23300 0.43100 28.99000
C  10.45700 1.61200 29.00300
C  11.92700 -1.17500 27.12900
C  11.71000 0.11000 30.32900
O  12.41000 -0.78400 30.74400
C  11.09500 1.22200 31.22000
C  10.54600 0.46100 32.36500
O  9.52200 -0.22000 32.30100
O  11.34200 0.59600 33.50100
C  11.18800 -0.01500 34.85200
H  6.22800 6.05300 30.18000
H  7.05600 5.32700 23.84700
H  10.40200 0.11600 24.94400
H  8.34000 2.59200 32.56000
H  7.95300 5.42200 32.05300
H  5.56500 3.74500 31.58400
H  5.93500 4.85700 32.91800
H  6.32500 3.10400 32.96500
H  9.98300 5.14200 32.82100
H  10.97800 3.97900 32.19900
H  10.70400 4.39300 34.71400
H  11.24600 2.82800 34.07100
H  5.48900 8.84400 27.94600
H  5.45400 7.87900 29.38600
H  4.14900 7.70200 28.15100
H  3.96000 9.09600 24.57800
H  5.21100 9.57900 25.73300
H  3.93700 8.47000 26.21600
H  8.71100 3.67300 22.49200
H  8.54000 0.81700 23.12800
H  6.72500 1.51500 22.18400
H  6.66100 3.27800 21.72000
H  6.02700 2.71400 23.22800
H  11.24900 1.47000 23.42500
H  10.73800 2.55600 22.18000
H  11.19700 -0.36400 22.33100
H  11.25700 0.58900 20.84500
H  9.65500 0.02800 21.48200
H  11.24500 -1.99900 27.34000
H  12.92700 -1.36300 27.51900
H  11.98100 -1.06800 26.04500
H  11.87200 1.86700 31.63100
H  10.91900 0.85000 35.45900
H  12.06500 -0.49300 35.28800
H  10.30200 -0.64800 34.80900

