158

Mg 26.77900 49.94000 27.42400
C  24.80300 51.04500 30.10800
C  29.05200 48.93800 29.71500
C  28.82600 49.56700 24.76000
C  24.47800 51.53200 25.33400
N  26.92900 50.14400 29.69400
C  25.93000 50.36800 30.60600
C  26.37700 50.04600 32.05500
C  27.80200 49.54800 31.81900
C  27.98400 49.59300 30.31800
C  28.91000 50.34900 32.56000
C  25.41400 48.97700 32.72500
C  24.64300 49.54700 33.96500
H  24.69000 48.71800 35.25200
N  28.58000 49.21700 27.25300
C  29.39400 48.86300 28.35100
C  30.68900 48.42100 27.81600
C  30.74800 48.68300 26.41600
C  29.31200 49.21300 26.08800
C  31.78700 47.83500 28.66200
C  31.97300 48.55700 25.40100
O  31.81000 48.83400 24.23600
C  33.32000 48.15200 25.82200
N  26.52700 50.28500 25.24600
C  27.52900 50.01500 24.38000
C  27.01100 50.18500 22.96700
C  25.50500 50.66100 23.20600
C  25.43000 50.88200 24.67700
C  27.83700 51.15100 22.11900
C  24.43800 49.66700 22.72700
C  23.22200 50.40200 21.99000
N  25.05900 51.16500 27.60000
C  24.18600 51.62900 26.70000
C  23.02700 52.21000 27.30400
C  23.20100 52.03500 28.69600
C  24.45200 51.40100 28.77500
C  21.93200 52.94900 26.70600
C  22.68200 52.17500 30.01900
O  21.55400 52.60100 30.29600
C  23.73900 51.64100 30.97500
C  24.25800 52.79900 31.81200
O  25.11100 53.64300 31.46900
O  23.68200 52.74400 33.07700
C  24.30100 53.73300 34.00200
H  29.82900 48.42600 30.28600
H  29.49800 49.36300 23.92400
H  23.71400 51.96500 24.68500
H  26.52500 50.99600 32.56900
H  27.96400 48.52700 32.16600
H  29.62700 50.83700 31.90000
H  29.54700 49.69900 33.15900
H  28.59500 51.13500 33.24600
H  25.88700 48.03000 32.98400
H  24.69400 48.68700 31.96100
H  23.61400 49.76200 33.67700
H  25.28500 50.40100 34.18100
H  32.52100 48.46000 29.17000
H  32.29600 47.09800 28.04000
H  31.27000 47.23000 29.40700
H  33.21600 47.13800 26.20900
H  33.59900 48.83000 26.62900
H  34.10400 48.20500 25.06700
H  26.99500 49.19100 22.52100
H  25.27900 51.61500 22.72900
H  28.73400 51.40500 22.68400
H  27.41600 52.15600 22.12100
H  27.92700 50.74500 21.11200
H  24.00900 49.16700 23.59500
H  24.89500 48.86300 22.15000
H  22.87600 49.95200 21.06000
H  23.33000 51.48100 21.88200
H  22.32500 50.23000 22.58500
H  21.06300 52.54100 27.22200
H  21.85900 52.67000 25.65400
H  22.02700 54.02400 26.85900
H  23.22900 50.98200 31.67700
H  25.35100 53.89300 33.75600
H  24.36900 53.23500 34.96900
H  23.88700 54.72600 34.17200
Mg 9.79400 47.81000 26.50500
C  7.69900 48.18700 29.42800
C  12.31400 49.22200 28.34500
C  11.62500 47.35800 23.89600
C  6.86600 47.53900 24.69600
N  9.97200 48.51000 28.70800
C  9.02500 48.46700 29.68700
C  9.72000 48.91600 31.00400
C  10.97700 49.69000 30.53100
C  11.15900 49.04800 29.15400
C  10.73700 51.21100 30.34800
C  10.19800 47.71600 31.93300
C  10.05900 47.87600 33.41800
H  9.75200 46.66000 34.33500
N  11.77500 48.25700 26.12400
C  12.64400 48.73800 27.03700
C  14.00000 48.62600 26.46600
C  13.82800 47.99100 25.21700
C  12.38600 47.86200 25.01400
C  15.24600 48.96100 27.29800
C  14.82600 47.55000 24.14800
O  14.45000 47.09000 23.09400
C  16.25900 47.61300 24.36500
N  9.30000 47.70200 24.47700
C  10.28700 47.35300 23.58200
C  9.70000 46.81600 22.31300
C  8.15600 46.95000 22.58000
C  8.06600 47.46700 23.98900
C  10.18400 47.60500 21.08600
C  7.38700 45.61800 22.30500
C  6.19900 45.71000 21.41000
N  7.69400 47.75700 26.92900
C  6.61700 47.65300 26.10200
C  5.40600 47.61300 26.77500
C  5.80200 47.79700 28.08500
C  7.17100 47.95100 28.13500
C  4.03500 47.33800 26.37400
C  5.32100 47.79500 29.47300
O  4.22500 47.65500 29.94400
C  6.56900 48.03300 30.41700
C  6.69800 46.92900 31.34700
O  7.27500 45.85800 31.13500
O  6.01300 47.22200 32.50000
C  5.64100 46.04600 33.36800
H  13.10100 49.72300 28.91100
H  12.20900 46.98100 23.05300
H  5.96500 47.31300 24.12200
H  8.99500 49.54400 31.52300
H  11.85700 49.50500 31.14700
H  11.39300 51.79300 30.99500
H  9.73100 51.52200 30.62800
H  10.88100 51.51500 29.31100
H  11.26200 47.52300 31.80100
H  9.72000 46.75400 31.74500
H  9.33300 48.64100 33.69400
H  11.02200 48.24200 33.77400
H  15.07400 48.89000 28.37200
H  15.70700 49.93400 27.13300
H  15.91500 48.15600 26.99500
H  16.51700 46.88200 25.13100
H  16.48600 48.58900 24.79300
H  16.77500 47.45400 23.41800
H  9.98400 45.76500 22.25400
H  7.80300 47.72000 21.89400
H  10.61500 48.51000 21.51600
H  9.45000 47.81100 20.30700
H  10.95600 46.97600 20.64100
H  6.98000 45.23200 23.23900
H  8.00000 44.81700 21.89300
H  5.97700 46.74200 21.13800
H  5.27600 45.40800 21.90400
H  6.31500 45.22200 20.44200
H  3.48400 48.27300 26.47100
H  3.54200 46.62900 27.03900
H  3.93500 46.93500 25.36600
H  6.44400 48.95400 30.98600
H  6.10500 46.14500 34.34900
H  5.92500 45.05700 33.00900
H  4.57200 46.07200 33.58100

