158

Mg 9.14600 2.62300 27.65100
C  10.58700 1.17600 30.68900
C  7.19200 4.47900 29.67200
C  7.93900 3.95500 24.83400
C  10.63800 0.06700 25.83700
N  8.94900 2.79300 29.85200
C  9.76100 2.29500 30.87100
C  9.44600 2.92600 32.17700
C  8.17500 3.74700 31.92700
C  7.98000 3.63000 30.38400
C  6.88200 3.24000 32.63900
C  10.75400 3.72900 32.63000
C  10.95300 3.90300 34.12900
H  9.84100 3.45800 35.09800
N  7.81800 4.11900 27.35100
C  7.09600 4.77000 28.23600
C  6.39100 5.87700 27.57900
C  6.50300 5.67100 26.15800
C  7.47900 4.52700 26.03500
C  5.56900 6.89500 28.32400
C  5.92900 6.44100 24.99400
O  6.34200 6.34700 23.85400
C  4.91200 7.43500 25.36000
N  9.25400 2.11300 25.61500
C  8.67700 2.80300 24.63800
C  9.01000 2.26000 23.22000
C  9.93500 1.02600 23.57100
C  10.05300 1.09500 25.15100
C  7.83700 1.87300 22.28300
C  11.38900 0.87700 22.92200
C  11.57800 1.42100 21.54300
N  10.27500 0.89800 28.13100
C  10.78000 -0.04500 27.26300
C  11.58000 -0.98400 28.03700
C  11.56200 -0.55800 29.37500
C  10.73500 0.59700 29.38900
C  12.36600 -2.06000 27.44100
C  12.14700 -0.76300 30.72800
O  12.85000 -1.62000 31.11600
C  11.63800 0.39900 31.60500
C  11.10900 -0.14300 32.90300
O  10.05000 -0.77200 33.04900
O  12.04000 0.04300 33.88700
C  11.74400 -0.48600 35.21500
H  6.73400 5.21600 30.33600
H  7.61800 4.44100 23.91000
H  11.03500 -0.76500 25.25300
H  9.18700 2.09400 32.83100
H  8.29400 4.78600 32.23300
H  6.56300 4.02500 33.32400
H  7.00700 2.38100 33.29900
H  6.17800 2.90400 31.87800
H  10.71400 4.72500 32.19000
H  11.67400 3.26500 32.27400
H  10.99400 4.98200 34.27800
H  11.93100 3.55300 34.45900
H  5.57900 7.88000 27.85800
H  5.87000 6.99300 29.36700
H  4.52600 6.61600 28.46900
H  5.27100 8.40500 25.70200
H  4.19100 7.19400 26.14100
H  4.29700 7.47700 24.46100
H  9.63200 3.03100 22.76500
H  9.49200 0.04000 23.43400
H  6.96000 1.72200 22.91100
H  8.00600 1.02200 21.62300
H  7.68100 2.67300 21.55800
H  11.51800 -0.20100 23.01300
H  12.01400 1.35500 23.67700
H  12.55400 1.90400 21.53100
H  10.82500 2.15000 21.24400
H  11.65000 0.56200 20.87500
H  12.45100 -1.98900 26.35700
H  11.89600 -2.94500 27.87000
H  13.37300 -1.95300 27.84400
H  12.51600 1.03000 31.74800
H  10.88000 -1.14900 35.26700
H  11.48600 0.24400 35.98300
H  12.65700 -1.02400 35.46800
Mg 46.10700 25.06600 28.11800
C  46.78200 27.23400 30.88000
C  45.15600 22.71500 30.38800
C  46.02100 22.84600 25.57800
C  47.82500 27.20900 26.09000
N  45.90300 25.08800 30.33800
C  46.11700 26.09300 31.27700
C  45.66700 25.74500 32.75300
C  45.37200 24.21300 32.55000
C  45.51500 23.97700 31.00200
C  46.31200 23.35200 33.32800
C  44.47400 26.57000 33.32400
C  44.63300 27.26700 34.68200
H  43.61600 27.13600 35.84500
N  45.55700 23.05300 27.99300
C  45.06600 22.25800 28.99900
C  44.67700 20.88100 28.52700
C  45.11200 20.86700 27.09200
C  45.62600 22.28500 26.83600
C  44.18500 19.80800 29.32600
C  45.09700 19.70900 26.15200
O  45.53800 19.77300 25.01500
C  44.67800 18.35300 26.63500
N  46.78800 25.04000 26.16200
C  46.47800 24.09100 25.23800
C  46.87600 24.57800 23.82900
C  47.14400 26.09900 24.02300
C  47.18300 26.18200 25.49600
C  48.09300 23.83500 23.20300
C  45.96500 27.02700 23.50500
C  46.32300 28.00200 22.33700
N  47.25900 26.77500 28.34800
C  47.87700 27.58600 27.39300
C  48.38300 28.82700 28.01900
C  47.94800 28.69100 29.37900
C  47.27000 27.51000 29.56900
C  49.04900 29.92400 27.30600
C  47.93700 29.30600 30.66200
O  48.48800 30.38900 30.94100
C  47.23700 28.36200 31.77400
C  48.19800 27.83500 32.85200
O  49.01100 26.98600 32.58400
O  48.11900 28.54300 34.05700
C  48.85800 28.06800 35.24900
H  44.76800 22.07900 31.18600
H  46.00600 22.07100 24.80900
H  48.22100 27.91000 25.35300
H  46.56800 25.91000 33.34300
H  44.36800 23.89100 32.82700
H  47.05400 22.87000 32.69200
H  45.75100 22.58700 33.86500
H  46.89900 23.87600 34.08200
H  43.58100 25.95000 33.40200
H  44.21200 27.29300 32.55200
H  44.77400 28.31100 34.40200
H  45.62900 26.96800 35.00900
H  43.36700 19.33600 28.78200
H  44.07200 20.19600 30.33800
H  44.97800 19.08300 29.50600
H  45.45000 18.03200 27.33500
H  44.53000 17.77500 25.72300
H  43.69900 18.38600 27.11200
H  46.09100 24.56000 23.07200
H  48.09900 26.48200 23.66200
H  48.32100 22.92900 23.76400
H  49.01200 24.41400 23.10800
H  47.77800 23.47200 22.22500
H  45.70200 27.64600 24.36300
H  45.03200 26.50100 23.30100
H  46.31300 28.99600 22.78300
H  45.47000 27.94800 21.66000
H  47.26200 27.76900 21.83400
H  48.38600 30.74100 27.02300
H  49.56900 29.52700 26.43400
H  49.86500 30.30300 27.92100
H  46.36100 28.83900 32.21200
H  48.49200 27.04600 35.35000
H  48.71400 28.58000 36.20000
H  49.91700 28.09200 34.99300

