158

Mg -10.72000 39.81500 43.83800
C  -9.61700 36.81100 42.40200
C  -8.10400 41.46700 42.05500
C  -12.23200 42.76600 44.54500
C  -13.57200 38.10000 44.80500
N  -9.05600 39.21200 42.43600
C  -8.84600 37.92200 41.99100
C  -7.62600 37.86800 40.98000
C  -7.07900 39.32100 41.18700
C  -8.11200 40.07700 41.95200
C  -5.65200 39.57300 41.65200
C  -7.94500 37.41700 39.52100
C  -7.19400 36.16400 39.08400
H  -6.01700 36.38200 37.97600
N  -10.19900 41.86300 43.44100
C  -9.13700 42.31200 42.59800
C  -9.21000 43.68700 42.57900
C  -10.38700 44.13100 43.34300
C  -11.00800 42.87800 43.85100
C  -8.26000 44.60100 41.78700
C  -10.68800 45.53600 43.60800
O  -10.04700 46.37900 43.04000
C  -11.70200 45.94500 44.69200
N  -12.61800 40.34300 44.64400
C  -13.01100 41.62100 44.75100
C  -14.55700 41.71900 45.13500
C  -14.92400 40.26500 45.36800
C  -13.65900 39.48800 44.93000
C  -14.80900 42.71800 46.34800
C  -16.16200 39.84500 44.57200
C  -17.05300 38.92900 45.33500
N  -11.46300 37.80900 43.72900
C  -12.61600 37.29000 44.17100
C  -12.65500 35.87200 44.07600
C  -11.48800 35.61400 43.39600
C  -10.80000 36.85100 43.17400
C  -13.56600 34.82800 44.57600
C  -10.67600 34.62000 42.72100
O  -10.79800 33.37100 42.65500
C  -9.39500 35.33900 41.99600
C  -8.24000 34.80400 42.75500
O  -7.75800 35.32700 43.72300
O  -7.74300 33.77900 42.06200
C  -6.53400 33.11900 42.57100
H  -7.35900 42.09600 41.56300
H  -12.87600 43.64800 44.52900
H  -14.52700 37.66900 45.11300
H  -6.96200 37.12900 41.42700
H  -6.89600 39.78900 40.22000
H  -4.99800 38.70300 41.70900
H  -5.68000 39.93200 42.68100
H  -5.15100 40.31100 41.02600
H  -7.57600 38.20800 38.86700
H  -9.01100 37.25500 39.36400
H  -7.99500 35.54000 38.68600
H  -6.81200 35.62200 39.94900
H  -8.83500 44.85300 40.89600
H  -7.45800 43.99300 41.37000
H  -7.98800 45.53300 42.28300
H  -12.71100 45.78100 44.31600
H  -11.50500 46.97600 44.98700
H  -11.62200 45.24600 45.52500
H  -15.00900 42.10700 44.22200
H  -15.01200 40.10300 46.44300
H  -15.26300 42.23000 47.21100
H  -15.44600 43.55900 46.07700
H  -13.81900 43.04300 46.66900
H  -15.94900 39.34100 43.62900
H  -16.73600 40.76900 44.50800
H  -17.07500 37.93700 44.88400
H  -18.06300 39.33000 45.25100
H  -16.78300 38.96300 46.39100
H  -13.95900 35.22900 45.51000
H  -13.06100 33.91900 44.90200
H  -14.29600 34.66100 43.78400
H  -9.27300 35.11200 40.93600
H  -5.66600 33.77100 42.66500
H  -6.39800 32.43900 41.72900
H  -6.69700 32.66600 43.54900
Mg -0.65700 43.04100 26.82300
C  1.61000 42.90200 29.38400
C  -3.04000 41.81000 28.90100
C  -2.60600 42.57200 24.00300
C  2.11200 43.49400 24.49900
N  -0.65100 42.23600 28.86000
C  0.33200 42.51600 29.77600
C  -0.14500 42.36000 31.26300
C  -1.46900 41.53100 30.99700
C  -1.83200 41.94200 29.50700
C  -1.30200 40.00800 31.11300
C  -0.39600 43.57100 32.13100
C  0.49400 43.57700 33.40100
H  0.22300 42.50000 34.41400
N  -2.58100 42.48700 26.54500
C  -3.45100 42.08200 27.55000
C  -4.83000 41.96600 26.98700
C  -4.60900 42.21800 25.56100
C  -3.20400 42.42900 25.34900
C  -6.01800 41.48000 27.81400
C  -5.60500 42.30700 24.52700
O  -5.43100 42.47900 23.31500
C  -7.00900 42.01800 24.89700
N  -0.32600 43.28600 24.48600
C  -1.33700 43.05500 23.64500
C  -0.88800 43.16300 22.11400
C  0.61100 43.64200 22.32500
C  0.86600 43.43300 23.86500
C  -1.15000 41.92000 21.22900
C  0.76200 45.23800 21.93600
C  1.71700 45.56800 20.71100
N  1.44300 43.24300 26.90000
C  2.37300 43.49200 25.86600
C  3.66600 43.57700 26.48600
C  3.45600 43.30200 27.85800
C  2.08600 43.08400 28.03700
C  4.98000 43.92500 25.81500
C  4.05100 43.11600 29.18500
O  5.24600 43.12300 29.42500
C  2.87200 42.94900 30.21000
C  3.01400 41.68500 30.98800
O  2.89700 40.54300 30.51100
O  3.25500 42.00700 32.27100
C  3.55100 40.85000 33.12700
H  -3.82500 41.65000 29.64300
H  -3.22900 42.32300 23.14100
H  3.00200 43.62300 23.88000
H  0.58100 41.73900 31.78800
H  -2.30000 41.82500 31.63800
H  -0.25800 39.71800 30.99500
H  -1.80500 39.55200 30.26000
H  -1.63700 39.71200 32.10700
H  -1.40900 43.52500 32.52900
H  -0.31000 44.53000 31.62000
H  0.18600 44.53000 33.83200
H  1.55900 43.63300 33.17600
H  -6.28800 40.48900 27.44800
H  -6.85700 42.07000 27.44600
H  -5.86800 41.40400 28.89100
H  -6.96300 40.94500 25.08500
H  -7.66000 42.18300 24.03800
H  -7.16300 42.81400 25.62500
H  -1.36200 44.00400 21.60900
H  1.28200 43.06800 21.68600
H  -1.91400 42.38600 20.60700
H  -1.64900 41.11900 21.77500
H  -0.26600 41.69300 20.63300
H  1.18900 45.71800 22.81600
H  -0.17700 45.71400 21.65100
H  2.07700 44.59200 20.38500
H  2.59900 46.13500 21.01200
H  1.28700 46.09500 19.86000
H  5.27500 43.10100 25.16400
H  5.78200 43.99600 26.55000
H  5.12000 44.87800 25.30600
H  2.94200 43.84400 30.82900
H  3.57400 41.25600 34.13800
H  4.48200 40.33300 32.89100
H  2.74500 40.11700 33.14700

