158

Mg 40.64100 9.15600 29.17200
C  42.80300 10.68800 31.50500
C  38.66300 7.95000 31.69100
C  38.82500 7.58100 26.77800
C  42.88100 10.31200 26.64800
N  40.92800 9.05400 31.41100
C  41.66100 10.01600 32.08800
C  41.12600 10.21100 33.46200
C  39.97600 9.14500 33.54800
C  39.81300 8.66100 32.09600
C  40.19400 7.98300 34.55100
C  40.65400 11.65300 33.87300
C  39.99500 11.80500 35.29000
H  40.82100 12.64100 36.33700
N  39.02500 7.77000 29.25900
C  38.23600 7.53900 30.37300
C  37.10600 6.75500 29.96300
C  37.20000 6.69000 28.48600
C  38.40000 7.34000 28.11500
C  36.03600 6.11200 30.89900
C  36.19500 6.16600 27.42400
O  36.49800 5.80100 26.29900
C  34.75400 5.86300 27.86200
N  40.96400 8.84500 27.12900
C  39.91800 8.33200 26.35100
C  40.18600 8.65000 24.81400
C  41.52400 9.41100 24.82700
C  41.83000 9.55300 26.25600
C  40.04300 7.36900 23.98400
C  41.47800 10.69400 23.91800
C  40.86400 11.91000 24.61800
N  42.48800 10.27400 29.03600
C  43.23600 10.68500 27.96200
C  44.29900 11.50200 28.40300
C  44.15800 11.48700 29.77200
C  43.09100 10.72500 30.10100
C  45.37900 12.17700 27.50200
C  44.79800 12.02600 30.92100
O  45.79100 12.74400 30.97600
C  43.85200 11.63100 32.18200
C  44.49200 11.12400 33.30600
O  44.95100 9.97700 33.48400
O  44.47300 12.08400 34.34200
C  45.13700 11.54100 35.53300
H  38.03500 7.81200 32.57400
H  38.22300 7.17300 25.96300
H  43.44800 10.79600 25.85000
H  41.95000 9.95000 34.12500
H  39.03500 9.62000 33.82400
H  41.25900 7.84800 34.73800
H  39.74300 6.99900 34.42900
H  39.73400 8.31300 35.48300
H  39.91200 11.99300 33.15000
H  41.52900 12.29600 33.77500
H  39.86600 10.80700 35.71000
H  38.98300 12.20000 35.20700
H  36.38900 5.84300 31.89500
H  35.52900 5.27200 30.42500
H  35.24100 6.85600 30.95300
H  34.52300 6.60400 28.62800
H  34.78600 4.83800 28.23300
H  34.04800 5.96000 27.03800
H  39.46200 9.36600 24.42200
H  42.21400 8.65500 24.45200
H  39.00600 7.24200 23.67300
H  40.51100 6.59200 24.58900
H  40.63500 7.49600 23.07800
H  40.91500 10.55900 22.99400
H  42.53300 10.86400 23.70300
H  41.50300 12.79300 24.60600
H  40.76900 11.71100 25.68500
H  39.95000 12.26700 24.14400
H  44.95700 12.65400 26.61800
H  46.17500 11.48700 27.21900
H  45.87900 12.99200 28.02700
H  43.27500 12.51000 32.47000
H  46.18400 11.26800 35.40100
H  44.59900 10.65600 35.87300
H  45.21000 12.20900 36.39200
Mg -4.44400 25.97600 26.18100
C  -3.05300 27.29500 29.15800
C  -6.37100 23.82300 28.03100
C  -5.15600 24.16300 23.37700
C  -2.06400 27.82400 24.41500
N  -4.56400 25.46500 28.40300
C  -4.02000 26.27200 29.41000
C  -4.58500 25.87600 30.82300
C  -5.46800 24.62000 30.43800
C  -5.51800 24.62900 28.89400
C  -4.84400 23.34900 31.01700
C  -5.36400 27.12600 31.40300
C  -5.11600 27.47900 32.88100
H  -4.91500 26.23500 33.84200
N  -5.72500 24.38700 25.73300
C  -6.49800 23.73800 26.61300
C  -7.47600 22.88900 25.89600
C  -7.06700 22.94700 24.53700
C  -5.89700 23.82700 24.47700
C  -8.53900 22.12200 26.60300
C  -7.62700 22.11000 23.35900
O  -7.19200 22.11700 22.23300
C  -8.78700 21.22900 23.66500
N  -3.66600 25.97500 24.17900
C  -4.18900 25.16500 23.17500
C  -3.36400 25.43400 21.88500
C  -2.50200 26.70700 22.14800
C  -2.74900 26.84900 23.66000
C  -2.44500 24.28000 21.33300
C  -2.80500 27.94900 21.36400
C  -1.60600 28.20400 20.39100
N  -2.86600 27.28800 26.62300
C  -2.13700 28.06100 25.81600
C  -1.32900 28.99500 26.57700
C  -1.55900 28.71100 27.89200
C  -2.62100 27.67600 27.88300
C  -0.42200 30.01400 25.92600
C  -1.25300 28.99400 29.27800
O  -0.41900 29.68900 29.82200
C  -2.29800 28.17400 30.17500
C  -1.42700 27.37900 31.01400
O  -0.65000 26.50300 30.65500
O  -1.73600 27.61200 32.31700
C  -0.94300 26.93400 33.30700
H  -7.02700 23.13100 28.56100
H  -5.35600 23.67900 22.41900
H  -1.38000 28.42700 23.81500
H  -3.73800 25.58900 31.44600
H  -6.53100 24.73000 30.65500
H  -4.25700 22.92300 30.20300
H  -5.61400 22.61400 31.25200
H  -4.22600 23.61500 31.87500
H  -6.42200 26.99500 31.17400
H  -4.91700 27.91600 30.79900
H  -6.04300 27.99300 33.13700
H  -4.28900 28.18900 32.88400
H  -9.50700 22.33300 26.14800
H  -8.60700 22.41900 27.65000
H  -8.38300 21.04700 26.51500
H  -8.63100 20.51500 24.47400
H  -9.28400 20.81700 22.78700
H  -9.53800 21.93900 24.01200
H  -4.13800 25.67400 21.15600
H  -1.44100 26.46300 22.19400
H  -1.49500 24.49700 20.84600
H  -3.07000 23.82700 20.56300
H  -2.14800 23.66700 22.18400
H  -2.94000 28.84100 21.97500
H  -3.67900 27.73000 20.75000
H  -0.77400 27.50300 20.45600
H  -1.16400 29.18700 20.55000
H  -2.05200 28.28100 19.39900
H  -0.80900 30.44200 25.00200
H  0.61800 29.75500 25.72500
H  -0.31800 30.77300 26.70100
H  -2.98700 28.87400 30.64700
H  -1.09700 25.85700 33.36800
H  -1.37300 27.34200 34.22200
H  0.11900 27.17500 33.30700

