158

Mg 47.23500 25.27000 28.52400
C  47.43800 27.62100 31.19200
C  46.00000 23.01700 30.73600
C  47.50600 22.87500 26.13500
C  48.88400 27.49200 26.45000
N  46.89800 25.39300 30.74400
C  46.92500 26.42000 31.65000
C  46.41300 25.99300 33.02300
C  46.28500 24.38600 32.86400
C  46.41800 24.27500 31.32600
C  47.36100 23.51700 33.57800
C  45.05500 26.74400 33.34200
C  45.00600 27.37000 34.76300
H  43.96300 26.86100 35.78000
N  46.63300 23.28200 28.38200
C  46.07500 22.51600 29.42400
C  45.68700 21.22700 28.89800
C  46.11400 21.23500 27.50000
C  46.80200 22.50300 27.29300
C  44.97100 20.12500 29.73400
C  45.93200 20.16700 26.38500
O  46.38900 20.21500 25.26300
C  44.99800 19.04900 26.60900
N  48.25500 25.08900 26.66500
C  48.13500 24.10500 25.80000
C  48.69400 24.40700 24.38500
C  49.01000 25.87300 24.50600
C  48.69500 26.22100 25.99900
C  49.87000 23.46100 23.96900
C  48.18700 26.76300 23.54000
C  46.66900 26.87800 23.79200
N  48.02900 27.16600 28.68200
C  48.57200 27.98600 27.75300
C  48.59300 29.36300 28.31100
C  48.23200 29.26000 29.66100
C  47.88900 27.86700 29.83100
C  49.16700 30.56800 27.62200
C  48.03700 29.97800 30.91100
O  48.24700 31.16600 31.15900
C  47.54100 28.89600 31.92400
C  48.58400 28.79300 32.94700
O  49.65000 28.21500 32.82100
O  48.24400 29.32700 34.21900
C  49.09800 29.00500 35.35000
H  45.63000 22.25100 31.42100
H  47.74600 22.04800 25.46500
H  49.18100 28.30600 25.78600
H  47.17200 26.31200 33.73700
H  45.27700 24.12000 33.18200
H  47.94700 23.05400 32.78300
H  46.80100 22.79000 34.16500
H  48.03200 24.03800 34.26100
H  44.20100 26.06700 33.32300
H  44.83200 27.50300 32.59200
H  44.66300 28.40000 34.66200
H  46.00600 27.43900 35.19300
H  45.71700 19.35400 29.92600
H  44.03800 19.83500 29.25100
H  44.66000 20.44400 30.72900
H  45.12800 18.45200 27.51200
H  45.08700 18.52700 25.65700
H  43.94600 19.31700 26.71000
H  47.93100 24.19200 23.63600
H  50.08200 26.01900 24.37600
H  49.91100 22.62800 24.67100
H  50.88900 23.84300 24.00900
H  49.69100 23.07600 22.96500
H  48.35400 26.24200 22.59700
H  48.56200 27.78500 23.59400
H  46.09400 26.69800 22.88300
H  46.35100 27.90700 23.96200
H  46.39900 26.17100 24.57600
H  50.02600 30.15800 27.09100
H  49.55000 31.25300 28.37900
H  48.42500 30.99500 26.94800
H  46.56800 29.20500 32.30600
H  50.11200 28.76000 35.03400
H  48.67200 28.13900 35.85600
H  49.09700 29.86700 36.01700
Mg -1.90700 34.39900 26.66700
C  -3.30500 32.43900 29.32300
C  -0.23200 36.18600 28.98000
C  -1.46900 36.78000 24.29300
C  -3.89100 32.70300 24.43000
N  -1.98000 34.31300 28.92300
C  -2.49500 33.42600 29.79200
C  -2.03500 33.70100 31.21300
C  -1.08600 34.97100 30.99200
C  -1.08900 35.15900 29.52300
C  -1.44000 36.18200 31.82700
C  -1.34100 32.53800 31.96600
C  -1.97200 32.11500 33.36100
H  -0.94700 31.69500 34.37200
N  -0.79200 36.03800 26.61100
C  -0.13500 36.63100 27.67900
C  0.70400 37.75800 27.19700
C  0.24100 38.01300 25.83900
C  -0.75800 36.93200 25.54000
C  1.74800 38.51100 28.16300
C  0.67600 39.05000 24.81100
O  0.13900 39.25100 23.73400
C  1.82600 39.90100 25.17600
N  -2.74800 34.80900 24.69600
C  -2.46500 35.89200 23.93500
C  -2.99200 35.75900 22.46100
C  -3.74800 34.36400 22.50800
C  -3.51400 33.91000 23.97300
C  -3.84400 36.98300 21.93800
C  -3.11300 33.29100 21.49100
C  -1.78000 32.65700 21.93000
N  -3.35800 32.89000 26.77000
C  -3.98200 32.22600 25.77100
C  -4.73000 31.06800 26.32700
C  -4.51200 31.18300 27.72100
C  -3.59500 32.23200 27.96300
C  -5.61200 30.15800 25.57000
C  -4.84700 30.58300 28.99100
O  -5.53000 29.60400 29.15800
C  -4.07400 31.35600 30.09100
C  -5.08300 31.78100 31.13500
O  -5.73600 32.75000 31.03000
O  -4.99300 30.89900 32.15600
C  -5.83400 31.22200 33.35300
H  0.27400 36.73400 29.77700
H  -1.32900 37.52200 23.50500
H  -4.52100 32.19300 23.69800
H  -2.98600 33.94800 31.68500
H  -0.12400 34.54200 31.27500
H  -1.54200 37.08100 31.22000
H  -0.62500 36.37400 32.52500
H  -2.36500 36.08100 32.39500
H  -0.28600 32.78300 32.08900
H  -1.30800 31.58200 31.44300
H  -2.55200 31.19300 33.37000
H  -2.63100 32.91200 33.70600
H  2.76500 38.31900 27.82100
H  1.51700 38.18700 29.17800
H  1.65600 39.59400 28.08500
H  1.44200 40.61300 25.90600
H  2.23200 40.38400 24.28600
H  2.57100 39.20300 25.55800
H  -2.13500 35.81100 21.78900
H  -4.81400 34.38400 22.28100
H  -4.86200 36.71800 21.65400
H  -3.22100 37.41400 21.15400
H  -3.91100 37.71400 22.74400
H  -2.85200 33.68500 20.50900
H  -3.91800 32.57900 21.30600
H  -1.10700 32.96000 21.12700
H  -1.83000 31.57900 22.08400
H  -1.29000 33.07900 22.80700
H  -6.18000 29.63700 26.34100
H  -5.11800 29.42300 24.93400
H  -6.25300 30.60300 24.80800
H  -3.48600 30.55300 30.53400
H  -5.92600 30.35800 34.01100
H  -6.78000 31.65300 33.02500
H  -5.21900 31.94400 33.89000

