158

Mg -2.33500 17.42800 27.08800
C  -2.45800 15.27300 29.84300
C  -2.82100 20.07800 29.14300
C  -2.45900 19.43500 24.31600
C  -2.26200 14.73300 24.91400
N  -2.74600 17.65900 29.30700
C  -2.50700 16.63100 30.23400
C  -2.51500 17.17200 31.72700
C  -2.89500 18.65900 31.40100
C  -2.81800 18.79500 29.87900
C  -4.07800 19.36100 32.11200
C  -1.16200 16.98200 32.53700
C  -0.99300 17.80100 33.82800
H  -0.89700 17.08600 35.18500
N  -2.43400 19.44400 26.81500
C  -2.64500 20.42000 27.79800
C  -2.60100 21.73300 27.26100
C  -2.43200 21.54100 25.81600
C  -2.38300 20.08900 25.60100
C  -2.65500 22.93000 28.07800
C  -2.33200 22.64900 24.79400
O  -2.04100 22.40500 23.62700
C  -2.31500 24.18200 25.21500
N  -2.53700 17.10500 24.97000
C  -2.49000 18.11300 24.03800
C  -2.55300 17.51500 22.62500
C  -2.09900 16.02900 22.79900
C  -2.43900 15.94500 24.28600
C  -4.00200 17.68300 21.98700
C  -0.61200 15.87200 22.34700
C  0.51500 15.32400 23.30900
N  -2.52500 15.36200 27.25200
C  -2.40800 14.36500 26.27900
C  -2.42300 13.07700 26.91800
C  -2.54800 13.37200 28.32700
C  -2.48500 14.74000 28.44400
C  -2.45100 11.88200 26.28900
C  -2.63600 12.81600 29.59800
O  -2.68700 11.64200 30.00800
C  -2.66900 14.00300 30.69200
C  -1.73300 13.65100 31.74200
O  -0.50400 13.70300 31.69500
O  -2.45800 13.19500 32.87000
C  -1.62800 12.33300 33.75800
H  -2.83600 20.86400 29.90100
H  -2.52000 20.09300 23.44700
H  -2.01800 13.91300 24.23600
H  -3.39000 16.74200 32.21400
H  -2.00800 19.22400 31.68800
H  -3.70300 20.19700 32.70300
H  -4.61400 18.62200 32.70800
H  -4.86100 19.66100 31.41400
H  -0.41400 17.38600 31.85500
H  -0.91300 15.96700 32.84700
H  -1.92000 18.36800 33.91300
H  -0.19200 18.52400 33.66900
H  -2.04300 23.76700 27.74000
H  -2.21600 22.71400 29.05200
H  -3.67600 23.30900 28.12400
H  -3.18300 24.39200 25.84000
H  -2.26300 24.72700 24.27300
H  -1.35400 24.29000 25.71900
H  -1.77300 18.00200 22.04000
H  -2.71700 15.32900 22.23600
H  -4.65600 18.25500 22.64500
H  -4.39800 16.74000 21.61200
H  -3.79800 18.22800 21.06500
H  -0.20000 16.78100 21.90900
H  -0.70700 15.10000 21.58400
H  0.07000 15.24700 24.30100
H  1.34900 16.02500 23.33400
H  0.92000 14.35900 23.00600
H  -2.25100 11.05600 26.97300
H  -1.70600 11.67700 25.52100
H  -3.36900 11.78800 25.70900
H  -3.65400 14.02000 31.16000
H  -1.11100 12.99800 34.44900
H  -0.91000 11.69600 33.24200
H  -2.34200 11.74400 34.33400
Mg -11.12100 16.50600 42.06500
C  -8.23600 14.54100 41.69900
C  -9.46900 18.89800 40.33300
C  -14.09900 18.03400 41.70800
C  -12.74400 13.53300 43.17400
N  -9.15300 16.63600 41.01300
C  -8.14000 15.74700 41.03700
C  -6.94600 16.20200 40.22200
C  -7.26900 17.69700 40.01700
C  -8.71800 17.78100 40.50800
C  -6.28100 18.69500 40.62400
C  -6.73600 15.36400 38.94200
C  -5.43500 14.54300 38.90900
H  -4.54900 14.78500 37.64500
N  -11.60800 18.30700 41.27900
C  -10.76600 19.22100 40.66200
C  -11.49400 20.51700 40.38000
C  -12.83000 20.23700 40.69800
C  -12.92900 18.82200 41.22700
C  -10.83100 21.62900 39.68400
C  -14.00600 21.13300 40.39000
O  -13.85600 22.29300 39.92400
C  -15.40800 20.65600 40.60500
N  -13.15200 15.79000 42.34800
C  -14.17600 16.66100 42.11800
C  -15.57400 15.94400 42.34500
C  -15.18700 14.69700 43.22000
C  -13.59100 14.62500 42.91200
C  -16.67400 16.88400 42.91600
C  -16.04800 13.44000 43.06900
C  -16.69400 12.88700 44.31900
N  -10.64600 14.41900 42.47100
C  -11.40000 13.39100 42.88600
C  -10.48400 12.25700 43.14800
C  -9.23000 12.71300 42.66100
C  -9.40500 14.00200 42.28300
C  -10.87900 10.93800 43.76100
C  -7.91400 12.22600 42.43100
O  -7.43300 11.10500 42.56800
C  -7.19400 13.40400 41.74600
C  -6.08100 13.83600 42.71600
O  -6.21600 14.17800 43.89800
O  -4.87400 13.76200 42.07300
C  -3.73200 14.12100 42.92800
H  -8.89600 19.67600 39.82500
H  -15.08100 18.51000 41.66600
H  -13.05800 12.60000 43.64600
H  -6.15300 16.11500 40.96400
H  -7.28900 17.92400 38.95100
H  -5.49600 18.15100 41.14900
H  -6.70700 19.41900 41.31900
H  -5.81900 19.23100 39.79500
H  -6.73800 16.09600 38.13400
H  -7.57300 14.68500 38.78100
H  -5.73700 13.49800 38.84300
H  -4.81000 14.82200 39.75700
H  -9.79000 21.66600 40.00500
H  -11.16200 22.65000 39.87600
H  -10.85600 21.53800 38.59800
H  -16.16800 21.30700 40.17500
H  -15.62200 20.60400 41.67300
H  -15.50300 19.69700 40.09600
H  -15.84700 15.58000 41.35500
H  -15.25600 15.01300 44.26100
H  -16.37100 17.48300 43.77500
H  -17.53600 16.40400 43.38000
H  -16.98800 17.54900 42.11200
H  -15.52600 12.56400 42.68200
H  -16.88000 13.59700 42.38400
H  -16.42100 11.83700 44.41700
H  -17.77300 13.02300 44.25300
H  -16.35100 13.41100 45.21200
H  -10.43400 11.08200 44.74500
H  -10.31100 10.25000 43.13400
H  -11.94600 10.72200 43.70100
H  -6.85500 13.06800 40.76600
H  -2.87400 14.25400 42.26900
H  -3.46500 13.37700 43.67800
H  -4.05500 15.06100 43.37600

