158

Mg 1.44800 8.00200 26.48500
C  1.93700 10.22200 29.10900
C  2.18800 5.35700 28.65600
C  1.53200 6.08100 23.77900
C  1.28900 10.78500 24.36300
N  1.98700 7.77600 28.63100
C  2.02800 8.89000 29.52000
C  2.01500 8.39800 30.98000
C  2.29900 6.83600 30.75700
C  2.08500 6.63600 29.27600
C  3.62500 6.27600 31.20200
C  0.71800 8.76100 31.71900
C  0.57200 7.99500 33.09300
H  1.81600 7.61000 33.87200
N  1.82100 6.00900 26.30300
C  2.19200 5.08600 27.26200
C  2.29700 3.80900 26.63300
C  2.11700 3.98700 25.22200
C  1.82100 5.43900 25.04500
C  2.51600 2.49500 27.38500
C  2.34900 3.00400 24.10900
O  2.26600 3.32200 22.91400
C  2.68700 1.59700 24.41900
N  1.27400 8.35400 24.32000
C  1.28500 7.37900 23.45800
C  1.16900 7.91600 21.94900
C  1.15600 9.45000 22.17800
C  1.25500 9.53400 23.72200
C  2.33200 7.29600 21.02900
C  -0.10700 10.11900 21.62300
C  0.11700 11.13300 20.47600
N  1.53200 10.13500 26.61000
C  1.41300 11.08900 25.67700
C  1.57000 12.41400 26.25300
C  1.78200 12.12700 27.66600
C  1.76100 10.73200 27.82800
C  1.52200 13.79900 25.56300
C  1.93200 12.74400 28.93300
O  2.03300 13.92300 29.21900
C  1.91600 11.49300 29.92000
C  3.10300 11.66800 30.71100
O  4.28000 11.61400 30.22200
O  2.81400 11.61000 32.08400
C  3.90400 11.83400 33.07000
H  2.32100 4.52300 29.34900
H  1.60000 5.50000 22.85700
H  1.16500 11.67000 23.73500
H  2.81600 8.90100 31.52200
H  1.49500 6.32100 31.28300
H  4.23800 5.89700 30.38400
H  3.51000 5.45800 31.91200
H  4.17300 7.14300 31.57200
H  -0.09700 8.47300 31.05500
H  0.87000 9.83300 31.84800
H  0.01700 7.08400 32.87300
H  -0.05800 8.56700 33.77500
H  2.66200 2.61800 28.45800
H  3.37000 1.94900 26.98400
H  1.67100 1.80700 27.40500
H  2.59000 0.90200 23.58500
H  2.09800 1.18600 25.23900
H  3.75200 1.62100 24.64900
H  0.24600 7.52800 21.51800
H  2.02000 9.87000 21.66200
H  2.97900 8.15600 20.85900
H  2.09300 6.79200 20.09300
H  2.94200 6.61000 21.61800
H  -0.66400 10.70100 22.35700
H  -0.77900 9.31900 21.31300
H  -0.14800 10.55400 19.59200
H  1.15700 11.45700 20.46500
H  -0.50900 12.01100 20.63400
H  0.70300 13.93000 24.85700
H  2.49500 13.88600 25.07800
H  1.55700 14.76000 26.07600
H  1.01400 11.52200 30.53100
H  4.90700 11.99400 32.67400
H  3.98300 10.96300 33.72100
H  3.65300 12.67300 33.71900
Mg -2.39500 34.82100 26.45600
C  -3.41100 32.89800 29.35600
C  -1.26600 37.29800 28.54700
C  -2.36900 36.95100 23.83000
C  -4.27500 32.62600 24.46400
N  -2.41700 35.11200 28.70900
C  -2.79100 34.19500 29.66800
C  -2.36800 34.72000 31.14700
C  -1.71900 36.07600 30.78700
C  -1.71900 36.11800 29.25200
C  -2.29600 37.34100 31.47400
C  -1.44400 33.73200 32.02400
C  -1.97800 33.32600 33.44400
H  -0.97900 33.29200 34.51900
N  -1.75300 36.80400 26.23700
C  -1.35100 37.64700 27.20100
C  -0.76300 38.90200 26.56300
C  -1.20200 38.71100 25.14500
C  -1.87900 37.43500 24.99200
C  0.01900 39.99300 27.32400
C  -1.06000 39.74400 24.07600
O  -1.60200 39.75500 23.01200
C  -0.13400 40.87600 24.25300
N  -3.32200 34.90100 24.37700
C  -3.01200 35.81300 23.52500
C  -3.40000 35.38400 22.10900
C  -3.81400 33.83900 22.33400
C  -3.82700 33.75000 23.83200
C  -4.40000 36.36000 21.47200
C  -2.98500 32.86900 21.41500
C  -1.58100 32.49500 22.04400
N  -3.55900 33.05300 26.75100
C  -4.18100 32.23300 25.84100
C  -4.68600 31.07300 26.57400
C  -4.41400 31.32700 27.91400
C  -3.77900 32.56700 27.98200
C  -5.57600 30.03700 26.09900
C  -4.59600 30.87700 29.25900
O  -5.14100 29.87300 29.72100
C  -3.97800 31.89600 30.27800
C  -5.06200 32.34900 31.27700
O  -6.11900 32.96500 30.97700
O  -4.81100 31.88600 32.51100
C  -5.84200 31.97700 33.54100
H  -0.77800 38.08100 29.13200
H  -2.37000 37.53400 22.90700
H  -4.83500 31.90500 23.86500
H  -3.22000 34.88200 31.80700
H  -0.68100 36.17000 31.10800
H  -2.84600 37.02600 32.36100
H  -3.09900 37.90600 31.00100
H  -1.55200 38.07400 31.78300
H  -0.44600 34.15700 32.13300
H  -1.17300 32.83000 31.47500
H  -2.31900 32.29200 33.48000
H  -2.89000 33.89000 33.63900
H  -0.60600 40.88200 27.40800
H  0.98100 40.31400 26.92300
H  0.26500 39.68500 28.34000
H  -0.56600 41.54700 24.99500
H  0.07800 41.45200 23.35200
H  0.85000 40.49600 24.52700
H  -2.53200 35.37800 21.45000
H  -4.85900 33.73300 22.04200
H  -5.09900 35.78900 20.86100
H  -3.88800 37.00200 20.75500
H  -4.98100 36.83800 22.26000
H  -2.80300 33.43900 20.50400
H  -3.51300 31.92700 21.26400
H  -0.87200 33.18600 21.58600
H  -1.33500 31.49900 21.67700
H  -1.49000 32.69800 23.11100
H  -5.30400 29.82800 25.06400
H  -6.60400 30.39300 26.16800
H  -5.54200 29.06900 26.59800
H  -3.04300 31.50700 30.68000
H  -5.63100 31.24500 34.32000
H  -6.83400 31.78800 33.13200
H  -5.81000 32.94000 34.04900

