158

Mg 1.82000 -2.12200 44.63000
C  5.18600 -1.67200 44.46600
C  1.41300 0.42100 42.33200
C  -1.41600 -2.77800 44.65700
C  2.50600 -5.12100 46.49400
N  3.17100 -0.69600 43.58800
C  4.49100 -0.72800 43.73800
C  5.17000 0.16400 42.70900
C  3.95700 0.99300 42.04000
C  2.76600 0.23400 42.71700
C  3.89300 2.50600 42.36700
C  5.92400 -0.68400 41.56900
C  7.37000 -0.20600 41.37900
H  7.87200 0.23300 39.98200
N  0.19900 -1.19500 43.70500
C  0.19800 -0.20500 42.80600
C  -1.15400 0.13600 42.42800
C  -2.00700 -0.74500 43.13900
C  -1.06100 -1.66500 43.89200
C  -1.57200 1.27900 41.52700
C  -3.48600 -0.79600 42.98700
O  -4.09600 -0.06300 42.16400
C  -4.35900 -1.64800 43.92600
N  0.68300 -3.70600 45.42400
C  -0.72500 -3.69800 45.38200
C  -1.30300 -4.96700 46.16100
C  0.03100 -5.57100 46.77700
C  1.15200 -4.75900 46.24800
C  -2.32300 -4.46600 47.20600
C  0.15200 -7.03400 46.51000
C  0.55400 -7.84200 47.74300
N  3.47200 -3.18500 45.40300
C  3.61800 -4.36000 46.11700
C  4.97600 -4.62900 46.35000
C  5.71000 -3.56800 45.75400
C  4.73600 -2.77600 45.19000
C  5.56000 -5.81900 47.10100
C  6.96800 -2.95500 45.54500
O  8.12800 -3.31900 45.82100
C  6.67600 -1.70800 44.67300
C  7.15600 -0.45900 45.39500
O  6.63000 -0.01500 46.39100
O  8.22600 0.07500 44.81500
C  8.59700 1.46000 45.17800
H  1.23400 1.15900 41.54800
H  -2.48300 -3.00700 44.61200
H  2.72100 -6.00200 47.10200
H  5.76000 0.92700 43.21800
H  3.99300 0.94900 40.95200
H  4.47300 2.75700 43.25500
H  2.88600 2.73700 42.71600
H  4.23300 3.09700 41.51700
H  5.41000 -0.52300 40.62100
H  5.88300 -1.76200 41.72200
H  7.87300 -1.10600 41.73100
H  7.54300 0.60500 42.08600
H  -2.13700 0.87400 40.68900
H  -0.70300 1.79700 41.12000
H  -2.31400 1.90100 42.02800
H  -3.94200 -1.57400 44.93000
H  -4.37700 -2.68100 43.57800
H  -5.38300 -1.28100 43.99100
H  -1.79400 -5.68600 45.50500
H  -0.00500 -5.25100 47.81900
H  -2.79600 -3.52800 46.91700
H  -1.90000 -4.48400 48.21100
H  -3.08800 -5.22500 47.04000
H  0.86200 -7.27800 45.71900
H  -0.74400 -7.52900 46.13500
H  -0.02000 -8.76800 47.79100
H  0.53400 -7.22900 48.64500
H  1.57100 -8.21800 47.63300
H  6.57500 -5.59900 47.43100
H  5.46900 -6.69300 46.45700
H  5.07000 -6.00600 48.05700
H  7.22400 -1.97600 43.76900
H  8.06200 2.13700 44.51300
H  9.65000 1.69600 45.03000
H  8.36800 1.67100 46.22300
Mg -12.03300 16.94900 41.60000
C  -9.15200 14.96300 41.11900
C  -10.45300 19.48200 40.12000
C  -15.00300 18.50700 41.23800
C  -13.70700 13.96000 42.64900
N  -10.04100 17.13400 40.55300
C  -9.01600 16.23300 40.54100
C  -7.71500 16.81500 40.04100
C  -8.12000 18.34700 40.02900
C  -9.66600 18.30300 40.29500
C  -7.47400 19.30400 41.03800
C  -7.24000 16.15600 38.74400
C  -5.76900 15.84700 38.57400
H  -5.09100 16.39400 37.28600
N  -12.61700 18.78500 40.66800
C  -11.81600 19.74500 40.25200
C  -12.56400 20.94400 39.97100
C  -13.92100 20.69100 40.24400
C  -13.94500 19.28700 40.78100
C  -11.99100 22.23300 39.44900
C  -15.11000 21.64800 40.18100
O  -14.98900 22.87000 40.03600
C  -16.53500 21.16800 40.38900
N  -14.05700 16.31300 41.92500
C  -15.14100 17.21200 41.66100
C  -16.44700 16.37600 41.67800
C  -16.05000 14.98200 42.29500
C  -14.52200 15.05500 42.22900
C  -17.64900 17.15300 42.35800
C  -16.73400 13.81500 41.43000
C  -17.10300 12.47800 42.07500
N  -11.57900 14.92500 41.99800
C  -12.30700 13.88900 42.45800
C  -11.47700 12.73000 42.66200
C  -10.24600 13.12700 42.15600
C  -10.36000 14.48500 41.69000
C  -11.87600 11.37800 43.17700
C  -8.87800 12.69600 41.84900
O  -8.36400 11.59900 42.03400
C  -8.12300 13.84500 41.05600
C  -6.88900 14.15900 41.83300
O  -6.83500 14.83900 42.84100
O  -5.69700 13.66900 41.26500
C  -4.48700 14.34400 41.81100
H  -9.88900 20.38700 39.88600
H  -16.00800 18.93500 41.24400
H  -14.30300 13.05600 42.79100
H  -6.87400 16.64100 40.71300
H  -8.01900 18.76500 39.02700
H  -6.75000 18.68900 41.57100
H  -8.27700 19.69400 41.66300
H  -6.94300 20.24400 40.88400
H  -7.54100 16.84500 37.95500
H  -7.74300 15.21300 38.52700
H  -5.69400 14.76100 38.63300
H  -5.28500 16.26200 39.45800
H  -11.47400 21.94800 38.53200
H  -11.22000 22.50800 40.16800
H  -12.64300 23.03600 39.10600
H  -17.24200 21.96600 40.16200
H  -16.62000 20.90700 41.44400
H  -16.76300 20.28100 39.79800
H  -16.64000 16.33400 40.60600
H  -16.32200 14.98600 43.35000
H  -18.43800 17.31200 41.62300
H  -17.42000 18.06700 42.90600
H  -17.91300 16.56300 43.23500
H  -15.96200 13.50800 40.72500
H  -17.55300 14.22800 40.84200
H  -16.53100 11.68900 41.58800
H  -18.15000 12.22100 41.91600
H  -16.86000 12.42400 43.13700
H  -12.09900 11.62100 44.21600
H  -11.19600 10.54400 43.00300
H  -12.78700 11.21800 42.60100
H  -7.89100 13.57300 40.02600
H  -4.55900 15.42300 41.94300
H  -3.69600 13.99800 41.14400
H  -4.27400 13.98600 42.81800

