158

Mg 41.86500 41.21700 26.88400
C  41.39600 43.70400 29.23000
C  42.43400 38.97600 29.47500
C  42.74600 39.01500 24.58200
C  41.51500 43.66900 24.36000
N  42.02800 41.37900 29.07500
C  41.74000 42.49000 29.81100
C  41.81800 42.23900 31.30600
C  42.29000 40.74100 31.30600
C  42.18400 40.25900 29.83700
C  43.73900 40.53900 31.77500
C  40.46800 42.57900 32.00400
C  40.63100 43.29100 33.31800
H  39.63100 42.98200 34.45800
N  42.26700 39.22600 27.01700
C  42.49700 38.48500 28.18000
C  42.89700 37.15200 27.76000
C  42.93700 37.12400 26.33800
C  42.69300 38.56400 25.94300
C  42.89200 36.00800 28.70200
C  43.11600 35.86100 25.35300
O  43.17600 35.99300 24.12200
C  43.22000 34.41300 25.85800
N  42.20800 41.32500 24.77800
C  42.46400 40.26400 24.00600
C  42.51300 40.54700 22.44300
C  42.03000 42.05900 22.47200
C  41.95600 42.42600 23.95700
C  43.81800 40.28900 21.67900
C  40.71800 42.32700 21.69100
C  39.52100 41.46300 22.29700
N  41.56600 43.26200 26.73400
C  41.39100 44.09200 25.68000
C  40.99000 45.37800 26.20700
C  41.01900 45.28200 27.57300
C  41.38600 43.97900 27.79900
C  40.59300 46.56300 25.35000
C  40.85900 46.05500 28.78000
O  40.79200 47.32700 28.91900
C  40.99200 45.02700 29.90200
C  42.21800 45.60200 30.63500
O  43.37500 45.52600 30.36500
O  41.77900 46.14600 31.81800
C  42.73900 47.06700 32.44400
H  42.62100 38.27700 30.29300
H  43.07100 38.26400 23.85900
H  41.44200 44.42000 23.57100
H  42.51400 42.94700 31.75700
H  41.59300 40.25600 31.98900
H  43.89500 39.88800 32.63600
H  44.25300 41.47000 32.01600
H  44.42300 40.17000 31.01100
H  39.87800 41.66700 32.10300
H  39.90300 43.19900 31.30800
H  40.48200 44.32100 32.99500
H  41.60300 43.15400 33.79200
H  43.89200 35.57800 28.75100
H  42.26300 35.22500 28.28000
H  42.56700 36.32400 29.69300
H  42.19300 34.19800 26.15300
H  43.69000 34.31800 26.83600
H  43.58800 33.64100 25.18200
H  41.79900 39.86300 21.98400
H  42.77800 42.72000 22.03500
H  44.63000 40.05600 22.36800
H  44.04100 41.16300 21.06600
H  43.58100 39.52100 20.94300
H  40.87300 41.89200 20.70400
H  40.48800 43.39300 21.68200
H  39.74100 41.04300 23.27800
H  39.24900 40.64800 21.62600
H  38.60700 42.01900 22.50100
H  39.69300 46.94700 25.83000
H  40.33100 46.33200 24.31700
H  41.17000 47.48700 25.30700
H  40.06100 45.16900 30.44900
H  43.22800 46.44000 33.18900
H  42.21000 47.89300 32.92000
H  43.55300 47.44500 31.82400
Mg -9.66500 18.14900 42.74100
C  -6.25200 17.28000 42.69400
C  -8.81100 21.33900 41.85200
C  -12.92800 18.78600 42.52200
C  -10.26700 14.66600 43.05400
N  -7.62900 19.15400 42.25700
C  -6.39000 18.63100 42.48600
C  -5.38700 19.70600 42.29000
C  -6.25700 20.99900 42.10000
C  -7.69000 20.51700 42.09900
C  -6.01200 22.22700 42.99700
C  -4.24200 19.44700 41.24400
C  -4.69100 18.69000 39.95100
H  -4.10000 19.16400 38.60400
N  -10.73000 19.89800 42.27400
C  -10.20000 21.09500 41.96000
C  -11.27000 22.04900 41.74700
C  -12.50300 21.33600 41.91500
C  -12.08200 19.93600 42.25600
C  -11.05700 23.40000 41.21100
C  -13.89600 21.84100 41.68100
O  -14.11800 23.06000 41.56100
C  -15.02600 20.94000 41.55600
N  -11.33000 16.89000 42.37900
C  -12.55900 17.40200 42.61000
C  -13.64600 16.31000 42.95200
C  -12.72200 15.02000 42.92500
C  -11.33900 15.52000 42.74800
C  -14.32500 16.54100 44.33200
C  -12.99000 14.03400 41.72500
C  -13.80100 12.72900 42.12500
N  -8.51200 16.23900 42.96600
C  -8.90700 14.98600 43.03000
C  -7.83300 14.08300 43.19800
C  -6.72600 14.95400 43.13300
C  -7.18800 16.25400 42.85500
C  -7.90100 12.55500 43.29300
C  -5.29600 15.00200 43.14200
O  -4.44600 14.13900 43.17800
C  -4.90900 16.47000 42.88200
C  -4.07900 16.95600 43.95000
O  -2.91700 17.19800 43.88300
O  -4.85500 17.26900 45.05800
C  -4.20500 18.04600 46.11000
H  -8.48200 22.33600 41.55200
H  -14.00200 18.81200 42.71800
H  -10.58900 13.65400 43.30500
H  -4.95500 19.79400 43.28700
H  -6.06200 21.29300 41.06900
H  -6.94000 22.67200 43.35700
H  -5.74500 23.01700 42.29600
H  -5.31000 22.08400 43.81800
H  -3.42200 18.88600 41.69400
H  -3.73800 20.38500 41.01200
H  -5.76400 18.87400 39.91800
H  -4.51400 17.61700 40.02400
H  -10.99300 24.09200 42.05000
H  -11.87700 23.75400 40.58600
H  -10.19300 23.53900 40.56100
H  -14.86400 20.09100 40.89200
H  -15.89600 21.42700 41.11700
H  -15.27900 20.70700 42.59100
H  -14.48400 16.35000 42.25600
H  -12.84500 14.45700 43.85100
H  -14.04700 15.81300 45.09300
H  -15.41200 16.54800 44.25600
H  -14.21600 17.53100 44.77600
H  -12.10400 13.78700 41.13900
H  -13.70800 14.60100 41.13200
H  -14.73500 12.79100 41.56700
H  -14.12100 12.72700 43.16700
H  -13.15900 11.85800 41.99500
H  -7.37900 12.14200 42.43000
H  -8.94000 12.22900 43.34900
H  -7.49400 12.23200 44.25100
H  -4.39200 16.53100 41.92400
H  -3.19400 18.32400 45.81100
H  -4.09400 17.51300 47.05400
H  -4.68700 19.00900 46.28200

