158

Mg -3.18200 17.47100 26.75100
C  -2.97100 15.53100 29.77600
C  -3.19800 20.21600 28.69100
C  -3.53900 19.14100 23.98500
C  -3.38900 14.40900 24.94600
N  -2.98600 17.84900 28.95900
C  -2.87400 16.94300 29.96700
C  -2.83000 17.59200 31.35100
C  -2.70100 19.11800 30.96100
C  -3.09200 19.09800 29.49300
C  -3.57000 20.17800 31.73300
C  -1.70300 16.97700 32.35500
C  -1.07300 17.94400 33.45500
H  -1.01700 17.46900 34.87200
N  -3.18700 19.46600 26.41200
C  -3.28800 20.48100 27.30300
C  -3.36000 21.79300 26.57800
C  -3.27700 21.48600 25.19700
C  -3.31900 19.93600 25.16800
C  -3.29800 23.17400 27.08400
C  -3.04500 22.29300 23.91600
O  -2.88900 21.81500 22.77900
C  -3.00400 23.77200 24.01800
N  -3.52600 16.84800 24.79300
C  -3.74800 17.72900 23.77500
C  -3.93100 17.10600 22.42100
C  -3.74800 15.59000 22.76700
C  -3.52600 15.57900 24.27200
C  -5.09200 17.61000 21.58200
C  -2.74000 14.74700 21.84000
C  -1.30900 15.18700 22.08400
N  -3.33800 15.34700 27.20000
C  -3.34000 14.23600 26.34600
C  -3.40100 13.04200 27.17600
C  -3.45400 13.50000 28.51400
C  -3.25900 14.93000 28.44600
C  -3.45400 11.62800 26.77500
C  -3.46000 13.04800 29.85600
O  -3.59800 11.91100 30.29600
C  -3.13500 14.29600 30.74600
C  -1.91300 13.95500 31.48100
O  -0.74300 14.02200 31.06900
O  -2.34000 13.45600 32.70300
C  -1.25400 13.12300 33.58300
H  -3.05900 21.19800 29.14700
H  -3.78200 19.79500 23.14600
H  -3.45000 13.56700 24.25300
H  -3.80100 17.50300 31.83900
H  -1.63600 19.28500 31.12100
H  -2.84400 20.79500 32.26300
H  -4.24300 19.67200 32.42500
H  -4.14900 20.84900 31.09800
H  -0.92700 16.63600 31.67000
H  -2.13900 16.13600 32.89300
H  -1.43500 18.97000 33.38400
H  -0.04700 17.97500 33.08800
H  -2.43000 23.54200 26.53700
H  -3.16600 23.29200 28.15900
H  -4.14400 23.74200 26.69800
H  -3.90300 24.16900 24.49000
H  -3.01500 24.26800 23.04800
H  -2.07400 24.00900 24.53400
H  -3.04100 17.50700 21.93700
H  -4.69300 15.06200 22.63900
H  -5.72900 16.78500 21.26400
H  -4.81400 18.24900 20.74400
H  -5.75700 18.19400 22.21900
H  -3.00800 14.82600 20.78600
H  -2.92000 13.69000 22.03400
H  -0.94000 15.61900 21.15400
H  -0.69100 14.34500 22.39600
H  -1.30400 15.99200 22.81800
H  -2.46700 11.22500 26.54500
H  -4.28000 11.73900 26.07300
H  -3.87300 11.10600 27.63500
H  -3.94400 14.48300 31.45200
H  -1.67400 12.18700 33.95100
H  -1.36200 13.83600 34.40100
H  -0.22200 13.12500 33.23300
Mg 24.06600 -4.00900 46.30900
C  26.37800 -1.68600 44.93000
C  21.62800 -2.66800 44.41300
C  22.31300 -6.80100 46.76100
C  26.84900 -5.50900 47.92800
N  24.10800 -2.46400 44.76300
C  25.04700 -1.54600 44.41900
C  24.39400 -0.54000 43.51700
C  22.88500 -0.53700 43.77100
C  22.85600 -1.97000 44.33500
C  22.27800 0.52000 44.70400
C  24.73900 -0.89400 42.07000
C  24.99000 0.31400 41.14300
H  24.61500 0.07500 39.68300
N  22.15200 -4.65700 45.69700
C  21.34800 -3.97100 44.86400
C  20.17100 -4.77200 44.61400
C  20.31400 -5.94000 45.37600
C  21.63600 -5.84900 46.01700
C  19.06600 -4.38900 43.64600
C  19.30800 -7.01100 45.43300
O  18.25100 -6.81800 44.86300
C  19.35900 -8.23700 46.19300
N  24.48900 -5.91600 47.28600
C  23.58600 -6.89800 47.34900
C  24.19000 -8.14900 48.00100
C  25.63100 -7.65100 48.44800
C  25.66600 -6.25800 47.84100
C  23.41900 -8.80300 49.14500
C  26.83200 -8.61400 47.95200
C  27.53400 -8.18000 46.62200
N  26.08500 -3.56300 46.67000
C  27.09700 -4.25300 47.33200
C  28.42400 -3.61600 47.17200
C  28.13500 -2.59300 46.25100
C  26.74100 -2.60900 45.91000
C  29.72100 -3.94100 47.92700
C  28.75200 -1.50900 45.49800
O  29.91800 -1.14100 45.56400
C  27.55700 -0.81800 44.62100
C  27.47200 0.67500 44.88200
O  26.62600 1.25300 45.54900
O  28.48100 1.26700 44.14300
C  28.69100 2.73800 44.21300
H  20.76400 -2.12000 44.03100
H  21.78900 -7.75100 46.89000
H  27.68500 -5.89200 48.51900
H  24.79500 0.46400 43.65800
H  22.32600 -0.49100 42.83700
H  22.95600 1.37300 44.68300
H  22.21300 0.20900 45.74700
H  21.34300 0.87600 44.27100
H  23.91000 -1.51700 41.73400
H  25.58000 -1.58100 41.97600
H  26.04100 0.55100 41.31000
H  24.41400 1.11300 41.61000
H  19.01600 -5.17100 42.88900
H  19.12400 -3.37200 43.25900
H  18.19000 -4.43400 44.29300
H  18.46700 -8.81100 45.94200
H  19.35800 -7.98000 47.25200
H  20.22100 -8.85000 45.92900
H  24.40700 -8.95100 47.29500
H  25.69300 -7.51600 49.52800
H  22.44800 -8.34000 49.32200
H  23.96300 -8.86700 50.08700
H  23.19900 -9.78900 48.73600
H  26.52200 -9.62700 47.69800
H  27.52100 -8.76800 48.78200
H  26.81800 -7.78600 45.90000
H  27.99400 -9.06600 46.18300
H  28.32000 -7.44700 46.80000
H  29.66000 -4.92100 48.40000
H  30.02500 -3.19300 48.65900
H  30.45200 -4.00700 47.12200
H  27.87200 -0.89300 43.58100
H  27.72100 3.19500 44.01800
H  29.40200 3.03700 43.44300
H  29.06300 3.03800 45.19200

