158

Mg -11.00900 38.05500 41.99600
C  -9.29500 35.03400 41.49600
C  -8.54000 39.69500 40.27800
C  -12.99900 40.71400 41.90200
C  -13.72900 36.13100 43.25800
N  -9.25100 37.45400 40.99400
C  -8.67800 36.17800 40.92700
C  -7.46200 36.15900 40.00200
C  -7.10700 37.64500 39.84200
C  -8.36700 38.34500 40.40000
C  -5.74100 38.14400 40.44700
C  -7.87400 35.36400 38.70100
C  -7.19200 34.08000 38.34500
H  -6.53900 34.07500 36.99000
N  -10.77300 39.92500 41.25900
C  -9.65500 40.48000 40.69200
C  -9.91900 41.85000 40.29300
C  -11.20800 42.17600 40.71500
C  -11.70200 40.90000 41.31500
C  -8.97000 42.74400 39.53100
C  -11.83600 43.54700 40.53500
O  -11.25900 44.45800 39.93200
C  -13.16700 43.91600 41.08800
N  -13.08200 38.33900 42.58300
C  -13.64200 39.54000 42.37200
C  -15.09300 39.55500 42.76300
C  -15.34400 38.12500 43.25900
C  -13.95100 37.51700 43.03600
C  -15.51100 40.78500 43.60100
C  -16.49800 37.33600 42.66200
C  -17.29300 36.39300 43.57700
N  -11.36800 36.01600 42.50900
C  -12.47000 35.43100 43.17200
C  -12.11400 34.06200 43.47300
C  -10.87600 33.86500 42.80100
C  -10.45900 35.09000 42.30900
C  -12.97600 33.08100 44.32900
C  -9.89200 32.89100 42.53100
O  -9.94900 31.69600 42.78600
C  -8.78400 33.58600 41.59600
C  -7.44000 33.51000 42.17000
O  -6.52700 32.76700 41.74500
O  -7.33700 34.27800 43.31600
C  -6.05200 34.04900 43.98600
H  -7.74000 40.30200 39.85000
H  -13.65800 41.58500 41.90700
H  -14.59800 35.60200 43.65400
H  -6.64000 35.61000 40.46000
H  -7.14700 37.83400 38.76900
H  -5.17400 37.26300 40.74900
H  -5.87400 38.89100 41.22900
H  -5.13700 38.66700 39.70600
H  -7.88200 36.05600 37.85800
H  -8.89600 35.02800 38.87500
H  -7.82500 33.19600 38.26900
H  -6.37700 33.88900 39.04400
H  -9.19400 43.01900 38.50000
H  -8.02900 42.19400 39.54900
H  -8.65500 43.64800 40.05200
H  -13.83000 43.27700 40.50500
H  -13.23600 45.00100 41.01200
H  -13.32100 43.62400 42.12700
H  -15.64600 39.63100 41.82700
H  -15.46500 38.30200 44.32700
H  -14.65700 41.40000 43.88600
H  -16.16400 40.52500 44.43400
H  -16.03500 41.42100 42.88700
H  -16.08700 36.72900 41.85600
H  -17.24100 38.01400 42.24100
H  -18.33800 36.69600 43.65300
H  -16.85700 36.41600 44.57500
H  -17.20900 35.38300 43.17500
H  -12.29100 32.59000 45.02000
H  -13.34000 32.25700 43.71400
H  -13.76300 33.58600 44.88900
H  -8.78800 33.07000 40.63600
H  -5.87600 34.71300 44.83300
H  -5.17200 34.05700 43.34300
H  -6.10200 33.06000 44.44100
Mg -13.25300 16.79200 42.23800
C  -10.45600 14.41700 41.71000
C  -11.32300 19.05900 40.43700
C  -16.02800 18.51200 41.96200
C  -15.01600 13.97200 43.55000
N  -11.24400 16.66600 41.11400
C  -10.24500 15.67600 41.11400
C  -8.96700 16.12800 40.50400
C  -9.23900 17.62700 40.09200
C  -10.66200 17.82400 40.68900
C  -8.17700 18.72600 40.58400
C  -8.46500 15.11900 39.37200
C  -6.98500 14.56900 39.59800
H  -5.85700 15.11300 38.60500
N  -13.62900 18.68500 41.43500
C  -12.66000 19.45700 40.74400
C  -13.34000 20.71300 40.43800
C  -14.72500 20.63500 40.94700
C  -14.90400 19.21000 41.41400
C  -12.72000 21.79500 39.77300
C  -15.74300 21.74600 40.98500
O  -15.40200 22.81600 40.56800
C  -17.10100 21.61100 41.70900
N  -15.36100 16.19000 42.37800
C  -16.25500 17.19700 42.42200
C  -17.53100 16.74700 42.96900
C  -17.13400 15.35500 43.68100
C  -15.79300 15.08400 43.16300
C  -18.30300 17.78200 43.86300
C  -18.11100 14.17500 43.63000
C  -18.52800 13.57500 45.01600
N  -12.87100 14.63600 42.74000
C  -13.69000 13.74000 43.24100
C  -12.92100 12.54200 43.55300
C  -11.63000 12.75900 43.00700
C  -11.65600 14.07800 42.42800
C  -13.45600 11.25300 44.13600
C  -10.29000 12.22600 42.87600
O  -9.79300 11.13200 43.17500
C  -9.49300 13.25700 41.95100
C  -8.18900 13.46300 42.55900
O  -7.95600 14.33500 43.37200
O  -7.31800 12.48800 42.10000
C  -6.04900 12.50800 42.83100
H  -10.65500 19.74700 39.91500
H  -16.87800 19.07700 41.57300
H  -15.45800 13.16700 44.14000
H  -8.37100 16.06900 41.41500
H  -9.27000 17.72200 39.00600
H  -8.58700 19.35400 41.37500
H  -7.99000 19.33200 39.69700
H  -7.19800 18.36200 40.89400
H  -8.53700 15.59800 38.39600
H  -9.06300 14.20900 39.33800
H  -6.94900 13.48200 39.51600
H  -6.62500 14.81900 40.59600
H  -13.28400 21.91600 38.84800
H  -11.65800 21.69600 39.55000
H  -12.90800 22.72100 40.31700
H  -17.52600 22.61100 41.79100
H  -16.91900 21.18600 42.69600
H  -17.60700 20.91100 41.04500
H  -18.20100 16.57800 42.12500
H  -16.82600 15.58600 44.70100
H  -18.82200 17.41000 44.74700
H  -19.16000 18.25900 43.38700
H  -17.62200 18.58200 44.15200
H  -17.80100 13.41900 42.90800
H  -19.06200 14.43100 43.16400
H  -19.44300 14.03100 45.39500
H  -17.78200 13.88500 45.74700
H  -18.64300 12.49100 45.01700
H  -14.26600 10.98600 43.45800
H  -13.93300 11.31500 45.11300
H  -12.72500 10.44400 44.14400
H  -9.32000 12.59800 41.10000
H  -5.35200 13.23400 42.41000
H  -5.65800 11.54900 42.49000
H  -6.12700 12.61500 43.91300

