158

Mg -10.14700 39.34000 40.75200
C  -8.82200 36.31300 39.88100
C  -7.19700 40.92800 39.86000
C  -11.71000 42.35100 40.81900
C  -13.27500 37.77100 41.43100
N  -8.32500 38.74100 39.56900
C  -8.00100 37.43700 39.48200
C  -6.58400 37.34800 38.81400
C  -5.93900 38.68500 39.42000
C  -7.20500 39.53600 39.69800
C  -5.21700 38.51300 40.77000
C  -6.74800 37.38100 37.20800
C  -6.03100 36.26000 36.51700
H  -6.78000 35.70100 35.29700
N  -9.53200 41.30200 40.38400
C  -8.26100 41.75100 40.06600
C  -8.25400 43.15400 39.94600
C  -9.59800 43.58100 40.20800
C  -10.34400 42.41100 40.57100
C  -6.96800 43.88300 39.62100
C  -10.09900 44.96500 40.29000
O  -9.29100 45.82100 39.96700
C  -11.43400 45.42400 40.81500
N  -12.30800 39.97200 40.99300
C  -12.60400 41.27400 41.04800
C  -14.06700 41.50300 41.07000
C  -14.64300 40.02400 41.19700
C  -13.34700 39.17500 41.27200
C  -14.65800 42.44600 42.20400
C  -15.51700 39.54300 40.00700
C  -16.95600 39.49500 40.21200
N  -10.90400 37.37800 40.81300
C  -12.14100 36.86700 41.21900
C  -12.03600 35.42300 41.24000
C  -10.71100 35.18600 40.73200
C  -10.16300 36.35900 40.38900
C  -13.01100 34.42800 41.75500
C  -9.73700 34.11800 40.41000
O  -9.86700 32.89500 40.44200
C  -8.47400 34.84000 39.67200
C  -7.21400 34.33500 40.32700
O  -6.87500 34.50100 41.45200
O  -6.54200 33.54800 39.39000
C  -5.35400 32.80200 39.76200
H  -6.23900 41.42200 39.68600
H  -12.31200 43.25800 40.73300
H  -14.23600 37.28800 41.61800
H  -6.06900 36.43000 39.09600
H  -5.30700 39.19500 38.69300
H  -4.26300 39.04000 40.78500
H  -4.94600 37.47700 40.97400
H  -5.89300 38.87600 41.54500
H  -6.29100 38.28400 36.80500
H  -7.81500 37.35600 36.98700
H  -5.77400 35.40900 37.14800
H  -5.09200 36.68800 36.16500
H  -6.92400 44.36400 38.64400
H  -6.04700 43.33900 39.83200
H  -7.06300 44.74100 40.28600
H  -12.18100 45.53300 40.02900
H  -11.40600 46.44900 41.18600
H  -11.75700 44.85000 41.68300
H  -14.48600 42.09200 40.25300
H  -15.13400 39.97000 42.16900
H  -14.53900 43.47800 41.87300
H  -14.00300 42.31900 43.06600
H  -15.70900 42.27800 42.44100
H  -15.24300 38.53000 39.71200
H  -15.39800 40.20900 39.15200
H  -17.25800 39.79200 41.21600
H  -17.27100 38.45100 40.20500
H  -17.41900 39.92500 39.32300
H  -12.61700 33.41900 41.63400
H  -13.86900 34.50100 41.08700
H  -13.22500 34.51300 42.82000
H  -8.41000 34.66500 38.59800
H  -4.69400 32.78900 38.89500
H  -5.55200 31.80600 40.15700
H  -4.84800 33.27200 40.60500
Mg -5.57500 25.17300 25.93200
C  -4.25500 26.52900 28.80200
C  -7.77200 23.32800 27.72400
C  -6.30600 23.47800 23.05200
C  -3.15700 27.14400 24.10600
N  -5.78000 24.83800 28.05700
C  -5.23300 25.56200 29.08300
C  -5.84400 25.12600 30.41800
C  -6.82500 24.04600 30.02200
C  -6.85400 24.08000 28.49200
C  -6.46100 22.63600 30.66000
C  -6.52900 26.40100 31.03100
C  -6.52900 26.64700 32.52800
H  -6.01700 25.47100 33.43100
N  -6.99000 23.71500 25.43600
C  -7.82400 23.08600 26.37500
C  -8.57400 22.08300 25.69300
C  -8.21700 22.17000 24.25100
C  -7.07700 23.12800 24.20800
C  -9.65700 21.31400 26.31200
C  -8.74600 21.46200 22.97400
O  -8.40600 21.78400 21.83400
C  -9.75400 20.46000 23.17000
N  -4.73200 25.22200 23.93200
C  -5.25300 24.41200 22.93400
C  -4.47300 24.74900 21.58500
C  -3.89200 26.12700 21.95100
C  -3.85800 26.16300 23.43500
C  -3.42600 23.72000 21.07100
C  -4.47300 27.43600 21.36300
C  -3.47300 28.11900 20.46500
N  -4.01300 26.57300 26.32800
C  -3.21800 27.31500 25.49600
C  -2.44200 28.27900 26.31600
C  -2.75500 27.97600 27.65000
C  -3.73100 26.90500 27.56800
C  -1.44900 29.37500 25.80800
C  -2.50500 28.38700 29.06300
O  -1.73900 29.18700 29.57400
C  -3.45600 27.41300 29.83500
C  -2.77500 26.53400 30.83200
O  -2.15800 25.53700 30.56400
O  -2.88800 27.07400 32.09500
C  -1.99500 26.35300 33.13000
H  -8.57500 22.84700 28.28700
H  -6.48300 22.90900 22.13700
H  -2.57200 27.81000 23.46900
H  -5.09000 24.79900 31.13300
H  -7.85100 24.28600 30.30000
H  -6.37500 21.87200 29.88700
H  -7.27300 22.23600 31.26700
H  -5.58300 22.63900 31.30500
H  -7.59300 26.37200 30.79700
H  -6.22400 27.31300 30.51800
H  -7.57500 26.74500 32.81600
H  -5.91800 27.53700 32.68000
H  -9.19300 20.50700 26.87900
H  -10.36900 20.91400 25.59100
H  -10.19700 21.97800 26.98700
H  -9.81000 19.78900 22.31200
H  -10.71600 20.85300 23.49700
H  -9.43400 19.78100 23.96000
H  -5.22200 24.74000 20.79300
H  -2.81700 26.03300 21.79300
H  -2.37600 23.91200 21.28800
H  -3.58100 23.53300 20.00900
H  -3.60500 22.86300 21.72000
H  -4.67400 28.11100 22.19500
H  -5.37700 27.09700 20.85800
H  -3.00400 28.97900 20.94300
H  -3.96000 28.38700 19.52700
H  -2.61500 27.52400 20.15000
H  -0.70300 29.54700 26.58400
H  -1.76500 30.34300 25.41900
H  -0.92200 28.84000 25.01800
H  -4.05800 28.12200 30.40300
H  -2.14300 25.27500 33.06300
H  -2.14300 26.73500 34.14000
H  -0.92900 26.55400 33.02200

