158

Mg 16.98900 -1.01400 27.34200
C  16.25400 0.92400 30.09900
C  19.16600 -2.87600 29.32200
C  18.40200 -2.45500 24.54900
C  15.33000 1.19700 25.28700
N  17.72500 -0.81900 29.41000
C  17.14600 -0.05700 30.41900
C  17.65600 -0.43100 31.78900
C  18.76000 -1.54000 31.51700
C  18.56900 -1.75400 29.92300
C  20.26900 -1.26200 31.89300
C  16.48900 -0.89200 32.71300
C  16.32600 -0.23400 34.01400
H  17.56700 0.49200 34.66900
N  18.41500 -2.57900 26.98400
C  19.12500 -3.27700 27.97400
C  19.74700 -4.42200 27.38900
C  19.53000 -4.33600 25.93900
C  18.78700 -3.06200 25.75600
C  20.57100 -5.43900 28.20900
C  19.89400 -5.25400 24.82900
O  19.74900 -4.86800 23.65100
C  20.69200 -6.63800 25.07600
N  16.85800 -0.69600 25.24500
C  17.49600 -1.40700 24.28500
C  17.06000 -1.02500 22.84700
C  15.99600 0.05300 23.09000
C  16.09900 0.28200 24.65100
C  18.13600 -0.66000 21.81800
C  14.55400 -0.21300 22.51200
C  14.14400 0.77600 21.44500
N  15.81400 0.64300 27.59700
C  15.16500 1.42700 26.67300
C  14.46300 2.43700 27.38900
C  14.74000 2.25700 28.77800
C  15.61700 1.14400 28.84400
C  13.59000 3.49700 26.70200
C  14.60800 2.80900 30.14400
O  14.00700 3.81500 30.49900
C  15.52000 1.89100 31.05200
C  16.48700 2.76900 31.84700
O  17.53400 3.15400 31.48800
O  15.90600 3.11100 33.05700
C  16.44700 4.30700 33.69400
H  19.79000 -3.49500 29.97100
H  18.75500 -2.91200 23.62200
H  14.82600 1.82100 24.54600
H  18.06000 0.46600 32.25700
H  18.49100 -2.44800 32.05700
H  20.61200 -2.21800 32.28900
H  20.28500 -0.63100 32.78100
H  20.82800 -0.91300 31.02500
H  16.72600 -1.93700 32.90800
H  15.54500 -1.00700 32.18100
H  15.97800 -0.96800 34.74100
H  15.54400 0.51300 33.87600
H  20.32800 -6.50000 28.15200
H  20.57500 -5.21000 29.27400
H  21.62100 -5.26800 27.96900
H  21.58100 -6.53400 25.69800
H  21.04800 -7.15700 24.18600
H  19.95600 -7.32700 25.48900
H  16.46600 -1.86600 22.49100
H  16.40600 1.02200 22.80600
H  17.96700 0.33800 21.41500
H  18.23000 -1.52600 21.16200
H  19.07700 -0.55600 22.35700
H  13.80600 -0.01300 23.28000
H  14.36300 -1.23000 22.17200
H  14.88600 1.51700 21.14900
H  13.22900 1.26400 21.78200
H  13.79100 0.22000 20.57600
H  13.54600 3.41600 25.61600
H  13.95900 4.48800 26.96500
H  12.59700 3.34800 27.12700
H  14.91300 1.40900 31.81800
H  17.32000 4.02400 34.28100
H  15.80400 4.69200 34.48600
H  16.71000 5.06500 32.95600
Mg -6.24200 25.54300 25.09700
C  -4.98200 26.73800 28.22100
C  -8.00000 23.24600 26.83500
C  -7.27900 24.55600 22.19200
C  -3.76800 27.53600 23.53300
N  -6.41700 25.06500 27.25200
C  -5.92500 25.76700 28.32600
C  -6.47000 25.22700 29.68800
C  -7.13300 23.85500 29.15200
C  -7.26500 24.12600 27.65400
C  -6.31800 22.56300 29.45300
C  -7.52800 26.14600 30.21500
C  -7.82700 26.03900 31.73200
H  -6.99000 25.03200 32.41700
N  -7.54800 24.16600 24.57900
C  -8.14300 23.25000 25.43200
C  -8.97800 22.38900 24.69500
C  -8.80900 22.81300 23.28800
C  -7.89500 23.95200 23.26700
C  -9.79200 21.29500 25.39600
C  -9.38800 22.22100 22.07000
O  -9.28600 22.68600 20.98300
C  -10.12700 20.90400 22.27300
N  -5.54500 25.84900 23.21700
C  -6.17800 25.36000 22.09500
C  -5.52900 25.74200 20.75600
C  -4.53600 26.79200 21.24500
C  -4.67600 26.78600 22.76900
C  -4.95100 24.61500 19.89200
C  -4.66400 28.21800 20.59800
C  -3.35500 28.93400 20.30300
N  -4.76300 26.96800 25.71400
C  -3.76300 27.60800 24.90500
C  -2.87900 28.34500 25.84300
C  -3.37500 28.09900 27.13700
C  -4.45000 27.21600 26.99700
C  -1.79100 29.21300 25.46300
C  -3.21000 28.37500 28.52200
O  -2.37900 29.03200 29.11800
C  -4.32900 27.52400 29.34500
C  -3.44100 26.64000 30.24400
O  -2.70700 25.73000 29.91600
O  -3.66900 27.05800 31.54900
C  -2.88000 26.30600 32.55700
H  -8.62500 22.49000 27.31600
H  -7.55700 24.14000 21.22100
H  -2.94800 28.01500 22.99300
H  -5.68400 25.05800 30.42400
H  -8.14000 23.61500 29.49400
H  -5.31900 22.83500 29.79600
H  -6.25600 22.01700 28.51200
H  -6.86100 21.93400 30.15900
H  -8.50900 26.02800 29.75600
H  -7.18900 27.13100 29.89300
H  -8.90400 25.87700 31.76800
H  -7.80300 27.00800 32.23000
H  -9.40900 20.37000 24.96500
H  -10.80900 21.43400 25.02800
H  -9.97600 21.32100 26.47000
H  -9.47300 20.16100 22.73100
H  -10.53900 20.61300 21.30700
H  -11.04000 21.06900 22.84600
H  -6.25800 26.20100 20.08900
H  -3.50900 26.53000 20.98900
H  -3.86100 24.63900 19.91900
H  -5.34700 24.68400 18.87900
H  -5.23100 23.60600 20.19500
H  -5.23300 28.87600 21.25600
H  -5.26000 28.14200 19.68900
H  -3.64800 29.66900 19.55400
H  -2.57200 28.26200 19.95000
H  -3.02700 29.56000 21.13200
H  -1.19200 28.80900 24.64700
H  -1.25200 29.49500 26.36800
H  -2.35200 30.06300 25.07500
H  -4.97500 28.15000 29.96000
H  -3.26900 25.28900 32.60200
H  -3.05200 26.76100 33.53200
H  -1.82600 26.33600 32.28100

