158

Mg 16.54100 -2.32000 27.77300
C  15.65700 -0.38400 30.43000
C  18.96200 -3.82600 29.93500
C  17.97100 -3.77400 25.12000
C  14.77100 -0.17600 25.58900
N  17.24500 -2.06700 29.89700
C  16.61900 -1.31600 30.80900
C  17.12700 -1.51500 32.24100
C  18.26600 -2.64400 32.05200
C  18.17800 -2.85500 30.50700
C  19.68400 -2.27100 32.64800
C  15.90600 -1.88700 33.21700
C  15.99800 -1.39200 34.68400
H  17.31600 -0.63200 35.16400
N  18.12900 -3.77700 27.56200
C  18.90800 -4.29500 28.57800
C  19.67300 -5.38200 27.99900
C  19.41800 -5.38700 26.54400
C  18.53900 -4.27800 26.31000
C  20.36900 -6.38900 28.92400
C  20.01300 -6.36200 25.53800
O  19.67900 -6.28600 24.42500
C  21.00800 -7.41100 25.98800
N  16.45600 -2.00400 25.71300
C  17.09500 -2.77500 24.82800
C  16.70200 -2.45800 23.31800
C  15.58600 -1.43400 23.54600
C  15.53400 -1.18700 25.05500
C  17.84800 -1.93200 22.50800
C  14.20100 -1.90000 22.92600
C  13.34600 -2.71200 23.93300
N  15.33700 -0.76600 27.92000
C  14.59100 0.00400 26.97500
C  13.84400 1.05000 27.61500
C  14.23000 0.93700 28.99700
C  15.13400 -0.17700 29.09500
C  13.03800 2.12500 26.85700
C  14.03400 1.53700 30.27900
O  13.19700 2.30200 30.68800
C  14.98900 0.72100 31.21200
C  15.92900 1.79500 31.68700
O  16.71000 2.37300 31.02800
O  15.76900 2.04000 33.02500
C  16.68700 3.00600 33.60600
H  19.63800 -4.33900 30.62100
H  18.29100 -4.33300 24.23800
H  14.20800 0.54900 24.99800
H  17.44100 -0.50000 32.48500
H  17.87600 -3.57700 32.46000
H  20.49800 -2.11700 31.94000
H  19.92900 -3.14000 33.25900
H  19.76500 -1.32600 33.18600
H  15.72100 -2.94900 33.05300
H  14.98600 -1.42700 32.85500
H  15.94100 -2.26300 35.33700
H  15.19400 -0.68200 34.87500
H  19.94700 -7.37900 28.75100
H  20.46900 -6.20200 29.99300
H  21.39700 -6.37900 28.56200
H  20.58700 -8.08600 26.73200
H  21.89400 -6.81500 26.20900
H  21.23700 -8.00800 25.10500
H  16.29700 -3.29000 22.74200
H  15.78600 -0.43500 23.15800
H  18.59100 -1.48400 23.16700
H  17.37900 -1.17900 21.87400
H  18.14100 -2.74700 21.84600
H  14.45000 -2.55000 22.08700
H  13.64900 -1.02600 22.57900
H  12.85400 -1.91700 24.49300
H  13.90000 -3.30300 24.66200
H  12.57700 -3.30100 23.43400
H  12.35200 2.66300 27.51100
H  12.45900 1.66700 26.05400
H  13.65600 2.90200 26.40800
H  14.31300 0.26800 31.93700
H  16.45000 3.97600 33.17000
H  17.65700 2.57400 33.36200
H  16.45000 3.19000 34.65500
Mg 43.78000 42.64800 26.22000
C  42.63200 44.82400 28.90500
C  45.03600 40.59900 28.51700
C  44.61700 40.57700 23.75800
C  42.79700 45.10200 23.90300
N  43.79900 42.75200 28.51700
C  43.25600 43.67400 29.35800
C  43.37600 43.18400 30.87100
C  44.30000 41.90200 30.66900
C  44.42000 41.67000 29.16500
C  45.67300 42.04600 31.42100
C  41.99000 42.92000 31.52300
C  41.63800 43.66200 32.84300
H  42.68900 43.55000 34.02300
N  44.76700 40.92400 26.13000
C  45.24800 40.25100 27.17300
C  46.09900 39.08700 26.74300
C  45.85000 38.98200 25.35800
C  45.04700 40.18000 25.00100
C  46.97900 38.32100 27.69600
C  46.41600 37.96800 24.31500
O  46.27400 38.10100 23.09400
C  47.09800 36.86300 24.89200
N  43.78400 42.86800 24.21500
C  44.13600 41.85100 23.34500
C  44.00800 42.27600 21.87900
C  43.07400 43.51000 22.02700
C  43.19500 43.83500 23.48600
C  45.36700 42.57600 21.15700
C  41.53100 43.20100 21.62100
C  41.03400 41.67800 21.88600
N  42.90700 44.54800 26.32900
C  42.65600 45.45900 25.31800
C  42.10300 46.64600 25.85500
C  42.13800 46.41500 27.21600
C  42.65900 45.16500 27.49000
C  41.49100 47.79900 25.17100
C  41.76000 46.97200 28.44600
O  41.26600 48.08700 28.63100
C  42.01800 45.94500 29.60100
C  43.01000 46.62400 30.54100
O  44.22800 46.63800 30.58400
O  42.31700 47.33100 31.51900
C  43.11800 47.94500 32.53600
H  45.42000 39.91000 29.27200
H  44.74700 39.83800 22.96400
H  42.33300 45.77600 23.18100
H  43.85900 44.04100 31.34000
H  43.84800 40.96600 30.99600
H  46.50700 42.16500 30.73000
H  45.70000 41.15800 32.05200
H  45.65200 42.89700 32.10200
H  41.81600 41.85300 31.66600
H  41.29700 43.22500 30.73900
H  40.71100 43.15800 33.11700
H  41.52600 44.74500 32.78500
H  46.60500 37.33100 27.95600
H  47.07200 38.88800 28.62300
H  47.97000 38.15300 27.27600
H  46.93700 36.06200 24.17100
H  46.58600 36.52000 25.79100
H  48.11500 37.23800 25.01200
H  43.47800 41.45000 21.40400
H  43.37700 44.31200 21.35200
H  45.22000 42.08600 20.19400
H  46.23200 42.17100 21.68100
H  45.47900 43.65500 21.05000
H  41.53300 43.33700 20.54000
H  40.82000 43.84900 22.13600
H  40.84800 41.14600 20.95300
H  40.15500 41.60000 22.52600
H  41.71700 41.07100 22.48000
H  41.99300 48.05100 24.23700
H  41.41700 48.63900 25.86200
H  40.50000 47.48300 24.84500
H  41.07200 45.60900 30.02700
H  43.73300 47.15500 32.96700
H  42.49400 48.31800 33.34800
H  43.69000 48.71600 32.02000

