158

Mg 47.65600 16.45300 28.77200
C  45.62200 15.98000 31.78100
C  49.79100 18.20600 30.72600
C  49.22100 17.28900 25.92800
C  45.02300 15.08200 26.89800
N  47.62500 17.06500 31.09100
C  46.78500 16.76000 32.05400
C  47.36500 17.20600 33.41900
C  48.66300 18.01400 33.01000
C  48.68800 17.85700 31.46600
C  48.81200 19.42800 33.52600
C  47.57900 15.98200 34.33700
C  47.91000 16.19400 35.80900
H  47.70200 17.63900 36.52000
N  49.34600 17.42500 28.37500
C  50.14300 18.18300 29.29900
C  51.35400 18.50700 28.64000
C  51.14100 18.21500 27.29100
C  49.81800 17.59700 27.13800
C  52.51300 19.14100 29.33700
C  52.09200 18.38100 26.01400
O  51.84100 17.96700 24.91200
C  53.47600 18.75600 26.22700
N  47.10900 16.29700 26.58500
C  47.97100 16.67800 25.61200
C  47.32200 16.39000 24.19600
C  46.14600 15.42300 24.53100
C  46.06400 15.57200 26.09100
C  46.76700 17.68500 23.59700
C  46.44800 13.93400 24.23700
C  45.73300 13.10600 23.13200
N  45.76800 15.68000 29.18900
C  44.82700 15.09400 28.28000
C  43.64800 14.62900 29.02700
C  43.96100 14.92500 30.33500
C  45.25000 15.49800 30.43700
C  42.37200 14.04200 28.34600
C  43.40100 14.85300 31.64000
O  42.36200 14.38000 32.08700
C  44.49000 15.46700 32.58500
C  43.88200 16.62800 33.31500
O  43.71300 17.71700 32.80000
O  43.61700 16.36800 34.66700
C  42.97700 17.49800 35.35700
H  50.54100 18.68100 31.36200
H  49.70500 17.48900 24.97000
H  44.18100 14.68700 26.32600
H  46.62200 17.83500 33.90800
H  49.51000 17.42000 33.35300
H  48.69700 20.19600 32.76200
H  49.79300 19.61400 33.96400
H  48.10000 19.51300 34.34700
H  48.32900 15.26800 33.99700
H  46.62900 15.44600 34.33000
H  48.88000 15.71900 35.95800
H  47.21200 15.52000 36.30500
H  52.36300 19.13600 30.41600
H  52.75900 20.15100 29.00900
H  53.38900 18.52300 29.13700
H  53.85100 17.84700 26.69800
H  53.46500 19.63300 26.87400
H  54.03800 19.08300 25.35200
H  48.02400 15.94300 23.49300
H  45.14700 15.65600 24.16200
H  47.67000 18.14700 23.19800
H  46.33100 18.32400 24.36500
H  46.09800 17.53900 22.75000
H  46.27400 13.29500 25.10200
H  47.52200 13.98400 24.05900
H  46.48400 12.73400 22.43400
H  44.79700 13.50100 22.73900
H  45.39500 12.11200 23.42500
H  42.57600 13.07400 27.88900
H  41.99200 14.74000 27.60100
H  41.58800 14.00800 29.10300
H  44.89500 14.74400 33.29400
H  42.62700 17.02500 36.27500
H  42.14200 17.89200 34.77900
H  43.63500 18.28600 35.72200
Mg 28.59400 56.68400 40.37800
C  26.76200 53.66000 39.82000
C  31.33400 55.03500 39.43100
C  30.10900 59.62400 40.29300
C  25.42500 58.21300 40.62300
N  28.91300 54.64400 39.44400
C  28.09400 53.53300 39.50100
C  28.88400 52.25600 39.16600
C  30.40100 52.78600 39.51400
C  30.23600 54.29500 39.36200
C  30.98000 52.29900 40.88900
C  28.58800 51.82300 37.66200
C  29.28600 52.51200 36.48700
H  28.28600 53.09500 35.44600
N  30.53300 57.30400 40.01200
C  31.54700 56.41400 39.63300
C  32.73600 57.17400 39.48100
C  32.46500 58.55600 39.84700
C  31.01600 58.54300 40.02400
C  34.12100 56.60600 39.05800
C  33.34900 59.75100 39.98500
O  34.56900 59.72600 39.76700
C  32.82800 61.16200 40.33100
N  27.83500 58.72700 40.36300
C  28.69100 59.77200 40.36700
C  27.85300 61.07700 40.57800
C  26.37400 60.57600 40.66200
C  26.55600 59.05900 40.51700
C  28.37800 62.04600 41.69100
C  25.38100 61.32300 39.71500
C  24.28300 62.21500 40.43900
N  26.45200 56.07500 40.26400
C  25.33600 56.81800 40.57200
C  24.18200 55.85000 40.66800
C  24.70700 54.62400 40.47700
C  26.05500 54.83200 40.12300
C  22.81700 56.24200 41.03300
C  24.41800 53.20000 40.46000
O  23.42200 52.60200 40.71900
C  25.81600 52.50700 39.98100
C  26.06500 51.54400 41.11300
O  26.93900 51.65400 41.96900
O  25.20000 50.51000 40.92800
C  25.37600 49.34600 41.79000
H  32.25000 54.45800 39.28600
H  30.59700 60.60000 40.26600
H  24.45900 58.70900 40.74200
H  28.70900 51.42800 39.85400
H  31.10700 52.47400 38.74400
H  31.51900 51.37100 40.69800
H  30.18000 51.99000 41.56200
H  31.53400 53.15500 41.27500
H  27.52800 52.04600 37.53900
H  28.82500 50.76700 37.53000
H  29.79200 51.76600 35.87400
H  30.14400 53.09900 36.81700
H  34.61700 57.33200 38.41300
H  33.94200 55.74800 38.41000
H  34.69500 56.36500 39.95300
H  32.32200 61.56400 39.45300
H  33.70800 61.76200 40.56700
H  32.20400 61.01000 41.21200
H  27.92300 61.64600 39.65000
H  26.05700 60.57700 41.70500
H  27.59700 62.40800 42.36000
H  28.91900 62.82300 41.15200
H  29.06300 61.58400 42.40200
H  24.92200 60.72700 38.92700
H  25.96100 62.03100 39.12300
H  23.27000 61.85000 40.26900
H  24.23100 63.18700 39.94800
H  24.40600 62.39500 41.50700
H  22.22400 55.38300 41.34800
H  22.27900 56.65100 40.17700
H  22.75400 56.93500 41.87300
H  25.68600 52.02100 39.01500
H  25.39200 49.77200 42.79300
H  26.28800 48.79300 41.56100
H  24.57100 48.61200 41.75700

