158

Mg 6.44500 55.33400 41.21000
C  3.97300 52.74900 41.06600
C  8.66200 53.15100 39.80900
C  8.77600 57.91900 41.07000
C  4.04300 57.56600 42.08700
N  6.22600 53.21900 40.39900
C  5.14400 52.36000 40.45700
C  5.53700 50.97500 39.87300
C  7.09100 51.14500 39.50900
C  7.34500 52.62300 39.96600
C  8.04200 50.14300 40.21500
C  4.75700 50.47600 38.63000
C  4.54300 48.88900 38.42600
H  5.10400 48.14900 37.16400
N  8.49900 55.50600 40.54900
C  9.21800 54.45400 40.00000
C  10.57500 54.91100 39.67600
C  10.57200 56.30600 39.96500
C  9.29800 56.68100 40.64200
C  11.60100 54.01700 39.09700
C  11.71300 57.23900 39.60000
O  12.83000 56.85900 39.16300
C  11.69300 58.71600 39.83400
N  6.44900 57.37200 41.54200
C  7.55200 58.24500 41.58900
C  7.12200 59.74500 41.87900
C  5.54300 59.60100 41.80300
C  5.28300 58.10100 41.74100
C  7.66600 60.26100 43.19000
C  4.76400 60.34600 40.63500
C  3.70300 61.36100 41.10600
N  4.46600 55.23100 41.68600
C  3.64300 56.24100 42.09200
C  2.39800 55.73700 42.49900
C  2.48800 54.31100 42.27100
C  3.72100 54.08700 41.59800
C  1.24000 56.65300 42.91900
C  1.75100 53.05700 42.31300
O  0.65400 52.71500 42.74000
C  2.71800 52.01300 41.57800
C  1.86900 51.37600 40.50100
O  1.18800 51.94700 39.58700
O  1.83100 50.01400 40.67300
C  0.97200 49.31100 39.76800
H  9.27700 52.32500 39.44400
H  9.49900 58.73700 41.03800
H  3.26900 58.29900 42.32200
H  5.50400 50.27200 40.70500
H  7.27200 51.07400 38.43700
H  8.63600 49.65500 39.44300
H  7.41600 49.32600 40.57300
H  8.55700 50.65000 41.03200
H  5.16400 51.02000 37.77800
H  3.77800 50.94400 38.73600
H  3.47300 48.68300 38.47000
H  5.04800 48.51300 39.31500
H  11.73700 54.29700 38.05300
H  11.33900 52.96100 39.15500
H  12.52500 54.23900 39.63200
H  12.52200 59.18400 39.30300
H  11.84100 58.83600 40.90700
H  10.77700 59.17500 39.46500
H  7.53000 60.40900 41.11800
H  5.02300 60.01800 42.66500
H  8.34800 59.53000 43.62500
H  6.90800 60.54200 43.92100
H  8.32700 61.11100 43.01900
H  4.26200 59.53500 40.10600
H  5.37100 60.94400 39.95500
H  3.23800 61.90700 40.28500
H  4.18200 61.96000 41.88000
H  2.96400 60.86000 41.73100
H  1.21000 56.79500 43.99900
H  0.33200 56.07700 42.74000
H  1.30000 57.64900 42.48000
H  3.07400 51.22500 42.24100
H  -0.04900 49.66400 39.91500
H  1.00000 48.26600 40.07800
H  1.22200 49.32500 38.70700
Mg -0.78700 34.17200 27.62600
C  -2.91500 32.77300 29.96000
C  0.66800 36.00600 30.29800
C  0.63600 36.39600 25.36600
C  -2.41300 32.56400 25.04800
N  -1.22400 34.48800 29.79000
C  -2.07700 33.72800 30.54700
C  -1.86600 33.98900 32.02000
C  -0.95200 35.30300 32.06400
C  -0.38500 35.19100 30.66600
C  -1.56600 36.73500 32.35000
C  -1.25100 32.76400 32.78900
C  -1.91500 32.38300 34.13200
H  -0.99800 32.35700 35.37300
N  0.59700 35.76700 27.77000
C  1.03800 36.34300 28.93200
C  1.93700 37.45200 28.62200
C  1.89300 37.62200 27.24500
C  0.97500 36.59200 26.73400
C  2.71200 38.26400 29.68700
C  2.66100 38.62900 26.33500
O  2.71300 38.70900 25.11900
C  3.48500 39.69200 27.07800
N  -0.93200 34.48400 25.56700
C  -0.21100 35.43200 24.81800
C  -0.46800 35.25100 23.29000
C  -1.31400 33.96300 23.17100
C  -1.62900 33.68000 24.68900
C  -1.17900 36.53600 22.72800
C  -0.70500 32.74200 22.32600
C  -1.68100 31.97800 21.43500
N  -2.37100 32.95500 27.47800
C  -2.89800 32.34400 26.38800
C  -3.85600 31.35900 26.87800
C  -3.84900 31.51900 28.29600
C  -3.03100 32.53200 28.59800
C  -4.62200 30.30700 26.05300
C  -4.37000 30.97100 29.41200
O  -5.12500 30.01000 29.49800
C  -3.83800 31.74700 30.72100
C  -4.94800 32.43400 31.48100
O  -5.70600 33.29500 31.04900
O  -5.05100 31.86000 32.69900
C  -5.88500 32.53100 33.70400
H  1.21800 36.48400 31.11200
H  1.10600 37.10900 24.68500
H  -2.87600 32.05500 24.20100
H  -2.83100 34.31200 32.40900
H  -0.13300 35.10700 32.75600
H  -0.73900 37.33800 32.72300
H  -2.28900 36.73400 33.16600
H  -2.13600 37.17800 31.53300
H  -0.20900 33.04200 32.94900
H  -1.28000 31.91700 32.10400
H  -2.50300 31.47900 33.97200
H  -2.68800 33.11300 34.37000
H  3.76400 38.18900 29.41200
H  2.50000 37.86500 30.67900
H  2.32000 39.28100 29.69400
H  2.91000 40.36300 27.71600
H  3.84200 40.38300 26.31500
H  4.29200 39.11300 27.52500
H  0.46700 35.22500 22.73000
H  -2.32700 34.16400 22.82300
H  -1.26700 37.37900 23.41300
H  -2.17400 36.26700 22.37400
H  -0.61700 36.90600 21.87000
H  -0.58300 31.98300 23.09800
H  0.24300 32.98200 21.84300
H  -1.31100 32.04800 20.41200
H  -2.65900 32.43500 21.28700
H  -1.74400 30.94000 21.76000
H  -4.24400 30.20400 25.03600
H  -5.68200 30.56000 26.05500
H  -4.62600 29.34000 26.55700
H  -3.25600 30.99400 31.25200
H  -6.34500 31.73300 34.28600
H  -6.73000 33.05700 33.26000
H  -5.24000 33.11900 34.35700

