158

Mg 44.32900 3.97600 46.64300
C  42.23500 6.75700 46.03100
C  41.56200 1.90000 46.00800
C  46.48600 1.40800 46.48000
C  47.02500 6.22800 46.52800
N  42.27000 4.26700 45.89200
C  41.66000 5.51200 45.70000
C  40.23700 5.42200 45.14800
C  39.93800 3.89800 45.38000
C  41.32400 3.28400 45.76700
C  38.90800 3.67800 46.52400
C  40.15000 5.77400 43.58900
C  38.88800 5.32800 42.79900
H  38.62100 6.22800 41.60100
N  44.09300 1.86000 46.45700
C  42.87800 1.23600 46.20500
C  43.13600 -0.19200 46.23700
C  44.51900 -0.39600 46.46600
C  45.09800 0.95000 46.51800
C  42.06900 -1.27500 46.00900
C  45.22100 -1.75600 46.46600
O  44.60700 -2.75600 46.42900
C  46.74400 -1.97200 46.78500
N  46.52300 3.84100 46.23200
C  47.13900 2.63800 46.48800
C  48.71600 2.80600 46.51700
C  48.88000 4.35800 46.56600
C  47.39400 4.85800 46.45700
C  49.39200 2.11100 47.67300
C  49.78400 4.96300 45.47700
C  51.24300 4.85900 45.71700
N  44.62500 6.08800 46.46000
C  45.74000 6.81800 46.53000
C  45.48200 8.22200 46.56500
C  44.07600 8.24900 46.35800
C  43.62600 6.96400 46.26600
C  46.46200 9.34700 46.57200
C  42.90900 9.16100 46.19800
O  42.80400 10.36300 46.33600
C  41.63400 8.17300 46.04100
C  40.74900 8.30600 47.22000
O  40.45700 7.43000 48.01400
O  40.02800 9.47200 47.25900
C  39.11000 9.71800 48.41100
H  40.67400 1.26800 45.92800
H  47.34900 0.74000 46.51300
H  47.85400 6.92900 46.64700
H  39.59000 6.03800 45.77300
H  39.69000 3.32300 44.48800
H  38.23900 2.86700 46.23500
H  38.27600 4.50600 46.84500
H  39.56200 3.33100 47.32400
H  41.09300 5.48000 43.13000
H  40.33300 6.84800 43.54200
H  38.00300 5.44000 43.42600
H  39.03400 4.32000 42.41000
H  42.33600 -1.95100 45.19700
H  41.11300 -0.94700 45.60100
H  41.97800 -1.93200 46.87400
H  47.41500 -1.72000 45.96400
H  46.76500 -3.03400 47.03200
H  46.97900 -1.38500 47.67200
H  49.18700 2.40400 45.62000
H  49.27500 4.63900 47.54200
H  48.69700 1.56200 48.30700
H  49.99100 2.76400 48.30800
H  50.07600 1.37800 47.24400
H  49.52900 5.98400 45.19400
H  49.64400 4.46300 44.51900
H  51.88400 5.73600 45.81300
H  51.57800 4.30300 44.84100
H  51.36100 4.14200 46.52900
H  47.05100 9.57700 47.46000
H  46.06700 10.28700 46.18600
H  47.15400 9.19800 45.74300
H  41.15100 8.50000 45.12000
H  38.68300 10.72100 48.43800
H  39.81100 9.71300 49.24600
H  38.27800 9.01500 48.37700
Mg 16.77100 51.83100 24.64200
C  18.55100 50.90100 27.41000
C  13.99000 52.31200 26.62900
C  14.78200 52.13100 21.80700
C  19.45100 51.09100 22.53100
N  16.41500 51.87200 26.86500
C  17.27600 51.40300 27.82800
C  16.68000 51.55500 29.23200
C  15.16000 51.90100 28.91000
C  15.17500 51.98300 27.36300
C  14.09100 51.03800 29.55400
C  17.39500 52.73200 30.00900
C  17.91200 52.47900 31.46800
H  17.11500 51.64500 32.53900
N  14.73000 52.28700 24.31100
C  13.80400 52.50900 25.23100
C  12.54100 52.93600 24.62500
C  12.76300 52.88900 23.14900
C  14.14000 52.38500 23.05900
C  11.33400 53.31400 25.40800
C  11.85500 53.27100 22.00900
O  12.05900 53.18000 20.77300
C  10.60100 53.96000 22.33700
N  17.11000 51.55000 22.36500
C  16.09800 51.79200 21.45300
C  16.67200 51.90800 20.07000
C  18.29100 51.68100 20.35100
C  18.35200 51.50700 21.80900
C  16.05300 50.91200 19.00900
C  19.21900 52.81200 19.80800
C  19.06400 53.13600 18.24400
N  18.57800 51.11700 24.83100
C  19.59900 50.81400 23.92500
C  20.68000 50.15900 24.60600
C  20.28400 50.23800 25.98500
C  19.06100 50.87100 26.11400
C  21.95500 49.58300 23.99000
C  20.73100 49.83200 27.31400
O  21.68600 49.24600 27.72000
C  19.69800 50.34700 28.23000
C  19.32000 49.23200 29.19500
O  18.65000 48.29200 28.90700
O  19.79200 49.63400 30.41400
C  19.56400 48.74800 31.53400
H  13.23600 52.57600 27.37400
H  14.12600 52.06200 20.93600
H  20.30900 50.92500 21.87600
H  16.82100 50.68200 29.86900
H  14.86300 52.90500 29.21400
H  14.56900 50.31400 30.21400
H  13.51100 50.57700 28.75500
H  13.39200 51.64100 30.13500
H  16.65600 53.52800 30.10100
H  18.22700 53.13200 29.42900
H  17.88900 53.48300 31.89300
H  18.98000 52.25800 31.48100
H  11.42600 53.04400 26.46000
H  10.50400 52.68500 25.08700
H  11.17400 54.38300 25.26300
H  9.95500 54.12300 21.47500
H  10.83100 54.91400 22.81300
H  10.03500 53.29000 22.98400
H  16.51700 52.93400 19.73900
H  18.71700 50.77500 19.92100
H  15.60300 51.40500 18.14700
H  15.26700 50.35300 19.51800
H  16.80700 50.20900 18.65600
H  20.25500 52.47800 19.85600
H  19.16300 53.78200 20.30300
H  18.74600 54.16300 18.06500
H  18.50500 52.36100 17.72000
H  20.00600 53.29100 17.71700
H  22.51400 50.36700 23.47900
H  21.55600 48.86800 23.27000
H  22.71900 49.15400 24.63900
H  20.24400 51.09400 28.80500
H  19.77200 49.23900 32.48500
H  20.22600 47.88200 31.52600
H  18.50700 48.49000 31.46100

