158

Mg 2.22100 -0.77200 44.32100
C  5.41900 0.31300 43.54100
C  0.88900 1.90400 42.65300
C  -0.74600 -2.45400 44.05400
C  3.64700 -3.84400 45.43500
N  3.09400 0.96600 43.32400
C  4.38700 1.14300 42.99500
C  4.61900 2.42500 42.21900
C  3.19800 3.00600 42.09400
C  2.31800 1.90000 42.67100
C  3.05600 4.46800 42.63600
C  5.41700 2.32200 40.83900
C  5.88000 3.66700 40.30100
H  5.45800 4.04400 38.87800
N  0.26700 -0.25700 43.63400
C  -0.02300 0.94800 43.09300
C  -1.46800 0.95200 42.84100
C  -1.96900 -0.38400 43.14900
C  -0.79400 -1.13400 43.56500
C  -2.11200 2.00700 42.05400
C  -3.47900 -0.90100 43.02100
O  -4.37500 -0.05500 42.90800
C  -4.02200 -2.33600 43.20000
N  1.65600 -2.93300 44.52700
C  0.30500 -3.20100 44.57400
C  0.07100 -4.73500 45.04000
C  1.49000 -5.10300 45.57400
C  2.32800 -3.90900 45.15800
C  -1.08100 -4.91400 46.05400
C  1.94200 -6.51000 45.16000
C  1.23800 -7.70300 45.76500
N  4.14100 -1.58600 44.67200
C  4.57900 -2.75800 45.13200
C  6.00300 -2.77000 45.29900
C  6.41600 -1.55900 44.72100
C  5.27400 -0.87800 44.28300
C  6.80000 -3.91400 45.95200
C  7.52900 -0.75900 44.38400
O  8.73000 -0.94100 44.62700
C  6.93100 0.54400 43.65500
C  7.21700 1.73800 44.60800
O  7.02400 1.81400 45.79300
O  7.75500 2.77900 43.86800
C  8.28400 3.92700 44.64600
H  0.50700 2.80600 42.16900
H  -1.67500 -3.01800 43.94500
H  4.17300 -4.65500 45.94300
H  5.27900 3.11200 42.74800
H  3.10100 3.13000 41.01500
H  3.10400 5.22000 41.84900
H  3.76100 4.81500 43.39100
H  2.04600 4.65400 43.00100
H  4.77300 1.81800 40.11800
H  6.33800 1.74400 40.92400
H  6.96900 3.68700 40.25100
H  5.53300 4.53800 40.85700
H  -2.16700 1.69400 41.01100
H  -1.60800 2.96000 42.21000
H  -3.14300 2.07200 42.40100
H  -5.08700 -2.37600 42.97200
H  -3.88000 -2.73100 44.20600
H  -3.50600 -2.93500 42.44900
H  -0.12300 -5.22400 44.08500
H  1.55800 -5.03200 46.66000
H  -1.88200 -5.43500 45.53000
H  -1.54400 -3.95800 46.29700
H  -0.82100 -5.40200 46.99400
H  3.01700 -6.63600 45.29100
H  1.77700 -6.62100 44.08800
H  1.85500 -8.49600 46.18800
H  0.82200 -8.18100 44.87800
H  0.53300 -7.44200 46.55400
H  6.46400 -4.15200 46.96100
H  7.82600 -3.54700 45.90300
H  6.79400 -4.79700 45.31300
H  7.54600 0.77000 42.78400
H  9.11000 4.40500 44.12100
H  8.73800 3.60200 45.58200
H  7.44600 4.55700 44.94300
Mg 24.42700 -4.93000 45.89500
C  26.88500 -2.62900 44.57600
C  22.34300 -3.86200 43.37800
C  22.45300 -7.59300 46.48300
C  27.07300 -6.26800 47.76900
N  24.73300 -3.55300 44.04600
C  25.75200 -2.68400 43.83000
C  25.45400 -1.87700 42.55900
C  23.96000 -2.00100 42.45300
C  23.63900 -3.21000 43.34300
C  23.14200 -0.81400 42.93400
C  26.15200 -2.41500 41.26700
C  26.44300 -1.31600 40.14800
H  25.80100 -1.48700 38.84400
N  22.56300 -5.51200 45.28100
C  21.88300 -4.89900 44.20200
C  20.58800 -5.48700 44.13400
C  20.58000 -6.71500 44.82900
C  21.85400 -6.61200 45.65000
C  19.43100 -4.90600 43.27100
C  19.57600 -7.82100 44.71300
O  18.56900 -7.67700 44.06900
C  19.75600 -9.22200 45.36200
N  24.82700 -6.77300 46.76100
C  23.76100 -7.66400 47.03700
C  24.25600 -8.94200 47.75500
C  25.66300 -8.37100 48.24300
C  25.89800 -6.99600 47.60000
C  23.25300 -9.48200 48.85000
C  26.77300 -9.42900 48.17100
C  27.94700 -9.32700 47.29000
N  26.56400 -4.52200 46.20600
C  27.50900 -5.21400 46.94700
C  28.82600 -4.58800 46.82400
C  28.56700 -3.48300 45.99600
C  27.21500 -3.58700 45.52100
C  30.04100 -5.00300 47.59400
C  29.14400 -2.39700 45.32200
O  30.29900 -2.04400 45.44600
C  28.14600 -1.91700 44.22900
C  28.16600 -0.44100 44.25200
O  27.46700 0.32800 44.86100
O  29.16600 -0.08900 43.38700
C  29.42300 1.34900 43.24200
H  21.55700 -3.57900 42.67400
H  21.85000 -8.47200 46.71700
H  27.77200 -6.57800 48.54900
H  25.77400 -0.84600 42.71000
H  23.66800 -2.21500 41.42500
H  22.43600 -0.27300 42.30400
H  23.70800 -0.02900 43.43600
H  22.55100 -1.16600 43.78000
H  25.61200 -3.31100 40.96400
H  27.13400 -2.78800 41.56000
H  27.53000 -1.31700 40.06600
H  26.04700 -0.36900 40.51400
H  18.44100 -5.24400 43.57800
H  19.54400 -5.25000 42.24300
H  19.45600 -3.81700 43.28300
H  19.79200 -9.01500 46.43100
H  20.65900 -9.61800 44.89800
H  18.91500 -9.85600 45.08300
H  24.51600 -9.64400 46.96200
H  25.46500 -8.23100 49.30500
H  22.25900 -9.05000 48.96000
H  23.74100 -9.36400 49.81700
H  23.03500 -10.53600 48.68000
H  26.35100 -10.39100 47.88000
H  27.26100 -9.59100 49.13200
H  27.63600 -8.91500 46.33000
H  28.43500 -10.28500 47.11400
H  28.67000 -8.65900 47.75900
H  30.69100 -5.25600 46.75600
H  29.83900 -5.88300 48.20500
H  30.32800 -4.11700 48.16000
H  28.50800 -2.21500 43.24500
H  29.03500 1.62100 42.26000
H  30.51000 1.41400 43.30100
H  29.05800 1.96400 44.06400

