158

Mg 36.40500 49.05900 25.18000
C  36.53000 47.00800 28.16100
C  35.17400 51.57100 27.06500
C  35.77000 50.60900 22.34500
C  37.64100 46.20700 23.46600
N  35.53800 49.14200 27.30600
C  35.96100 48.30100 28.35700
C  35.83200 48.97800 29.72000
C  35.20200 50.32800 29.32700
C  35.28300 50.37100 27.82800
C  33.65300 50.48900 29.66200
C  37.16100 49.11800 30.59100
C  37.07200 48.54900 32.04800
H  36.67600 49.40800 33.12800
N  35.62300 50.90500 24.72100
C  35.19700 51.83400 25.63700
C  35.00300 53.07600 25.02900
C  35.25200 52.82900 23.63000
C  35.51900 51.38300 23.51300
C  34.75200 54.42700 25.77000
C  35.11000 53.82800 22.48900
O  35.28400 53.60300 21.27300
C  34.84800 55.17300 22.87100
N  36.77600 48.51700 23.23500
C  36.37800 49.34200 22.24700
C  36.65300 48.62000 20.88100
C  37.63100 47.38600 21.25700
C  37.41300 47.39600 22.80900
C  35.25700 48.26000 20.27600
C  39.11500 47.36700 20.84400
C  39.50400 46.57800 19.56800
N  36.92600 46.95600 25.61000
C  37.43300 45.91800 24.83600
C  37.62700 44.73700 25.63000
C  37.36700 45.18900 26.93400
C  36.93100 46.48700 26.88000
C  38.05900 43.43500 25.05800
C  37.51700 44.79500 28.31600
O  37.99600 43.80000 28.87200
C  36.89400 45.95700 29.15100
C  35.69200 45.47900 30.03600
O  34.55200 45.51900 29.64200
O  36.13500 45.04000 31.26400
C  35.03800 44.75800 32.29200
H  34.89400 52.41000 27.70500
H  35.35500 50.99100 21.41000
H  37.88100 45.38100 22.79400
H  35.06400 48.34600 30.16600
H  35.68100 51.21200 29.74600
H  33.14500 51.06500 28.88900
H  33.54100 50.94900 30.64300
H  33.01900 49.60200 29.66100
H  37.38600 50.17100 30.75700
H  38.00500 48.61500 30.11800
H  38.00200 48.04700 32.31600
H  36.35600 47.72800 32.06800
H  35.38400 55.26300 25.47000
H  35.15800 54.31300 26.77500
H  33.70700 54.70100 25.91000
H  35.70600 55.55900 23.42200
H  33.86800 55.37400 23.30500
H  34.90900 55.76100 21.95500
H  37.11400 49.36400 20.23200
H  37.11800 46.49500 20.89600
H  34.46700 48.79200 20.80700
H  34.96600 47.21100 20.33600
H  35.13000 48.59100 19.24600
H  39.76100 47.21300 21.70800
H  39.24600 48.41000 20.55600
H  39.24900 47.20200 18.71100
H  38.96200 45.65500 19.36300
H  40.57100 46.37000 19.65100
H  37.22400 42.89300 24.61600
H  38.58300 42.89300 25.84500
H  38.75300 43.68100 24.25300
H  37.62600 46.40700 29.82300
H  34.00100 44.76700 31.95600
H  35.05700 45.55100 33.03900
H  35.33000 43.91100 32.91200
Mg -11.40000 38.31700 41.58500
C  -9.00600 35.75900 41.08300
C  -9.51400 40.41700 39.70100
C  -14.08500 40.32900 41.41100
C  -13.56500 35.72000 42.92900
N  -9.53900 38.06400 40.42800
C  -8.74400 36.93000 40.47900
C  -7.44700 37.22100 39.71500
C  -7.59300 38.74400 39.26900
C  -8.97100 39.11700 39.79400
C  -6.42900 39.74500 39.57800
C  -7.01900 36.21300 38.60600
C  -5.71700 35.48200 38.80600
H  -4.62600 35.60300 37.68300
N  -11.68900 40.23300 40.87400
C  -10.83500 40.92500 40.01300
C  -11.42600 42.12900 39.59300
C  -12.67000 42.20800 40.25500
C  -12.88500 40.90600 40.93400
C  -10.63600 43.05900 38.70400
C  -13.59000 43.44600 40.12800
O  -13.10700 44.48700 39.64900
C  -15.00300 43.45200 40.63200
N  -13.53400 38.05200 42.14900
C  -14.37100 39.06100 42.01300
C  -15.79700 38.69500 42.36100
C  -15.63900 37.25200 42.91100
C  -14.14900 36.97400 42.69400
C  -16.58500 39.66700 43.27300
C  -16.50500 36.33500 41.96200
C  -18.07300 36.66600 41.84700
N  -11.25900 36.23300 42.13100
C  -12.18600 35.36600 42.73700
C  -11.54500 34.10100 43.00500
C  -10.29400 34.19500 42.40900
C  -10.18100 35.49700 41.81900
C  -12.22100 32.98200 43.63500
C  -9.10800 33.57000 42.20500
O  -8.81800 32.44800 42.59800
C  -8.12600 34.57600 41.45500
C  -6.88400 34.81000 42.27600
O  -5.91800 34.08200 42.32400
O  -6.87200 36.07000 42.92300
C  -5.71800 36.44400 43.62900
H  -8.79200 41.07200 39.21000
H  -14.99800 40.92300 41.32400
H  -14.21000 34.97000 43.39200
H  -6.68000 37.17000 40.48800
H  -7.75900 38.64100 38.19600
H  -5.48100 39.25300 39.79500
H  -6.56000 40.54200 40.31100
H  -6.15000 40.28400 38.67200
H  -6.96500 36.63500 37.60200
H  -7.80400 35.45700 38.55900
H  -6.03300 34.44400 38.90500
H  -5.19900 35.80500 39.70900
H  -11.08200 43.96900 38.30500
H  -10.33700 42.43600 37.86100
H  -9.83500 43.34700 39.38600
H  -14.94800 43.17800 41.68500
H  -15.63700 42.90800 39.93200
H  -15.33200 44.48800 40.54200
H  -16.25300 38.70000 41.37100
H  -15.99500 37.12200 43.93300
H  -17.12700 39.02200 43.96400
H  -17.30100 40.25000 42.69300
H  -15.84800 40.32600 43.73300
H  -16.35300 35.30800 42.29500
H  -16.14100 36.46300 40.94300
H  -18.30500 37.53900 42.45700
H  -18.71600 35.85700 42.19200
H  -18.37200 36.99300 40.85200
H  -12.59700 33.24100 44.62500
H  -11.61700 32.07500 43.60700
H  -13.07300 32.74000 42.99900
H  -7.84600 34.00100 40.57200
H  -5.61600 37.52800 43.66100
H  -4.80400 36.06900 43.16900
H  -5.82200 36.14200 44.67200

