158

Mg -0.06800 7.76000 27.37500
C  0.83800 9.88600 29.89900
C  0.20100 5.14700 29.46600
C  -0.44900 5.73000 24.66400
C  0.01000 10.63200 25.25400
N  0.43800 7.52600 29.41100
C  0.71900 8.50000 30.25300
C  0.77400 7.92900 31.71100
C  0.81100 6.42000 31.51900
C  0.50200 6.36100 30.06100
C  2.13000 5.71600 31.92000
C  -0.44700 8.37600 32.57500
C  -0.73100 7.67700 33.90000
H  0.32900 6.90500 34.68000
N  -0.18800 5.68600 27.10100
C  -0.09700 4.83500 28.13100
C  -0.47200 3.49400 27.61300
C  -0.49000 3.61000 26.18700
C  -0.33600 5.06900 25.87400
C  -0.85000 2.38500 28.56200
C  -0.64300 2.47500 25.14800
O  -0.54100 2.65900 23.94000
C  -1.03300 0.99900 25.61000
N  -0.21300 8.18800 25.30900
C  -0.38500 7.14000 24.43800
C  -0.39600 7.70900 23.01900
C  -0.73600 9.26700 23.17000
C  -0.36800 9.42000 24.70100
C  1.02800 7.48400 22.31000
C  -2.26000 9.77100 22.87600
C  -2.37000 10.62000 21.61300
N  0.28900 9.88200 27.59700
C  0.37500 10.85700 26.64800
C  0.88600 12.17800 27.24800
C  1.05100 11.80000 28.57700
C  0.62500 10.45500 28.70900
C  1.20600 13.45900 26.43200
C  1.56400 12.18300 29.83900
O  2.00600 13.26300 30.24300
C  1.20400 11.05100 30.83300
C  2.22700 10.84200 31.85600
O  3.38000 10.65200 31.61800
O  1.73800 11.21300 33.05200
C  2.61700 11.54500 34.21300
H  0.12700 4.27200 30.11600
H  -0.66400 5.17700 23.74700
H  0.10800 11.42700 24.51200
H  1.60600 8.32500 32.29300
H  -0.01400 5.95100 32.05600
H  1.96600 5.24200 32.88800
H  2.85200 6.53200 31.95300
H  2.48400 4.92900 31.25500
H  -1.38400 8.13600 32.07300
H  -0.38000 9.45200 32.73200
H  -1.63300 7.10600 33.68300
H  -1.03200 8.54600 34.48500
H  -1.86600 2.18300 28.22600
H  -0.87000 2.40700 29.65200
H  -0.19800 1.52400 28.41100
H  -0.18000 0.66900 26.20300
H  -1.14800 0.35800 24.73500
H  -1.98300 1.06800 26.13800
H  -1.26300 7.35600 22.46000
H  0.03600 9.76000 22.57900
H  1.74100 8.29300 22.46600
H  0.87100 7.21900 21.26500
H  1.53700 6.65200 22.79800
H  -2.62600 10.38100 23.70200
H  -2.99600 8.97600 22.75900
H  -1.54800 10.27500 20.98600
H  -2.45200 11.65400 21.94800
H  -3.28600 10.38000 21.07400
H  1.68100 13.03500 25.54700
H  1.80300 14.01000 27.15800
H  0.27800 13.95500 26.14900
H  0.25300 11.34900 31.27600
H  2.13300 11.32900 35.16600
H  2.95200 12.57400 34.08300
H  3.50400 10.92400 34.08600
Mg 46.93500 17.30600 28.17300
C  45.20400 17.06800 31.18000
C  49.19900 19.47600 29.71300
C  48.18600 18.12200 25.22200
C  44.18700 15.69300 26.62200
N  47.09500 18.32700 30.21600
C  46.40700 17.79400 31.32200
C  47.13300 18.28700 32.66000
C  48.38400 19.05500 32.09100
C  48.22100 18.96100 30.56500
C  48.62500 20.39600 32.70500
C  47.47900 17.15600 33.69000
C  46.90200 17.26400 35.06500
H  46.60400 18.64500 35.56500
N  48.54500 18.51100 27.54800
C  49.45100 19.24000 28.37200
C  50.52600 19.77000 27.53800
C  50.15000 19.56800 26.19600
C  48.92400 18.71800 26.23400
C  51.71600 20.36600 28.10200
C  50.91800 19.91000 24.92700
O  50.49500 19.71700 23.81600
C  52.33200 20.49500 25.06400
N  46.24000 16.95200 26.18000
C  47.06500 17.35000 25.11500
C  46.58200 16.62800 23.78600
C  45.28200 15.89100 24.27200
C  45.21100 16.18500 25.76700
C  46.52600 17.60600 22.61100
C  45.29400 14.32500 23.95400
C  46.30200 13.42700 24.82200
N  45.08700 16.57400 28.69500
C  44.09000 15.96000 27.97800
C  42.99200 15.51900 28.86500
C  43.43000 15.94000 30.11800
C  44.67000 16.59900 29.96400
C  41.67000 14.92100 28.42200
C  43.10900 15.88500 31.61500
O  42.09000 15.53500 32.21800
C  44.23600 16.72200 32.29700
C  43.64700 17.96400 32.92000
O  43.40400 19.04300 32.40700
O  43.18300 17.59900 34.17400
C  42.36500 18.59600 34.87100
H  50.12100 19.83700 30.17400
H  48.75100 18.23100 24.29400
H  43.35900 15.15400 26.15700
H  46.45500 18.98000 33.15700
H  49.22700 18.41600 32.35400
H  47.77200 20.67900 33.32200
H  48.74500 21.03400 31.83000
H  49.45500 20.40100 33.41200
H  48.53500 16.88700 33.65000
H  47.06200 16.25200 33.24700
H  47.59600 16.77100 35.74600
H  45.92400 16.80700 34.92200
H  52.60500 19.75800 27.93600
H  51.72100 20.45700 29.18900
H  51.86700 21.31200 27.58100
H  52.94300 19.88600 25.73000
H  52.24700 21.55700 25.29500
H  52.81300 20.42100 24.08800
H  47.32200 15.85800 23.56700
H  44.39100 16.24600 23.75300
H  46.61100 18.58700 23.07700
H  45.55400 17.42600 22.15100
H  47.40400 17.37500 22.00800
H  45.83600 14.30900 23.00800
H  44.32100 13.84400 23.85400
H  46.80700 12.68500 24.20300
H  45.70700 12.88400 25.55600
H  47.14900 13.93900 25.27800
H  40.96100 14.99800 29.24600
H  41.81200 13.89600 28.07700
H  41.30500 15.38000 27.50200
H  44.70600 16.15500 33.10000
H  41.47700 18.02600 35.14200
H  42.05300 19.48200 34.31800
H  42.93900 18.87600 35.75500

