158

Mg 35.57400 2.24200 28.96300
C  33.55300 3.35000 31.47500
C  38.20500 2.12900 31.20700
C  37.68300 1.59700 26.43400
C  32.99700 2.86400 26.68300
N  35.81500 2.78900 31.06000
C  34.82200 3.09900 31.92600
C  35.29600 3.17300 33.37000
C  36.83900 3.19200 33.13200
C  37.03100 2.72200 31.71200
C  37.46900 4.54900 33.58300
C  34.79900 2.03300 34.23600
C  34.37400 2.34900 35.69400
H  34.78700 3.59100 36.36700
N  37.61400 1.69900 28.89600
C  38.51700 1.68500 29.94400
C  39.68900 1.03100 29.53800
C  39.61900 0.85400 28.07900
C  38.25800 1.36300 27.71800
C  40.81300 0.70900 30.45600
C  40.60000 0.20800 27.11700
O  40.33600 0.24800 25.92100
C  41.85800 -0.50100 27.59600
N  35.39200 2.34300 26.89800
C  36.43500 2.08300 26.06300
C  36.11000 2.25500 24.57900
C  34.59700 2.52400 24.68500
C  34.25900 2.52700 26.18700
C  37.00900 3.35400 23.89100
C  33.74600 1.53400 23.85100
C  32.56000 2.03500 22.98400
N  33.69200 2.97400 29.03900
C  32.73800 3.08500 28.03900
C  31.45900 3.43000 28.66200
C  31.71500 3.60300 30.01000
C  33.09300 3.29700 30.11800
C  30.17600 3.70300 27.93500
C  31.13800 3.70200 31.30700
O  29.92600 3.91800 31.47500
C  32.27100 3.64700 32.29600
C  32.22900 4.97000 33.01500
O  32.58200 6.01000 32.57700
O  31.63000 4.80000 34.24000
C  31.18000 5.99100 34.97300
H  39.00800 2.02200 31.93900
H  38.34400 1.33300 25.60500
H  32.27400 3.06000 25.88800
H  34.88600 4.05300 33.86500
H  37.37900 2.42600 33.68800
H  38.36300 4.34300 34.17100
H  36.76700 5.15000 34.16200
H  37.73000 5.09900 32.67900
H  35.43600 1.14800 34.25700
H  33.94000 1.59200 33.72900
H  34.75800 1.55400 36.33300
H  33.28600 2.28100 35.69400
H  40.97200 -0.36100 30.58500
H  40.61200 1.13700 31.43800
H  41.65400 1.24200 30.01200
H  42.56600 0.07300 28.19300
H  42.18800 -1.02900 26.70100
H  41.57200 -1.35000 28.21700
H  36.27200 1.26500 24.15200
H  34.36200 3.55400 24.41700
H  37.63100 2.94900 23.09200
H  37.81600 3.79000 24.48000
H  36.37200 4.20800 23.66300
H  33.34300 0.76200 24.50600
H  34.30400 1.00500 23.07700
H  31.60800 1.99700 23.51300
H  32.44700 1.23700 22.25000
H  32.78700 2.97600 22.48300
H  30.25600 3.15300 26.99700
H  29.99700 4.76900 27.79300
H  29.33100 3.36400 28.53500
H  31.97500 2.84800 32.97600
H  30.96100 6.81600 34.29600
H  31.99800 6.27900 35.63300
H  30.26000 5.71900 35.49100
Mg 53.88800 24.07100 46.21200
C  51.19300 26.08000 45.01100
C  52.01700 21.28000 45.03500
C  56.50600 22.22600 46.68700
C  55.64300 26.97400 46.91800
N  51.81500 23.79700 45.14400
C  50.93800 24.76400 44.76700
C  49.71500 24.14600 44.08000
C  49.79300 22.71600 44.69500
C  51.31200 22.57300 44.94000
C  49.08900 22.51900 46.04800
C  49.73700 24.13600 42.47900
C  48.40800 24.70800 41.96500
H  47.96900 24.43700 40.47500
N  54.26800 22.03900 45.93800
C  53.34900 21.12500 45.31500
C  54.08900 19.86300 45.25000
C  55.35300 20.07300 45.81900
C  55.44800 21.45600 46.21400
C  53.47200 18.61300 44.58900
C  56.37100 18.95700 46.01500
O  56.24600 17.80800 45.53100
C  57.55100 19.13500 46.90000
N  55.75700 24.53300 46.70400
C  56.70700 23.55600 46.95300
C  58.01700 24.05100 47.52300
C  57.73000 25.63100 47.55000
C  56.27900 25.74100 47.08500
C  58.52800 23.41600 48.80300
C  58.66700 26.51900 46.68900
C  59.15400 27.87300 47.24800
N  53.48200 26.09800 46.13100
C  54.30000 27.12700 46.49700
C  53.52600 28.35300 46.48800
C  52.37000 28.05800 45.80600
C  52.31400 26.67500 45.64900
C  53.80600 29.64000 47.24600
C  51.05600 28.56500 45.36200
O  50.56100 29.68000 45.43900
C  50.36300 27.35100 44.67200
C  50.35400 27.65400 43.21700
O  51.22500 27.44600 42.39400
O  49.09500 27.97000 42.84900
C  48.87000 28.28100 41.46900
H  51.31100 20.45600 44.91300
H  57.44400 21.69300 46.85700
H  56.13700 27.91700 47.16300
H  48.78100 24.58400 44.43100
H  49.49700 21.89100 44.04600
H  48.41900 21.65900 46.05200
H  48.45600 23.36500 46.31400
H  49.82100 22.33300 46.83400
H  49.80300 23.07800 42.22500
H  50.53800 24.75300 42.07100
H  48.40100 25.76900 42.21300
H  47.54600 24.26800 42.46700
H  54.07700 18.31100 43.73500
H  52.50000 18.86700 44.16600
H  53.29100 17.86900 45.36500
H  57.43000 19.88600 47.68100
H  58.37400 19.40300 46.23600
H  57.66200 18.16300 47.37900
H  58.80500 23.88400 46.78800
H  57.85600 25.92200 48.59300
H  57.95100 22.51000 48.98700
H  58.40300 24.00300 49.71300
H  59.58900 23.21200 48.65300
H  58.04100 26.92100 45.89200
H  59.52800 25.94200 46.35200
H  60.24100 27.87100 47.16000
H  58.98800 27.95000 48.32300
H  58.60000 28.70800 46.82100
H  52.84000 30.14300 47.28200
H  54.47300 30.21100 46.60000
H  54.27900 29.51200 48.21900
H  49.34100 27.31100 45.05100
H  49.61800 28.12900 40.69100
H  48.61500 29.34100 41.44000
H  47.98200 27.67000 41.30900

