158

Mg 40.53400 7.58700 29.94900
C  42.48000 8.91600 32.53700
C  38.39200 6.38000 32.29600
C  38.92200 5.92200 27.37000
C  43.16700 8.19400 27.76700
N  40.49500 7.61200 32.19400
C  41.26800 8.38500 33.03200
C  40.78300 8.28200 34.47900
C  39.56500 7.29500 34.33600
C  39.50900 6.95600 32.82300
C  39.75700 5.94000 35.19500
C  40.54700 9.69800 35.09200
C  39.61800 9.76100 36.37700
H  40.39400 9.96600 37.70400
N  38.81300 6.50900 29.78700
C  38.03000 6.05900 30.90400
C  36.82900 5.41400 30.43200
C  36.89100 5.37000 28.97400
C  38.25000 5.97200 28.65200
C  35.76700 4.96700 31.37000
C  35.84000 4.88900 28.00400
O  36.06500 4.89400 26.77700
C  34.55800 4.42200 28.53100
N  40.99200 7.19000 27.76900
C  40.19900 6.45000 26.97600
C  40.83400 6.32800 25.61700
C  42.15900 7.15400 25.67700
C  42.12700 7.62300 27.13500
C  40.97600 4.84200 25.09800
C  42.25800 8.37400 24.63600
C  41.42600 9.49400 24.99500
N  42.45600 8.30700 30.08500
C  43.42600 8.47100 29.10100
C  44.48500 9.21500 29.70300
C  44.20100 9.37800 31.07700
C  42.94100 8.84400 31.18700
C  45.76700 9.55700 28.88100
C  44.75300 9.83600 32.34500
O  45.82300 10.28800 32.60500
C  43.59300 9.53100 33.40200
C  44.11500 8.64000 34.51400
O  44.15600 7.40500 34.54000
O  44.50100 9.36300 35.60000
C  45.07800 8.78100 36.68600
H  37.69200 5.94700 33.01400
H  38.38200 5.39500 26.58000
H  43.90800 8.43500 27.00200
H  41.65700 7.84600 34.96400
H  38.59600 7.69900 34.62700
H  38.87100 5.65600 35.76300
H  40.71300 6.05200 35.70600
H  39.81400 5.11200 34.48900
H  40.18600 10.35100 34.29600
H  41.52600 10.13300 35.29200
H  39.19500 8.75900 36.45000
H  38.88600 10.56900 36.37300
H  35.01300 5.73900 31.53100
H  36.27000 4.67400 32.29100
H  35.21500 4.10000 31.00700
H  34.15800 5.15800 29.22800
H  34.69200 3.44300 28.99200
H  33.88000 4.28500 27.68900
H  40.11500 6.95500 25.08900
H  42.98000 6.45200 25.52500
H  41.87600 4.47300 24.60600
H  40.16900 4.72800 24.37400
H  40.65100 4.32100 25.99900
H  41.86300 7.88600 23.74400
H  43.30300 8.66000 24.51600
H  40.66200 9.23900 25.73000
H  40.73400 9.60800 24.16100
H  42.03200 10.37200 25.22100
H  46.63300 9.42000 29.52900
H  45.69000 10.62600 28.68500
H  45.82500 8.87300 28.03400
H  43.28800 10.48500 33.83200
H  45.92500 8.21500 36.29600
H  44.33900 8.07200 37.05900
H  45.33400 9.38800 37.55400
Mg -1.59900 34.46900 26.99800
C  -2.70200 32.63700 29.84400
C  0.09500 36.55900 28.96600
C  -0.99900 36.27200 24.20300
C  -3.38800 32.14000 24.93800
N  -1.36900 34.61500 29.17800
C  -1.90600 33.75400 30.16800
C  -1.36300 34.18100 31.55200
C  -0.62900 35.51100 31.22800
C  -0.58000 35.56000 29.68500
C  -1.15400 36.84100 31.92500
C  -0.61700 33.06400 32.35500
C  0.13800 33.43300 33.65900
H  -0.02000 32.73800 35.00500
N  -0.62300 36.24000 26.66600
C  0.18600 36.89400 27.62500
C  0.74000 38.02500 27.07300
C  0.39000 38.01200 25.62600
C  -0.51800 36.87600 25.43900
C  1.65300 38.96500 27.82800
C  0.75600 39.01700 24.46600
O  0.20800 38.98000 23.37600
C  1.68800 40.19700 24.77300
N  -2.25500 34.31800 24.87100
C  -1.71200 35.13700 23.96200
C  -2.19000 34.84400 22.51100
C  -2.73300 33.37200 22.68300
C  -2.86200 33.21600 24.23600
C  -3.30600 35.82200 21.95400
C  -1.86600 32.23800 22.08500
C  -0.36000 32.08800 22.46400
N  -2.75300 32.76500 27.27200
C  -3.36200 31.91700 26.30400
C  -4.15000 30.94000 26.99900
C  -3.82400 31.11000 28.34900
C  -3.06800 32.30900 28.49800
C  -4.94300 29.85900 26.40800
C  -4.10000 30.60100 29.67000
O  -4.79700 29.70400 30.05900
C  -3.24700 31.48600 30.70800
C  -4.33600 31.90200 31.74000
O  -5.21500 32.66300 31.49600
O  -4.08900 31.32200 33.03600
C  -5.11700 31.56100 34.04300
H  0.72400 37.12800 29.65300
H  -0.74600 36.90000 23.34600
H  -3.88600 31.38600 24.32500
H  -2.31100 34.28700 32.07900
H  0.37400 35.40600 31.64200
H  -1.35700 37.61900 31.19000
H  -0.40400 37.10000 32.67300
H  -2.06300 36.69600 32.50900
H  0.14900 32.65400 31.69700
H  -1.41000 32.33400 32.51600
H  0.01300 34.49900 33.84700
H  1.18600 33.31200 33.38500
H  2.01900 38.68000 28.81400
H  0.95900 39.77400 28.05800
H  2.42800 39.15300 27.08600
H  2.65200 39.68800 24.80100
H  1.30800 40.54100 25.73500
H  1.46600 40.83000 23.91400
H  -1.30400 34.81800 21.87700
H  -3.71700 33.35300 22.21400
H  -3.99000 36.15400 22.73500
H  -3.81000 35.36100 21.10400
H  -2.84800 36.69200 21.48300
H  -1.93700 32.09200 21.00700
H  -2.25800 31.35100 22.58300
H  -0.32300 31.24100 23.14800
H  0.13500 32.91000 22.98100
H  0.19600 31.97600 21.53300
H  -4.80800 29.91700 25.32800
H  -5.99800 29.86100 26.68000
H  -4.54500 28.86200 26.59400
H  -2.46600 30.84700 31.12000
H  -5.45700 30.62300 34.48200
H  -5.90400 32.23100 33.69700
H  -4.62800 32.10800 34.85000

