158

Mg 49.84000 44.91800 42.02500
C  46.56900 45.61400 41.26500
C  49.39200 41.74200 40.68700
C  53.21600 44.58000 42.02500
C  50.27300 48.34300 43.05600
N  48.20900 43.90400 41.00500
C  46.94000 44.38900 40.87400
C  46.16100 43.50900 39.91900
C  46.93400 42.15900 40.04400
C  48.32100 42.65700 40.49500
C  46.43000 41.12900 41.11500
C  46.14000 44.13700 38.44800
C  44.70200 44.24700 37.79200
H  44.32700 43.20400 36.73700
N  51.14300 43.33600 41.46600
C  50.74900 42.10900 41.08600
C  51.91100 41.25300 40.95500
C  53.05100 42.03300 41.31100
C  52.50200 43.38600 41.69600
C  51.90600 39.84700 40.40400
C  54.51800 41.58700 41.26200
O  54.79200 40.48900 40.79200
C  55.60700 42.44800 41.59800
N  51.48900 46.22800 42.59200
C  52.76200 45.87200 42.36200
C  53.78500 46.98400 42.83400
C  52.83300 48.08100 43.34300
C  51.41800 47.55300 42.96600
C  54.93400 46.47200 43.81800
C  53.28600 49.54400 42.88000
C  52.76000 50.77000 43.68800
N  48.70900 46.64300 42.19200
C  48.96400 47.93700 42.67300
C  47.75700 48.69200 42.72700
C  46.75700 47.84500 42.19100
C  47.36100 46.59700 41.89600
C  47.62400 50.12000 43.17900
C  45.28100 47.64800 41.88900
O  44.32000 48.34700 42.07800
C  45.17400 46.22200 41.09800
C  44.04100 45.46200 41.68600
O  44.10000 44.83300 42.74700
O  42.92200 45.58000 40.88200
C  41.72300 45.11700 41.63100
H  49.20100 40.70100 40.41800
H  54.30400 44.49700 41.96700
H  50.50100 49.27100 43.58500
H  45.15100 43.36300 40.30200
H  47.01500 41.66800 39.07400
H  46.05700 40.21100 40.66100
H  45.59400 41.51700 41.69700
H  47.21900 40.86000 41.81800
H  46.56400 43.36100 37.81100
H  46.70800 45.05600 38.30500
H  44.63000 45.20400 37.27500
H  43.95800 44.16100 38.58400
H  52.07400 39.78700 39.32800
H  50.90500 39.43000 40.51400
H  52.65600 39.29300 40.96800
H  55.52300 42.93700 42.56800
H  55.78700 43.17700 40.80800
H  56.55100 41.90400 41.60000
H  54.26500 47.39000 41.94400
H  52.77400 48.15100 44.43000
H  54.93700 46.99600 44.77400
H  55.94400 46.56200 43.41800
H  54.76600 45.41800 44.04100
H  53.00100 49.60200 41.82900
H  54.37100 49.59900 42.79100
H  53.49000 51.57900 43.68800
H  52.69600 50.53900 44.75200
H  51.77200 51.10300 43.37000
H  48.18500 50.29500 44.09700
H  46.58000 50.32200 43.42200
H  48.03100 50.87100 42.50300
H  44.96600 46.48800 40.06200
H  41.56300 45.66200 42.56100
H  41.73400 44.03100 41.71400
H  40.87600 45.45900 41.03600
Mg 27.36600 49.96600 26.54800
C  25.57600 51.31600 29.18800
C  29.91900 49.14700 28.80200
C  29.16000 48.88000 23.96300
C  25.10300 51.32100 24.37100
N  27.61700 50.19000 28.81300
C  26.68100 50.66800 29.70200
C  27.16100 50.46500 31.15500
C  28.61700 49.84800 30.92700
C  28.71400 49.68400 29.41600
C  29.64200 50.89400 31.41800
C  26.26100 49.54700 32.06000
C  25.90400 50.28900 33.39700
H  26.89400 50.05900 34.60100
N  29.28700 49.00900 26.39200
C  30.14400 48.77700 27.36800
C  31.25300 48.09400 26.77900
C  30.98800 47.83000 25.43400
C  29.76700 48.58300 25.17000
C  32.31800 47.60100 27.74700
C  31.76000 46.98100 24.48200
O  31.44400 46.88100 23.31400
C  32.89900 46.03900 25.00400
N  27.27800 50.26400 24.46900
C  28.07300 49.61800 23.63300
C  27.58300 49.79700 22.16200
C  26.20300 50.40300 22.32100
C  26.17900 50.70000 23.79600
C  28.49900 50.52300 21.17400
C  24.98600 49.63000 21.77000
C  24.82700 48.14100 22.29900
N  25.62900 51.03800 26.70500
C  24.79500 51.50200 25.69100
C  23.63100 52.11700 26.31100
C  23.91100 52.06600 27.71600
C  25.14100 51.46800 27.87300
C  22.42200 52.67100 25.67400
C  23.37200 52.42500 29.01500
O  22.25100 52.92800 29.29100
C  24.36000 51.85100 30.06500
C  24.66100 52.97100 30.94600
O  25.66400 53.72500 30.88100
O  23.77000 53.02800 32.01000
C  24.05800 53.99600 33.06700
H  30.67300 48.85000 29.53400
H  29.68100 48.45200 23.10400
H  24.33400 51.71000 23.69900
H  27.22100 51.47400 31.56200
H  28.76700 48.86800 31.38000
H  29.25200 51.38500 32.31000
H  29.82400 51.62300 30.62800
H  30.50300 50.28400 31.68900
H  26.85000 48.72500 32.46800
H  25.32100 49.24900 31.59400
H  24.90300 49.96500 33.68400
H  25.91000 51.35100 33.15500
H  32.07700 46.56800 27.99700
H  32.24800 48.13700 28.69300
H  33.35800 47.68400 27.43000
H  33.86200 46.52600 25.16200
H  32.97400 45.29900 24.20800
H  32.59600 45.47300 25.88500
H  27.34800 48.75500 21.94400
H  26.23300 51.36000 21.80000
H  28.11200 51.46500 20.78700
H  28.85900 49.82900 20.41300
H  29.38000 50.93200 21.66900
H  24.98900 49.53800 20.68400
H  24.08100 50.15900 22.06800
H  23.78100 48.04000 22.58700
H  25.42600 48.02900 23.20300
H  24.98300 47.29700 21.62800
H  21.95000 52.02500 24.93500
H  22.68000 53.56700 25.10800
H  21.66400 52.94800 26.40700
H  23.91400 51.18300 30.80100
H  24.94900 53.70800 33.62600
H  23.25500 54.04200 33.80300
H  24.28000 55.01000 32.73500

