158

Mg 24.39600 -3.99700 45.01600
C  26.31900 -1.26000 43.48300
C  21.65700 -3.12800 43.21300
C  23.25500 -7.15700 45.37700
C  27.67300 -5.11800 46.03600
N  24.05700 -2.43600 43.46500
C  24.95300 -1.42600 43.01300
C  24.19200 -0.56000 41.96700
C  22.73900 -1.15300 42.05000
C  22.79700 -2.29300 42.97400
C  21.66300 -0.07200 42.43700
C  24.70800 -0.49800 40.50000
C  25.66900 -1.70400 40.15600
H  25.65600 -2.07100 38.65600
N  22.59400 -4.93300 44.55200
C  21.49500 -4.34700 43.87400
C  20.43100 -5.25300 43.87500
C  20.92000 -6.43800 44.57200
C  22.31600 -6.23100 44.87700
C  19.07700 -5.02200 43.14800
C  20.00400 -7.63600 44.72400
O  18.89200 -7.66200 44.32300
C  20.40000 -8.81800 45.66000
N  25.36400 -5.84900 45.59300
C  24.60400 -6.95100 45.78100
C  25.42400 -8.03300 46.43800
C  26.94800 -7.43500 46.60300
C  26.64700 -6.07000 46.02200
C  24.92600 -8.71300 47.76500
C  28.06100 -8.24800 45.76400
C  28.25800 -9.56500 46.28700
N  26.47600 -3.21900 45.10500
C  27.65700 -3.85400 45.50600
C  28.78200 -3.00200 45.25900
C  28.23300 -1.90400 44.55800
C  26.90100 -2.14300 44.34800
C  30.27000 -3.09200 45.65100
C  28.59500 -0.57500 44.00700
O  29.58900 0.15300 44.13900
C  27.34500 -0.12400 43.17500
C  27.00000 1.31100 43.63100
O  26.17900 1.65100 44.51300
O  27.87500 2.10000 42.90600
C  27.99000 3.50800 43.23400
H  20.77000 -2.81400 42.65800
H  22.86500 -8.16600 45.52700
H  28.63400 -5.62700 46.13100
H  24.21400 0.42700 42.42900
H  22.61100 -1.47300 41.01600
H  20.65500 -0.33000 42.11400
H  21.89500 0.90400 42.01000
H  21.63600 0.03800 43.52100
H  25.37300 0.35900 40.39100
H  23.91500 -0.46700 39.75400
H  25.32200 -2.56800 40.72300
H  26.66600 -1.38300 40.45500
H  18.86200 -5.52300 42.20400
H  18.86700 -3.97800 42.91100
H  18.29900 -5.29600 43.86000
H  19.45700 -9.29600 45.92600
H  20.98800 -8.53900 46.53400
H  20.96100 -9.50600 45.02800
H  25.51900 -8.83300 45.70400
H  27.24500 -7.35200 47.64900
H  25.70000 -8.83600 48.52300
H  24.51400 -9.67500 47.46000
H  24.11200 -8.04600 48.04900
H  28.98000 -7.67700 45.90100
H  27.92000 -8.21700 44.68400
H  29.27500 -9.67900 46.66200
H  28.08200 -10.28700 45.49000
H  27.52100 -9.78900 47.05800
H  30.39000 -2.24200 46.32200
H  30.94500 -2.86100 44.82700
H  30.40900 -4.00600 46.22900
H  27.67700 -0.19900 42.14000
H  28.18200 4.16700 42.38700
H  28.89800 3.53600 43.83600
H  27.19500 3.93800 43.84400
Mg 7.21900 53.08900 40.09900
C  6.62100 49.61400 39.90400
C  10.60500 52.37000 39.58100
C  7.74800 56.28700 39.57500
C  3.76100 53.53100 40.06700
N  8.40300 51.25600 39.62500
C  7.96900 49.96000 39.90400
C  9.12900 48.93000 39.67800
C  10.39500 49.87400 39.81500
C  9.72000 51.21600 39.62600
C  11.16000 49.65800 41.13900
C  9.16700 48.14400 38.36500
C  9.04300 48.99800 37.04300
H  7.92600 48.56600 36.12000
N  8.93500 54.17500 39.74300
C  10.22400 53.69400 39.50600
C  11.11000 54.82700 39.27500
C  10.32500 56.00600 39.25700
C  8.94800 55.52700 39.59100
C  12.60000 54.70700 39.02100
C  10.80400 57.35800 38.81900
O  11.94800 57.53900 38.36800
C  9.96700 58.55200 38.98900
N  5.91900 54.67600 39.91000
C  6.40800 55.96400 39.87200
C  5.37600 56.93900 40.12400
C  4.04100 56.06600 40.03200
C  4.54800 54.65600 39.97300
C  5.53400 57.74800 41.42600
C  2.91200 56.51300 39.00300
C  1.56500 56.79500 39.62800
N  5.53100 51.90800 39.95600
C  4.20600 52.20700 39.97100
C  3.41700 51.04300 40.15500
C  4.30600 49.94900 40.15500
C  5.57100 50.52700 39.94500
C  1.93300 51.05900 40.36000
C  4.34000 48.51900 40.32500
O  3.49200 47.67100 40.34800
C  5.89400 48.23500 40.08300
C  5.93600 47.36800 38.91700
O  5.63500 47.64300 37.80000
O  6.29300 46.12600 39.34500
C  6.31500 45.07200 38.38000
H  11.63800 52.09900 39.35500
H  8.05600 57.33200 39.51100
H  2.68200 53.69300 40.00400
H  9.13500 48.16500 40.45500
H  11.17100 49.71500 39.06600
H  12.23100 49.48600 41.03800
H  10.66200 48.86200 41.69300
H  11.17400 50.55000 41.76700
H  8.49500 47.28900 38.43900
H  10.12600 47.64500 38.22600
H  9.87100 48.65100 36.42500
H  9.07000 50.06200 37.27600
H  13.00900 53.70400 39.15000
H  13.15800 55.37000 39.68200
H  12.83900 55.08400 38.02700
H  9.59200 58.70500 40.00100
H  9.15500 58.42300 38.27300
H  10.43000 59.49100 38.68600
H  5.26200 57.65000 39.30500
H  3.54100 56.17900 40.99400
H  6.42400 57.39800 41.94900
H  4.70300 57.55500 42.10400
H  5.52000 58.82900 41.28400
H  2.81300 55.76400 38.21700
H  3.32600 57.35900 38.45500
H  1.57300 56.49400 40.67600
H  0.78700 56.28000 39.06500
H  1.40300 57.85700 39.44500
H  1.41100 50.18000 39.98200
H  1.39800 51.85200 39.83800
H  1.73000 51.27200 41.41000
H  6.26900 47.81200 41.01500
H  7.34200 44.94600 38.03500
H  5.63000 45.19700 37.54200
H  6.11800 44.11400 38.86100

