158

Mg 25.50600 1.24300 29.08800
C  27.47400 0.77000 32.00700
C  22.74300 1.74800 31.05700
C  23.70700 1.13100 26.29600
C  28.40500 0.18700 27.25700
N  25.14100 1.18600 31.29700
C  26.18900 1.32700 32.20400
C  25.60800 1.54500 33.60900
C  24.03100 1.46600 33.35800
C  23.94700 1.59000 31.80600
C  23.35400 0.22900 33.84800
C  26.05800 2.86400 34.29500
C  27.09100 2.66300 35.50300
H  26.71300 3.36000 36.85400
N  23.49700 1.42500 28.74100
C  22.53000 1.70400 29.70300
C  21.27300 1.73700 29.01600
C  21.53200 1.56000 27.63400
C  23.03000 1.46200 27.47300
C  19.96000 2.04700 29.70000
C  20.50300 1.51000 26.46100
O  20.83900 1.30400 25.26200
C  19.04300 1.75100 26.69900
N  25.97300 0.66300 27.11400
C  25.02800 0.85700 26.12600
C  25.59400 0.55700 24.75000
C  27.18600 0.49400 25.03900
C  27.17400 0.37200 26.55600
C  25.05400 -0.81400 24.04500
C  28.08600 1.69200 24.37900
C  29.25600 1.28300 23.49100
N  27.51100 0.47100 29.50200
C  28.56500 0.14200 28.63400
C  29.75100 -0.08100 29.40500
C  29.32200 0.05200 30.70700
C  27.94100 0.42500 30.72300
C  31.06700 -0.53800 28.77100
C  29.75500 0.20100 32.05400
O  30.91000 0.13400 32.46200
C  28.56900 0.60800 32.95600
C  28.32800 -0.51300 33.85600
O  27.95300 -1.62300 33.57700
O  28.58000 -0.10700 35.12700
C  28.36200 -1.09000 36.16200
H  21.87500 1.83100 31.71500
H  23.16900 1.12600 25.34600
H  29.26300 -0.14500 26.66800
H  25.95600 0.65800 34.13700
H  23.47900 2.33000 33.72900
H  23.21600 -0.50700 33.05500
H  22.36800 0.44800 34.25700
H  23.95400 -0.28200 34.60100
H  25.17700 3.43400 34.58900
H  26.55600 3.52100 33.58200
H  28.04500 3.05500 35.14900
H  27.31400 1.60900 35.66900
H  19.27800 1.23900 29.43900
H  19.61000 2.98500 29.26900
H  20.02200 2.13900 30.78500
H  18.59000 1.05700 27.40800
H  18.53700 1.72200 25.73400
H  18.92900 2.78600 27.02200
H  25.36100 1.43900 24.15400
H  27.55100 -0.45900 24.65600
H  25.75500 -1.64600 24.11600
H  24.90300 -0.51800 23.00700
H  24.11100 -1.16000 24.46900
H  28.46600 2.19000 25.27100
H  27.53400 2.41600 23.78000
H  29.03400 1.87800 22.60600
H  29.18900 0.22700 23.22700
H  30.27500 1.52800 23.79000
H  31.11100 -0.76600 27.70600
H  31.56200 -1.30100 29.37100
H  31.79300 0.27100 28.85000
H  28.66100 1.55400 33.48900
H  28.41800 -0.60600 37.13600
H  29.05500 -1.92900 36.09900
H  27.40600 -1.60300 36.05600
Mg 47.78000 34.66800 27.12800
C  46.02300 33.30700 29.71200
C  48.26000 37.51300 29.21000
C  48.80300 36.57300 24.53200
C  46.62800 32.33100 24.92700
N  47.07600 35.34800 29.05100
C  46.70400 34.45200 30.02600
C  46.92900 34.91700 31.47600
C  47.20100 36.45400 31.22500
C  47.51600 36.47100 29.76400
C  45.95900 37.43400 31.55000
C  48.22500 34.23400 32.06200
C  48.41400 34.28100 33.61100
H  47.75800 35.41500 34.45500
N  48.49800 36.70100 26.96300
C  48.69500 37.62000 27.89800
C  49.37900 38.77800 27.38200
C  49.72300 38.47200 26.03100
C  49.00200 37.21300 25.74500
C  49.57300 40.01800 28.24400
C  50.53700 39.27200 24.99100
O  50.67400 38.94200 23.77000
C  51.34300 40.45300 25.52500
N  47.42300 34.64700 24.96200
C  48.13900 35.43200 24.16400
C  48.33500 34.79400 22.68200
C  47.70400 33.40200 22.90900
C  47.20200 33.42200 24.38700
C  47.64400 35.65600 21.61900
C  48.71700 32.17200 22.70600
C  49.72800 31.72500 23.86000
N  46.63200 33.07400 27.24900
C  46.25500 32.21000 26.25200
C  45.51300 31.11600 26.91600
C  45.26000 31.59400 28.21800
C  45.99700 32.73700 28.41500
C  45.01700 29.84900 26.37300
C  44.60900 31.27400 29.43600
O  43.95700 30.32900 29.76900
C  44.94300 32.47600 30.41100
C  45.26500 31.92500 31.81300
O  46.03100 31.03300 32.10700
O  44.39900 32.44800 32.70900
C  44.39200 32.11700 34.13700
H  48.56500 38.27100 29.93500
H  49.22900 36.98600 23.61500
H  46.32600 31.43900 24.37300
H  46.02800 34.76200 32.07000
H  48.06600 36.83400 31.76900
H  45.22700 37.46700 30.74300
H  46.22900 38.48600 31.64700
H  45.33100 37.06600 32.36200
H  49.14500 34.65400 31.65600
H  48.14400 33.19400 31.74400
H  49.48400 34.27500 33.82000
H  47.97800 33.38500 34.05300
H  48.90700 40.03600 29.10700
H  49.57100 40.99000 27.75000
H  50.44800 39.93200 28.88800
H  52.06200 40.70600 24.74500
H  51.82300 40.18100 26.46500
H  50.62100 41.25900 25.65500
H  49.41000 34.71700 22.51400
H  46.86000 33.15000 22.26700
H  47.10800 36.52200 22.00800
H  46.95800 35.05100 21.02500
H  48.38500 36.12400 20.97200
H  49.42300 32.41500 21.91200
H  48.01300 31.37900 22.45400
H  49.66800 30.63700 23.84300
H  49.54000 32.14300 24.85000
H  50.77400 31.96100 23.66600
H  44.85200 28.99700 27.03300
H  45.70200 29.59000 25.56600
H  44.05500 30.06800 25.91200
H  44.03900 33.08500 30.45500
H  45.39900 32.35000 34.48400
H  44.03700 31.11200 34.36600
H  43.76200 32.87500 34.60200

