158

Mg 36.03100 2.46900 30.13200
C  33.54400 3.46900 32.34500
C  38.40200 2.75400 32.65200
C  38.29100 1.97400 27.75200
C  33.45900 2.62200 27.47500
N  36.03300 3.14700 32.27000
C  34.83400 3.38000 32.98900
C  35.09700 3.56300 34.43700
C  36.71400 3.53900 34.46700
C  37.10600 3.12300 33.05200
C  37.27400 4.91000 34.78500
C  34.41300 2.45500 35.28300
C  33.75300 2.83100 36.60600
H  34.54300 3.87000 37.53700
N  38.08600 2.49900 30.22900
C  38.89100 2.51100 31.35200
C  40.23400 1.97900 30.94300
C  40.20300 1.95200 29.49400
C  38.84700 2.18600 29.06700
C  41.29300 1.49500 31.85900
C  41.31200 1.77100 28.57000
O  41.13200 1.87200 27.39300
C  42.64200 1.35300 29.15500
N  35.86900 2.38900 27.87600
C  36.99600 1.97000 27.22300
C  36.72300 1.88900 25.71900
C  35.13200 1.84700 25.62900
C  34.78200 2.36900 27.09500
C  37.24100 3.02600 24.85300
C  34.56700 0.46300 25.41900
C  33.32900 0.33900 24.47100
N  33.93000 2.86400 29.92900
C  33.02600 2.92400 28.83400
C  31.69200 3.35500 29.28600
C  31.87300 3.62100 30.64700
C  33.24000 3.26100 30.96800
C  30.57300 3.68700 28.44000
C  31.23100 4.09700 31.88900
O  30.12100 4.58800 32.08300
C  32.24900 4.01900 32.97300
C  32.41600 5.41300 33.54700
O  32.99800 6.34100 32.97700
O  31.72200 5.55700 34.73100
C  31.57700 6.99200 35.03400
H  39.19400 2.75100 33.40400
H  38.85200 1.60700 26.89000
H  32.65900 2.69800 26.73600
H  34.69300 4.54700 34.67600
H  37.11300 2.77100 35.12900
H  36.52900 5.69400 34.92500
H  37.98400 5.33100 34.07400
H  37.93900 4.84800 35.64700
H  35.11300 1.62900 35.41000
H  33.60400 2.01100 34.70300
H  33.63500 1.87200 37.11100
H  32.76600 3.19300 36.31500
H  40.97000 1.43500 32.89900
H  42.15200 2.16500 31.83000
H  41.76900 0.56100 31.56100
H  42.99200 2.14500 29.81800
H  43.35200 1.20400 28.34200
H  42.71700 0.35800 29.59500
H  37.17200 0.96100 25.36500
H  34.69900 2.56300 24.93100
H  36.45600 3.65600 24.43600
H  37.92400 2.68700 24.07400
H  37.81800 3.60900 25.57100
H  34.27700 0.02000 26.37200
H  35.37400 -0.12700 24.98400
H  33.19000 1.25200 23.89100
H  32.42600 0.01800 24.99000
H  33.38900 -0.50300 23.78200
H  29.68900 3.72100 29.07800
H  30.61600 2.83100 27.76700
H  30.67400 4.66800 27.97600
H  31.90200 3.45500 33.83900
H  30.94300 7.24900 35.88300
H  31.13500 7.42300 34.13600
H  32.57500 7.37000 35.25400
Mg 48.69600 15.32400 28.68800
C  46.48400 15.67300 31.38200
C  51.06900 17.13700 30.48000
C  50.51400 15.63400 25.93200
C  46.00400 14.08500 26.60900
N  48.70300 16.27400 30.66300
C  47.73100 16.17300 31.60700
C  48.32000 16.70400 33.00800
C  49.81000 17.23500 32.66100
C  49.88800 16.90200 31.19400
C  50.00000 18.64000 33.14300
C  48.24000 15.49700 34.04100
C  47.72600 15.81400 35.48100
H  47.67300 17.24600 35.96300
N  50.51400 16.25200 28.26000
C  51.34800 16.90600 29.10400
C  52.56800 17.33100 28.40300
C  52.47400 16.74700 27.05500
C  51.16600 16.12000 27.05900
C  53.57500 18.28000 28.99300
C  53.49400 16.85200 25.87800
O  53.19300 16.47800 24.73200
C  54.85600 17.37900 26.13600
N  48.24900 14.87700 26.55300
C  49.25200 15.08200 25.65400
C  48.89600 14.56900 24.29800
C  47.50400 13.88400 24.50100
C  47.22800 14.27700 25.95300
C  48.95900 15.70900 23.15000
C  47.37600 12.33200 24.09500
C  46.19400 12.07700 23.05400
N  46.70400 14.87300 28.90000
C  45.77200 14.37900 27.98400
C  44.48600 14.17300 28.67700
C  44.72300 14.64900 30.02800
C  46.10000 15.06700 30.09500
C  43.23500 13.56500 28.01800
C  44.14900 14.86100 31.30500
O  42.98500 14.60600 31.64400
C  45.28500 15.42400 32.26000
C  44.72600 16.58900 32.94600
O  44.65700 17.74100 32.46800
O  44.24400 16.21600 34.17300
C  43.66700 17.29500 34.89300
H  51.89600 17.60600 31.01700
H  51.26700 15.76100 25.15100
H  45.24400 13.55100 26.03400
H  47.69400 17.53900 33.32400
H  50.59700 16.62400 33.10300
H  51.00300 18.76400 33.55000
H  49.29600 19.05300 33.86600
H  50.05700 19.32600 32.29800
H  49.20000 15.00500 34.19700
H  47.54600 14.71400 33.73500
H  48.24000 15.21500 36.23300
H  46.68600 15.49700 35.56900
H  53.90500 19.10900 28.36700
H  54.41700 17.62900 29.22900
H  53.28800 18.67700 29.96600
H  54.91800 18.46700 26.12400
H  55.50500 16.94500 25.37600
H  55.24000 17.10400 27.11800
H  49.57100 13.75200 24.04300
H  46.84500 14.51800 23.90800
H  48.16500 15.52500 22.42700
H  49.90900 15.61900 22.62300
H  48.85400 16.67600 23.64300
H  47.11000 11.78800 25.00200
H  48.33900 11.96400 23.74200
H  46.61200 11.51700 22.21700
H  45.85700 13.01800 22.62100
H  45.35000 11.53800 23.48500
H  43.14200 14.24200 27.16900
H  42.29400 13.47100 28.56100
H  43.60600 12.58800 27.70800
H  45.45300 14.63900 32.99700
H  44.27800 17.74000 35.67900
H  42.83500 16.89500 35.47300
H  43.23300 18.10000 34.29900

