158

Mg 46.67400 24.37200 28.53900
C  46.95700 26.61900 31.39200
C  45.77000 21.96000 30.68400
C  46.65200 22.45500 25.71600
C  47.90900 27.12900 26.52900
N  46.46800 24.33100 30.88100
C  46.52600 25.32300 31.78100
C  46.21400 24.74700 33.19800
C  45.96900 23.14700 32.91200
C  45.95300 23.13900 31.39600
C  47.07600 22.21600 33.53200
C  45.02000 25.53500 33.79300
C  45.18300 25.96800 35.25700
H  45.37100 24.95600 36.35800
N  46.30900 22.46200 28.25800
C  45.93700 21.58700 29.27800
C  45.69800 20.24900 28.66400
C  45.85200 20.45200 27.23400
C  46.32100 21.88200 26.99500
C  45.25500 19.06600 29.50200
C  45.43100 19.47600 26.07700
O  45.50000 19.85600 24.95000
C  44.78200 18.14300 26.50500
N  47.05200 24.78900 26.43700
C  46.99200 23.82400 25.46900
C  47.29100 24.36700 24.07400
C  47.47900 25.89100 24.33800
C  47.57100 25.92900 25.86200
C  48.48200 23.73800 23.40200
C  46.35800 26.73600 23.68600
C  44.95000 26.39700 24.18600
N  47.17800 26.41000 28.82900
C  47.66600 27.44000 27.86000
C  48.03100 28.62200 28.63200
C  47.61200 28.33500 29.95700
C  47.17800 27.01100 30.03000
C  48.56500 29.83600 28.04300
C  47.66200 28.93300 31.31200
O  48.00000 30.04300 31.70300
C  47.24100 27.79700 32.22600
C  48.36400 27.56100 33.22000
O  48.94900 26.51200 33.38800
O  48.55000 28.60900 34.14700
C  49.11800 28.17900 35.43500
H  45.44500 21.08800 31.25400
H  46.67800 21.79900 24.84300
H  48.22400 27.99500 25.94300
H  47.16200 24.83300 33.72900
H  45.00900 22.76000 33.25200
H  47.45000 21.74700 32.62200
H  46.69900 21.38900 34.13400
H  47.79800 22.81700 34.08500
H  44.27700 24.74300 33.89200
H  44.59000 26.27000 33.11200
H  44.35400 26.62400 35.52000
H  46.07400 26.59100 35.33600
H  44.16900 18.99000 29.43900
H  45.53400 19.26200 30.53700
H  45.74000 18.18900 29.07400
H  45.40800 17.35200 26.91900
H  44.53500 17.71300 25.53400
H  43.88200 18.25400 27.10900
H  46.42300 24.07800 23.48100
H  48.36800 26.29700 23.85500
H  48.42600 23.64700 22.31700
H  48.58500 22.73300 23.81200
H  49.37300 24.29500 23.68800
H  46.19400 26.66000 22.61100
H  46.50600 27.79900 23.87500
H  44.55700 25.44300 23.83500
H  44.29300 27.16400 23.77700
H  44.83500 26.30400 25.26600
H  48.22800 29.87600 27.00700
H  49.65100 29.76300 28.10100
H  48.20200 30.68400 28.62300
H  46.36000 28.03700 32.82100
H  48.22400 27.79600 35.92600
H  49.58000 28.96300 36.03500
H  49.89000 27.41100 35.39600
Mg -10.65400 16.55800 42.90600
C  -7.15700 17.06900 42.93500
C  -11.17700 19.86800 42.50400
C  -13.91500 15.87700 42.18600
C  -9.90100 13.02300 42.66100
N  -9.31900 18.25700 42.65500
C  -7.92000 18.24000 42.70400
C  -7.39700 19.73700 42.56900
C  -8.72600 20.61100 42.68300
C  -9.81700 19.52000 42.64400
C  -8.85400 21.51400 43.89600
C  -6.52900 19.98900 41.21900
C  -5.03400 20.22100 41.45300
H  -4.13600 19.38500 40.58600
N  -12.29900 17.71200 42.33000
C  -12.36900 19.08100 42.26000
C  -13.70100 19.45400 41.86700
C  -14.51100 18.30900 41.79400
C  -13.55600 17.23000 42.05700
C  -14.16400 20.88300 41.47500
C  -16.04900 18.31200 41.42200
O  -16.62400 19.38000 41.48900
C  -16.78600 17.12200 41.15700
N  -11.65900 14.66300 42.21100
C  -13.05000 14.74700 42.35100
C  -13.57500 13.31200 42.68500
C  -12.30900 12.38000 42.49200
C  -11.21300 13.42100 42.46500
C  -14.38100 13.23700 44.07500
C  -12.40700 11.55200 41.15500
C  -11.92200 10.07200 41.21500
N  -8.89800 15.24600 42.88700
C  -8.77300 13.85200 42.85700
C  -7.43400 13.54500 42.98600
C  -6.70500 14.78500 43.07900
C  -7.69400 15.76100 42.89600
C  -6.99000 12.20700 42.99800
C  -5.39200 15.35400 43.14200
O  -4.29600 14.82400 43.14200
C  -5.62600 16.92000 43.22500
C  -5.27700 17.18700 44.65800
O  -6.03000 17.06300 45.61800
O  -4.03200 17.77400 44.67800
C  -3.58500 18.29600 45.98900
H  -11.16700 20.95500 42.40400
H  -14.97700 15.67000 42.33000
H  -9.77600 11.94100 42.74400
H  -6.83000 20.00100 43.46200
H  -8.85300 21.27900 41.83100
H  -7.86700 21.97000 43.97700
H  -9.21800 20.88300 44.70600
H  -9.51600 22.34200 43.64600
H  -7.00600 20.76100 40.61600
H  -6.71400 19.11400 40.59500
H  -4.80700 19.99900 42.49600
H  -4.87600 21.28200 41.25700
H  -13.19900 21.37200 41.34600
H  -14.80000 21.30700 42.25200
H  -14.69600 20.76200 40.53100
H  -17.77900 17.45800 40.85800
H  -16.85500 16.63000 42.12700
H  -16.18900 16.50400 40.48600
H  -14.34600 12.93200 42.01400
H  -12.19400 11.72400 43.35500
H  -14.41600 14.20100 44.58100
H  -13.61500 12.82800 44.73400
H  -15.30900 12.67100 44.00000
H  -11.82500 12.14300 40.44800
H  -13.46400 11.54300 40.88800
H  -11.66300 9.85000 42.25000
H  -11.07800 9.92700 40.54100
H  -12.70300 9.34900 40.97800
H  -7.65000 11.35300 43.15200
H  -6.22500 12.19900 43.77500
H  -6.40800 12.18200 42.07700
H  -4.92400 17.41900 42.55800
H  -3.06300 19.21200 45.71400
H  -2.94600 17.49900 46.37100
H  -4.33500 18.64600 46.69800

