158

Mg 24.42500 -8.37900 47.22600
C  26.69400 -6.01200 46.22900
C  22.41300 -7.35200 44.64200
C  22.36600 -11.10800 47.62000
C  26.79200 -9.84000 49.09400
N  24.52800 -6.68700 45.74400
C  25.51000 -5.80100 45.58200
C  25.13400 -4.75300 44.52800
C  23.75700 -5.25100 43.95200
C  23.51200 -6.52000 44.84100
C  22.57600 -4.20700 44.16900
C  26.20900 -4.66200 43.38300
C  26.85600 -3.26300 43.24800
H  26.60500 -2.68500 41.86200
N  22.60200 -9.00100 46.40400
C  21.95400 -8.42900 45.35700
C  20.64700 -9.05300 45.16100
C  20.59100 -10.21500 46.00100
C  21.89500 -10.21500 46.70100
C  19.65200 -8.47400 44.21100
C  19.41000 -11.21100 46.00300
O  18.40000 -10.86500 45.37900
C  19.46000 -12.46900 46.85500
N  24.61000 -10.26200 48.12700
C  23.58300 -11.14800 48.29200
C  23.93300 -12.25000 49.30900
C  25.36400 -11.79500 49.88800
C  25.58000 -10.53200 48.96100
C  22.85200 -12.56800 50.41000
C  26.51600 -12.82300 49.94600
C  26.35600 -14.21600 49.15500
N  26.35200 -8.02000 47.74800
C  27.23700 -8.70300 48.49900
C  28.45900 -7.94500 48.58400
C  28.30600 -6.90000 47.64700
C  26.98600 -7.00400 47.18800
C  29.64900 -8.27000 49.38700
C  29.04400 -5.75400 47.02700
O  30.18300 -5.34300 47.17900
C  27.98300 -5.08900 46.13400
C  27.73100 -3.65600 46.58400
O  27.07100 -3.29000 47.55100
O  28.42000 -2.81400 45.71700
C  28.32400 -1.45900 46.09900
H  21.73400 -7.00400 43.86000
H  21.73400 -11.97600 47.82200
H  27.60300 -10.19300 49.73500
H  24.95000 -3.86900 45.13800
H  23.86100 -5.51000 42.89800
H  21.90100 -4.63600 44.90900
H  22.09100 -4.08200 43.20100
H  22.92800 -3.21100 44.43700
H  25.88200 -4.95300 42.38500
H  26.99200 -5.39600 43.57200
H  27.94200 -3.31400 43.33600
H  26.44400 -2.58900 43.99900
H  18.67200 -8.85500 44.49900
H  19.77200 -8.82900 43.18700
H  19.66900 -7.38500 44.23200
H  19.67200 -12.10100 47.85900
H  20.15200 -13.20500 46.44700
H  18.48500 -12.95600 46.87700
H  23.90000 -13.15000 48.69600
H  25.09900 -11.30100 50.82300
H  23.27200 -12.52400 51.41400
H  22.47800 -13.56300 50.16700
H  22.04900 -11.83200 50.35000
H  26.60700 -13.15900 50.97800
H  27.53100 -12.47100 49.75900
H  27.35500 -14.56600 48.89600
H  25.87700 -14.13900 48.17900
H  25.88000 -14.96900 49.78300
H  29.75100 -7.63700 50.26900
H  30.51800 -8.16900 48.73700
H  29.52200 -9.28500 49.76500
H  28.36600 -5.10100 45.11400
H  28.81800 -1.25300 47.04900
H  27.29200 -1.15100 46.26600
H  28.67100 -0.77600 45.32300
Mg 29.48100 59.93400 41.06900
C  26.28200 58.75500 40.04200
C  30.88300 57.09400 39.67000
C  32.36700 61.47000 41.22700
C  27.76700 63.12400 41.66000
N  28.65000 58.20300 39.96600
C  27.34600 57.92400 39.63200
C  27.28400 56.67200 38.88300
C  28.74600 56.03100 39.12600
C  29.44900 57.19000 39.68900
C  28.74000 54.97300 40.21200
C  26.85600 56.77600 37.40100
C  26.06600 55.56600 36.85700
H  26.42900 55.08300 35.53000
N  31.37000 59.29000 40.73600
C  31.78100 58.11300 40.17800
C  33.22700 58.04000 40.19600
C  33.69300 59.28500 40.63000
C  32.46000 60.07300 40.97500
C  34.00100 56.86400 39.72700
C  35.13500 59.64200 40.81500
O  36.02100 58.84200 40.55100
C  35.67500 60.93100 41.35700
N  30.02200 62.06500 41.32600
C  31.34000 62.31400 41.40900
C  31.60800 63.77900 41.61200
C  30.17700 64.28600 42.02900
C  29.18400 63.15200 41.61600
C  32.59500 64.11500 42.77800
C  29.83600 65.59000 41.27300
C  30.06200 66.87000 42.16100
N  27.48900 60.83400 40.99200
C  26.97900 62.07000 41.29200
C  25.50800 61.94400 41.35900
C  25.20900 60.66400 40.88500
C  26.43000 60.04500 40.63000
C  24.44400 63.00900 41.72000
C  24.18800 59.74300 40.55300
O  22.96100 59.83600 40.72500
C  24.77900 58.45800 39.98700
C  24.42300 57.17500 40.60900
O  24.20800 56.90100 41.77600
O  24.08700 56.32000 39.63400
C  23.44200 54.96700 39.96600
H  31.31200 56.12400 39.41000
H  33.35100 61.94200 41.26600
H  27.36300 64.08400 41.98800
H  26.48600 56.00400 39.20700
H  29.18200 55.76000 38.16400
H  27.77300 54.83300 40.69600
H  29.44900 55.07400 41.03400
H  28.94400 54.01200 39.73900
H  27.81400 56.93500 36.90600
H  26.30700 57.66000 37.07800
H  25.01600 55.84200 36.76700
H  26.18900 54.62300 37.39000
H  34.52500 57.10100 38.80100
H  33.38000 55.96900 39.70300
H  34.76200 56.73100 40.49700
H  35.57000 61.71500 40.60800
H  36.73300 60.81800 41.59200
H  35.21600 61.29900 42.27500
H  31.93200 64.19400 40.65700
H  29.97200 64.41400 43.09200
H  32.73300 63.28400 43.47000
H  32.32600 65.04900 43.27200
H  33.52000 64.30600 42.23300
H  28.80500 65.67800 40.93100
H  30.48900 65.71500 40.41000
H  31.04700 67.29500 41.97100
H  30.11900 66.59800 43.21500
H  29.26200 67.60900 42.10000
H  24.26000 63.44100 40.73600
H  24.78700 63.76900 42.42200
H  23.60900 62.44600 42.13600
H  24.39200 58.44800 38.96800
H  23.51900 54.37300 39.05500
H  22.37700 55.12600 40.13800
H  23.89200 54.41000 40.78900

