158

Mg 26.62600 50.25000 25.88600
C  24.30600 51.67300 28.20500
C  28.52100 49.42400 28.52900
C  28.84200 49.29900 23.57800
C  24.52400 51.49200 23.27900
N  26.40100 50.41200 28.04500
C  25.39300 51.01400 28.75700
C  25.59100 51.01500 30.18900
C  27.07200 50.63600 30.38400
C  27.42700 50.13500 28.97400
C  27.97100 51.85800 30.84100
C  24.49100 50.17300 30.93300
C  23.82300 50.80900 32.16700
H  23.70300 49.98200 33.40800
N  28.50600 49.46800 26.05400
C  29.09700 49.12900 27.25500
C  30.42300 48.63300 26.92900
C  30.51900 48.57800 25.46600
C  29.26900 49.13200 24.95600
C  31.32300 48.22800 27.98000
C  31.59400 48.04300 24.61000
O  31.57800 47.94400 23.40900
C  32.76400 47.46300 25.35500
N  26.65900 50.30200 23.72700
C  27.71000 49.88700 23.04500
C  27.48300 50.03900 21.52700
C  26.10000 50.65300 21.41300
C  25.76700 50.86800 22.90700
C  28.58200 50.98800 20.90200
C  24.91800 49.90800 20.69400
C  24.15000 50.59200 19.59000
N  24.81400 51.39700 25.72800
C  24.10500 51.75400 24.60200
C  22.89500 52.44300 25.07700
C  22.92200 52.42200 26.45300
C  24.11000 51.75500 26.76000
C  21.78800 52.96300 24.21900
C  22.19300 52.78400 27.69000
O  21.16200 53.43100 27.80500
C  23.06700 52.36800 28.85500
C  23.34700 53.60500 29.61500
O  23.99700 54.58400 29.21300
O  22.79800 53.46800 30.88300
C  23.31000 54.37000 31.87700
H  29.09000 49.01200 29.36500
H  29.50400 48.89200 22.81100
H  23.90900 51.92800 22.48900
H  25.59900 52.02600 30.59700
H  27.11100 49.87200 31.16000
H  28.89800 51.74300 30.27900
H  28.10400 51.96000 31.91800
H  27.53300 52.80400 30.52200
H  24.83600 49.16000 31.14000
H  23.73900 50.02700 30.15800
H  22.79700 51.07200 31.90700
H  24.38900 51.70500 32.42400
H  31.56300 47.16500 27.98500
H  30.95000 48.28100 29.00300
H  32.22100 48.79000 27.72300
H  32.42100 46.66000 26.00800
H  33.31300 48.21500 25.92200
H  33.33200 46.94600 24.58200
H  27.48300 49.09600 20.98100
H  26.12900 51.65500 20.98700
H  29.40300 51.06400 21.61500
H  28.32200 52.02500 20.68900
H  28.93600 50.55700 19.96600
H  24.16600 49.62300 21.43000
H  25.46700 49.03200 20.34800
H  24.34100 49.90200 18.76800
H  24.56900 51.56300 19.32600
H  23.09400 50.77000 19.79700
H  22.08300 53.62300 23.40300
H  21.20600 53.60000 24.88500
H  21.15300 52.12700 23.92600
H  22.38900 51.72300 29.41400
H  23.63700 53.74500 32.70900
H  22.42600 54.92800 32.18700
H  24.09000 55.08900 31.62600
Mg 8.78700 47.86600 26.99100
C  7.28800 47.54500 30.16000
C  11.76400 48.41500 28.52700
C  9.89900 48.85200 24.09000
C  5.46800 47.64300 25.65900
N  9.43700 47.97700 29.16300
C  8.68600 47.68900 30.22800
C  9.55000 47.80200 31.52300
C  10.95900 48.35200 30.98900
C  10.72300 48.26100 29.47500
C  11.42800 49.82300 31.44300
C  9.68800 46.53100 32.43400
C  9.48300 46.90300 33.91300
H  9.64100 45.84300 34.94800
N  10.56700 48.33900 26.35400
C  11.69400 48.58600 27.16200
C  12.79700 48.75100 26.24600
C  12.32400 48.79100 24.95200
C  10.89600 48.76000 25.04400
C  14.23700 48.69000 26.74700
C  13.09700 48.82600 23.55200
O  12.51400 48.90300 22.45900
C  14.58700 48.83000 23.59100
N  7.86000 48.03200 25.10200
C  8.54700 48.60500 24.07300
C  7.63100 48.92000 22.86500
C  6.23100 48.44600 23.35300
C  6.52400 47.96400 24.79900
C  7.74700 50.39000 22.34400
C  5.63800 47.37200 22.36800
C  5.12000 47.83700 21.03700
N  6.78800 47.62900 27.68600
C  5.61300 47.53900 27.04000
C  4.55300 47.49800 28.04300
C  5.20200 47.52900 29.24100
C  6.56900 47.64400 28.97700
C  3.07800 47.33700 27.76100
C  4.90900 47.56300 30.63000
O  3.85600 47.48000 31.19800
C  6.29900 47.43900 31.27600
C  6.33400 46.11100 31.95100
O  6.64400 45.01800 31.46400
O  5.96000 46.32800 33.17900
C  6.14300 45.23100 34.12700
H  12.73700 48.60000 28.98500
H  10.27000 49.19900 23.12400
H  4.45700 47.76600 25.26500
H  9.14400 48.60200 32.14100
H  11.75300 47.61800 31.12600
H  12.48700 49.79900 31.69900
H  10.89200 50.13800 32.33700
H  11.18300 50.60600 30.72500
H  10.67600 46.08300 32.32800
H  8.91600 45.83000 32.11400
H  8.49000 47.33500 34.03800
H  10.26500 47.63100 34.12700
H  14.59800 49.64300 26.36000
H  14.83600 47.82500 26.46400
H  14.25100 48.65800 27.83600
H  14.99300 49.58000 24.27000
H  15.03500 48.98000 22.60800
H  14.86600 47.83300 23.93100
H  7.94200 48.29100 22.03100
H  5.59400 49.32600 23.45100
H  8.32100 51.06000 22.98500
H  6.76200 50.73200 22.02600
H  8.17000 50.39400 21.33900
H  4.76900 46.96900 22.88800
H  6.28600 46.51300 22.19700
H  5.39300 48.88700 20.92700
H  4.03100 47.79200 21.01100
H  5.63800 47.30000 20.24200
H  2.64300 46.71900 28.54600
H  2.90400 46.76300 26.85100
H  2.76000 48.38000 27.75600
H  6.42400 48.27800 31.96100
H  6.27500 45.64900 35.12500
H  7.02500 44.63100 33.90600
H  5.30600 44.55600 34.30800

