158

Mg 36.28900 48.78900 26.18200
C  36.63100 46.78800 29.05600
C  35.00900 51.24700 28.08200
C  35.79100 50.50500 23.31800
C  37.32100 45.90500 24.22100
N  35.82400 48.95500 28.35800
C  36.12000 48.05600 29.34200
C  36.02600 48.71100 30.73600
C  35.25200 50.03400 30.33300
C  35.40400 50.14300 28.81800
C  33.80900 50.11600 30.76900
C  37.42100 48.93200 31.36100
C  37.54900 49.25200 32.88700
H  36.28400 49.37700 33.81600
N  35.52200 50.68900 25.71900
C  35.06100 51.56500 26.74400
C  34.69300 52.81600 26.00400
C  35.03300 52.59200 24.64600
C  35.42000 51.21400 24.47700
C  34.28800 54.05600 26.67700
C  34.96400 53.57700 23.43100
O  35.30600 53.29600 22.30000
C  34.48300 54.94300 23.54100
N  36.46200 48.26500 24.03500
C  36.29700 49.23700 23.10200
C  36.64100 48.69400 21.74800
C  37.30900 47.28100 22.06200
C  36.99900 47.05900 23.51900
C  35.41300 48.65200 20.74400
C  38.81000 47.27400 21.88700
C  39.43100 46.33100 20.79500
N  36.85200 46.81800 26.54400
C  37.29100 45.78100 25.66900
C  37.51400 44.61800 26.42900
C  37.29100 44.98800 27.80200
C  36.91700 46.34300 27.80300
C  37.92800 43.29800 25.85300
C  37.40700 44.45700 29.05500
O  37.89600 43.40900 29.42900
C  36.96900 45.61000 29.99500
C  35.87800 45.25200 30.98300
O  34.75600 44.89400 30.66500
O  36.25900 45.53500 32.21500
C  35.14200 45.53500 33.18000
H  34.76500 52.16300 28.62400
H  35.96600 51.10100 22.42000
H  37.71700 45.02300 23.71300
H  35.37100 48.05800 31.31400
H  35.75300 50.88600 30.79400
H  33.53200 49.12300 31.12500
H  33.22800 50.40400 29.89300
H  33.64000 50.85600 31.55100
H  37.90900 49.69800 30.75800
H  37.92900 47.97400 31.25300
H  38.05900 50.20400 33.03800
H  38.13100 48.47100 33.37600
H  33.78300 53.97500 27.63900
H  33.49700 54.55400 26.11700
H  35.21000 54.63800 26.68500
H  35.00400 55.43400 24.36300
H  33.44600 54.90600 23.87400
H  34.59700 55.42700 22.57100
H  37.31500 49.42900 21.30800
H  36.82900 46.52800 21.43600
H  35.01400 47.64100 20.82000
H  35.59200 48.98700 19.72200
H  34.62000 49.27900 21.15200
H  39.33500 47.05300 22.81500
H  39.17100 48.26800 21.62300
H  40.05500 46.98700 20.18800
H  38.66500 45.95100 20.11800
H  39.99400 45.46800 21.15000
H  38.91700 43.53600 25.46000
H  37.37800 43.10500 24.93200
H  37.78500 42.47000 26.54700
H  37.75400 45.81500 30.72300
H  35.40400 45.98400 34.13800
H  34.90100 44.49700 33.41000
H  34.36200 46.12100 32.69500
Mg -4.41200 26.10500 25.59600
C  -3.10200 27.30400 28.58700
C  -6.41100 24.01600 27.55800
C  -5.16800 24.33500 22.77400
C  -2.03700 27.82400 23.91600
N  -4.48000 25.50100 27.78800
C  -3.96400 26.27500 28.75000
C  -4.50300 25.87000 30.11100
C  -5.18700 24.53700 29.83200
C  -5.45600 24.68100 28.31300
C  -4.30900 23.27400 30.18800
C  -5.43100 26.92400 30.79700
C  -5.89800 26.63800 32.25700
H  -5.34400 25.52000 33.03600
N  -5.68600 24.47700 25.16200
C  -6.52100 23.85300 26.12600
C  -7.27900 22.86300 25.44300
C  -6.89500 22.85400 24.07700
C  -5.87000 23.89500 23.95600
C  -8.19500 21.92500 26.18600
C  -7.39900 21.90000 22.95300
O  -6.95600 22.01800 21.73900
C  -8.60100 20.99400 23.27100
N  -3.76400 26.13700 23.59200
C  -4.13700 25.30200 22.55800
C  -3.38700 25.58500 21.28500
C  -2.53400 26.83300 21.70300
C  -2.76100 26.92300 23.15500
C  -2.62500 24.33200 20.78700
C  -2.76200 28.06600 20.90600
C  -1.54100 28.85700 20.35500
N  -2.93200 27.38000 26.13700
C  -2.06600 28.11600 25.30300
C  -1.44300 29.15600 26.07300
C  -1.81900 28.86300 27.41600
C  -2.65200 27.72900 27.39000
C  -0.47600 30.23300 25.55500
C  -1.58000 29.21100 28.72500
O  -0.87500 30.04800 29.27000
C  -2.44800 28.27600 29.59000
C  -1.61800 27.56400 30.61900
O  -0.88000 26.59400 30.44000
O  -1.87700 28.05700 31.86800
C  -1.26700 27.40200 33.02700
H  -7.15100 23.52300 28.19200
H  -5.41400 23.79600 21.85600
H  -1.49900 28.60400 23.37400
H  -3.63100 25.68600 30.73800
H  -6.03900 24.39800 30.49800
H  -4.82800 22.69700 30.95400
H  -3.31700 23.32100 30.63800
H  -4.06500 22.50900 29.45100
H  -6.40000 26.92900 30.29700
H  -5.17400 27.96000 30.57800
H  -6.98700 26.66900 32.22900
H  -5.57000 27.49500 32.84600
H  -8.27000 22.21700 27.23300
H  -7.88900 20.88700 26.05300
H  -9.20300 22.08100 25.80400
H  -8.39600 20.15500 23.93600
H  -8.92700 20.52500 22.34200
H  -9.41700 21.59400 23.67200
H  -4.16200 25.87500 20.57500
H  -1.49100 26.52400 21.77000
H  -2.94500 24.06200 19.78100
H  -2.70600 23.45400 21.42800
H  -1.55700 24.53000 20.70000
H  -3.35300 28.77600 21.48500
H  -3.28900 27.67600 20.03500
H  -1.43800 29.81200 20.87000
H  -1.66200 28.92900 19.27400
H  -0.57700 28.36100 20.46600
H  -0.26400 30.03500 24.50400
H  0.43200 30.09300 26.14100
H  -0.92500 31.20400 25.76200
H  -3.22200 28.82900 30.12300
H  -1.40600 26.32200 32.98500
H  -1.76200 27.82900 33.89900
H  -0.21200 27.64200 33.16300

