158

Mg 27.07200 49.47100 26.00100
C  25.23900 50.91600 28.79200
C  29.64500 48.89400 28.25200
C  28.89500 48.71900 23.28900
C  24.54000 50.74400 23.94300
N  27.38500 49.91000 28.32500
C  26.43000 50.33300 29.22000
C  26.90800 50.04100 30.68200
C  28.43300 49.64700 30.50800
C  28.53200 49.46000 28.92500
C  29.52800 50.61100 31.01000
C  26.00500 49.04600 31.52000
C  25.57700 49.63100 32.83400
H  26.57800 49.98200 33.91900
N  28.96400 48.83400 25.82700
C  29.85800 48.49100 26.85500
C  31.15100 48.13000 26.21100
C  31.00500 48.18700 24.78300
C  29.56800 48.59000 24.57200
C  32.37000 47.74600 26.99700
C  32.09700 48.00200 23.76000
O  31.84000 48.02400 22.57400
C  33.50000 47.72600 24.09000
N  26.72200 49.67400 23.84100
C  27.65200 49.19800 22.93500
C  27.01700 49.41600 21.51300
C  25.52000 49.89600 21.82900
C  25.53500 49.98700 23.32400
C  27.74600 50.38600 20.55600
C  24.46000 48.98800 21.16500
C  24.01700 47.64000 22.01600
N  25.25600 50.53000 26.25000
C  24.30100 50.94600 25.30900
C  23.16200 51.62900 25.95900
C  23.54300 51.60700 27.31700
C  24.81800 50.97000 27.47400
C  22.00800 52.21700 25.20400
C  23.06500 51.87400 28.69400
O  22.03000 52.42700 29.06200
C  24.12600 51.43100 29.63400
C  24.34200 52.49600 30.62100
O  25.29900 53.27100 30.60800
O  23.40300 52.45300 31.58700
C  23.65600 53.32600 32.76000
H  30.54800 48.67700 28.82500
H  29.53400 48.51300 22.42800
H  23.74100 51.04200 23.26200
H  26.90800 50.99900 31.20300
H  28.54900 48.67300 30.98500
H  30.16100 50.90300 30.17100
H  30.17100 50.32500 31.84200
H  29.06700 51.51700 31.40300
H  26.48700 48.07100 31.59500
H  25.06200 48.86800 31.00400
H  24.78300 48.97600 33.19200
H  25.10900 50.60900 32.72200
H  32.14700 47.89500 28.05300
H  33.21900 48.40200 26.80400
H  32.58800 46.74200 26.63300
H  34.05700 47.57600 23.16400
H  33.70300 46.83400 24.68200
H  33.78000 48.65000 24.59700
H  27.01100 48.44200 21.02400
H  25.38000 50.89600 21.42100
H  28.75600 50.46700 20.95700
H  27.14900 51.29700 20.54600
H  27.69900 50.06500 19.51500
H  24.84600 48.57800 20.23200
H  23.58400 49.60900 20.97700
H  24.27400 46.76800 21.41400
H  22.94700 47.64200 22.22300
H  24.51000 47.50800 22.97900
H  21.79200 51.54600 24.37300
H  22.16400 53.18400 24.72600
H  21.15900 52.29700 25.88300
H  23.86700 50.52400 30.17900
H  23.59600 54.36500 32.43900
H  24.65000 53.10000 33.14700
H  22.99200 53.13300 33.60200
Mg 0.61000 43.50200 26.56600
C  2.98500 43.29400 29.13500
C  -1.72100 42.62100 28.81400
C  -1.52200 42.93400 23.99800
C  3.25300 43.91200 24.26900
N  0.64900 43.08200 28.83800
C  1.66400 43.07600 29.68100
C  1.20700 42.88800 31.16300
C  -0.34600 42.59600 30.97900
C  -0.45300 42.68300 29.43000
C  -0.87200 41.28100 31.52100
C  1.66200 44.07900 32.05300
C  1.94100 43.71500 33.51800
H  1.41800 42.39300 34.07300
N  -1.36100 43.12900 26.43300
C  -2.16000 42.69000 27.47800
C  -3.54000 42.51300 27.02300
C  -3.42700 42.58100 25.60500
C  -2.05000 42.86300 25.30900
C  -4.69200 42.03100 27.96700
C  -4.51600 42.31400 24.61800
O  -4.31600 42.35500 23.40300
C  -5.83700 41.98500 25.04400
N  0.77000 43.62700 24.43800
C  -0.25000 43.25000 23.57700
C  0.19000 43.52100 22.13600
C  1.65700 44.07200 22.25100
C  1.93600 43.82100 23.71000
C  0.18800 42.28100 21.24400
C  1.82600 45.54000 21.79900
C  1.55100 45.69400 20.26600
N  2.60600 43.60200 26.63800
C  3.58900 43.76900 25.64000
C  4.88800 43.64600 26.22200
C  4.66700 43.39500 27.56000
C  3.30200 43.50900 27.76300
C  6.16500 43.65400 25.42000
C  5.36200 43.04000 28.79100
O  6.54900 42.68300 28.99500
C  4.32700 43.24000 29.94400
C  4.50900 42.15100 30.96200
O  4.14200 41.03100 30.82400
O  5.15000 42.69100 32.04600
C  5.47400 41.65900 33.08900
H  -2.52600 42.38100 29.51200
H  -2.05900 42.88600 23.04900
H  4.13600 44.14000 23.66900
H  1.61700 41.93600 31.50000
H  -0.99600 43.40800 31.30500
H  -1.88300 41.43500 31.90100
H  -0.20200 41.05900 32.35200
H  -0.88100 40.46600 30.79700
H  0.91700 44.87100 31.97700
H  2.65400 44.36600 31.70500
H  1.76600 44.54100 34.20700
H  3.02100 43.63000 33.64300
H  -4.35500 42.32000 28.96300
H  -4.80600 40.94700 27.93700
H  -5.71100 42.40400 27.85900
H  -5.81500 41.04500 25.59700
H  -6.45000 41.88900 24.14800
H  -6.11900 42.79900 25.71100
H  -0.26600 44.37900 21.64300
H  2.36400 43.41000 21.75000
H  0.17700 41.39100 21.87200
H  0.93500 42.25100 20.45100
H  -0.82300 42.32000 20.83800
H  2.78500 45.94700 22.11800
H  1.01700 46.01700 22.35400
H  0.54200 45.98200 19.97100
H  1.75100 44.77000 19.72300
H  2.22200 46.46600 19.88800
H  6.11800 43.07500 24.49800
H  6.87900 43.12900 26.05500
H  6.46900 44.68800 25.25900
H  4.46100 44.25600 30.31700
H  6.27900 41.99700 33.74100
H  5.73100 40.73400 32.57300
H  4.65800 41.43900 33.77800

