158

Mg 46.61800 25.02200 28.10600
C  47.30500 27.03100 30.89000
C  45.39400 22.61800 30.46300
C  46.49900 22.84800 25.58500
C  48.33000 27.32900 26.03800
N  46.51000 24.85800 30.41500
C  46.86000 25.77500 31.31600
C  46.63300 25.29200 32.75100
C  46.34400 23.77200 32.55100
C  46.00900 23.75800 31.04400
C  47.54500 22.89900 32.85000
C  45.52800 26.09200 33.51000
C  45.95000 27.01300 34.59400
H  44.90100 27.23000 35.63900
N  45.98300 23.08500 28.01000
C  45.35700 22.33000 29.00300
C  44.96300 21.06200 28.48300
C  45.42400 21.01000 27.11800
C  45.93700 22.36600 26.77900
C  44.24700 20.02400 29.37400
C  45.37000 19.88500 26.15100
O  45.63600 19.94200 24.94800
C  45.03200 18.42200 26.62000
N  47.39800 25.01600 26.12000
C  47.05700 24.08700 25.23900
C  47.69200 24.38600 23.83900
C  48.09300 25.90200 23.93700
C  47.97700 26.11300 25.46400
C  48.95700 23.49100 23.57700
C  47.13300 26.74800 23.02600
C  47.85400 27.23100 21.71800
N  47.41300 26.89200 28.36100
C  48.06700 27.67600 27.41700
C  48.36800 28.96600 28.13900
C  48.20800 28.68000 29.48800
C  47.59800 27.41300 29.56800
C  49.05900 30.21500 27.50000
C  48.51000 29.19900 30.81500
O  49.12600 30.19600 31.15800
C  47.89600 28.19600 31.78200
C  49.01200 27.77800 32.68900
O  49.94800 27.07500 32.39900
O  48.89700 28.33200 33.89800
C  49.78300 27.78800 34.90500
H  44.98300 21.93400 31.20800
H  46.64300 22.15300 24.75400
H  48.80300 28.02500 25.34200
H  47.62800 25.42900 33.17300
H  45.49500 23.36400 33.09900
H  48.00400 23.15900 33.80400
H  48.30900 23.08800 32.09600
H  47.31300 21.83700 32.77900
H  44.84700 25.37700 33.96900
H  44.98500 26.53400 32.67500
H  46.11300 27.96400 34.08600
H  46.91200 26.70600 35.00600
H  43.92600 20.29100 30.38100
H  44.88400 19.15900 29.55600
H  43.39900 19.61700 28.82300
H  45.32000 17.73200 25.82700
H  43.97000 18.29900 26.83200
H  45.54900 18.35100 27.57700
H  46.87900 24.08400 23.18000
H  49.12700 26.03000 23.61400
H  48.57100 22.47400 23.50300
H  49.39100 23.34000 24.56500
H  49.51200 23.82700 22.70100
H  46.79300 27.57700 23.64700
H  46.29000 26.15300 22.67500
H  48.84400 26.83300 21.49100
H  47.89000 28.32000 21.74800
H  47.21000 27.04200 20.85900
H  48.66900 30.45500 26.51000
H  50.03100 29.75500 27.32000
H  49.11700 31.06200 28.18400
H  47.07200 28.62400 32.35200
H  49.22500 27.26700 35.68300
H  50.45600 28.55100 35.29800
H  50.59700 27.16400 34.53600
Mg 41.47300 41.44000 26.90500
C  41.11500 43.68800 29.47500
C  41.95700 39.06300 29.31200
C  41.98700 39.18900 24.51400
C  41.33800 43.91700 24.49700
N  41.47800 41.36200 29.16100
C  41.24800 42.44500 30.01300
C  41.07700 42.05600 31.48800
C  41.52000 40.55500 31.45800
C  41.65400 40.26000 29.91000
C  42.88000 40.25000 32.19000
C  39.64900 42.32300 32.00200
C  39.50800 41.86600 33.48400
H  38.93100 42.93100 34.44800
N  41.87300 39.45500 26.87400
C  42.08000 38.60600 27.96700
C  42.60900 37.33600 27.54300
C  42.69100 37.37400 26.13000
C  42.22200 38.70000 25.78200
C  42.70100 36.21700 28.43800
C  43.08600 36.19800 25.19000
O  43.02300 36.20800 23.94600
C  43.53900 34.86500 25.80100
N  41.67800 41.60100 24.83500
C  41.89800 40.49700 24.04800
C  41.90500 40.85500 22.52500
C  41.67500 42.38400 22.53600
C  41.56300 42.70600 24.03000
C  43.23000 40.49900 21.86300
C  40.47700 42.84600 21.77200
C  39.07800 42.86800 22.39700
N  41.33200 43.37800 26.93700
C  41.22000 44.25800 25.90900
C  40.97900 45.55900 26.50200
C  40.98200 45.41500 27.87600
C  41.18600 44.06800 28.11100
C  40.71200 46.89000 25.78000
C  40.78500 46.10100 29.11800
O  40.60800 47.30400 29.26400
C  40.78600 45.00600 30.21900
C  41.77800 45.36100 31.25700
O  42.91200 45.66900 30.99500
O  41.22700 45.42900 32.52800
C  42.17700 45.77900 33.61200
H  42.16300 38.46900 30.20400
H  42.12900 38.51900 23.66300
H  40.99200 44.74100 23.87000
H  41.75800 42.68800 32.05900
H  40.74700 40.00500 31.99600
H  42.61000 39.57100 32.99900
H  43.34300 41.17400 32.53500
H  43.62300 39.83400 31.51000
H  38.96200 41.74900 31.38000
H  39.36700 43.36800 31.87600
H  40.40600 41.46200 33.95000
H  38.75600 41.07800 33.53000
H  43.68000 35.75800 28.57300
H  41.96300 35.46700 28.15100
H  42.35700 36.61200 29.39400
H  44.38400 35.01700 26.47300
H  43.75600 34.34200 24.87000
H  42.81700 34.26800 26.35800
H  41.01100 40.40500 22.09300
H  42.47500 43.01100 22.14400
H  43.50100 41.30500 21.18100
H  43.21300 39.57700 21.28100
H  43.93100 40.38000 22.68900
H  40.45300 42.11800 20.96100
H  40.68500 43.76900 21.22900
H  38.79100 43.10200 23.42200
H  38.56500 41.97600 22.03800
H  38.70600 43.74400 21.86400
H  40.99300 46.86800 24.72700
H  41.45400 47.54800 26.23100
H  39.71700 47.29600 25.96300
H  39.77500 44.81100 30.57600
H  41.71300 45.72500 34.59700
H  42.46300 46.82800 33.55000
H  43.04400 45.12700 33.72100

