158

Mg 16.22900 -1.66700 27.78100
C  15.20700 0.54400 30.23000
C  18.18000 -3.34400 29.98500
C  17.73200 -3.13700 25.13000
C  14.43700 0.30900 25.38900
N  16.76700 -1.30300 29.81300
C  16.12400 -0.42700 30.70100
C  16.59600 -0.62800 32.13900
C  17.51700 -1.89600 32.10000
C  17.49400 -2.24000 30.55200
C  18.93300 -1.76200 32.57300
C  15.46700 -0.80800 33.25700
C  15.71000 -0.29400 34.65400
H  17.13700 0.28100 34.96000
N  17.66600 -2.98800 27.53100
C  18.27700 -3.68600 28.60000
C  19.21100 -4.64100 28.05500
C  19.07100 -4.62800 26.66200
C  18.14400 -3.54800 26.38000
C  20.04800 -5.49700 28.97300
C  19.77300 -5.43000 25.62400
O  19.56500 -5.32800 24.40600
C  20.84800 -6.42300 26.02300
N  16.13400 -1.42000 25.51500
C  16.85600 -2.16900 24.65100
C  16.51600 -1.88600 23.12100
C  15.36900 -0.78000 23.40000
C  15.21200 -0.71900 24.87000
C  17.66700 -1.27900 22.30400
C  13.96000 -1.00200 22.65100
C  13.52300 -0.07300 21.52200
N  14.95000 -0.03800 27.75100
C  14.23900 0.54400 26.77500
C  13.34400 1.49300 27.31900
C  13.63100 1.50000 28.64600
C  14.66200 0.63500 28.89900
C  12.39300 2.45400 26.55400
C  13.28600 2.21300 29.84700
O  12.47300 3.10600 30.06800
C  14.26200 1.55300 30.97000
C  14.97800 2.65200 31.61600
O  15.71300 3.44300 31.10000
O  14.48300 2.85700 32.90000
C  14.79100 4.14600 33.47900
H  18.53600 -3.98600 30.79400
H  18.16700 -3.62900 24.25800
H  13.77400 0.77000 24.65400
H  17.24100 0.22900 32.33400
H  17.16900 -2.75600 32.67400
H  19.50000 -1.07700 31.94400
H  19.43800 -2.71700 32.71900
H  18.68100 -1.40700 33.57200
H  15.22100 -1.86900 33.30200
H  14.57600 -0.27600 32.92500
H  15.49500 -1.02800 35.43100
H  14.98200 0.51700 34.68600
H  19.60500 -5.52400 29.96800
H  21.04900 -5.06900 29.02200
H  20.06000 -6.51700 28.58900
H  20.51100 -7.23900 26.66200
H  21.65300 -5.89200 26.53100
H  21.18600 -6.81700 25.06400
H  15.98800 -2.65800 22.56200
H  15.71700 0.19300 23.05300
H  18.56300 -1.42000 22.90900
H  17.63400 -0.21000 22.09200
H  17.82100 -1.79600 21.35800
H  13.20600 -1.02100 23.43800
H  14.00100 -2.00200 22.21800
H  14.31100 0.67800 21.45100
H  12.60500 0.45900 21.77100
H  13.34100 -0.65700 20.62000
H  11.58200 1.84500 26.15400
H  12.96100 2.94000 25.76200
H  11.98200 3.24500 27.18200
H  13.58700 1.08900 31.68800
H  14.31300 4.95500 32.92600
H  15.86800 4.27300 33.37600
H  14.43700 4.22800 34.50700
Mg 36.30200 48.83400 26.34800
C  36.58700 46.75000 29.23100
C  35.00900 51.25600 28.39500
C  35.95700 50.74300 23.70100
C  37.66800 46.20600 24.45600
N  35.78700 49.01200 28.59200
C  36.00100 48.00700 29.56100
C  35.73000 48.58100 30.96400
C  34.96900 49.94300 30.60200
C  35.34300 50.13700 29.14400
C  33.37400 49.91000 30.94800
C  36.98100 48.73300 31.65600
C  36.93900 48.98900 33.19200
H  35.55200 49.14400 33.82200
N  35.67100 50.76700 26.11800
C  35.10700 51.58700 27.05100
C  34.66600 52.78500 26.47600
C  34.97500 52.69500 25.10500
C  35.57400 51.39300 24.87700
C  34.20000 54.05500 27.24400
C  34.72600 53.73500 23.99100
O  35.06800 53.57400 22.79100
C  33.82300 54.89500 24.20100
N  36.79900 48.49600 24.40100
C  36.47100 49.47800 23.43200
C  36.74200 48.95700 21.96900
C  37.40700 47.65100 22.29500
C  37.28100 47.43000 23.76400
C  35.42300 48.84100 21.11000
C  38.95600 47.45100 21.77000
C  39.93900 47.85500 22.90100
N  36.83800 46.76500 26.65300
C  37.42000 45.84600 25.79900
C  37.67500 44.59600 26.52200
C  37.46700 44.92900 27.90900
C  36.86000 46.20400 27.95800
C  38.08500 43.30300 25.87800
C  37.57300 44.42200 29.25500
O  37.97900 43.29400 29.65400
C  37.02700 45.56400 30.21900
C  35.87800 44.97500 30.96800
O  35.00700 44.29900 30.46600
O  35.95000 45.31400 32.28500
C  34.84500 44.93200 33.17200
H  34.76500 52.15900 28.95800
H  35.65000 51.31500 22.82300
H  38.06000 45.49600 23.72500
H  35.19400 47.80500 31.51100
H  35.41700 50.72100 31.22100
H  33.07500 50.65300 31.68700
H  33.12300 48.89000 31.24100
H  32.81600 50.14900 30.04300
H  37.43800 49.56900 31.12600
H  37.60000 47.84000 31.57200
H  37.51200 49.89000 33.40800
H  37.43600 48.19000 33.74200
H  33.32400 54.45000 26.73000
H  35.03600 54.75400 27.22000
H  33.92600 53.82000 28.27300
H  32.81900 54.53800 24.43400
H  33.88800 55.44500 23.26300
H  34.27400 55.58600 24.91400
H  37.40700 49.58000 21.37100
H  36.84900 46.82000 21.86500
H  34.46500 48.73200 21.61800
H  35.59600 47.91200 20.56700
H  35.34600 49.68500 20.42400
H  39.21600 47.84600 20.78800
H  39.00100 46.38500 21.54700
H  40.77500 48.28700 22.35100
H  40.38600 47.03600 23.46500
H  39.56000 48.62900 23.56900
H  39.02100 42.85800 26.21600
H  37.86500 43.24500 24.81200
H  37.39400 42.56000 26.27700
H  37.82100 45.82600 30.91800
H  34.18800 44.16500 32.76200
H  34.29800 45.84400 33.40900
H  35.29500 44.44000 34.03400

