158

Mg 25.46300 1.83000 29.58800
C  27.90000 1.40000 32.39400
C  23.15700 1.95900 32.00000
C  23.29100 2.04100 27.15800
C  28.14800 1.16700 27.44300
N  25.51500 1.60000 31.96300
C  26.58600 1.57900 32.86500
C  26.04400 1.79200 34.32600
C  24.48300 1.70900 34.14700
C  24.34200 1.74000 32.60400
C  23.98000 0.39800 34.90600
C  26.62700 3.07400 35.07700
C  26.91300 2.96500 36.52000
H  26.26900 4.15500 37.43000
N  23.51200 2.06500 29.50000
C  22.75300 2.19100 30.64800
C  21.37300 2.50200 30.24700
C  21.34000 2.44900 28.82700
C  22.71100 2.13500 28.44000
C  20.21500 2.68200 31.21000
C  20.04800 2.44500 27.91700
O  20.15100 2.38200 26.70100
C  18.81300 2.69400 28.44000
N  25.68600 1.43800 27.59400
C  24.66100 1.81800 26.72900
C  25.15300 1.80100 25.29300
C  26.73900 1.71400 25.44400
C  26.89000 1.37900 26.90100
C  24.44400 0.65300 24.40900
C  27.61600 2.96000 24.98800
C  27.23300 4.30100 25.64400
N  27.52900 1.24500 29.78800
C  28.42700 0.99700 28.79700
C  29.72000 0.82800 29.34800
C  29.54100 0.86800 30.71000
C  28.18300 1.21300 30.93900
C  30.98300 0.56300 28.56000
C  30.24000 0.80100 31.99600
O  31.35200 0.53200 32.23200
C  29.19300 1.17900 33.10900
C  29.05600 0.15800 34.17100
O  28.27900 -0.79900 34.19100
O  29.93200 0.42300 35.22300
C  29.79600 -0.52700 36.35700
H  22.30700 2.08600 32.67300
H  22.69100 2.37200 26.30700
H  28.93200 1.15800 26.68300
H  26.44700 0.89100 34.78900
H  24.00900 2.60000 34.55800
H  24.61400 0.29700 35.78700
H  23.85200 -0.43200 34.21200
H  22.97100 0.72400 35.15700
H  25.90200 3.87100 34.91200
H  27.47200 3.51200 34.54600
H  27.98400 2.77400 36.59900
H  26.42900 2.08500 36.94300
H  19.82300 3.66800 30.96100
H  20.44200 2.63700 32.27600
H  19.54600 1.87300 30.91600
H  18.26400 1.87400 28.90200
H  18.16400 2.97900 27.61100
H  18.86700 3.49600 29.17600
H  25.04900 2.77600 24.81500
H  27.06700 0.89900 24.79900
H  23.58100 0.24600 24.93600
H  25.24200 -0.02100 24.09900
H  24.06500 1.06800 23.47500
H  27.54400 3.08600 23.90700
H  28.65800 2.73400 25.21400
H  28.02100 4.70700 26.27900
H  26.37500 4.26600 26.31600
H  27.01500 5.04400 24.87600
H  31.79400 0.83700 29.23500
H  31.06900 1.14900 27.64400
H  31.07300 -0.51300 28.40900
H  29.67200 2.01600 33.61700
H  28.90600 -0.15500 36.86500
H  30.68400 -0.51500 36.98800
H  29.55900 -1.54900 36.06000
Mg -2.01000 34.09400 27.37100
C  -3.70200 32.28500 29.72900
C  -0.69800 36.00700 29.94900
C  -0.76200 36.20700 25.14200
C  -3.81800 32.44300 24.77100
N  -2.32500 34.20500 29.60400
C  -3.00800 33.29600 30.29600
C  -2.89600 33.52500 31.81900
C  -2.07300 34.92400 31.87800
C  -1.60400 35.05500 30.42900
C  -2.83200 36.16100 32.33300
C  -2.24300 32.28700 32.50800
C  -2.82100 32.05000 33.85300
H  -1.91100 31.94000 35.05600
N  -0.82700 35.77700 27.50600
C  -0.26600 36.34900 28.63300
C  0.81000 37.28200 28.23200
C  0.66200 37.49700 26.83200
C  -0.31500 36.48000 26.42800
C  1.72900 37.98100 29.19900
C  1.45100 38.41600 25.90700
O  1.09900 38.58900 24.70400
C  2.70800 38.88200 26.43700
N  -2.36400 34.48400 25.24200
C  -1.60100 35.30700 24.50900
C  -1.81200 35.14600 23.01600
C  -2.78100 33.90600 22.92300
C  -3.03300 33.57800 24.39700
C  -2.13900 36.44000 22.18500
C  -2.22400 32.66000 22.18700
C  -3.11800 32.09700 21.03600
N  -3.45300 32.65200 27.21400
C  -4.07900 32.01500 26.12100
C  -4.96100 30.99800 26.62300
C  -4.84900 31.06200 28.06400
C  -3.99200 32.13300 28.34000
C  -5.69200 30.00900 25.73600
C  -5.29100 30.43400 29.28300
O  -6.08700 29.52900 29.44000
C  -4.73900 31.28200 30.40100
C  -5.98700 31.89000 30.99200
O  -6.90900 32.51200 30.40900
O  -5.97300 31.55200 32.31800
C  -7.26200 31.57400 33.10400
H  -0.28800 36.55600 30.79900
H  -0.22000 36.78600 24.39100
H  -4.28500 31.86600 23.97000
H  -3.91000 33.79300 32.11500
H  -1.22600 34.79700 32.55300
H  -3.72500 35.95800 32.92500
H  -3.27300 36.82000 31.58500
H  -2.17400 36.61400 33.07500
H  -1.21400 32.63300 32.60800
H  -2.28600 31.40700 31.86600
H  -3.47500 31.17900 33.83300
H  -3.47400 32.87700 34.13400
H  1.40900 37.77400 30.22000
H  1.57000 39.05100 29.07200
H  2.75300 37.61300 29.12100
H  2.45200 39.60500 27.21100
H  3.44700 39.20900 25.70600
H  3.25200 38.11500 26.98800
H  -0.90100 34.76600 22.55400
H  -3.70600 34.21600 22.43700
H  -3.21800 36.40900 22.03000
H  -1.62600 36.40300 21.22400
H  -1.83700 37.36600 22.67300
H  -1.96500 31.88900 22.91300
H  -1.24100 32.88700 21.77300
H  -2.65900 32.15700 20.04900
H  -4.13500 32.48900 21.00300
H  -3.15300 31.04300 21.31200
H  -5.26500 29.02400 25.92100
H  -5.56800 30.30000 24.69300
H  -6.74100 30.02200 26.03200
H  -4.28700 30.57600 31.09700
H  -8.09600 32.00500 32.55000
H  -7.13100 32.16300 34.01100
H  -7.59200 30.54700 33.26100

