158

Mg 43.23900 4.22100 47.38600
C  40.70000 6.61000 46.98800
C  40.74900 1.72600 47.23800
C  45.65800 1.95600 47.25800
C  45.59000 6.88800 47.53200
N  41.02100 4.19000 47.05100
C  40.18900 5.26400 46.86800
C  38.69300 4.94400 46.65200
C  38.77700 3.43300 47.03300
C  40.27400 3.01700 47.12500
C  38.12700 3.02700 48.35400
C  38.29200 5.30200 45.19500
C  37.12500 6.32500 44.96500
H  37.25900 7.41500 43.84300
N  43.17600 2.14100 47.18300
C  42.07500 1.28700 47.09100
C  42.55900 -0.05800 46.84900
C  43.98200 -0.03200 46.76400
C  44.32300 1.39000 47.08800
C  41.70000 -1.22300 46.63500
C  44.84400 -1.20600 46.58100
O  44.43400 -2.32000 46.48100
C  46.29100 -0.96500 46.41000
N  45.37400 4.43500 47.31500
C  46.10400 3.29600 47.44400
C  47.58700 3.65200 47.66200
C  47.53300 5.19400 47.93600
C  46.08100 5.55000 47.60900
C  48.19100 2.88200 48.85600
C  48.56800 6.09300 47.20300
C  49.96800 5.40100 46.93600
N  43.22800 6.36200 47.24700
C  44.24700 7.26000 47.32800
C  43.70500 8.64000 47.15200
C  42.27300 8.42700 47.04800
C  42.04100 6.97900 47.08500
C  44.63200 9.86200 47.14900
C  41.03500 9.08300 46.99000
O  40.78200 10.30000 47.05900
C  39.99000 7.93000 46.92900
C  39.05300 8.04700 48.15700
O  39.20900 7.43800 49.23700
O  37.91500 8.71900 47.77800
C  36.78200 8.34200 48.62200
H  39.99800 0.94800 47.39100
H  46.52600 1.29300 47.27400
H  46.41000 7.60500 47.61900
H  38.20200 5.64400 47.32800
H  38.28200 2.84100 46.26300
H  37.75100 3.88800 48.90700
H  38.75500 2.42600 49.01200
H  37.17500 2.49600 48.30800
H  38.01400 4.36600 44.71200
H  39.15700 5.71900 44.68000
H  36.70300 6.84800 45.82300
H  36.39400 5.63100 44.55100
H  41.64100 -1.69900 47.61400
H  41.96600 -1.93800 45.85700
H  40.65900 -0.97600 46.42800
H  46.41200 -0.14400 45.70400
H  46.78100 -1.86100 46.03000
H  46.63400 -0.78800 47.42900
H  48.13700 3.37600 46.76200
H  47.63500 5.48400 48.98200
H  47.50600 2.17100 49.31700
H  48.69500 3.55400 49.55200
H  48.96700 2.21100 48.48800
H  48.73200 6.91500 47.90000
H  48.18000 6.52400 46.28000
H  49.81600 4.78100 46.05300
H  50.32100 4.79300 47.76900
H  50.74700 6.15500 46.82500
H  44.37700 10.49000 46.29500
H  45.70100 9.71900 46.98800
H  44.35700 10.44300 48.02900
H  39.44800 8.13300 46.00500
H  36.57900 7.27700 48.50600
H  35.86400 8.77200 48.22400
H  36.88800 8.61100 49.67300
Mg 42.27900 41.43700 26.38500
C  41.16300 43.76800 28.77200
C  42.81900 39.18200 28.90200
C  43.52500 39.34500 24.12600
C  42.01100 43.95800 23.89300
N  42.07500 41.55200 28.54100
C  41.58400 42.59300 29.28100
C  41.62800 42.23500 30.71800
C  42.25200 40.81300 30.81500
C  42.45500 40.49600 29.32600
C  43.52800 40.50600 31.68500
C  40.20000 42.51000 31.44100
C  39.79500 41.56600 32.58700
H  39.35800 42.26800 33.80800
N  43.04600 39.54100 26.47100
C  43.17100 38.75200 27.57400
C  43.53200 37.41900 27.15100
C  43.79400 37.44100 25.77700
C  43.33000 38.79900 25.41600
C  43.82500 36.30200 28.15600
C  44.40600 36.38300 24.95000
O  44.59900 36.50300 23.72900
C  44.77900 34.99600 25.57500
N  42.89700 41.67200 24.33300
C  43.32500 40.54400 23.59600
C  43.23200 40.81000 22.10100
C  42.70800 42.30100 21.99400
C  42.43900 42.66300 23.45300
C  44.52000 40.45600 21.28500
C  41.57000 42.60500 20.97000
C  40.18300 42.41600 21.57700
N  41.72000 43.45700 26.28800
C  41.66400 44.31300 25.21600
C  40.99800 45.49900 25.56600
C  40.77200 45.39200 26.99800
C  41.29400 44.10400 27.36100
C  40.66200 46.75700 24.70500
C  40.37900 46.05800 28.29000
O  39.91400 47.17300 28.43700
C  40.70300 45.05500 29.49200
C  41.84500 45.65300 30.19000
O  42.97200 45.68900 29.68600
O  41.45100 45.88100 31.47500
C  42.58600 46.41900 32.19300
H  42.82100 38.39900 29.66300
H  43.82800 38.57000 23.41900
H  41.85100 44.64600 23.06000
H  42.35900 42.80100 31.29500
H  41.46700 40.09400 31.05200
H  43.67000 41.25800 32.46000
H  44.41500 40.44900 31.05500
H  43.50200 39.55500 32.21700
H  39.34500 42.51100 30.76600
H  40.17000 43.49900 31.89800
H  40.69600 41.01900 32.86600
H  38.98000 40.90600 32.29200
H  43.25400 35.41300 27.88700
H  43.48200 36.37900 29.18800
H  44.86700 35.99600 28.25400
H  45.49200 35.03000 26.39900
H  45.29800 34.32600 24.88900
H  43.93300 34.49400 26.04300
H  42.36300 40.26100 21.73800
H  43.56200 42.93900 21.76500
H  45.34100 40.17000 21.94300
H  44.83300 41.34100 20.73100
H  44.35900 39.69300 20.52300
H  41.54400 41.88300 20.15400
H  41.72800 43.56300 20.47700
H  40.15100 41.92400 22.54900
H  39.57100 41.84100 20.88200
H  39.74900 43.40600 21.71300
H  41.59200 47.31400 24.60100
H  40.01000 47.33900 25.35600
H  40.35100 46.45200 23.70600
H  39.81700 44.82000 30.08100
H  42.67200 47.45900 31.87600
H  43.53900 45.92000 32.02100
H  42.46500 46.24900 33.26300

