158

Mg 54.07100 24.76100 44.61600
C  51.14800 26.54200 43.95800
C  52.31600 21.90800 43.84100
C  57.00300 23.35200 44.01100
C  55.66700 27.86100 45.26500
N  51.92600 24.26400 43.76800
C  50.91200 25.17200 43.75900
C  49.63500 24.47800 43.43700
C  49.98100 22.92700 43.69600
C  51.50800 22.97900 43.73200
C  49.25400 22.47000 45.00800
C  49.05600 24.67100 42.01200
C  50.02600 24.87100 40.79300
H  49.40900 25.08100 39.42700
N  54.56600 22.83500 44.00500
C  53.71900 21.75300 43.90300
C  54.43800 20.55200 43.84600
C  55.81600 20.98000 43.87700
C  55.89200 22.43900 43.95800
C  53.90800 19.22300 43.70600
C  56.91000 19.94800 43.89500
O  56.69500 18.76600 43.88100
C  58.34700 20.44900 43.96000
N  55.99500 25.55400 44.55100
C  57.07900 24.72500 44.32000
C  58.44000 25.43700 44.52400
C  57.98500 26.85000 44.93400
C  56.46600 26.81000 44.83300
C  59.43800 24.74400 45.52800
C  58.72300 27.98300 43.98900
C  57.95200 28.34300 42.75100
N  53.55500 26.82700 44.77600
C  54.24100 27.93500 45.14300
C  53.30500 29.02200 45.48200
C  52.09500 28.55100 44.86400
C  52.32400 27.20100 44.36000
C  53.64400 30.29100 46.22000
C  50.72200 28.92400 44.60100
O  50.05500 29.94900 44.72500
C  50.14100 27.62500 43.94700
C  49.60300 27.89400 42.63200
O  50.28400 28.09800 41.59200
O  48.23900 28.11700 42.71700
C  47.57700 28.26200 41.41300
H  51.69600 21.01200 43.90400
H  57.94300 22.80300 44.10300
H  56.20500 28.73100 45.64700
H  48.87600 24.77500 44.16100
H  49.52800 22.32800 42.90600
H  48.80800 23.24500 45.63200
H  50.07100 21.93200 45.48800
H  48.50500 21.68100 44.94000
H  48.32300 25.47400 42.09000
H  48.56400 23.72500 41.78600
H  50.63800 23.97000 40.80600
H  50.72500 25.69000 40.96100
H  54.21100 18.69700 44.61100
H  54.35800 18.64400 42.90000
H  52.84100 19.32500 43.50600
H  58.53000 21.13100 43.13000
H  58.97400 19.58100 43.75600
H  58.64000 20.93500 44.89100
H  58.75700 25.28900 43.49200
H  58.09500 27.00300 46.00800
H  60.35700 24.38800 45.06200
H  58.96300 23.89900 46.02600
H  59.72100 25.46900 46.29000
H  59.64800 27.44900 43.77300
H  58.89700 28.84300 44.63500
H  58.66900 28.26200 41.93300
H  57.70500 29.39300 42.90600
H  57.03900 27.77200 42.58000
H  54.68600 30.33500 46.53500
H  53.08000 30.28700 47.15300
H  53.42300 31.13900 45.57100
H  49.35600 27.25600 44.60700
H  47.80100 29.24400 40.99700
H  46.49600 28.25700 41.55800
H  47.78600 27.45400 40.71200
Mg -10.48500 40.91500 42.61000
C  -9.71400 37.62900 41.81300
C  -7.58700 41.92000 41.06000
C  -11.50600 43.99400 43.15100
C  -13.86000 39.69700 43.39200
N  -8.84800 39.83600 41.45900
C  -8.71500 38.54500 41.37000
C  -7.60900 38.14400 40.45500
C  -6.75700 39.50400 40.35700
C  -7.78100 40.53600 40.95000
C  -5.32600 39.60500 41.00400
C  -7.99800 37.57900 39.09100
C  -7.42400 36.21800 38.63900
H  -6.29700 36.16800 37.54600
N  -9.57800 42.69000 42.21500
C  -8.34900 42.91000 41.66600
C  -8.22300 44.38300 41.63200
C  -9.32700 45.00600 42.20100
C  -10.17500 43.91000 42.55200
C  -6.94800 45.00200 41.25600
C  -9.43200 46.54600 42.37800
O  -8.66800 47.28600 41.72500
C  -10.56900 47.18900 43.24500
N  -12.45700 41.66300 43.15400
C  -12.50500 43.02200 43.43900
C  -13.88900 43.41100 43.82800
C  -14.73300 42.09000 43.71400
C  -13.66200 41.06600 43.37300
C  -13.88500 44.17400 45.15400
C  -15.99600 42.11800 42.81500
C  -16.75600 43.43800 42.71100
N  -11.56500 39.07300 42.75100
C  -12.88800 38.77700 43.10800
C  -13.01200 37.36500 43.04400
C  -11.76700 36.90700 42.63900
C  -10.93700 37.96100 42.43900
C  -14.16400 36.55200 43.35800
C  -11.04800 35.65900 42.26300
O  -11.39000 34.46900 42.29600
C  -9.68000 36.13800 41.71600
C  -8.54100 35.40500 42.37800
O  -7.82000 35.82200 43.24500
O  -8.42600 34.19800 41.80400
C  -7.48700 33.17600 42.32200
H  -6.62000 42.33600 40.76700
H  -11.92800 44.99500 43.26400
H  -14.81500 39.30100 43.74300
H  -6.92300 37.42800 40.90700
H  -6.76400 39.71200 39.28700
H  -5.44200 40.43300 41.70400
H  -4.62200 39.93400 40.23900
H  -4.93100 38.68500 41.43400
H  -7.69500 38.17700 38.23100
H  -9.07700 37.44600 39.01400
H  -8.26900 35.67000 38.22300
H  -7.04100 35.66500 39.49600
H  -6.81600 45.39100 40.24700
H  -6.12700 44.29000 41.17500
H  -6.65600 45.76500 41.97800
H  -10.17100 48.11400 43.66100
H  -10.81500 46.50700 44.05900
H  -11.43800 47.40200 42.62300
H  -14.23100 44.21400 43.17400
H  -15.10500 41.82000 44.70300
H  -14.13100 45.22800 45.02700
H  -12.98000 44.18200 45.76200
H  -14.62200 43.74300 45.83200
H  -16.57900 41.27900 43.19500
H  -15.62600 41.84200 41.82800
H  -17.82100 43.21400 42.76800
H  -16.56000 43.88900 41.73900
H  -16.46300 44.18500 43.44800
H  -15.04400 37.19300 43.29100
H  -13.93000 36.19000 44.35900
H  -14.11500 35.71600 42.66000
H  -9.57400 35.81600 40.68000
H  -6.96600 32.73200 41.47400
H  -8.06100 32.37600 42.78800
H  -6.89500 33.62700 43.11800

