158

Mg 45.34800 4.62500 47.57000
C  43.70100 7.69600 47.00100
C  42.54600 2.90600 46.65600
C  47.37400 1.93300 46.93600
C  48.29300 6.59500 48.03600
N  43.46700 5.19100 46.80800
C  43.00400 6.54800 46.72600
C  41.47600 6.46600 46.29000
C  41.10700 5.00900 46.62400
C  42.46400 4.33900 46.67000
C  40.28000 4.61200 47.84300
C  41.48100 6.84200 44.83500
C  40.63200 8.03600 44.41100
H  39.76800 7.89300 43.12600
N  44.98400 2.72900 47.07200
C  43.76400 2.18300 46.83500
C  43.91100 0.75500 46.60500
C  45.31100 0.54000 46.57300
C  45.98100 1.73600 46.97700
C  42.77100 -0.14500 46.21700
C  45.93100 -0.81600 46.25500
O  45.20000 -1.77500 46.14400
C  47.44700 -1.17000 46.17200
N  47.52000 4.24000 47.34900
C  48.11000 3.01800 47.19300
C  49.62100 3.06300 47.66900
C  49.86400 4.60000 47.76800
C  48.44700 5.21000 47.71800
C  50.03100 2.28300 48.93000
C  50.87900 5.18300 46.75600
C  52.34900 4.82800 47.18600
N  45.96400 6.70500 47.51100
C  47.13400 7.32900 47.85900
C  46.97100 8.80500 47.91600
C  45.56700 8.95800 47.68100
C  45.04600 7.72500 47.41200
C  48.16200 9.70200 48.26500
C  44.50000 9.94600 47.60300
O  44.56500 11.17000 47.77100
C  43.21300 9.18400 47.15600
C  42.22200 9.48800 48.28900
O  42.04300 8.81100 49.25800
O  41.38700 10.59300 47.93700
C  40.41400 10.92000 48.88500
H  41.63900 2.34600 46.41900
H  48.11200 1.13800 47.06400
H  49.24200 7.05900 48.31200
H  40.92500 7.17600 46.90700
H  40.53500 4.53900 45.82400
H  39.67800 5.45100 48.19200
H  40.94700 4.40700 48.68000
H  39.58200 3.83900 47.51800
H  41.09600 5.90000 44.44500
H  42.49100 6.95100 44.44200
H  41.28000 8.91200 44.43800
H  39.87600 8.07900 45.19500
H  41.80600 0.36200 46.19000
H  42.67900 -1.00900 46.87400
H  43.12600 -0.42000 45.22300
H  47.93900 -1.10900 47.14300
H  47.94500 -0.52700 45.44700
H  47.60000 -2.19600 45.83700
H  50.18100 2.63100 46.84000
H  50.16100 4.80400 48.79700
H  50.55500 1.40400 48.55500
H  49.18900 1.77800 49.40400
H  50.77200 2.73900 49.58600
H  50.75300 6.26400 46.82400
H  50.70300 4.78600 45.75600
H  52.45800 3.95200 47.82500
H  52.77800 5.62500 47.79300
H  52.92300 4.86300 46.26000
H  48.51100 9.59300 49.29200
H  47.75900 10.70800 48.38200
H  48.86600 9.61700 47.43700
H  42.93300 9.63000 46.20200
H  39.71200 11.64900 48.48100
H  41.02000 11.46200 49.61200
H  39.86800 10.09100 49.33500
Mg 26.49000 50.04300 26.93000
C  24.44900 51.49100 29.46300
C  28.46200 48.82300 29.39700
C  28.74200 49.24300 24.54900
C  24.59700 51.84600 24.58600
N  26.41700 50.14600 29.21200
C  25.47100 50.75000 30.01500
C  25.64100 50.30400 31.55500
C  27.07000 49.56700 31.40900
C  27.35600 49.49900 29.94300
C  28.18300 50.17700 32.27000
C  24.43200 49.48700 32.15500
C  24.00600 49.93200 33.62900
H  25.04300 50.55700 34.52200
N  28.27600 49.09000 26.97500
C  28.93200 48.65900 28.09300
C  30.06400 47.93300 27.66300
C  30.15600 47.95000 26.25500
C  29.07200 48.78700 25.78800
C  31.05500 47.33000 28.59100
C  31.14300 47.28700 25.31300
O  31.02300 47.31900 24.13100
C  32.30600 46.54200 25.81800
N  26.60300 50.47500 24.86100
C  27.67000 49.99600 24.09500
C  27.47800 50.23000 22.58100
C  26.14300 51.15100 22.61600
C  25.72300 51.12900 24.09700
C  28.62700 50.92400 21.93600
C  25.02800 50.43500 21.74100
C  23.96400 49.52400 22.38700
N  24.84100 51.30900 26.93800
C  24.09100 51.88800 25.88400
C  22.88000 52.54300 26.41500
C  23.02500 52.40200 27.75200
C  24.23400 51.74600 28.06600
C  21.74100 53.25400 25.71300
C  22.38800 52.75400 29.00500
O  21.31500 53.33100 29.23700
C  23.29600 52.15300 30.16700
C  23.55900 53.26900 31.09900
O  24.23600 54.25100 30.81300
O  22.84700 53.08200 32.20800
C  22.78700 54.05900 33.24800
H  29.11500 48.33900 30.12600
H  29.37000 49.01900 23.68400
H  23.92800 52.37200 23.90100
H  25.79900 51.22700 32.11200
H  27.03400 48.54100 31.77500
H  28.88300 50.80400 31.71800
H  28.81800 49.34900 32.58400
H  27.66800 50.75400 33.03900
H  24.64900 48.42200 32.23000
H  23.57300 49.60300 31.49500
H  23.44300 49.15300 34.14200
H  23.29500 50.73900 33.45200
H  31.32900 46.30300 28.34800
H  30.77300 47.41400 29.64000
H  31.92000 47.97700 28.44300
H  33.05300 46.39400 25.03800
H  31.89800 45.59500 26.17300
H  32.70100 47.21000 26.58300
H  27.37400 49.26500 22.08500
H  26.28900 52.15800 22.22700
H  29.35100 50.23200 21.50700
H  29.14200 51.60800 22.61100
H  28.20000 51.50000 21.11500
H  25.49400 49.84700 20.95000
H  24.50200 51.20900 21.18300
H  24.28900 49.02600 23.30100
H  23.71700 48.76700 21.64300
H  23.03900 50.02600 22.67100
H  20.82000 53.11500 26.27900
H  21.51100 53.03900 24.67000
H  21.94700 54.31700 25.58100
H  22.64200 51.46100 30.69800
H  23.54500 53.66200 33.92300
H  21.80900 54.11200 33.72500
H  23.20500 55.04200 33.03100

