158

Mg 44.71900 4.83100 46.82000
C  43.26400 8.02900 46.68500
C  41.53700 3.45000 45.96600
C  46.23100 1.83000 46.42700
C  47.87500 6.28600 46.97200
N  42.69100 5.67900 46.25200
C  42.35900 7.03000 46.32400
C  40.80100 7.13900 46.18200
C  40.36700 5.69300 45.90900
C  41.56700 4.84900 46.06700
C  39.20500 5.26800 46.89000
C  40.33500 8.09600 45.05900
C  40.99500 7.94500 43.67700
H  40.05900 7.93100 42.46200
N  43.97200 2.83900 46.43100
C  42.67800 2.51000 46.05800
C  42.60000 1.06700 45.80000
C  43.90800 0.59700 46.02800
C  44.77800 1.79100 46.30400
C  41.36700 0.28800 45.51900
C  44.31200 -0.83500 45.90000
O  43.53500 -1.71100 45.58800
C  45.77300 -1.41100 46.20400
N  46.80500 4.17900 46.38800
C  47.09700 2.91500 46.43600
C  48.63100 2.70300 46.62500
C  49.15700 4.12800 46.74800
C  47.88500 4.95200 46.68600
C  48.93600 1.74900 47.77300
C  50.24300 4.47400 45.63500
C  51.61200 4.87100 46.24000
N  45.47000 6.72600 46.86100
C  46.79500 7.16200 46.95000
C  46.80200 8.56400 47.04300
C  45.49800 8.91900 46.90700
C  44.68800 7.82400 46.84100
C  48.00700 9.52100 47.15000
C  44.63900 10.05700 46.70700
O  44.98500 11.17900 46.38700
C  43.16800 9.55900 46.70300
C  42.32600 10.02500 47.86900
O  41.54700 9.44000 48.62500
O  42.44600 11.42800 47.81900
C  41.63600 12.13100 48.74900
H  40.56800 2.97300 45.80300
H  46.65700 0.83000 46.53400
H  48.89300 6.67200 47.05000
H  40.47400 7.57300 47.12600
H  39.97800 5.66400 44.89100
H  38.96600 6.07000 47.58800
H  39.58700 4.47000 47.52600
H  38.34900 4.80600 46.39800
H  40.39300 9.13600 45.38200
H  39.26300 7.96800 44.91000
H  41.73700 7.14900 43.61500
H  41.47900 8.90700 43.50600
H  41.18000 -0.43000 46.31700
H  41.34000 -0.16000 44.52600
H  40.47200 0.91000 45.48500
H  46.51500 -1.10700 45.46600
H  45.79600 -2.49800 46.27400
H  46.13800 -0.97200 47.13300
H  48.99500 2.24500 45.70600
H  49.48900 4.17800 47.78500
H  48.08100 1.15700 48.10000
H  49.29700 2.29500 48.64400
H  49.66300 0.94500 47.65700
H  50.00200 5.39300 45.10000
H  50.41400 3.59500 45.01400
H  51.98100 5.83600 45.89200
H  52.37300 4.15500 45.92900
H  51.51000 4.94000 47.32300
H  48.65800 9.51800 46.27600
H  48.60500 9.37200 48.05000
H  47.68800 10.56300 47.16600
H  42.68900 10.10800 45.89100
H  41.53800 13.19400 48.52800
H  42.15700 12.03700 49.70200
H  40.68000 11.63200 48.91100
Mg 50.17600 45.66400 42.28100
C  47.06900 46.41400 40.77600
C  49.72500 42.40500 40.91400
C  53.47900 45.10200 42.42900
C  50.66900 49.06800 42.87700
N  48.48800 44.50000 41.00700
C  47.33300 45.07300 40.49200
C  46.53700 44.07000 39.66400
C  47.31100 42.70800 40.03800
C  48.64800 43.17600 40.68700
C  46.44900 41.79500 41.00100
C  46.51900 44.50500 38.23200
C  45.16400 44.39900 37.46900
H  45.17500 43.91200 36.00400
N  51.46200 43.98600 41.89600
C  51.06100 42.75500 41.42800
C  52.18100 41.89100 41.49400
C  53.27000 42.63600 42.02200
C  52.73600 43.94800 42.13900
C  52.18100 40.33100 41.21900
C  54.61700 42.06800 42.31100
O  54.96100 40.94500 41.97900
C  55.60900 42.92900 42.96900
N  51.83500 46.97000 42.67800
C  53.12300 46.44200 42.65500
C  54.19300 47.56900 42.87600
C  53.26400 48.83200 43.09600
C  51.83000 48.27700 42.92500
C  55.17000 47.27700 44.04300
C  53.65900 50.11000 42.23600
C  54.66800 51.03600 42.91600
N  49.11500 47.43100 41.97500
C  49.45200 48.72700 42.27100
C  48.32100 49.59500 41.90400
C  47.38300 48.73800 41.29500
C  47.90800 47.39100 41.37300
C  48.27700 51.00200 42.02500
C  46.20100 48.70300 40.54600
O  45.42800 49.58900 40.12100
C  45.95300 47.25400 40.31600
C  44.69700 46.84200 40.89800
O  44.52600 46.59200 42.08900
O  43.67600 46.75500 39.96100
C  42.39200 46.38700 40.45000
H  49.57100 41.35300 40.66600
H  54.56500 45.07900 42.31900
H  50.86700 50.12700 43.05100
H  45.53600 44.01100 40.09100
H  47.44700 42.00000 39.22000
H  46.52400 40.76700 40.64700
H  45.41900 42.14200 41.07600
H  46.84500 41.73700 42.01500
H  47.23300 43.86700 37.71200
H  46.90300 45.51900 38.11200
H  44.62500 45.34600 37.49600
H  44.60000 43.65600 38.03200
H  52.64000 40.27000 40.23300
H  51.17100 39.92900 41.13700
H  52.74000 39.71100 41.92000
H  56.42900 42.42000 43.47600
H  55.13000 43.53900 43.73500
H  55.97200 43.64600 42.23200
H  54.68300 47.61000 41.90300
H  53.22400 49.15500 44.13700
H  54.93600 47.75500 44.99400
H  56.21600 47.31900 43.73900
H  55.01800 46.22500 44.28600
H  52.79400 50.62300 41.81700
H  54.15100 49.72500 41.34200
H  54.31100 52.04800 43.10400
H  55.51700 51.23200 42.26100
H  55.14200 50.73500 43.85000
H  47.94000 51.35000 43.00200
H  47.61600 51.52300 41.33300
H  49.31000 51.24700 41.77600
H  45.72100 47.18000 39.25400
H  42.00400 47.06300 41.21100
H  42.27700 45.42300 40.94600
H  41.70500 46.40400 39.60400

