158

Mg 17.18400 -0.33600 28.01200
C  16.09700 1.70500 30.66400
C  19.16000 -2.05600 30.47800
C  18.73200 -1.98300 25.53300
C  15.79700 1.82600 25.70600
N  17.74200 -0.08000 30.33000
C  16.95600 0.69600 31.15800
C  17.32100 0.40600 32.67700
C  18.56100 -0.60200 32.57400
C  18.45900 -0.99000 31.08700
C  19.96000 0.01000 32.94000
C  16.15100 0.02900 33.65100
C  16.15300 0.73300 35.04900
H  17.43300 1.32000 35.71600
N  18.62300 -1.88600 28.02700
C  19.32200 -2.44900 29.11100
C  20.23700 -3.45200 28.58200
C  20.16600 -3.35100 27.11600
C  19.06900 -2.41400 26.84000
C  20.94600 -4.43500 29.60500
C  21.13900 -4.22100 26.01700
O  21.06700 -4.06900 24.80800
C  22.19700 -5.16100 26.65700
N  17.31700 -0.01900 25.91200
C  17.99500 -0.88500 25.16600
C  17.86500 -0.56100 23.68300
C  16.69300 0.57900 23.69400
C  16.61000 0.83300 25.19100
C  19.15800 -0.15900 22.98700
C  15.39100 0.37900 22.96900
C  14.30000 -0.47000 23.64600
N  16.05800 1.29800 28.09400
C  15.52500 2.07700 27.03700
C  14.62200 3.10700 27.59500
C  14.85900 3.07700 28.99800
C  15.75100 1.94700 29.26400
C  13.79200 4.05700 26.78800
C  14.50500 3.65300 30.35700
O  13.74000 4.54300 30.69300
C  15.39700 2.83300 31.41800
C  16.29500 3.77400 32.18900
O  17.27800 4.28500 31.73500
O  15.89000 3.91800 33.52200
C  16.86200 4.79700 34.25600
H  19.82800 -2.51300 31.21200
H  19.26500 -2.54600 24.76500
H  15.21900 2.34000 24.93500
H  17.69100 1.36800 33.03300
H  18.39500 -1.42700 33.26700
H  19.89700 0.97900 33.43500
H  20.58600 0.11500 32.05500
H  20.38700 -0.68400 33.66500
H  16.14000 -1.05700 33.73200
H  15.29600 0.32500 33.04200
H  15.53300 0.10600 35.69000
H  15.56800 1.63700 34.88000
H  22.00900 -4.19900 29.56800
H  20.70400 -5.45600 29.31000
H  20.68900 -4.38300 30.66300
H  22.67500 -5.69900 25.83800
H  21.71300 -5.80700 27.39000
H  22.95100 -4.54000 27.14100
H  17.50100 -1.46900 23.20100
H  17.01000 1.56500 23.35500
H  19.97000 -0.02900 23.70100
H  19.07600 0.82000 22.51400
H  19.47300 -0.83900 22.19600
H  15.59900 -0.13300 22.02900
H  15.00100 1.37700 22.76700
H  13.45700 0.10700 24.02600
H  14.71700 -1.05300 24.46600
H  13.80900 -0.97400 22.81300
H  14.07300 3.93600 25.74100
H  13.89200 5.08500 27.13500
H  12.72000 3.87500 26.72000
H  14.61000 2.50200 32.09600
H  16.43000 5.78300 34.08700
H  17.85200 4.62100 33.83500
H  16.69500 4.70000 35.32900
Mg -2.02600 34.76000 26.27300
C  -4.01100 33.10600 28.74800
C  -1.13100 36.95800 28.66700
C  -0.44200 36.37900 23.86000
C  -3.64400 32.76200 23.78100
N  -2.68600 35.01400 28.47600
C  -3.38300 34.20900 29.28200
C  -3.23700 34.62000 30.76200
C  -2.45500 36.00100 30.68900
C  -2.12300 36.06800 29.17000
C  -3.14100 37.33100 31.27100
C  -2.70400 33.45900 31.55900
C  -2.25200 33.91000 32.98500
H  -2.44700 33.02900 34.22700
N  -0.78500 36.32700 26.27800
C  -0.62700 37.14500 27.35800
C  0.34700 38.07300 26.96900
C  0.63600 37.92700 25.58000
C  -0.20000 36.83700 25.15400
C  0.98500 39.02100 28.06300
C  1.61200 38.71100 24.62600
O  1.86700 38.41600 23.45200
C  2.27600 39.89400 25.18700
N  -2.20300 34.70500 24.12700
C  -1.32500 35.44100 23.36700
C  -1.43300 35.13000 21.84100
C  -2.19700 33.75800 21.88400
C  -2.71200 33.68300 23.35400
C  -2.15600 36.24800 21.08000
C  -1.39200 32.47600 21.35100
C  -0.15600 32.09500 22.26400
N  -3.38900 33.20800 26.26600
C  -3.99600 32.53000 25.18200
C  -4.82300 31.40400 25.66600
C  -4.78800 31.56800 27.10200
C  -4.01100 32.73800 27.35200
C  -5.51600 30.36800 24.82700
C  -5.30800 31.08300 28.31300
O  -5.97800 30.13300 28.61000
C  -4.69100 31.93900 29.41400
C  -5.71000 32.33100 30.37700
O  -6.29000 33.42100 30.30300
O  -5.89600 31.39800 31.39600
C  -6.69000 31.86600 32.47800
H  -0.75100 37.48300 29.54600
H  0.23600 36.82000 23.12500
H  -4.08900 32.04000 23.09300
H  -4.24500 34.73500 31.16100
H  -1.53500 35.73400 31.20900
H  -4.03700 37.05900 31.82900
H  -3.37500 38.08100 30.51500
H  -2.50300 37.73200 32.05900
H  -1.95400 32.91800 30.98300
H  -3.53800 32.77500 31.71200
H  -2.58700 34.91000 33.25700
H  -1.18000 33.93700 32.78800
H  2.05400 39.05400 28.27300
H  0.45200 38.96600 29.01100
H  0.72000 40.03300 27.75900
H  1.44600 40.53500 25.48500
H  2.85000 40.27000 24.34100
H  3.00100 39.60100 25.94700
H  -0.53300 34.98800 21.24300
H  -3.07500 33.89100 21.25200
H  -1.67500 36.50600 20.13700
H  -2.12600 37.18700 21.63400
H  -3.16100 35.98900 20.74600
H  -1.21800 32.73600 20.30700
H  -2.09900 31.64700 21.31600
H  -0.08700 32.69200 23.17400
H  0.72600 32.27600 21.64900
H  -0.15900 31.09000 22.68700
H  -6.02400 30.79000 23.95900
H  -6.26600 29.82400 25.40200
H  -4.89000 29.51200 24.57800
H  -3.91800 31.35900 29.91800
H  -6.72700 31.04100 33.18900
H  -7.69700 32.16900 32.19100
H  -6.18500 32.67600 33.00500

