158

Mg 48.02600 35.52300 27.60600
C  46.25500 33.53100 29.99100
C  48.29300 37.94900 30.19400
C  49.43700 37.57000 25.35000
C  47.62800 33.12100 25.24800
N  47.25300 35.77500 29.79700
C  46.68100 34.76500 30.59000
C  46.67600 35.08200 32.05900
C  47.04400 36.61600 32.12900
C  47.55700 36.84900 30.65200
C  45.94700 37.58300 32.70600
C  47.78700 34.28200 32.73000
C  47.76200 34.01400 34.24700
H  46.92500 34.91400 35.19100
N  48.71000 37.45000 27.75300
C  48.64400 38.29600 28.89900
C  49.23600 39.57500 28.51800
C  49.75600 39.42200 27.19600
C  49.31500 38.07700 26.70800
C  49.27300 40.77700 29.42400
C  50.48300 40.46600 26.38600
O  50.84000 40.28400 25.20100
C  51.05300 41.67500 27.05100
N  48.20200 35.52000 25.48400
C  48.89100 36.47000 24.78900
C  49.30600 35.99200 23.38300
C  48.90400 34.49700 23.41300
C  48.17800 34.34100 24.78100
C  48.64200 36.95100 22.30500
C  50.03600 33.38800 23.17400
C  49.94000 32.66900 21.79300
N  46.92400 33.87900 27.45500
C  46.92800 32.92100 26.47300
C  46.22500 31.73400 26.85200
C  45.80200 32.04700 28.21100
C  46.36600 33.25700 28.57000
C  46.03000 30.50200 26.08900
C  45.15100 31.40200 29.33000
O  44.63000 30.26700 29.39700
C  45.22100 32.53800 30.47900
C  45.50900 31.88200 31.79500
O  46.22400 30.88700 31.91500
O  44.72300 32.50800 32.68300
C  44.44200 31.92400 34.01400
H  48.54600 38.71700 30.92800
H  49.94900 38.15300 24.58200
H  47.68100 32.28400 24.54900
H  45.72800 34.91500 32.57200
H  47.94400 36.67300 32.74100
H  46.07000 37.67500 33.78500
H  44.98000 37.09800 32.57600
H  45.93000 38.57200 32.24800
H  48.74800 34.74600 32.50900
H  47.88500 33.26600 32.34800
H  48.79000 34.22900 34.53600
H  47.54800 32.96200 34.43900
H  48.91700 41.67500 28.92000
H  50.28000 40.96300 29.79800
H  48.62400 40.58600 30.27900
H  51.68700 42.13000 26.29000
H  51.75300 41.37300 27.83100
H  50.26900 42.35200 27.39000
H  50.38700 36.11000 23.44700
H  48.17000 34.36400 22.61800
H  48.02400 36.31100 21.67500
H  49.27900 37.64400 21.75600
H  47.92800 37.57800 22.84100
H  50.14100 32.60400 23.92400
H  50.94400 33.98900 23.13600
H  48.92900 32.75600 21.39700
H  50.17000 31.62000 21.98000
H  50.44200 33.11100 20.93200
H  44.97100 30.29500 25.93900
H  46.38200 29.61800 26.62000
H  46.59300 30.46500 25.15600
H  44.25600 33.04400 30.46300
H  43.38800 31.64700 34.00700
H  44.74000 32.62700 34.79200
H  45.00800 30.99600 34.10000
Mg 41.48300 41.83500 26.79900
C  40.84200 44.23100 29.57400
C  42.48100 39.73100 29.24900
C  42.51500 39.81300 24.46600
C  41.18600 44.59000 24.59200
N  41.75700 42.05500 29.19700
C  41.30300 43.01400 30.08400
C  41.24600 42.46600 31.51600
C  41.80500 41.00100 31.34200
C  42.02700 40.90300 29.82100
C  43.14300 40.76600 32.06700
C  39.80600 42.52100 32.05500
C  39.59700 43.24600 33.38800
H  38.75600 42.50600 34.45400
N  42.29300 39.93800 26.78400
C  42.61100 39.26100 27.93800
C  43.13600 37.97300 27.57400
C  42.99900 37.84500 26.13500
C  42.60400 39.21700 25.72400
C  43.56700 36.96700 28.53900
C  43.23500 36.77800 25.13100
O  43.28500 36.94100 23.91500
C  43.53600 35.35900 25.69600
N  41.94700 42.23300 24.85600
C  42.22300 41.12700 24.02600
C  42.23700 41.56300 22.51300
C  41.72400 43.04900 22.63900
C  41.57800 43.31200 24.13600
C  43.57900 41.29900 21.75000
C  40.50600 43.43000 21.87700
C  39.23500 42.97200 22.49900
N  41.04600 43.94100 26.94900
C  40.97000 44.91000 25.99600
C  40.69400 46.15900 26.72800
C  40.51400 45.86700 28.07400
C  40.82500 44.53500 28.18700
C  40.36700 47.37300 25.93500
C  40.08300 46.54800 29.29000
O  39.70100 47.71000 29.48000
C  40.23600 45.43100 30.39300
C  41.11000 46.03200 31.33700
O  42.31800 46.06000 31.25500
O  40.41600 46.60500 32.36800
C  41.20200 47.06500 33.51500
H  42.68400 38.98300 30.01800
H  42.71700 39.18600 23.59600
H  40.96900 45.40500 23.89800
H  41.89200 43.10900 32.11400
H  41.09200 40.30000 31.77600
H  43.93900 40.34900 31.45100
H  42.89600 40.16800 32.94500
H  43.57700 41.72600 32.34700
H  39.40000 41.53900 32.29600
H  39.14400 42.92600 31.29000
H  38.97600 44.12900 33.23600
H  40.51800 43.65200 33.80600
H  44.17800 37.46000 29.29500
H  44.25600 36.24700 28.09800
H  42.69300 36.51900 29.01300
H  42.76800 35.32500 26.46800
H  44.52100 35.33600 26.16200
H  43.45500 34.67900 24.84800
H  41.35600 41.04400 22.13600
H  42.52500 43.60400 22.15000
H  43.34300 40.48300 21.06700
H  44.35900 41.01400 22.45600
H  43.69900 42.21700 21.17500
H  40.68100 42.90500 20.93800
H  40.37100 44.45300 21.52400
H  38.68200 42.46800 21.70500
H  38.54900 43.78700 22.73100
H  39.34600 42.19900 23.26000
H  40.64700 48.27800 26.47500
H  39.36400 47.48900 25.52500
H  41.03400 47.24700 25.08300
H  39.26700 45.18400 30.82800
H  42.09300 47.67900 33.37700
H  41.41100 46.13400 34.04100
H  40.44500 47.59600 34.09100

