158

Mg 48.87400 34.20000 26.41900
C  46.70100 33.01500 28.81300
C  49.42600 37.11400 28.23200
C  50.57100 35.39100 23.77300
C  47.86400 31.46300 24.38100
N  48.10900 35.00600 28.29200
C  47.40400 34.22800 29.21200
C  47.66200 34.74700 30.61600
C  48.00700 36.25200 30.31400
C  48.58000 36.12800 28.87400
C  46.79000 37.29200 30.47300
C  48.72600 34.07400 31.51200
C  48.35300 33.82200 32.92600
H  47.35900 34.73200 33.70000
N  49.96300 36.02400 26.04400
C  50.11700 37.05700 26.95000
C  50.89900 38.08000 26.26700
C  51.24500 37.60300 25.04200
C  50.62000 36.25700 24.92800
C  51.22100 39.43300 26.89100
C  52.14900 38.13700 23.97700
O  52.56500 37.50300 22.97900
C  52.60300 39.57200 24.13300
N  49.06800 33.60300 24.31000
C  49.94200 34.20900 23.53500
C  50.17900 33.47300 22.19200
C  49.37500 32.13200 22.46800
C  48.73200 32.44000 23.80300
C  49.72600 34.32600 20.95400
C  50.10300 30.76500 22.48500
C  51.38800 30.64100 21.59200
N  47.65700 32.51400 26.53500
C  47.26800 31.49300 25.65400
C  46.41900 30.56500 26.34700
C  46.10100 31.15600 27.57600
C  46.90800 32.32500 27.64200
C  46.07300 29.20700 25.82300
C  45.38300 31.01600 28.76800
O  44.74000 30.05900 29.19200
C  45.73500 32.23300 29.61600
C  46.26200 31.66500 30.86400
O  47.33500 31.11700 31.07900
O  45.28700 31.84700 31.82400
C  45.39100 31.03100 33.02400
H  49.71600 37.97400 28.83900
H  51.11200 35.78100 22.90800
H  47.62200 30.56200 23.81400
H  46.74600 34.61600 31.19300
H  48.78700 36.52600 31.02400
H  45.92500 36.90800 31.01300
H  46.50600 37.55500 29.45400
H  47.19100 38.11300 31.06800
H  49.64100 34.66000 31.59900
H  49.07100 33.18100 30.99000
H  49.30500 33.62500 33.42000
H  48.01500 32.79000 33.01500
H  50.87500 39.52600 27.92100
H  50.76600 40.15300 26.21100
H  52.26300 39.75400 26.91800
H  53.55800 39.63100 24.65500
H  51.87700 40.27000 24.55000
H  52.71500 40.00100 23.13700
H  51.25400 33.30700 22.13000
H  48.61500 32.02900 21.69400
H  49.38400 35.32300 21.23000
H  48.97800 33.76800 20.39000
H  50.59500 34.30900 20.29600
H  49.51800 29.88700 22.20600
H  50.44200 30.74700 23.52100
H  52.30700 30.94200 22.09400
H  51.27500 31.09700 20.60800
H  51.55600 29.58800 21.36500
H  45.01000 29.20100 25.58100
H  46.27100 28.56900 26.68500
H  46.83900 28.97500 25.08400
H  44.85700 32.85900 29.77400
H  45.74600 30.05300 32.69800
H  44.57200 30.93000 33.73600
H  46.15900 31.41600 33.69500
Mg 6.90100 54.12300 40.91000
C  6.55400 50.53000 40.52200
C  10.24100 53.61700 40.09900
C  7.20600 57.38800 40.25800
C  3.52400 54.34300 41.18400
N  8.19700 52.27600 40.35700
C  7.83300 50.95100 40.18900
C  9.08300 50.10200 39.72500
C  10.25900 51.06500 40.08700
C  9.56300 52.47200 40.15000
C  11.08400 50.73000 41.36600
C  8.98500 49.55200 38.26000
C  8.14400 50.25500 37.14900
H  7.25100 49.38100 36.13100
N  8.58800 55.40700 40.42700
C  9.87100 54.99400 40.17600
C  10.64700 56.18400 39.98400
C  9.77800 57.30100 39.96100
C  8.48900 56.74400 40.28800
C  12.17300 56.08200 39.76500
C  10.15000 58.77600 39.63700
O  11.30700 59.03800 39.36800
C  9.29100 59.86100 39.62100
N  5.56900 55.54900 40.55200
C  5.92900 56.89300 40.47600
C  4.69100 57.74500 40.59600
C  3.64600 56.90800 41.30200
C  4.27700 55.51700 41.04300
C  4.95900 59.19700 41.26100
C  2.24000 57.08600 40.72700
C  1.15800 57.41100 41.71200
N  5.34000 52.70100 40.89200
C  3.94200 52.97600 41.04700
C  3.22900 51.73900 41.18900
C  4.26100 50.76500 41.05000
C  5.47500 51.36700 40.83200
C  1.79600 51.58000 41.50600
C  4.49400 49.28600 41.06700
O  3.77400 48.38000 41.31000
C  5.99900 49.14300 40.65600
C  5.83400 48.43200 39.34700
O  5.45600 49.03000 38.32200
O  5.98300 47.10200 39.48300
C  5.67600 46.29800 38.29400
H  11.30800 53.44000 39.94200
H  7.28800 58.42700 39.93200
H  2.45500 54.40900 41.39300
H  9.09700 49.19000 40.32200
H  10.96800 51.12100 39.26100
H  10.67000 49.86500 41.88300
H  10.96500 51.61900 41.98600
H  12.10700 50.47900 41.08400
H  8.70400 48.50100 38.32800
H  9.98000 49.49300 37.81900
H  8.82200 50.83700 36.52600
H  7.48800 51.01000 37.58200
H  12.73400 56.69600 40.46900
H  12.44200 56.30800 38.73300
H  12.47900 55.03600 39.77100
H  9.77100 60.79600 39.33300
H  8.80700 60.02500 40.58300
H  8.54500 59.79000 38.82900
H  4.44700 57.91500 39.54800
H  3.64600 57.16300 42.36200
H  4.16400 59.32100 41.99600
H  5.02200 59.93500 40.46100
H  5.84400 59.26900 41.89300
H  1.93800 56.19400 40.17700
H  2.12100 57.89300 40.00400
H  0.75200 58.42200 41.71800
H  1.48400 57.20300 42.73200
H  0.32400 56.74900 41.48100
H  1.27400 51.76200 40.56600
H  1.49800 52.29200 42.27500
H  1.46300 50.57600 41.76900
H  6.53800 48.60800 41.43700
H  6.43600 46.40800 37.52000
H  4.74900 46.51500 37.76300
H  5.61100 45.27300 38.66000

