158

Mg -0.05000 7.56300 26.76900
C  0.55500 9.76300 29.40500
C  0.48900 4.91000 29.09400
C  0.00500 5.35400 24.25400
C  0.24400 10.18600 24.53000
N  0.51000 7.37600 28.95400
C  0.54900 8.42400 29.81500
C  0.49000 8.00500 31.25800
C  0.92400 6.48100 31.09000
C  0.62800 6.19800 29.62100
C  2.40200 6.14600 31.49700
C  -1.01200 8.22500 31.89000
C  -1.17800 8.09500 33.43700
H  0.04900 7.89300 34.42300
N  0.10100 5.40300 26.68500
C  0.30100 4.52800 27.73500
C  0.25600 3.16100 27.27900
C  0.16300 3.24400 25.82800
C  0.11000 4.69600 25.52500
C  0.40900 1.93200 28.18400
C  0.05700 2.12400 24.80600
O  -0.06800 2.29500 23.59900
C  0.33000 0.68700 25.19700
N  0.19600 7.70400 24.72900
C  -0.06000 6.66600 23.92300
C  -0.35800 7.06500 22.38900
C  -0.19100 8.58100 22.54700
C  0.08700 8.87200 24.03600
C  0.66900 6.43100 21.36800
C  -1.31300 9.42400 21.86700
C  -2.58700 9.63500 22.64800
N  0.23700 9.61800 26.85500
C  0.36400 10.56700 25.93600
C  0.39300 11.87000 26.58400
C  0.49300 11.60700 27.96300
C  0.39800 10.21600 28.08100
C  0.49300 13.22700 25.82400
C  0.60300 12.19900 29.26100
O  0.95400 13.34800 29.47500
C  0.62800 11.01400 30.30500
C  1.85500 11.15100 31.16300
O  2.94000 10.81800 30.80200
O  1.46200 11.68300 32.39600
C  2.52800 11.96300 33.36700
H  0.59600 4.15200 29.87300
H  -0.08300 4.66700 23.40900
H  0.24200 11.05500 23.86800
H  1.13000 8.60600 31.90400
H  0.21500 5.88000 31.66100
H  2.93600 7.03600 31.83100
H  2.84800 5.62000 30.65300
H  2.23200 5.51400 32.36900
H  -1.58300 7.39000 31.48400
H  -1.44900 9.14400 31.50000
H  -1.77700 7.23200 33.72600
H  -1.70500 9.00600 33.72300
H  -0.42100 1.30600 27.85500
H  0.21000 2.23000 29.21400
H  1.39500 1.47100 28.12600
H  -0.46000 0.00500 25.51200
H  1.04000 0.82800 26.01200
H  0.68000 0.10400 24.34500
H  -1.38400 6.77300 22.16600
H  0.63100 8.86100 21.88700
H  1.15200 7.14600 20.70200
H  0.18900 5.72600 20.68900
H  1.37000 5.78500 21.89700
H  -1.61100 9.12800 20.86200
H  -0.78000 10.37500 21.87200
H  -2.60300 10.62600 23.10000
H  -2.67100 8.89300 23.44200
H  -3.48600 9.57900 22.03400
H  0.66100 13.08400 24.75600
H  1.33900 13.70600 26.31600
H  -0.40900 13.78500 26.07300
H  -0.11200 10.97600 31.10400
H  2.82100 13.01200 33.40500
H  3.45200 11.38400 33.37200
H  1.99000 11.78400 34.29800
Mg 42.88900 42.26800 26.48900
C  41.80600 44.37500 29.04000
C  44.61400 40.45500 28.87100
C  44.27200 40.61900 24.03300
C  41.51700 44.67500 24.14200
N  43.05200 42.33000 28.75000
C  42.45600 43.21800 29.57800
C  42.68600 42.97500 31.07700
C  43.65000 41.75400 31.02200
C  43.87700 41.51500 29.45700
C  45.01600 41.78500 31.79900
C  41.35200 42.59200 31.67500
C  41.27800 41.95900 33.08100
H  40.32100 42.52700 34.07800
N  44.24400 40.68300 26.47100
C  44.79300 40.04500 27.54500
C  45.50100 38.90700 27.10900
C  45.33300 38.90100 25.63700
C  44.65000 40.11200 25.29200
C  46.28400 38.01500 27.93500
C  45.82700 37.89500 24.60000
O  45.61600 37.97800 23.35400
C  46.66100 36.68000 25.10300
N  43.12100 42.70200 24.42700
C  43.52300 41.69900 23.62500
C  43.34900 42.02200 22.05900
C  42.29300 43.17400 22.19000
C  42.28300 43.53800 23.69600
C  44.60500 42.52900 21.34600
C  40.95000 42.84300 21.57800
C  40.08600 41.86400 22.44300
N  41.95700 44.23300 26.49100
C  41.40300 45.02800 25.51700
C  40.63400 46.11700 26.11100
C  40.80100 45.90800 27.48000
C  41.59700 44.71300 27.65400
C  39.99200 47.23900 25.31700
C  40.45100 46.40300 28.78600
O  39.82300 47.38200 29.16700
C  40.97000 45.41100 29.80700
C  41.79700 46.19200 30.81700
O  42.90600 46.70200 30.62700
O  41.10700 46.17100 31.98700
C  41.65500 46.82000 33.11500
H  44.92500 39.74800 29.64300
H  44.55100 39.99000 23.18500
H  40.97400 45.19100 23.34700
H  43.22500 43.79500 31.55100
H  43.20900 40.85400 31.45000
H  45.17300 42.82000 32.10400
H  45.97100 41.38100 31.46100
H  44.80300 41.25900 32.73000
H  40.66100 42.02800 31.04800
H  40.78900 43.51100 31.83900
H  42.28200 42.05500 33.49500
H  40.99300 40.91000 33.00300
H  46.31700 38.50700 28.90800
H  47.26900 37.72700 27.56900
H  45.77600 37.05900 28.06000
H  47.10500 36.18300 24.24000
H  46.05200 35.95300 25.63900
H  47.56300 37.11200 25.53800
H  42.79900 41.22200 21.56400
H  42.60000 44.06300 21.63900
H  44.86100 43.56300 21.57600
H  44.48400 42.35400 20.27700
H  45.44300 41.94000 21.71800
H  41.12900 42.39700 20.60000
H  40.37700 43.76900 21.62700
H  40.35000 41.91400 23.50000
H  40.10400 40.81000 22.16600
H  39.04900 42.19600 22.50100
H  40.74400 47.94300 24.96000
H  39.26500 47.71400 25.97600
H  39.56900 46.83900 24.39600
H  40.08500 44.98200 30.27800
H  41.89200 46.16900 33.95700
H  40.85200 47.50200 33.39300
H  42.61700 47.32500 33.03200

