158

Mg -1.45900 17.52600 27.39200
C  -1.90100 15.23900 29.97300
C  -2.27200 20.02900 29.65800
C  -1.61600 19.68400 24.81000
C  -1.59100 14.89800 25.04000
N  -2.00400 17.66500 29.58500
C  -1.99800 16.61000 30.49000
C  -2.35600 17.07500 31.96500
C  -2.43600 18.63200 31.83400
C  -2.22800 18.82400 30.23500
C  -3.69700 19.32900 32.43000
C  -1.39600 16.60500 33.08900
C  -1.65100 17.17900 34.51300
H  -0.37300 17.04000 35.35200
N  -1.67700 19.52100 27.32400
C  -1.97400 20.42700 28.30100
C  -2.16000 21.71800 27.73800
C  -1.82700 21.59200 26.37800
C  -1.70400 20.18700 26.09200
C  -2.53900 23.00200 28.45900
C  -1.60600 22.67400 25.34200
O  -1.19000 22.59500 24.19900
C  -1.94900 24.10300 25.68100
N  -1.52800 17.30400 25.24800
C  -1.43500 18.43000 24.40100
C  -1.42000 17.98500 22.91500
C  -1.07800 16.45700 23.06400
C  -1.38100 16.15800 24.52800
C  -2.76500 18.28400 22.15300
C  0.28000 16.02500 22.53700
C  1.43200 16.56800 23.30200
N  -1.56400 15.48100 27.46300
C  -1.68900 14.59000 26.41500
C  -1.74900 13.25400 26.94600
C  -1.91400 13.43500 28.35100
C  -1.76200 14.83300 28.62000
C  -1.79100 11.95200 26.16400
C  -2.09800 12.72700 29.56600
O  -2.20100 11.56800 29.82600
C  -2.14100 13.89900 30.70200
C  -1.15300 13.51500 31.77400
O  -0.06900 14.07100 31.95300
O  -1.72300 12.61800 32.64400
C  -1.25500 12.67000 34.03700
H  -2.35400 20.81500 30.41200
H  -1.64200 20.45300 24.03500
H  -1.58700 14.13400 24.26000
H  -3.39100 16.76100 32.09800
H  -1.51800 18.99700 32.29500
H  -4.15900 18.61900 33.11600
H  -4.43400 19.70700 31.72200
H  -3.33400 20.23900 32.90800
H  -0.37200 16.68700 32.72500
H  -1.60300 15.55000 33.26800
H  -2.55400 16.69700 34.88400
H  -1.81100 18.25700 34.51400
H  -2.58600 22.84100 29.53600
H  -3.56200 23.18500 28.13100
H  -1.91800 23.89000 28.34000
H  -1.92000 24.86400 24.90100
H  -1.22800 24.52200 26.38300
H  -2.96400 24.02900 26.07200
H  -0.60100 18.39700 22.32600
H  -1.77000 15.76100 22.59000
H  -3.55900 18.55600 22.84900
H  -2.93200 17.38800 21.55600
H  -2.58100 19.09500 21.44900
H  0.37900 16.44800 21.53800
H  0.43900 14.94700 22.51100
H  1.09700 16.94100 24.27000
H  1.78900 17.46900 22.80400
H  2.27500 15.88100 23.38300
H  -1.75900 12.04200 25.07800
H  -2.64600 11.35000 26.46900
H  -0.93300 11.37500 26.51100
H  -3.09500 13.91600 31.23000
H  -1.58800 13.59800 34.50200
H  -0.17700 12.54200 34.12700
H  -1.74200 11.85700 34.57600
Mg 26.15900 49.97500 26.34800
C  24.11600 51.17900 28.87500
C  28.48700 49.26900 28.71800
C  28.10700 48.73000 23.78700
C  23.78100 50.98200 23.94700
N  26.30500 50.32200 28.53400
C  25.29300 50.62700 29.38900
C  25.67500 50.41700 30.87700
C  27.16300 50.03500 30.72900
C  27.34400 49.89200 29.21600
C  28.08400 51.05600 31.44500
C  24.81800 49.19200 31.58200
C  24.17500 49.61800 32.93500
H  25.05900 50.52900 33.82300
N  28.06400 49.19200 26.24900
C  28.84500 49.00600 27.37700
C  30.10500 48.46700 26.89300
C  29.98800 48.24500 25.52000
C  28.71200 48.78600 25.08800
C  31.35800 48.33400 27.75000
C  31.06600 47.59800 24.55300
O  30.91000 47.60200 23.34200
C  32.36100 46.92400 25.09600
N  26.02800 50.01400 24.14600
C  26.94900 49.36500 23.36400
C  26.42200 49.23200 21.91500
C  25.01700 49.85100 21.97700
C  24.88900 50.28100 23.47400
C  27.42700 49.89500 20.93500
C  23.86300 48.78800 21.61000
C  23.84300 47.48700 22.44600
N  24.32400 50.96200 26.36200
C  23.47700 51.26400 25.31600
C  22.33200 51.91600 25.89200
C  22.46400 51.79700 27.31600
C  23.74600 51.29400 27.49300
C  21.10900 52.47900 25.21900
C  21.87400 52.13300 28.59900
O  20.81500 52.71500 28.91800
C  22.89000 51.68000 29.70700
C  23.31900 52.84700 30.53000
O  24.25500 53.62400 30.28800
O  22.42700 53.11600 31.55700
C  22.91600 54.11900 32.49200
H  29.33700 49.05400 29.36800
H  28.67300 48.27800 22.97000
H  23.00900 51.24400 23.22100
H  25.44500 51.40900 31.26500
H  27.38000 49.05700 31.15800
H  28.87900 51.46100 30.81800
H  28.50000 50.52600 32.30200
H  27.46100 51.91000 31.71100
H  25.50400 48.36300 31.75400
H  24.05400 48.86300 30.87800
H  23.96400 48.65000 33.38900
H  23.29700 50.18600 32.62400
H  31.41200 47.26200 27.94000
H  31.18200 48.90100 28.66400
H  32.27000 48.71300 27.28900
H  32.79300 46.25100 24.35400
H  32.20900 46.45100 26.06600
H  33.17200 47.61600 25.32300
H  26.40000 48.19600 21.57500
H  24.95700 50.76500 21.38600
H  28.28500 50.16600 21.55000
H  26.95400 50.84000 20.67000
H  27.71300 49.19600 20.14800
H  23.77700 48.48200 20.56700
H  22.96900 49.35500 21.87000
H  22.95700 47.37100 23.07000
H  24.75400 47.23800 22.98900
H  23.77200 46.68500 21.71000
H  20.18100 52.14500 25.68200
H  21.12500 52.10300 24.19600
H  21.23100 53.56200 25.20800
H  22.45800 50.89200 30.32400
H  23.36500 54.98000 31.99800
H  23.59800 53.66600 33.21200
H  22.10800 54.54500 33.08700

