158

Mg 46.41100 24.46200 28.48600
C  46.63900 26.83600 31.06400
C  45.37900 22.19400 30.88900
C  46.42500 22.09600 26.09700
C  47.62400 26.78300 26.34700
N  45.77600 24.57100 30.62800
C  46.13700 25.61800 31.50300
C  45.76500 25.25100 32.98600
C  45.43500 23.71900 32.89800
C  45.49600 23.46000 31.41700
C  46.42300 22.89300 33.71400
C  44.49100 26.08200 33.39600
C  44.56200 27.01400 34.60200
H  43.57000 26.83700 35.75400
N  45.98700 22.45300 28.50500
C  45.36900 21.74800 29.54900
C  45.11300 20.36800 29.11700
C  45.36500 20.33300 27.73000
C  45.90200 21.63600 27.35200
C  44.51400 19.34700 30.10100
C  45.18500 19.14400 26.71500
O  45.64800 19.29100 25.56100
C  44.52600 17.90300 27.08900
N  47.14300 24.37800 26.60000
C  46.93300 23.35900 25.74400
C  47.26900 23.72300 24.25700
C  47.46200 25.26600 24.43100
C  47.50500 25.48200 25.89600
C  48.49600 22.92800 23.70200
C  46.35300 26.15100 23.70900
C  45.08000 26.63300 24.54500
N  47.03300 26.45200 28.62800
C  47.46600 27.30100 27.66100
C  47.60600 28.61900 28.18100
C  47.35800 28.47000 29.51800
C  47.00900 27.15700 29.77200
C  48.00400 29.82100 27.42400
C  47.36700 29.15600 30.75700
O  47.82900 30.24900 30.99100
C  46.90500 28.08000 31.89300
C  48.04900 27.90100 32.86900
O  49.06300 27.27500 32.64400
O  47.76200 28.48400 34.04700
C  48.58000 28.14400 35.21500
H  45.14000 21.47100 31.67200
H  46.31600 21.40600 25.25800
H  48.03700 27.45300 25.59000
H  46.62100 25.40900 33.64200
H  44.43000 23.54400 33.28300
H  45.99500 22.78800 34.71000
H  47.33200 23.47800 33.85800
H  46.64600 21.90600 33.31000
H  43.72900 25.34300 33.64000
H  44.20600 26.67000 32.52400
H  44.59200 28.06700 34.32300
H  45.55800 26.97400 35.04300
H  43.58100 18.91800 29.73700
H  44.32800 19.68700 31.12000
H  45.23900 18.54400 30.23700
H  45.20200 17.09700 27.37500
H  44.12000 17.60400 26.12300
H  43.76500 17.93100 27.86800
H  46.42700 23.61000 23.57400
H  48.38300 25.70400 24.04800
H  49.17800 23.70000 23.34500
H  48.02600 22.37000 22.89200
H  48.82800 22.27400 24.50800
H  45.97300 25.69900 22.79200
H  46.94000 26.93400 23.22900
H  45.02300 26.22100 25.55300
H  44.14900 26.27600 24.10600
H  45.08600 27.72300 24.56000
H  47.28200 30.14300 26.67300
H  48.97100 29.56700 26.99100
H  48.21600 30.60600 28.15100
H  46.05600 28.50000 32.43300
H  49.62400 27.94700 34.97100
H  48.22700 27.11900 35.32600
H  48.48800 28.73700 36.12500
Mg 47.09500 34.86800 28.28700
C  45.27200 32.94500 30.56300
C  47.43700 37.27800 30.73600
C  48.41300 37.05500 25.97200
C  46.20300 32.69100 25.70700
N  46.49400 34.95900 30.45100
C  45.75600 34.09100 31.17100
C  45.83300 34.60400 32.62300
C  46.02900 36.17100 32.46700
C  46.68400 36.16700 31.13600
C  44.63000 36.93600 32.46000
C  47.12400 34.02400 33.37500
C  47.01300 34.02300 34.94900
H  46.07600 35.03900 35.63400
N  47.91100 36.86100 28.32700
C  47.97400 37.68400 29.44400
C  48.76700 38.83300 29.12600
C  49.05000 38.79500 27.75100
C  48.52900 37.49400 27.26400
C  49.10600 39.89300 30.09900
C  49.70000 39.83500 26.91100
O  50.03300 39.57700 25.75600
C  50.06900 41.22200 27.35200
N  47.20700 34.86300 26.19100
C  47.76100 35.90000 25.48200
C  47.57200 35.71500 24.06200
C  47.05500 34.23500 23.90700
C  46.83500 33.87100 25.38400
C  46.60100 36.83800 23.48000
C  48.00200 33.23400 23.14600
C  49.32200 33.00300 23.80800
N  46.10100 33.11900 28.15300
C  45.83600 32.32900 27.03100
C  44.99000 31.23300 27.47800
C  44.75300 31.42600 28.86800
C  45.44300 32.63000 29.20300
C  44.31100 30.12000 26.63000
C  44.08800 30.94300 30.04000
O  43.31500 29.99000 30.26600
C  44.27100 31.96100 31.11500
C  44.37900 31.51100 32.53400
O  45.09500 30.60600 32.88900
O  43.35800 32.05100 33.27000
C  43.08200 31.63200 34.58100
H  47.55200 37.97600 31.56800
H  48.94500 37.65100 25.22700
H  45.93400 32.05400 24.86300
H  44.91900 34.26900 33.11300
H  46.77300 36.50800 33.18900
H  44.58700 37.51900 31.54100
H  44.71400 37.62600 33.30000
H  43.86500 36.16300 32.54100
H  47.98800 34.66100 33.18300
H  47.30900 33.01200 33.01500
H  48.01800 34.27400 35.28600
H  46.84700 33.02900 35.36400
H  48.36700 40.69300 30.06300
H  50.07800 40.35700 29.93500
H  49.15400 39.51600 31.12100
H  49.32200 41.60000 28.05000
H  50.18200 42.03300 26.63200
H  51.00500 41.17100 27.90700
H  48.47000 35.89600 23.47100
H  46.04600 34.18300 23.49800
H  46.24200 37.42400 24.32600
H  45.64500 36.52000 23.06500
H  47.02300 37.54300 22.76400
H  48.21700 33.62700 22.15200
H  47.45200 32.29600 23.08100
H  49.67500 33.85200 24.39400
H  50.06400 32.88700 23.01800
H  49.27200 32.14700 24.48100
H  43.38300 30.57900 26.28800
H  44.05500 29.25100 27.23600
H  44.94800 29.95500 25.76000
H  43.27100 32.39200 31.12900
H  43.63000 30.73600 34.87600
H  42.03700 31.50100 34.86300
H  43.29000 32.45000 35.27000

