158

Mg 42.90800 4.29200 48.26600
C  40.96200 6.93000 47.71900
C  40.20200 2.16900 47.95500
C  44.97200 1.65900 48.03500
C  45.83300 6.37700 47.51300
N  40.83000 4.52700 47.60200
C  40.25100 5.72800 47.51300
C  38.76300 5.59800 47.16800
C  38.48900 4.09700 47.63900
C  39.95600 3.56900 47.77900
C  37.75800 3.89800 48.99900
C  38.29000 5.80800 45.68600
C  37.08000 6.78400 45.54800
H  36.55200 6.76800 44.15200
N  42.61300 2.30600 48.13900
C  41.42600 1.60100 48.03300
C  41.64100 0.20900 48.09700
C  43.05300 -0.01600 48.30800
C  43.64100 1.34300 48.17500
C  40.59400 -0.83200 47.68700
C  43.70000 -1.37600 48.38900
O  43.07000 -2.41500 48.57100
C  45.16600 -1.56600 48.38300
N  45.13700 4.09600 47.75000
C  45.69000 2.88300 47.80700
C  47.21700 2.91800 47.62600
C  47.42900 4.41000 47.41600
C  46.09900 5.00300 47.57800
C  47.89900 2.41600 48.92800
C  48.07800 4.77500 46.03100
C  49.53400 4.48600 45.89600
N  43.40000 6.28700 48.04900
C  44.54300 6.99100 47.78500
C  44.20900 8.42300 47.74500
C  42.78900 8.42000 47.80400
C  42.37200 7.11000 47.88200
C  45.16700 9.61600 47.63300
C  41.58500 9.31800 47.66800
O  41.41100 10.55300 47.64200
C  40.38400 8.34400 47.63800
C  39.60600 8.58700 48.83400
O  39.99700 8.35700 49.98400
O  38.27900 8.72100 48.40000
C  37.33600 8.57400 49.52700
H  39.31000 1.54300 48.02100
H  45.68400 0.84800 47.86900
H  46.66300 7.05400 47.29900
H  38.29500 6.22400 47.92700
H  37.93100 3.52500 46.89800
H  37.48900 4.87900 49.39100
H  38.35400 3.31200 49.69900
H  36.86400 3.36500 48.67700
H  38.00200 4.90100 45.15500
H  39.12900 6.17100 45.09200
H  37.45800 7.75000 45.88400
H  36.32600 6.41600 46.24400
H  40.24700 -1.47200 48.49800
H  41.00600 -1.41200 46.86100
H  39.74400 -0.37700 47.17800
H  45.67300 -0.89000 49.07200
H  45.61900 -1.32000 47.42200
H  45.47800 -2.59200 48.57800
H  47.39500 2.27700 46.76300
H  48.03600 4.92900 48.15700
H  47.17500 2.32300 49.73700
H  48.68400 3.00300 49.40300
H  48.26200 1.41000 48.71700
H  47.90200 5.82200 45.78200
H  47.53000 4.18500 45.29700
H  50.06300 5.43400 45.79900
H  49.69900 3.88800 45.00000
H  49.86900 3.95500 46.78700
H  45.13500 10.11400 46.66400
H  46.12800 9.13600 47.81600
H  44.99300 10.35400 48.41600
H  39.77200 8.59000 46.77000
H  36.94100 9.50300 49.93700
H  37.64600 7.96700 50.37700
H  36.62700 7.90900 49.03500
Mg 16.81700 52.08500 25.99800
C  18.42200 50.48400 28.70100
C  14.71100 53.37000 28.25400
C  15.36800 53.38500 23.45100
C  19.16900 50.31900 23.84200
N  16.51000 51.86100 28.30300
C  17.29600 51.18000 29.17600
C  16.82000 51.41900 30.67400
C  15.50400 52.25700 30.38300
C  15.56300 52.55900 28.92500
C  14.09800 51.71300 30.80200
C  17.87600 52.29500 31.37000
C  18.28500 51.82700 32.88200
H  17.61200 52.56800 33.95800
N  15.17600 53.21100 25.80500
C  14.50900 53.72500 26.87400
C  13.42800 54.55500 26.39900
C  13.64600 54.67200 25.00100
C  14.73200 53.73600 24.66100
C  12.47000 55.34300 27.19700
C  12.84800 55.38500 23.91500
O  13.14500 55.39200 22.71100
C  11.55000 56.21800 24.24500
N  17.07100 51.70200 23.92100
C  16.40000 52.47300 23.07800
C  16.90500 52.34200 21.64300
C  18.21200 51.46800 21.79000
C  18.17100 51.13200 23.26400
C  15.88500 52.10100 20.47600
C  19.55300 52.28600 21.42200
C  19.84000 53.62600 22.08300
N  18.48200 50.69300 26.16300
C  19.34300 50.11900 25.20000
C  20.41900 49.47300 25.88700
C  20.12300 49.52700 27.23500
C  18.92000 50.22100 27.34400
C  21.56100 48.89300 25.12500
C  20.55800 49.25000 28.61600
O  21.49300 48.65300 29.01700
C  19.43500 49.85900 29.62100
C  18.82000 48.90700 30.51800
O  17.92300 48.13600 30.23000
O  19.53300 48.97800 31.65400
C  19.14900 48.12100 32.77700
H  13.99300 53.87500 28.90200
H  14.97900 53.74300 22.49600
H  19.92700 49.87800 23.19100
H  16.59000 50.51700 31.24100
H  15.49500 53.26700 30.79300
H  13.78800 51.17100 29.90800
H  13.43300 52.51300 31.12800
H  14.23100 51.03100 31.64200
H  17.41200 53.24000 31.65500
H  18.79000 52.54400 30.83300
H  19.34700 52.02200 33.02700
H  18.12400 50.75100 32.95700
H  11.45700 54.94000 27.19600
H  12.56100 56.35300 26.79700
H  12.79900 55.33400 28.23600
H  10.89400 55.60900 24.86700
H  11.21800 56.52300 23.25200
H  11.70400 57.07400 24.90200
H  17.23100 53.33300 21.32600
H  18.13000 50.55500 21.20000
H  15.76100 52.96600 19.82500
H  14.90800 52.00000 20.94900
H  16.03900 51.17700 19.91800
H  19.64300 52.28100 20.33600
H  20.38700 51.63800 21.69100
H  20.22700 54.28100 21.30200
H  20.49100 53.43700 22.93600
H  18.91500 54.01600 22.50700
H  21.21400 48.17600 24.38100
H  22.21800 48.40400 25.84400
H  22.05100 49.71400 24.60100
H  19.80200 50.67600 30.24300
H  18.26600 47.49700 32.64100
H  18.93000 48.64000 33.71100
H  19.97400 47.48200 33.09100

