158

Mg 1.57200 -1.25100 44.18200
C  5.10300 -0.60200 43.56800
C  0.86600 1.64000 42.48000
C  -1.59000 -2.12700 44.27200
C  2.64500 -4.42900 45.40100
N  2.82600 0.22200 43.04800
C  4.20600 0.35000 42.99700
C  4.64200 1.58700 42.13800
C  3.34600 2.36500 42.03000
C  2.28900 1.37300 42.53400
C  3.23600 3.76200 42.80700
C  5.34900 1.20200 40.78300
C  6.77600 1.81900 40.48500
H  6.72300 2.66600 39.24800
N  -0.11500 -0.34400 43.53100
C  -0.22300 0.81800 42.78600
C  -1.65200 1.06500 42.54000
C  -2.33500 -0.02300 43.11100
C  -1.34900 -0.91600 43.64300
C  -2.22000 2.28800 41.76100
C  -3.84800 -0.22100 43.11400
O  -4.46000 0.77400 42.72000
C  -4.58900 -1.30300 43.84700
N  0.68700 -3.05200 44.69500
C  -0.66300 -3.03000 44.83300
C  -1.19600 -4.38800 45.34100
C  0.17600 -5.12300 45.75500
C  1.26700 -4.16400 45.21400
C  -2.35400 -4.32700 46.32400
C  0.43800 -6.49000 45.21600
C  -0.75500 -7.49200 45.03000
N  3.44600 -2.28300 44.51700
C  3.70200 -3.58600 45.06700
C  5.14700 -3.81500 45.11600
C  5.71800 -2.64700 44.56000
C  4.67100 -1.75400 44.20100
C  5.87300 -5.09600 45.47800
C  6.95600 -2.06200 44.11200
O  8.05900 -2.53600 44.08900
C  6.62300 -0.67600 43.46400
C  7.25500 0.34400 44.27700
O  7.00600 0.68400 45.39800
O  8.38100 0.81200 43.66700
C  9.21800 1.84300 44.26800
H  0.50700 2.60400 42.11400
H  -2.58800 -2.57100 44.29600
H  2.90500 -5.32400 45.97100
H  5.24200 2.25400 42.75700
H  3.17000 2.76700 41.03300
H  3.92700 3.56400 43.62600
H  2.37900 4.02600 43.42600
H  3.52100 4.63100 42.21400
H  4.68900 1.57400 39.99900
H  5.44300 0.11900 40.71000
H  7.45500 0.97000 40.41200
H  7.02000 2.43000 41.35400
H  -2.88900 1.90300 40.99200
H  -1.45800 2.97200 41.38700
H  -2.86000 2.81600 42.46800
H  -5.65200 -1.06200 43.85200
H  -4.13900 -1.32800 44.84000
H  -4.42600 -2.26200 43.35500
H  -1.49000 -4.85900 44.40300
H  0.29100 -5.13300 46.83900
H  -1.99600 -4.51200 47.33600
H  -3.09800 -5.08300 46.07100
H  -2.79000 -3.32900 46.29600
H  1.17300 -7.04500 45.79900
H  0.84600 -6.32100 44.22000
H  -1.57600 -7.31600 45.72600
H  -0.46000 -8.53900 45.09100
H  -1.09800 -7.47900 43.99600
H  5.97700 -5.86800 44.71600
H  5.33400 -5.42900 46.36500
H  6.82900 -4.80700 45.91600
H  6.94200 -0.67800 42.42200
H  9.89800 2.39600 43.62000
H  9.82700 1.36400 45.03500
H  8.68300 2.68400 44.70900
Mg -0.18500 44.04000 25.93700
C  2.04200 43.83400 28.72400
C  -2.57200 42.72800 27.96200
C  -2.18000 44.24600 23.30000
C  2.52800 45.04200 23.97700
N  -0.23100 43.41600 28.15400
C  0.76100 43.46900 29.13300
C  0.34000 42.85600 30.49700
C  -1.17700 42.47200 30.17600
C  -1.36700 42.83500 28.71100
C  -1.68600 41.00400 30.62300
C  0.41800 43.79300 31.66600
C  0.95200 43.20700 33.00100
H  0.23500 41.93700 33.34200
N  -2.11700 43.54600 25.67700
C  -2.96900 43.08300 26.64900
C  -4.28000 42.96600 26.00500
C  -4.14300 43.24700 24.63300
C  -2.75500 43.73800 24.50500
C  -5.49000 42.38700 26.78000
C  -5.18600 43.04800 23.51000
O  -4.92900 43.32700 22.33400
C  -6.55200 42.43600 23.79500
N  0.04800 44.85200 24.04100
C  -0.90400 44.71700 23.07900
C  -0.43700 45.14800 21.71000
C  1.09000 45.50000 21.95800
C  1.24600 45.06100 23.39500
C  -0.57300 44.03900 20.63500
C  1.34200 47.04500 21.84600
C  0.95900 47.79400 20.57000
N  1.87900 44.30600 26.16700
C  2.85500 44.71100 25.28900
C  4.11800 44.63400 25.91000
C  3.87800 44.36400 27.21900
C  2.45600 44.21500 27.36900
C  5.38400 44.93500 25.29400
C  4.51300 44.08000 28.46800
O  5.69300 43.99700 28.76600
C  3.32600 43.85900 29.55400
C  3.64500 42.42900 29.93600
O  3.56900 41.41800 29.25500
O  3.95700 42.32600 31.24800
C  3.96500 40.93300 31.86200
H  -3.31300 42.23500 28.59600
H  -2.74500 44.46200 22.39100
H  3.38600 45.10500 23.30400
H  0.86800 41.92000 30.68100
H  -1.89200 43.14000 30.65600
H  -2.06900 40.53200 29.71900
H  -2.59700 41.11700 31.21000
H  -0.96300 40.33600 31.09200
H  -0.51600 44.30200 31.90600
H  1.06000 44.60500 31.32500
H  0.75400 43.87100 33.84300
H  2.03900 43.12100 33.01300
H  -5.54700 41.32600 26.53900
H  -6.41100 42.84600 26.42100
H  -5.53000 42.56900 27.85400
H  -7.07000 42.45700 22.83600
H  -6.99300 43.22900 24.40000
H  -6.56000 41.48800 24.33200
H  -1.02800 46.01400 21.41200
H  1.86500 45.07900 21.31700
H  0.29400 43.84700 20.00200
H  -1.45500 44.27500 20.04000
H  -0.72200 43.11100 21.18700
H  2.42900 47.09700 21.90800
H  0.86300 47.59000 22.66000
H  0.25500 48.59100 20.80500
H  0.46700 47.13400 19.85600
H  1.92300 48.23900 20.32200
H  6.04000 45.43900 26.00300
H  5.39600 45.54200 24.38900
H  5.84200 43.98600 25.01400
H  3.40200 44.55200 30.39200
H  4.41900 40.19000 31.20700
H  2.96700 40.53900 32.05000
H  4.75100 40.73900 32.59200

