158

Mg 1.74600 -1.71300 44.02200
C  5.02100 -0.76900 43.70700
C  0.75500 1.11000 42.38400
C  -1.42600 -2.73800 44.36700
C  2.92000 -4.92700 45.08400
N  2.82100 -0.19300 42.90100
C  4.11900 0.16200 43.15500
C  4.41800 1.41000 42.42400
C  3.07400 2.13000 42.03900
C  2.11400 0.92800 42.39100
C  2.72400 3.51300 42.70500
C  5.41200 1.20300 41.24000
C  6.46700 2.32200 41.15500
H  6.36300 3.19600 39.90400
N  -0.07700 -0.79300 43.65800
C  -0.28100 0.30700 42.82300
C  -1.64500 0.50500 42.70200
C  -2.35900 -0.56700 43.34700
C  -1.28200 -1.45200 43.80900
C  -2.20000 1.72600 42.01800
C  -3.83400 -0.69100 43.53600
O  -4.63900 0.14400 43.13100
C  -4.54300 -1.97100 44.07400
N  0.92000 -3.55900 44.73900
C  -0.48100 -3.62800 44.81100
C  -0.85800 -5.07000 45.20300
C  0.46900 -5.81900 45.34400
C  1.52300 -4.72700 45.06600
C  -1.54100 -4.92600 46.60700
C  0.67400 -7.03800 44.43300
C  1.21700 -8.30700 45.03900
N  3.59500 -2.79000 44.18100
C  3.87800 -3.99000 44.80500
C  5.32500 -4.05900 44.92500
C  5.85700 -2.82200 44.48200
C  4.73800 -2.06800 44.12600
C  6.07300 -5.33800 45.40300
C  6.99300 -1.96300 44.41300
O  8.13300 -2.23100 44.75000
C  6.47100 -0.53700 43.87700
C  6.86200 0.59600 44.79700
O  6.19100 1.10100 45.67400
O  8.04000 1.09900 44.28800
C  8.14800 2.58600 44.43600
H  0.43900 2.06400 41.95700
H  -2.41400 -3.20100 44.33800
H  3.24300 -5.91800 45.41200
H  4.97900 1.94400 43.19100
H  3.05300 2.38800 40.98000
H  2.36700 4.16500 41.90800
H  3.58500 3.90300 43.24700
H  1.89200 3.50600 43.40800
H  4.75400 1.29500 40.37500
H  6.01800 0.29800 41.26900
H  7.41700 1.79100 41.09200
H  6.57100 2.95300 42.03800
H  -1.62500 2.07800 41.16200
H  -1.95100 2.57800 42.65100
H  -3.25900 1.88600 41.81600
H  -5.62300 -1.86200 43.97300
H  -4.11000 -2.11200 45.06400
H  -4.27500 -2.88400 43.54100
H  -1.54300 -5.58500 44.52900
H  0.52800 -6.17600 46.37300
H  -1.66500 -5.92700 47.02200
H  -2.54700 -4.50500 46.62700
H  -0.88300 -4.31800 47.22600
H  1.34900 -6.84400 43.59900
H  -0.22800 -7.27200 43.86900
H  0.57900 -9.11400 44.67900
H  1.10600 -8.32700 46.12300
H  2.24800 -8.52000 44.75700
H  5.54900 -5.83200 46.22100
H  7.05300 -5.01600 45.75500
H  6.16500 -6.04900 44.58200
H  6.92400 -0.45300 42.88900
H  7.20900 3.13900 44.47000
H  8.71600 3.06800 43.64100
H  8.69100 2.72500 45.37100
Mg 23.90000 -5.58400 45.66500
C  26.49300 -3.57100 44.42100
C  21.67100 -3.89400 43.60500
C  21.83800 -8.25800 45.86600
C  26.43700 -7.50000 47.35500
N  24.09300 -3.88000 44.36400
C  25.21800 -3.16600 43.96900
C  24.86100 -2.07200 42.90400
C  23.37900 -1.88600 43.20300
C  23.01400 -3.29300 43.77100
C  23.03500 -0.76400 44.23700
C  25.12900 -2.56800 41.44600
C  25.45900 -1.41000 40.52300
H  24.73600 -1.26400 39.17300
N  21.95500 -5.96000 44.88400
C  21.22800 -5.15400 44.05600
C  19.99000 -5.79600 43.66600
C  20.00800 -7.08400 44.32700
C  21.26600 -7.16300 45.10800
C  19.02500 -5.20000 42.68500
C  18.89300 -8.05100 44.36400
O  17.87000 -7.78800 43.67300
C  18.81300 -9.18900 45.35900
N  24.09400 -7.53500 46.64000
C  23.08500 -8.46900 46.50900
C  23.46200 -9.72900 47.31300
C  24.96200 -9.48200 47.75400
C  25.17600 -8.07700 47.23100
C  22.52500 -10.17200 48.52100
C  25.97700 -10.46400 47.11600
C  25.66600 -11.93100 47.33900
N  25.95700 -5.46200 46.03200
C  26.84700 -6.32700 46.67300
C  28.19900 -5.82300 46.52700
C  28.09900 -4.73300 45.69700
C  26.75000 -4.59100 45.35900
C  29.35900 -6.46600 47.13600
C  28.83500 -3.78000 44.95700
O  30.04900 -3.52500 45.02600
C  27.78300 -2.91300 44.10200
C  27.82400 -1.45400 44.45300
O  27.33600 -0.92300 45.42000
O  28.41300 -0.82200 43.41400
C  28.20600 0.66800 43.43500
H  21.05000 -3.32800 42.90700
H  21.22300 -9.15800 45.93800
H  27.14400 -8.11000 47.92200
H  25.42700 -1.16200 43.10500
H  22.74700 -1.58100 42.37000
H  22.67200 -1.24700 45.14400
H  22.27000 -0.13900 43.77600
H  23.94600 -0.22100 44.48900
H  24.25700 -3.02100 40.97500
H  25.93700 -3.29900 41.43100
H  26.52300 -1.57400 40.34800
H  25.34000 -0.50800 41.12400
H  19.52600 -4.49700 42.01900
H  18.30500 -4.63100 43.27300
H  18.46500 -5.92600 42.09700
H  17.73700 -9.36200 45.36800
H  19.09000 -8.83100 46.35100
H  19.36100 -10.06400 45.01000
H  23.39000 -10.53200 46.58000
H  25.07900 -9.48100 48.83700
H  21.59500 -9.60300 48.52100
H  23.03100 -10.04100 49.47700
H  22.35300 -11.24800 48.55200
H  26.91700 -10.16700 47.58200
H  25.97100 -10.15300 46.07200
H  26.47500 -12.34800 47.93900
H  25.38100 -12.47800 46.44000
H  24.80300 -11.98200 48.00300
H  29.17300 -6.91600 48.11100
H  30.22100 -5.80200 47.21000
H  29.77900 -7.29800 46.56900
H  27.87300 -3.05700 43.02600
H  28.83800 1.05400 44.23500
H  27.14000 0.76100 43.64700
H  28.40800 1.19300 42.50100

