158

Mg 17.17200 51.50800 25.95200
C  18.93200 50.16300 28.66400
C  14.70700 52.53600 28.24400
C  15.40100 52.51200 23.38900
C  19.74900 50.38700 23.85000
N  16.82500 51.31500 28.22600
C  17.71100 50.76000 29.09200
C  17.26000 51.05900 30.56200
C  15.82700 51.72300 30.38000
C  15.80300 51.86500 28.85100
C  14.60600 50.96700 30.95800
C  18.28400 51.90600 31.39200
C  18.57600 51.36400 32.78900
H  17.84100 51.98200 33.89500
N  15.41100 52.32800 25.85100
C  14.48700 52.71200 26.84600
C  13.27600 53.23400 26.23000
C  13.46400 53.26600 24.82000
C  14.80400 52.63900 24.65500
C  12.14800 53.88800 26.95200
C  12.51300 53.82900 23.71900
O  12.92500 53.94300 22.56200
C  11.13900 54.33300 23.96900
N  17.45700 51.27700 23.84800
C  16.58500 51.94200 23.03600
C  17.07300 51.83500 21.59000
C  18.48500 51.18900 21.75600
C  18.61800 50.86700 23.19300
C  16.02500 51.13000 20.71900
C  19.50900 52.15800 20.97900
C  20.82500 51.51700 20.47400
N  18.89400 50.45000 26.11700
C  19.86600 50.07300 25.24000
C  21.00400 49.41500 25.87100
C  20.60800 49.48500 27.21500
C  19.40500 50.09600 27.34600
C  22.21100 48.77600 25.17000
C  21.11900 49.20700 28.59200
O  22.14700 48.64900 28.98400
C  20.05800 49.73100 29.52200
C  19.73500 48.60900 30.34300
O  19.10800 47.61000 29.95600
O  20.30300 48.82700 31.58400
C  20.11200 47.67800 32.47800
H  14.00900 53.01500 28.93400
H  14.91900 52.90400 22.49100
H  20.64200 50.13200 23.27400
H  17.17000 50.08600 31.04500
H  15.87000 52.72100 30.81800
H  13.98400 51.66300 31.52100
H  15.05100 50.27200 31.66900
H  14.15900 50.35300 30.17600
H  17.86600 52.89200 31.59400
H  19.21600 52.09300 30.85800
H  19.58600 51.59600 33.12600
H  18.53500 50.27600 32.75500
H  11.20600 53.43200 26.64500
H  12.05600 54.94800 26.71700
H  12.23100 53.80600 28.03600
H  10.74900 54.66300 23.00600
H  11.35800 55.23300 24.54400
H  10.48700 53.60000 24.44400
H  17.15200 52.83400 21.16300
H  18.60200 50.20600 21.30000
H  16.26400 50.15700 20.28900
H  15.66000 51.86200 19.99900
H  15.20700 50.88500 21.39700
H  19.71800 52.98500 21.65800
H  19.05900 52.40800 20.01800
H  20.71000 51.46400 19.39100
H  21.08600 50.57200 20.95100
H  21.57700 52.25600 20.75200
H  22.47600 47.98800 25.87500
H  23.02900 49.49000 25.25500
H  22.22400 48.45100 24.13000
H  20.58700 50.52100 30.05400
H  20.51400 46.72600 32.13100
H  19.04000 47.54900 32.62500
H  20.55900 47.75200 33.46900
Mg -1.24000 34.28000 26.40400
C  -2.86600 32.54600 28.96800
C  0.35800 36.16200 28.77400
C  -0.08400 35.98900 23.88700
C  -3.17300 32.40000 24.16600
N  -1.41400 34.39400 28.70500
C  -2.06000 33.55400 29.57700
C  -1.77700 33.90000 31.03900
C  -0.92700 35.19200 30.90800
C  -0.62500 35.27900 29.33000
C  -1.58800 36.46100 31.51500
C  -0.97400 32.80100 31.82400
C  -1.47700 32.69900 33.33100
H  -0.40700 32.68200 34.43900
N  0.03400 35.74000 26.35500
C  0.62000 36.41100 27.39400
C  1.66100 37.27000 26.82400
C  1.61800 37.15200 25.40200
C  0.45400 36.27600 25.16500
C  2.53100 38.13100 27.71500
C  2.50800 37.73200 24.24400
O  2.37200 37.52500 23.08600
C  3.67200 38.53100 24.64300
N  -1.71700 34.26000 24.33700
C  -1.04200 35.05600 23.51000
C  -1.55000 34.90700 22.12900
C  -2.10100 33.42500 22.15900
C  -2.35100 33.36600 23.60000
C  -2.65300 36.01600 21.65700
C  -1.02000 32.33000 21.77700
C  -0.81600 32.22600 20.19300
N  -2.73000 32.82600 26.51700
C  -3.39200 32.12400 25.50600
C  -4.32800 31.22700 26.09600
C  -4.09500 31.21700 27.47000
C  -3.15600 32.34600 27.65300
C  -5.34200 30.37000 25.47600
C  -4.45800 30.73200 28.76500
O  -5.11100 29.78800 29.19100
C  -3.73200 31.62400 29.82500
C  -4.67800 32.27200 30.72500
O  -5.47000 33.18500 30.45100
O  -4.50400 31.71200 31.97000
C  -5.11700 32.50600 32.97500
H  0.91800 36.70900 29.53500
H  0.27400 36.52000 23.00200
H  -3.70200 31.81600 23.41000
H  -2.75400 34.04700 31.50100
H  0.09600 35.16100 31.28300
H  -2.55000 36.07700 31.85400
H  -1.85000 37.26500 30.82700
H  -1.01400 36.88500 32.33900
H  0.07100 33.08700 31.70600
H  -1.11200 31.79900 31.41700
H  -2.02900 31.78100 33.53100
H  -2.09800 33.57700 33.50800
H  2.38400 37.92500 28.77500
H  2.24800 39.16000 27.49600
H  3.54800 37.87800 27.41400
H  4.48900 37.87500 24.94400
H  3.43000 39.35800 25.31100
H  3.83300 39.02800 23.68600
H  -0.79200 34.80600 21.35200
H  -3.05600 33.55500 21.65100
H  -3.04100 36.44200 22.58200
H  -3.46100 35.54900 21.09400
H  -2.08900 36.76300 21.09800
H  -1.43000 31.36800 22.08400
H  -0.13800 32.67400 22.31600
H  -0.83100 31.22200 19.77000
H  0.11300 32.69800 19.87200
H  -1.55600 32.85600 19.69900
H  -5.21700 29.29000 25.55800
H  -5.55800 30.69300 24.45700
H  -6.31600 30.64000 25.88500
H  -3.14400 30.96400 30.46300
H  -4.75400 33.53400 32.97500
H  -5.07800 32.04100 33.96000
H  -6.19900 32.39200 32.90000

