158

Mg 29.51000 59.21600 40.79600
C  26.38100 57.87000 39.90600
C  31.04800 56.56700 39.37000
C  32.39500 60.74800 41.38300
C  27.80600 62.14600 41.86800
N  28.77700 57.51700 39.67800
C  27.48800 57.13200 39.51600
C  27.43000 55.83100 38.68400
C  28.87000 55.28400 38.82900
C  29.62200 56.54600 39.35300
C  29.04900 54.08700 39.75400
C  27.04000 56.20100 37.21800
C  25.93100 55.41100 36.45800
H  26.30700 55.00400 34.96400
N  31.51200 58.78700 40.38800
C  31.93800 57.60600 39.78500
C  33.37900 57.52100 39.81000
C  33.81000 58.77500 40.36100
C  32.57800 59.56500 40.70900
C  34.23300 56.43400 39.30600
C  35.27100 59.15100 40.60600
O  36.16100 58.32900 40.36600
C  35.72900 60.43900 41.23600
N  30.03900 61.17100 41.40600
C  31.27500 61.53500 41.69900
C  31.39800 63.02000 42.16800
C  29.88400 63.52800 42.20200
C  29.22400 62.20200 41.82800
C  32.10400 63.17300 43.58800
C  29.54300 64.59100 41.09200
C  28.38000 65.53600 41.48000
N  27.52100 59.92000 40.92800
C  26.99700 61.07400 41.45800
C  25.52800 60.97600 41.45600
C  25.28500 59.82000 40.76400
C  26.53400 59.12100 40.54600
C  24.55000 62.03600 41.93000
C  24.26000 58.91600 40.31100
O  23.09000 59.00100 40.44800
C  24.86700 57.67200 39.64700
C  24.46400 56.39200 40.28600
O  24.65500 56.10200 41.45700
O  23.80500 55.59600 39.43300
C  23.31000 54.25600 39.83300
H  31.50700 55.61400 39.09700
H  33.35000 61.23100 41.60100
H  27.27300 63.00900 42.27300
H  26.62500 55.20100 39.06400
H  29.29100 55.19500 37.82800
H  29.38900 54.19100 40.78400
H  29.68300 53.36100 39.24500
H  28.09300 53.56400 39.70300
H  27.93500 56.25800 36.60000
H  26.66700 57.22300 37.27900
H  25.11100 56.12400 36.37600
H  25.68000 54.55400 37.08300
H  34.53700 55.82100 40.15500
H  35.03700 56.87600 38.71900
H  33.63500 55.84100 38.61400
H  36.81500 60.45400 41.14800
H  35.40700 60.56300 42.27000
H  35.33100 61.26800 40.65100
H  31.92400 63.60300 41.41100
H  29.46900 63.86400 43.15200
H  33.18300 63.01500 43.59200
H  31.60100 62.43900 44.21700
H  32.02600 64.16900 44.02400
H  29.45500 63.99700 40.18200
H  30.37600 65.22400 40.78500
H  28.02400 65.28500 42.47900
H  27.47100 65.51300 40.87900
H  28.77000 66.55200 41.54100
H  24.68600 62.96900 41.38500
H  24.45800 62.23500 42.99800
H  23.57700 61.61200 41.68400
H  24.60300 57.61800 38.59000
H  22.60800 54.51400 40.62500
H  24.10000 53.56800 40.13300
H  22.72800 53.85900 39.00100
Mg 25.76200 51.22900 26.56900
C  23.74300 52.05700 29.27900
C  28.19100 50.17200 28.85700
C  28.13500 51.20600 24.09000
C  23.47200 52.53500 24.42900
N  25.93600 51.02900 28.87600
C  24.93200 51.42400 29.73400
C  25.31800 51.02800 31.15600
C  26.84800 50.59600 31.02200
C  27.02000 50.58100 29.49100
C  27.92000 51.41200 31.80900
C  24.42400 49.94200 31.73400
C  24.68500 49.58700 33.25800
H  23.83900 50.06200 34.39000
N  27.82500 50.69900 26.43700
C  28.60900 50.26800 27.52000
C  29.95600 49.94400 27.04000
C  30.02700 50.30500 25.67500
C  28.63800 50.74400 25.33100
C  31.06400 49.38200 27.98100
C  31.21600 50.21600 24.74100
O  31.22300 50.48700 23.50400
C  32.52400 49.70400 25.24600
N  25.85400 51.94700 24.65700
C  26.89800 51.80700 23.81000
C  26.53400 52.14300 22.38500
C  24.91500 52.33200 22.41000
C  24.78000 52.29500 23.92900
C  27.38400 53.36100 21.83900
C  24.20400 51.20300 21.64900
C  24.46200 49.75200 22.04300
N  23.83400 52.05600 26.78900
C  23.04900 52.56200 25.77900
C  21.75500 53.04300 26.35700
C  21.96600 52.85900 27.76400
C  23.26100 52.27800 27.89700
C  20.65200 53.61000 25.46800
C  21.44700 53.07700 29.10300
O  20.37000 53.58800 29.50000
C  22.53900 52.60400 30.07000
C  22.86000 53.86600 30.86000
O  23.32000 54.94100 30.45800
O  22.58300 53.54600 32.12800
C  22.91900 54.56100 33.10300
H  28.95600 49.84100 29.56300
H  28.88000 51.03700 23.31000
H  22.61300 52.72100 23.78100
H  25.29100 51.89600 31.81400
H  26.87000 49.51600 31.16500
H  28.75700 51.62500 31.14300
H  28.43200 50.72800 32.48500
H  27.59300 52.32300 32.31200
H  24.58500 49.02600 31.16500
H  23.39000 50.27700 31.64700
H  25.72900 49.87700 33.37300
H  24.68900 48.50300 33.37300
H  31.05100 48.29400 28.03600
H  30.78200 49.55200 29.02000
H  32.07500 49.78500 27.91900
H  32.54000 48.70400 25.68100
H  33.01000 50.49000 25.82300
H  33.19000 49.70300 24.38300
H  26.82700 51.27400 21.79600
H  24.52800 53.26900 22.01100
H  28.13800 53.68700 22.55500
H  26.69300 54.18100 21.64100
H  27.85600 53.00900 20.92100
H  24.55800 51.37400 20.63200
H  23.12200 51.32900 21.67600
H  25.34600 49.69200 22.67800
H  24.71000 49.16400 21.15900
H  23.66500 49.24100 22.58400
H  19.80400 53.98200 26.04300
H  20.42200 52.82700 24.74500
H  21.16000 54.41800 24.94200
H  22.12000 51.85200 30.73800
H  23.40900 54.13400 33.97800
H  21.96600 54.98300 33.42100
H  23.50300 55.34100 32.61500

