158

Mg 1.28300 8.28500 25.32200
C  2.06900 10.12900 28.22600
C  1.61500 5.43800 27.22300
C  0.87600 6.66700 22.60400
C  1.28800 11.34100 23.54100
N  1.79400 7.89100 27.49700
C  1.91100 8.78200 28.57100
C  1.97800 8.13600 29.92100
C  2.09700 6.64400 29.51100
C  1.78100 6.66900 27.97000
C  3.50900 5.96300 29.79500
C  0.65400 8.41600 30.70400
C  0.67000 8.47200 32.23300
H  1.98200 7.93600 32.89100
N  1.23400 6.29900 24.95000
C  1.31300 5.30400 25.81700
C  1.26600 4.01700 25.06200
C  0.98900 4.40200 23.72400
C  1.12100 5.85500 23.66200
C  1.40600 2.62600 25.80000
C  0.64200 3.49100 22.61900
O  0.24300 3.83700 21.50200
C  0.70800 1.98300 22.72600
N  0.97700 8.85800 23.41300
C  0.85100 8.01900 22.40800
C  0.56000 8.66400 21.06900
C  0.40300 10.20700 21.48800
C  0.99900 10.14000 22.89500
C  1.72200 8.57000 19.99100
C  -1.04900 10.78600 21.55300
C  -2.00100 10.50200 20.41400
N  1.74300 10.26300 25.73700
C  1.69800 11.42900 24.90800
C  2.09300 12.57800 25.69200
C  2.23100 12.11900 26.97500
C  1.99700 10.69900 26.96100
C  2.14700 13.93100 25.19800
C  2.50800 12.53700 28.34100
O  2.93700 13.55800 28.74700
C  2.25300 11.32100 29.21400
C  3.35100 11.14200 30.24500
O  4.45200 10.73000 29.99400
O  2.95600 11.63700 31.43100
C  3.99000 11.65400 32.50100
H  1.51300 4.55900 27.86300
H  0.74700 6.18500 21.63300
H  1.26500 12.21400 22.88600
H  2.85400 8.45900 30.48400
H  1.38300 5.98300 30.00200
H  4.31100 6.65300 30.05700
H  3.96300 5.51400 28.91100
H  3.42100 5.15000 30.51600
H  -0.12900 7.70700 30.43400
H  0.36300 9.37200 30.27000
H  -0.20600 8.00900 32.68600
H  0.59100 9.50800 32.56300
H  2.18200 2.04600 25.30000
H  0.41400 2.23600 25.57500
H  1.53500 2.77800 26.87200
H  0.40800 1.59200 21.75400
H  -0.05400 1.64200 23.42700
H  1.74800 1.71500 22.90900
H  -0.43300 8.41700 20.69200
H  1.11300 10.80100 20.91300
H  2.59700 8.53700 20.64100
H  1.85100 9.43500 19.34100
H  1.65900 7.69600 19.34300
H  -0.99100 11.86300 21.71000
H  -1.47100 10.13500 22.31800
H  -1.39600 10.26000 19.54000
H  -2.66800 11.28200 20.04600
H  -2.57600 9.59700 20.60900
H  1.57100 14.43900 25.97100
H  1.78900 14.08900 24.18100
H  3.15200 14.35300 25.19600
H  1.31500 11.35600 29.76700
H  5.02200 11.54400 32.16600
H  3.76200 10.87400 33.22800
H  3.92200 12.54400 33.12600
Mg 35.81200 49.51300 24.95100
C  35.71000 48.19600 28.28400
C  34.11900 52.16900 26.22100
C  35.52800 50.44600 21.80900
C  36.85800 46.28400 23.85500
N  35.12100 50.14500 27.10200
C  35.30200 49.52300 28.26900
C  34.82000 50.43100 29.52400
C  34.16700 51.59500 28.72800
C  34.43400 51.28300 27.25900
C  32.67500 51.89900 28.92500
C  35.99500 50.76000 30.53200
C  35.98700 50.14200 31.85800
H  35.16200 50.73400 32.92300
N  35.00600 51.13100 24.10000
C  34.37900 52.12300 24.82300
C  33.94400 53.11000 23.85100
C  34.22400 52.60000 22.52700
C  34.95800 51.36700 22.76800
C  33.25200 54.36100 24.23100
C  33.90700 53.22200 21.09100
O  34.28400 52.63700 20.05600
C  33.15100 54.50900 20.94600
N  36.29200 48.54100 23.09200
C  36.14200 49.18200 21.95900
C  36.62100 48.34200 20.82000
C  37.07900 47.03300 21.39300
C  36.75600 47.28600 22.89800
C  35.56100 48.25500 19.64500
C  38.57400 46.57200 21.09200
C  39.59300 47.68200 21.13600
N  36.23700 47.60300 25.86000
C  36.69000 46.39700 25.27200
C  36.94300 45.41400 26.36900
C  36.57500 46.07200 27.54000
C  36.15000 47.37500 27.17800
C  37.51300 44.02800 26.20100
C  36.42200 45.87300 28.94900
O  36.56500 44.86700 29.70400
C  35.87600 47.22800 29.51100
C  34.71400 47.01200 30.29900
O  33.58200 46.96700 29.85500
O  35.05300 46.70300 31.65600
C  33.86300 46.42300 32.48000
H  33.60400 53.11800 26.38500
H  35.30100 50.84500 20.81900
H  37.27500 45.34500 23.48300
H  34.07700 49.86500 30.08600
H  34.75900 52.50200 28.84800
H  32.30800 51.52600 29.88100
H  32.20600 51.40900 28.07100
H  32.47900 52.97100 28.92000
H  35.92200 51.83300 30.70900
H  36.89600 50.48700 29.98300
H  37.02100 50.26700 32.17800
H  35.76900 49.07700 31.78100
H  32.16200 54.33900 24.24200
H  33.52000 55.13800 23.51600
H  33.46200 54.67700 25.25200
H  32.95700 54.90000 19.94700
H  33.80000 55.21600 21.46200
H  32.21800 54.52700 21.50800
H  37.46400 48.91000 20.42700
H  36.41800 46.22100 21.08800
H  34.64500 48.80900 19.85100
H  35.26500 47.23600 19.39300
H  36.07000 48.66500 18.77300
H  38.50000 46.15700 20.08700
H  38.92300 45.73500 21.69600
H  39.28300 48.59200 21.65000
H  40.09900 47.82900 20.18200
H  40.31600 47.14400 21.75000
H  37.76700 43.84100 25.15700
H  36.86100 43.19300 26.45200
H  38.38500 44.02200 26.85500
H  36.58700 47.74700 30.15500
H  33.49400 45.49000 32.05500
H  33.21800 47.30100 32.44400
H  34.23500 46.33700 33.50100

