158

Mg 8.73500 3.41000 28.21700
C  9.94900 1.86800 31.10200
C  7.03500 5.61600 30.03200
C  7.26100 4.39100 25.30600
C  10.01300 0.54600 26.37300
N  8.66100 3.78200 30.37200
C  9.17700 3.06400 31.37500
C  8.81600 3.56200 32.77700
C  7.61900 4.57900 32.37700
C  7.81900 4.74900 30.87100
C  6.08200 4.18600 32.76300
C  10.03100 4.29700 33.53500
C  10.41600 3.82100 35.07100
H  9.26700 3.70600 36.03100
N  7.43700 4.84300 27.69900
C  6.88000 5.71700 28.62700
C  6.06600 6.74100 27.93100
C  6.07200 6.37900 26.56200
C  6.98100 5.15400 26.46900
C  5.31400 7.79700 28.74200
C  5.39700 7.08000 25.43900
O  5.40600 6.71500 24.28800
C  4.71000 8.32900 25.71100
N  8.46700 2.46900 26.10400
C  8.00000 3.26200 25.13200
C  8.49200 2.70000 23.72900
C  9.29800 1.36200 24.10900
C  9.18800 1.40700 25.63500
C  7.47500 2.74200 22.58300
C  10.73400 1.22400 23.46500
C  11.08100 -0.19800 23.01900
N  9.93200 1.66300 28.62700
C  10.35800 0.60200 27.77300
C  11.14900 -0.34800 28.52600
C  11.02500 0.08300 29.88900
C  10.21100 1.28300 29.83300
C  11.84000 -1.52400 28.00400
C  11.30300 -0.23900 31.27900
O  12.01600 -1.06800 31.80500
C  10.52800 0.84900 32.10200
C  9.49900 0.17700 32.89600
O  8.65000 -0.61300 32.47700
O  9.72200 0.41000 34.21700
C  8.91300 -0.24500 35.28900
H  6.47300 6.27400 30.69800
H  6.83900 4.83000 24.40000
H  10.52500 -0.27600 25.86700
H  8.43200 2.77500 33.42500
H  7.75700 5.55600 32.83900
H  5.62500 4.72700 33.59100
H  6.14200 3.12100 32.98900
H  5.33600 4.26300 31.97200
H  9.80800 5.36100 33.61300
H  10.92900 4.06800 32.96100
H  11.03500 4.63800 35.44300
H  11.03500 2.92300 35.06000
H  5.81200 8.73200 28.48400
H  5.37200 7.76400 29.83000
H  4.28300 7.69400 28.40200
H  5.41000 9.01700 26.18500
H  3.84800 8.15500 26.35400
H  4.32900 8.76300 24.78700
H  9.34400 3.35500 23.55000
H  8.69800 0.51100 23.78700
H  6.56400 3.12200 23.04500
H  7.33700 1.78700 22.07700
H  7.69400 3.57100 21.91000
H  11.56400 1.52200 24.10600
H  10.81000 1.91300 22.62300
H  12.01300 -0.06100 22.47100
H  10.23900 -0.50200 22.39700
H  11.15200 -0.85400 23.88600
H  12.69300 -1.20100 27.40600
H  11.20300 -2.24000 27.48400
H  12.30600 -1.96000 28.88700
H  11.25900 1.32600 32.75500
H  9.47300 -1.00400 35.83500
H  8.00100 -0.69300 34.89400
H  8.51400 0.50500 35.97200
Mg -1.55100 35.13500 26.06100
C  -2.89300 33.41300 28.70400
C  -0.36100 37.55100 28.42100
C  -0.28300 36.93400 23.63400
C  -3.11800 32.94200 23.88200
N  -1.57500 35.39200 28.35700
C  -2.12800 34.47000 29.15800
C  -1.93000 34.82500 30.68100
C  -1.30700 36.29300 30.55500
C  -1.05200 36.48900 29.01500
C  -2.19000 37.42200 31.15100
C  -1.19100 33.77200 31.53300
C  -1.98400 33.05900 32.71900
H  -1.30600 32.96200 34.06500
N  -0.43700 36.97100 26.04200
C  -0.01500 37.80700 27.05900
C  0.81600 38.75600 26.53300
C  0.79200 38.62300 25.15000
C  0.06900 37.45500 24.89800
C  1.47100 39.76800 27.53600
C  1.52100 39.49500 24.16100
O  1.63900 39.14000 23.05100
C  2.26800 40.72200 24.63000
N  -1.86800 35.12700 24.05000
C  -1.05700 35.85300 23.24500
C  -1.43200 35.62600 21.79700
C  -2.27700 34.28900 21.81500
C  -2.44000 34.09400 23.35500
C  -2.16100 36.77700 21.12500
C  -1.61600 33.12400 20.93800
C  -0.36300 32.46200 21.41700
N  -2.68800 33.43100 26.17100
C  -3.27100 32.66400 25.25900
C  -4.03700 31.60000 25.86900
C  -3.92200 31.81400 27.20800
C  -3.08100 33.01200 27.33900
C  -4.80200 30.57300 25.21500
C  -4.42400 31.49300 28.52200
O  -5.23600 30.63000 28.88400
C  -3.64300 32.39800 29.54500
C  -4.67800 32.98800 30.39900
O  -5.33100 33.99100 30.26400
O  -4.76400 32.16000 31.48200
C  -5.81800 32.50200 32.47900
H  0.03100 38.16700 29.23300
H  0.17400 37.40200 22.76000
H  -3.62100 32.30800 23.14900
H  -2.93700 34.89700 31.09300
H  -0.32700 36.28800 31.03100
H  -2.53600 38.07400 30.34900
H  -1.68800 38.01800 31.91400
H  -3.07700 37.03700 31.65500
H  -0.29100 34.23300 31.93900
H  -0.93000 32.98100 30.83000
H  -2.21600 32.10900 32.23800
H  -2.89600 33.63200 32.88700
H  2.15900 40.52600 27.16200
H  1.86800 39.27800 28.42500
H  0.69700 40.36100 28.02500
H  1.58800 41.36300 25.19000
H  2.77600 41.26200 23.83100
H  3.10100 40.29300 25.18600
H  -0.48500 35.39100 21.31100
H  -3.25800 34.54300 21.41300
H  -2.37700 37.61900 21.78200
H  -3.12900 36.52100 20.69300
H  -1.42800 37.02700 20.35800
H  -1.38800 33.50000 19.94100
H  -2.29000 32.30700 20.67900
H  0.04500 32.93900 22.30800
H  0.34800 32.65700 20.61500
H  -0.47100 31.38700 21.56400
H  -5.70400 30.97500 24.75200
H  -4.99500 29.82900 25.98700
H  -4.10000 30.22200 24.45900
H  -2.96400 31.80600 30.15800
H  -5.33300 32.68100 33.43800
H  -6.40700 31.58700 32.54700
H  -6.52300 33.26400 32.14700

