158

Mg 46.61000 16.81400 27.62600
C  44.71000 16.54000 30.53600
C  48.94100 18.64600 29.57200
C  48.55600 17.40800 24.96500
C  44.13700 15.49700 25.76100
N  46.79000 17.64200 29.86500
C  45.86900 17.24300 30.88500
C  46.29200 17.70600 32.28000
C  47.55500 18.58100 31.95400
C  47.78100 18.36500 30.35100
C  47.55000 20.20700 32.15300
C  46.64300 16.47000 33.30600
C  46.42900 16.72700 34.78200
H  46.39000 18.19300 35.33800
N  48.60100 17.67900 27.38700
C  49.34700 18.36400 28.28800
C  50.60400 18.75900 27.62100
C  50.48600 18.32100 26.28100
C  49.21100 17.78200 26.14600
C  51.79700 19.25900 28.39600
C  51.49600 18.58800 25.18800
O  51.27900 18.58100 23.98100
C  52.95700 18.99700 25.58800
N  46.41100 16.53200 25.72600
C  47.30000 16.82600 24.70400
C  46.90800 16.26300 23.32000
C  45.66400 15.49400 23.69700
C  45.37700 15.86400 25.13200
C  46.58000 17.33500 22.33100
C  45.80100 13.98300 23.52100
C  45.18400 13.43100 22.20100
N  44.73500 16.14900 27.98300
C  43.88200 15.51800 27.12600
C  42.73900 15.02100 27.90800
C  43.00800 15.45700 29.24600
C  44.28100 16.10200 29.20000
C  41.50000 14.21200 27.36000
C  42.45100 15.54800 30.60400
O  41.37600 15.20300 31.00800
C  43.53400 16.32600 31.45900
C  42.89800 17.53900 32.02200
O  42.93300 18.65100 31.51700
O  42.36300 17.13900 33.24900
C  41.62600 18.16000 33.93700
H  49.68900 19.31600 30.00300
H  49.18000 17.71600 24.12300
H  43.43500 14.93500 25.14100
H  45.55800 18.35700 32.75400
H  48.40700 18.19400 32.51200
H  48.25900 20.36200 32.96600
H  46.66900 20.79700 32.40300
H  47.91700 20.73100 31.27000
H  47.69400 16.20600 33.18200
H  46.07200 15.57400 33.06600
H  47.24100 16.14000 35.21200
H  45.50800 16.18300 34.98800
H  52.69900 18.73300 28.08300
H  51.71900 19.18800 29.48100
H  51.92200 20.30600 28.12000
H  53.55200 18.28200 26.15800
H  52.89200 19.91200 26.17700
H  53.52500 19.12700 24.66700
H  47.66300 15.58300 22.92400
H  44.75100 15.83500 23.20900
H  45.50800 17.45400 22.17700
H  47.00900 17.03200 21.37600
H  46.95500 18.30900 22.64800
H  45.41100 13.43300 24.37800
H  46.80600 13.56000 23.49500
H  44.53200 14.24500 21.88600
H  44.48600 12.59900 22.29300
H  45.89400 13.27200 21.38900
H  41.79300 13.87300 26.36600
H  40.59300 14.81700 27.34000
H  41.33700 13.36300 28.02400
H  43.78900 15.64400 32.27000
H  42.29700 18.97700 34.20200
H  41.19400 17.78200 34.86400
H  40.89500 18.64700 33.29100
Mg 6.44500 55.33400 41.21000
C  3.97300 52.74900 41.06600
C  8.66200 53.15100 39.80900
C  8.77600 57.91900 41.07000
C  4.04300 57.56600 42.08700
N  6.22600 53.21900 40.39900
C  5.14400 52.36000 40.45700
C  5.53700 50.97500 39.87300
C  7.09100 51.14500 39.50900
C  7.34500 52.62300 39.96600
C  8.04200 50.14300 40.21500
C  4.75700 50.47600 38.63000
C  4.54300 48.88900 38.42600
H  5.10400 48.14900 37.16400
N  8.49900 55.50600 40.54900
C  9.21800 54.45400 40.00000
C  10.57500 54.91100 39.67600
C  10.57200 56.30600 39.96500
C  9.29800 56.68100 40.64200
C  11.60100 54.01700 39.09700
C  11.71300 57.23900 39.60000
O  12.83000 56.85900 39.16300
C  11.69300 58.71600 39.83400
N  6.44900 57.37200 41.54200
C  7.55200 58.24500 41.58900
C  7.12200 59.74500 41.87900
C  5.54300 59.60100 41.80300
C  5.28300 58.10100 41.74100
C  7.66600 60.26100 43.19000
C  4.76400 60.34600 40.63500
C  3.70300 61.36100 41.10600
N  4.46600 55.23100 41.68600
C  3.64300 56.24100 42.09200
C  2.39800 55.73700 42.49900
C  2.48800 54.31100 42.27100
C  3.72100 54.08700 41.59800
C  1.24000 56.65300 42.91900
C  1.75100 53.05700 42.31300
O  0.65400 52.71500 42.74000
C  2.71800 52.01300 41.57800
C  1.86900 51.37600 40.50100
O  1.18800 51.94700 39.58700
O  1.83100 50.01400 40.67300
C  0.97200 49.31100 39.76800
H  9.27700 52.32500 39.44400
H  9.49900 58.73700 41.03800
H  3.26900 58.29900 42.32200
H  5.50400 50.27200 40.70500
H  7.27200 51.07400 38.43700
H  8.63600 49.65500 39.44300
H  7.41600 49.32600 40.57300
H  8.55700 50.65000 41.03200
H  5.16400 51.02000 37.77800
H  3.77800 50.94400 38.73600
H  3.47300 48.68300 38.47000
H  5.04800 48.51300 39.31500
H  11.73700 54.29700 38.05300
H  11.33900 52.96100 39.15500
H  12.52500 54.23900 39.63200
H  12.52200 59.18400 39.30300
H  11.84100 58.83600 40.90700
H  10.77700 59.17500 39.46500
H  7.53000 60.40900 41.11800
H  5.02300 60.01800 42.66500
H  8.34800 59.53000 43.62500
H  6.90800 60.54200 43.92100
H  8.32700 61.11100 43.01900
H  4.26200 59.53500 40.10600
H  5.37100 60.94400 39.95500
H  3.23800 61.90700 40.28500
H  4.18200 61.96000 41.88000
H  2.96400 60.86000 41.73100
H  1.21000 56.79500 43.99900
H  0.33200 56.07700 42.74000
H  1.30000 57.64900 42.48000
H  3.07400 51.22500 42.24100
H  -0.04900 49.66400 39.91500
H  1.00000 48.26600 40.07800
H  1.22200 49.32500 38.70700

