158

Mg 50.32000 47.18400 42.79000
C  47.11300 48.17400 41.59400
C  49.75700 44.06500 41.03000
C  53.58200 46.49600 42.92800
C  50.86600 50.56300 43.61400
N  48.60500 46.20400 41.54600
C  47.43100 46.83300 41.24500
C  46.63600 45.95500 40.29100
C  47.30000 44.50600 40.53100
C  48.65800 44.95300 41.00700
C  46.63700 43.73900 41.62300
C  46.52500 46.37700 38.75100
C  45.16100 46.07500 38.11300
H  45.28700 44.96800 37.05300
N  51.50600 45.51700 42.14500
C  51.09900 44.28200 41.51100
C  52.21200 43.41300 41.30800
C  53.26900 44.02000 42.09100
C  52.81000 45.41600 42.42800
C  52.18400 42.07800 40.62200
C  54.64100 43.38700 42.31000
O  54.90200 42.26200 41.95700
C  55.80300 44.10400 42.94500
N  51.98900 48.32600 43.09700
C  53.26200 47.81200 43.14500
C  54.31200 48.86100 43.55100
C  53.40900 50.12300 43.81500
C  52.01300 49.66200 43.50700
C  55.24900 48.47700 44.72400
C  53.72400 51.45100 43.05600
C  55.19200 51.89300 43.03400
N  49.30600 49.03900 42.72600
C  49.56300 50.27100 43.14200
C  48.52000 51.13900 42.95200
C  47.48600 50.36700 42.40400
C  48.01700 49.06400 42.26400
C  48.47900 52.59600 43.25800
C  46.14300 50.32900 41.78000
O  45.36500 51.21700 41.56900
C  45.87600 48.89700 41.24000
C  44.55300 48.45100 41.86600
O  44.38500 47.89600 42.93500
O  43.53700 48.53000 40.98600
C  42.19300 48.47100 41.51800
H  49.54900 43.05600 40.66800
H  54.65600 46.31600 43.01000
H  51.05700 51.53400 44.07600
H  45.60100 45.83800 40.61400
H  47.23100 43.97000 39.58400
H  47.39000 43.37300 42.32100
H  46.12500 42.86100 41.22900
H  45.88200 44.33200 42.13900
H  47.24400 45.79200 38.17600
H  46.82400 47.42400 38.70800
H  44.81700 46.93600 37.53900
H  44.38100 45.85100 38.84100
H  52.63000 42.23600 39.64000
H  51.17200 41.67400 40.64600
H  52.70900 41.25700 41.11100
H  55.38400 44.60500 43.81700
H  56.08000 44.83300 42.18400
H  56.50000 43.33800 43.28600
H  54.89300 49.10700 42.66200
H  53.44800 50.31900 44.88600
H  55.00700 48.91800 45.69100
H  56.25000 48.81900 44.46100
H  55.28300 47.41900 44.98400
H  53.11300 52.18400 43.58500
H  53.43500 51.35200 42.01000
H  55.50400 51.93800 41.99100
H  55.80900 51.24800 43.66000
H  55.08500 52.89400 43.45400
H  48.50500 52.70400 44.34200
H  47.59900 53.15700 42.94500
H  49.35100 53.12000 42.86500
H  45.78600 48.95400 40.15500
H  42.05500 48.85800 42.52800
H  41.88300 47.42900 41.60100
H  41.51600 49.05200 40.89200
Mg -2.78400 34.77500 27.02900
C  -4.72600 33.49100 29.70000
C  -1.25000 37.05500 29.10500
C  -1.50200 36.28300 24.34900
C  -4.48500 32.44800 24.98200
N  -3.04000 35.23600 29.12300
C  -3.82800 34.54400 30.04900
C  -3.40900 34.95400 31.41800
C  -2.34300 36.17100 31.20700
C  -2.14000 36.09600 29.70300
C  -2.92600 37.58400 31.62100
C  -2.80300 33.76300 32.23600
C  -3.51600 33.35300 33.57000
H  -2.80100 33.17900 34.93800
N  -1.62200 36.49300 26.79400
C  -0.99100 37.19400 27.75300
C  -0.10600 38.23600 27.17700
C  -0.18200 38.02600 25.76100
C  -1.13800 36.92600 25.55900
C  0.51900 39.32600 27.96400
C  0.47700 38.74500 24.63400
O  0.37800 38.41900 23.49300
C  1.32800 39.92200 25.00300
N  -3.15600 34.56200 25.00000
C  -2.39200 35.21700 24.09900
C  -2.53500 34.71100 22.66400
C  -3.29900 33.38700 22.89800
C  -3.70800 33.47500 24.38300
C  -3.18500 35.70900 21.71400
C  -2.40800 32.12300 22.55300
C  -3.16300 31.07400 21.66800
N  -4.32800 33.19900 27.25600
C  -4.88500 32.36800 26.31000
C  -5.77400 31.44900 27.00700
C  -5.77100 31.84800 28.38900
C  -4.82000 32.93200 28.42700
C  -6.52000 30.25900 26.50300
C  -6.29600 31.55100 29.62900
O  -6.98200 30.59900 29.94200
C  -5.73800 32.65600 30.56300
C  -6.82300 33.39100 31.21000
O  -7.23700 34.44500 30.74000
O  -7.26600 32.84300 32.38300
C  -8.40900 33.45000 33.07000
H  -0.67300 37.68000 29.79000
H  -0.93300 36.46500 23.43500
H  -4.90700 31.72100 24.28500
H  -4.27000 35.33500 31.96700
H  -1.45700 35.99300 31.81600
H  -3.98500 37.46200 31.84700
H  -2.93600 38.23000 30.74300
H  -2.31500 38.05700 32.39000
H  -1.78300 34.08700 32.44200
H  -2.80000 32.84200 31.65300
H  -3.81600 32.32700 33.35800
H  -4.30300 34.09600 33.70400
H  -0.12600 40.20000 27.88000
H  1.57400 39.48500 27.74000
H  0.50500 39.05600 29.02000
H  0.78300 40.76800 25.42100
H  1.65800 40.37700 24.06900
H  2.17600 39.62300 25.61900
H  -1.52200 34.49600 22.32400
H  -4.24100 33.32300 22.35200
H  -2.58500 35.84200 20.81400
H  -3.30900 36.70800 22.13200
H  -4.21200 35.37100 21.57500
H  -2.18000 31.54400 23.44800
H  -1.52800 32.46700 22.00800
H  -3.20100 30.12100 22.19600
H  -2.67600 30.87500 20.71400
H  -4.16600 31.38500 21.37300
H  -6.43700 29.45200 27.23100
H  -5.91600 29.86600 25.68500
H  -7.54000 30.38700 26.13900
H  -5.29700 32.11400 31.40000
H  -8.05400 34.35800 33.55700
H  -8.79700 32.78400 33.84000
H  -9.31200 33.56600 32.47000

