158

Mg 17.37600 53.51900 26.39100
C  19.23200 51.74100 28.81100
C  15.15400 54.29600 28.97700
C  15.39200 54.93400 24.02100
C  19.44500 52.20200 23.95700
N  17.20500 53.03900 28.65800
C  18.11500 52.35100 29.47200
C  17.88900 52.65500 30.91700
C  16.42100 53.15500 30.94400
C  16.26200 53.54000 29.39600
C  15.32200 52.22100 31.43100
C  18.95900 53.58600 31.56300
C  19.26000 53.34600 33.06200
H  18.10100 52.67900 33.87000
N  15.57500 54.57400 26.45800
C  14.84700 54.78300 27.62100
C  13.72600 55.55600 27.27000
C  13.74600 55.83100 25.88100
C  14.94500 55.15500 25.34300
C  12.69100 56.06200 28.40700
C  12.81400 56.60100 25.09800
O  12.92200 56.71400 23.89700
C  11.64700 57.34500 25.76900
N  17.28700 53.38200 24.23800
C  16.48500 54.19900 23.53500
C  16.89500 54.27200 22.03700
C  18.30900 53.53400 22.06900
C  18.34200 52.91000 23.51200
C  15.90900 53.74000 20.96900
C  19.58300 54.37600 21.70200
C  20.54600 53.85600 20.63800
N  18.97700 52.18500 26.36300
C  19.71900 51.82000 25.27400
C  20.80400 50.98000 25.79300
C  20.60200 50.87800 27.17800
C  19.49100 51.62700 27.44900
C  21.95400 50.52600 24.88000
C  21.15000 50.38700 28.37300
O  22.09000 49.64800 28.62100
C  20.29200 50.95800 29.44800
C  19.73300 49.93900 30.27200
O  18.97400 49.06700 29.87200
O  20.04500 50.10800 31.60400
C  19.66000 48.91900 32.41200
H  14.40000 54.62000 29.69800
H  14.99000 55.47800 23.16300
H  20.24800 51.97100 23.25400
H  17.84800 51.71600 31.46900
H  16.40800 54.05700 31.55600
H  15.04400 51.47600 30.68500
H  14.46800 52.80000 31.78200
H  15.82200 51.62900 32.19800
H  18.58400 54.60800 31.61800
H  19.88500 53.56100 30.98800
H  19.49000 54.32200 33.48800
H  20.14000 52.70900 32.96800
H  12.50000 57.12400 28.24800
H  12.96800 55.92800 29.45300
H  11.76800 55.48300 28.39000
H  12.05300 57.99300 26.54700
H  11.11900 56.54900 26.29300
H  11.05300 57.86200 25.01600
H  17.09500 55.33800 21.93100
H  18.30700 52.71700 21.34700
H  14.88100 53.71200 21.33000
H  16.24500 52.74900 20.66500
H  15.88600 54.39800 20.10000
H  20.23400 54.42600 22.57500
H  19.30600 55.42600 21.60800
H  21.49200 53.68200 21.15100
H  20.78300 54.58600 19.86500
H  20.12700 52.97300 20.15600
H  22.09600 51.10100 23.96500
H  21.87900 49.45300 24.70400
H  22.83500 50.58100 25.51900
H  20.90100 51.63700 30.04500
H  19.87500 49.05500 33.47200
H  20.14400 48.09400 31.89000
H  18.59100 48.71600 32.48200
Mg 1.47100 42.91900 26.04900
C  2.94800 43.13600 29.17400
C  -1.30300 41.79300 27.55500
C  0.28300 42.41900 22.96400
C  4.62900 43.54100 24.53900
N  0.88300 42.57500 28.25100
C  1.59000 42.83700 29.32600
C  0.78000 42.77400 30.63700
C  -0.53800 42.16800 30.07800
C  -0.35600 42.17100 28.57900
C  -0.89600 40.80200 30.70600
C  0.58800 44.17700 31.33800
C  1.02100 44.29200 32.78700
H  0.76200 43.12200 33.71600
N  -0.31900 42.21000 25.37000
C  -1.33500 41.76200 26.17600
C  -2.34400 41.24000 25.30000
C  -2.01800 41.58400 23.99200
C  -0.65000 42.08600 24.05400
C  -3.53200 40.47500 25.82800
C  -2.70500 41.40200 22.72600
O  -2.27900 41.80200 21.64900
C  -4.09200 40.74100 22.80800
N  2.34500 42.99200 24.04000
C  1.60700 42.77200 22.95900
C  2.50900 42.86700 21.67300
C  3.86400 43.23500 22.24400
C  3.63000 43.20200 23.71800
C  2.47900 41.58600 20.79700
C  4.36500 44.62200 21.78800
C  3.78200 45.84700 22.52500
N  3.41300 43.23200 26.62900
C  4.63100 43.46400 25.93300
C  5.66000 43.77700 26.96200
C  4.98200 43.54500 28.12800
C  3.66700 43.27100 27.94200
C  7.08700 44.22500 26.70900
C  5.22800 43.55400 29.57400
O  6.29400 43.87400 30.18800
C  3.90500 43.37700 30.31700
C  3.98500 42.36600 31.35000
O  3.67100 41.20900 31.20700
O  4.51300 42.94700 32.51600
C  4.82200 42.05200 33.64900
H  -2.25400 41.50300 28.00600
H  -0.04500 42.21500 21.94300
H  5.61600 43.81600 24.16400
H  1.25200 42.08900 31.34100
H  -1.36300 42.81200 30.38300
H  -0.02100 40.47500 31.26800
H  -1.21300 40.10400 29.93100
H  -1.78800 40.93900 31.31800
H  -0.41100 44.60900 31.27200
H  1.23500 44.87100 30.80200
H  0.38600 45.04100 33.26200
H  2.00000 44.76400 32.86800
H  -3.60200 39.48900 25.36900
H  -4.47700 40.92000 25.51800
H  -3.67300 40.21500 26.87700
H  -3.87100 39.70100 23.04800
H  -4.56200 40.86500 21.83300
H  -4.75200 41.30100 23.47100
H  2.07300 43.67000 21.07900
H  4.67000 42.59400 21.88800
H  2.96400 40.78600 21.35700
H  2.95200 41.77600 19.83300
H  1.46100 41.29000 20.54300
H  4.07500 44.76900 20.74700
H  5.45200 44.62000 21.70000
H  3.39100 45.75200 23.53800
H  2.97900 46.23200 21.89600
H  4.51200 46.64700 22.64200
H  7.01100 44.88100 25.84200
H  7.80600 43.44800 26.44500
H  7.46600 44.79300 27.55800
H  3.69900 44.28200 30.88900
H  4.70700 42.84800 34.38500
H  5.81200 41.60500 33.56200
H  3.99100 41.34800 33.66800

