158

Mg 35.30600 -0.24100 29.44100
C  33.29900 1.12000 32.02400
C  37.88400 -0.28500 31.70400
C  37.32700 -1.32700 27.03700
C  32.79400 0.43300 27.13100
N  35.53100 0.38800 31.59300
C  34.56900 0.87200 32.42600
C  35.09900 1.09700 33.75600
C  36.62900 1.10300 33.50000
C  36.74100 0.32600 32.17300
C  37.44200 2.41600 33.60400
C  34.56100 -0.06300 34.69500
C  34.17500 0.48100 36.09000
H  35.09200 1.60600 36.70000
N  37.30100 -0.76400 29.42100
C  38.23500 -0.74700 30.41800
C  39.48900 -1.38400 29.99200
C  39.34700 -1.69400 28.61400
C  37.92700 -1.27200 28.27300
C  40.55400 -1.55800 30.98000
C  40.30600 -2.42200 27.73100
O  40.03500 -2.74200 26.56300
C  41.70500 -2.81400 28.25500
N  35.07800 -0.39500 27.39300
C  36.07400 -0.90300 26.59600
C  35.75400 -0.74600 25.11100
C  34.20900 -0.47300 25.16900
C  34.01100 -0.07000 26.62200
C  36.46100 0.34800 24.41200
C  33.38900 -1.68700 24.68900
C  32.86300 -2.82500 25.57700
N  33.39200 0.61900 29.52400
C  32.50200 0.72800 28.49500
C  31.24200 1.13800 29.06700
C  31.53100 1.28700 30.48500
C  32.83100 0.95000 30.69300
C  29.95300 1.47500 28.28300
C  30.90200 1.79900 31.70100
O  29.75400 2.21500 31.90200
C  32.01800 1.58400 32.79600
C  32.19700 2.82500 33.58600
O  32.57400 3.89900 33.14800
O  31.62100 2.66900 34.77200
C  31.56700 3.79700 35.69600
H  38.69400 -0.12300 32.41900
H  38.05000 -1.51800 26.24100
H  31.99300 0.62200 26.41300
H  34.89000 2.08200 34.17100
H  37.05400 0.49300 34.29800
H  37.87700 2.46800 32.60600
H  38.05500 2.36200 34.50400
H  36.81600 3.30700 33.66100
H  35.37400 -0.77900 34.81200
H  33.67400 -0.47100 34.21100
H  34.09200 -0.41300 36.70700
H  33.18900 0.94500 36.11400
H  40.11400 -1.66800 31.97200
H  41.19000 -0.68000 31.08600
H  41.20700 -2.42600 30.89400
H  42.28400 -2.03400 28.75000
H  42.36800 -3.04400 27.42100
H  41.53500 -3.72800 28.82600
H  36.12300 -1.62300 24.58100
H  33.88300 0.35600 24.54000
H  35.94000 1.29100 24.24500
H  36.89200 -0.07900 23.50700
H  37.33800 0.72100 24.94200
H  34.00300 -2.21000 23.95600
H  32.58200 -1.30200 24.06600
H  31.83400 -3.02500 25.27700
H  32.97100 -2.73300 26.65800
H  33.41100 -3.76100 25.46800
H  29.72900 0.62200 27.64200
H  30.18000 2.42700 27.80300
H  29.14100 1.66500 28.98500
H  31.76300 0.72400 33.41500
H  32.48800 3.80500 36.28000
H  30.71000 3.75700 36.36800
H  31.65300 4.77300 35.21900
Mg 41.19400 41.36200 27.76600
C  40.44200 43.92500 30.01200
C  41.99000 39.28700 30.41000
C  42.02300 38.90900 25.60400
C  40.91700 43.60700 25.11500
N  41.04400 41.63800 29.88600
C  40.63700 42.73400 30.63200
C  40.63700 42.51100 32.11800
C  41.21500 41.00800 32.24800
C  41.41700 40.62800 30.76800
C  42.36800 40.76200 33.21200
C  39.23000 42.76400 32.78200
C  38.75600 41.99000 34.07600
H  38.27800 42.80500 35.27200
N  41.75200 39.31000 27.97500
C  42.19000 38.69200 29.13400
C  42.77000 37.41800 28.87600
C  42.58800 37.27100 27.49200
C  42.14000 38.54100 26.93800
C  43.36200 36.54600 29.86200
C  42.77600 35.97000 26.71700
O  42.70200 35.85500 25.50700
C  43.00700 34.60700 27.51800
N  41.68500 41.38500 25.69700
C  41.82600 40.18200 25.04000
C  41.78400 40.33300 23.51300
C  41.25900 41.78800 23.40000
C  41.32800 42.33400 24.79800
C  43.08600 40.00800 22.81200
C  39.85800 41.92300 22.81500
C  38.63700 41.61800 23.79400
N  40.93600 43.49600 27.51400
C  40.71800 44.21300 26.37800
C  40.34700 45.57800 26.84800
C  40.31900 45.52100 28.26400
C  40.58500 44.19400 28.60600
C  40.20500 46.70800 25.95000
C  40.01100 46.26100 29.44300
O  39.60900 47.42800 29.61400
C  40.10900 45.21300 30.64800
C  41.22100 45.73500 31.38100
O  42.34200 45.88600 30.97600
O  40.78500 46.16400 32.63000
C  41.95300 46.40500 33.47100
H  42.18600 38.64900 31.27400
H  42.40700 38.13900 24.93200
H  40.89700 44.27000 24.24800
H  41.42700 43.16700 32.48500
H  40.49600 40.31500 32.68500
H  42.30800 41.17700 34.21800
H  43.20100 41.14000 32.62000
H  42.43300 39.67700 33.29100
H  38.41000 42.76000 32.06400
H  39.30800 43.81600 33.05800
H  39.55200 41.37000 34.48800
H  37.94000 41.40500 33.65100
H  44.19600 36.13200 29.29500
H  42.68200 35.72500 30.08700
H  43.72600 37.02800 30.76900
H  42.96300 33.71900 26.88800
H  42.26400 34.55300 28.31400
H  44.02500 34.65300 27.90700
H  41.00600 39.72500 23.05000
H  41.84700 42.42500 22.73800
H  43.72900 39.59200 23.58700
H  43.50800 40.91400 22.37800
H  42.95300 39.39000 21.92300
H  39.76400 41.12900 22.07400
H  39.69500 42.83400 22.23900
H  38.91000 41.80000 24.83300
H  38.37600 40.56000 23.81100
H  37.80400 42.27100 23.53000
H  40.53700 47.59600 26.48800
H  39.22600 47.00100 25.57100
H  40.82100 46.40800 25.10200
H  39.24000 45.26000 31.30400
H  42.45500 47.32100 33.15900
H  42.66200 45.58300 33.36600
H  41.61500 46.51200 34.50100

