158

Mg 46.71700 26.43500 28.98100
C  47.48400 28.57700 31.70600
C  45.55700 24.05700 31.27400
C  46.83200 24.06700 26.58600
C  48.33700 28.70700 26.80500
N  46.55900 26.34800 31.29400
C  46.81900 27.39700 32.13700
C  46.45100 27.00700 33.63900
C  46.02300 25.51000 33.48800
C  45.99000 25.30600 31.92000
C  46.83100 24.35800 34.26800
C  45.34300 27.97600 34.33500
C  45.79100 28.42500 35.75600
H  46.16400 27.40600 36.83900
N  46.11300 24.42600 28.91500
C  45.58300 23.63100 29.90800
C  45.15600 22.29400 29.34800
C  45.53300 22.28300 27.99400
C  46.16600 23.60200 27.76900
C  44.44000 21.28200 30.28400
C  45.45000 21.12400 26.96600
O  45.86500 21.21800 25.85200
C  44.81200 19.78800 27.39100
N  47.60000 26.35500 27.03300
C  47.43300 25.25200 26.24900
C  47.87200 25.51100 24.73600
C  48.16800 26.99800 24.88800
C  47.98500 27.39700 26.34300
C  49.10100 24.67600 24.35800
C  47.31500 28.02600 24.02900
C  48.14200 28.99400 23.19900
N  47.70100 28.33300 29.17400
C  48.30600 29.11100 28.18800
C  48.88200 30.29400 28.83200
C  48.53300 30.09400 30.20400
C  47.86200 28.86300 30.34800
C  49.56900 31.39200 28.15100
C  48.51000 30.71400 31.56100
O  48.88700 31.83000 31.94700
C  47.98000 29.64400 32.62000
C  49.07300 29.07900 33.48900
O  50.05300 28.45400 33.01500
O  48.95900 29.40000 34.78600
C  50.07800 29.17600 35.74100
H  45.18900 23.44100 32.09700
H  46.92100 23.28400 25.83000
H  48.75000 29.41300 26.08100
H  47.38200 27.07000 34.20300
H  44.98800 25.36800 33.79900
H  47.13400 23.57700 33.57000
H  46.10100 23.88400 34.92500
H  47.75000 24.63600 34.78300
H  44.37200 27.50000 34.47500
H  45.17200 28.85300 33.71100
H  45.11700 29.18500 36.14900
H  46.71500 29.00200 35.78700
H  43.45300 21.33900 29.82400
H  44.29400 21.63000 31.30700
H  44.91100 20.29900 30.30400
H  45.38100 19.36200 28.21700
H  44.93600 19.09000 26.56300
H  43.78000 19.98700 27.67800
H  46.97000 25.27600 24.17000
H  49.22400 27.20800 24.72200
H  49.72600 25.05100 23.54800
H  48.72200 23.70400 24.04000
H  49.73500 24.58100 25.23900
H  46.59800 28.56700 24.64700
H  46.77300 27.45900 23.27300
H  47.64700 29.12400 22.23700
H  49.20900 28.78200 23.13300
H  48.11600 29.93500 23.74800
H  49.35100 31.52000 27.09100
H  50.60900 31.10200 28.30000
H  49.37500 32.29800 28.72400
H  47.19000 30.09100 33.22400
H  50.27000 30.15000 36.19100
H  50.99300 28.72000 35.36400
H  49.76900 28.51700 36.55200
Mg 6.97300 53.47100 41.24500
C  6.31400 50.16100 40.43600
C  9.87000 53.27400 39.34100
C  7.18000 56.86100 41.39700
C  3.50500 53.76300 42.38000
N  7.89800 51.98400 40.05400
C  7.50700 50.66900 39.90000
C  8.52000 49.98200 38.83700
C  9.79800 50.80300 39.11000
C  9.15100 52.10300 39.52600
C  10.72900 50.33600 40.24100
C  7.94900 50.14800 37.31300
C  8.23200 48.95100 36.49000
H  7.42000 48.67200 35.26900
N  8.46700 54.82300 40.61000
C  9.52000 54.54200 39.81300
C  10.24500 55.71900 39.56600
C  9.59400 56.87100 40.28500
C  8.36000 56.22500 40.83400
C  11.42900 55.65900 38.55900
C  10.12500 58.30800 40.34800
O  11.12900 58.65200 39.74300
C  9.56300 59.37000 41.36500
N  5.51800 55.11300 41.73400
C  5.93500 56.37300 41.80600
C  4.73400 57.24100 42.18900
C  3.65000 56.25200 42.76600
C  4.24200 54.91800 42.21900
C  5.05900 58.45100 43.11400
C  2.13800 56.52600 42.26700
C  1.19200 56.45800 43.48200
N  5.28500 52.24100 41.44400
C  3.98500 52.43600 41.97900
C  3.32700 51.21200 42.05900
C  4.15700 50.24700 41.48800
C  5.32700 50.94500 41.11200
C  1.99300 50.88600 42.54400
C  4.33200 48.79900 41.19600
O  3.62700 47.83000 41.48700
C  5.79700 48.79800 40.45900
C  5.70800 48.00100 39.29100
O  4.80500 48.17200 38.44300
O  6.59100 46.90500 39.25600
C  6.43200 45.94900 38.18400
H  10.81100 53.16000 38.79800
H  7.12000 57.94600 41.28700
H  2.52200 53.92900 42.82700
H  8.71700 48.94300 39.10200
H  10.39900 50.90600 38.20700
H  10.69300 51.04100 41.07100
H  11.74100 50.21500 39.85500
H  10.36000 49.44000 40.74000
H  8.42400 51.00900 36.84300
H  6.88300 50.25000 37.51600
H  8.11400 48.04900 37.09000
H  9.22200 49.23000 36.12900
H  11.29000 54.98000 37.71800
H  12.26600 55.22400 39.10500
H  11.81600 56.59300 38.15000
H  9.04200 58.96400 42.23200
H  8.93200 60.03800 40.77800
H  10.43100 59.91400 41.73900
H  4.33600 57.63200 41.25300
H  3.71400 56.21600 43.85400
H  4.82800 59.38900 42.60900
H  6.13900 58.34900 43.21500
H  4.54600 58.43700 44.07500
H  1.80100 55.87600 41.45900
H  2.04000 57.52300 41.83700
H  1.70100 56.35000 44.44000
H  0.49200 55.63000 43.37600
H  0.65500 57.40000 43.37400
H  1.36200 50.28000 41.89300
H  1.35500 51.76900 42.50900
H  2.16900 50.49500 43.54600
H  6.50500 48.31200 41.13100
H  6.41100 45.00300 38.72400
H  7.33100 45.81300 37.58300
H  5.49200 46.00700 37.63500

