158

Mg 49.95900 45.29000 42.66100
C  46.79800 45.95200 41.58600
C  49.86000 42.29300 41.03200
C  53.17600 45.08700 43.04700
C  50.29900 48.95200 43.15600
N  48.45600 44.24300 41.48400
C  47.22700 44.69600 41.21900
C  46.37200 43.66700 40.41900
C  47.32100 42.39800 40.53400
C  48.66700 42.95000 41.04700
C  46.85900 41.17900 41.39000
C  46.09200 44.14500 39.00700
C  44.56700 44.04700 38.51100
H  44.25600 43.62800 37.01200
N  51.24100 43.80200 42.31000
C  51.09100 42.63900 41.61500
C  52.27700 41.89700 41.68500
C  53.27700 42.64400 42.38000
C  52.59900 43.91000 42.61000
C  52.38900 40.47800 41.10500
C  54.72500 42.21800 42.66800
O  55.03600 41.01200 42.42700
C  55.79500 43.19100 43.13300
N  51.56400 46.87800 43.02700
C  52.78900 46.38300 43.26900
C  53.75700 47.59500 43.37600
C  52.81200 48.81100 43.73700
C  51.50200 48.21000 43.28300
C  55.05600 47.45500 44.18400
C  53.10400 50.23600 43.08000
C  52.93400 51.43500 43.92600
N  48.72300 47.12700 42.58000
C  49.01900 48.50800 42.72600
C  47.76200 49.22300 42.64800
C  46.80700 48.26400 42.18800
C  47.51200 47.02700 42.17300
C  47.69100 50.63000 43.15300
C  45.43000 48.17200 41.92100
O  44.47700 48.94800 41.92100
C  45.38300 46.61600 41.51000
C  44.35000 45.86600 42.30300
O  44.49800 45.60200 43.46100
O  43.28900 45.50800 41.49800
C  42.21600 44.85200 42.24800
H  49.84600 41.27500 40.63600
H  54.25000 45.03200 43.23600
H  50.32500 49.99100 43.49100
H  45.49400 43.52400 41.04800
H  47.49900 42.06700 39.51100
H  45.77700 41.18200 41.52100
H  47.30900 41.46800 42.34000
H  47.34700 40.22600 41.18200
H  46.63500 43.59700 38.23800
H  46.42900 45.18200 39.00800
H  44.19600 45.07100 38.55300
H  44.05600 43.48900 39.29600
H  53.01800 40.44300 40.21600
H  51.44900 39.98200 40.86100
H  52.82400 39.88800 41.91200
H  55.68300 44.05700 42.48200
H  56.68200 42.56900 43.01000
H  55.81600 43.48100 44.18300
H  54.11900 47.58400 42.34800
H  52.85300 48.86200 44.82500
H  55.84300 47.16100 43.49000
H  54.81400 46.81200 45.03000
H  55.32700 48.44100 44.56200
H  52.39900 50.32900 42.25300
H  54.11400 50.26700 42.67100
H  52.44100 52.24200 43.38300
H  53.93300 51.77400 44.19900
H  52.30800 51.19400 44.78500
H  48.08700 50.60700 44.16800
H  46.64200 50.90900 43.24300
H  48.30600 51.35300 42.61700
H  44.97600 46.76800 40.51000
H  41.25400 44.83900 41.73600
H  42.06700 45.34200 43.20900
H  42.58400 43.82600 42.27400
Mg 36.50200 48.58100 24.78200
C  36.70400 46.63500 27.76100
C  34.93200 51.11600 26.55000
C  35.61500 49.96000 21.88300
C  37.33600 45.56900 22.97500
N  35.92900 48.80300 26.92800
C  36.19400 47.96700 27.96700
C  35.66500 48.61800 29.21000
C  35.23200 50.06500 28.87700
C  35.36100 50.01100 27.35800
C  33.78300 50.48000 29.32400
C  36.49200 48.40900 30.47600
C  36.37700 49.43700 31.69300
H  35.15400 49.36700 32.61100
N  35.67300 50.37700 24.31600
C  35.02800 51.25700 25.15500
C  34.49200 52.41300 24.39200
C  34.81800 52.06400 23.05300
C  35.38100 50.76100 23.05800
C  33.87200 53.59200 25.11300
C  34.56200 52.84100 21.79200
O  34.84000 52.42700 20.67000
C  33.89700 54.20600 21.78400
N  36.40000 47.89400 22.80800
C  36.14400 48.71700 21.76800
C  36.52000 48.11500 20.39200
C  37.48700 46.99900 20.88700
C  37.06600 46.79300 22.30800
C  35.31000 47.65700 19.59900
C  38.98700 47.34600 20.67000
C  39.58100 47.08100 19.30600
N  36.95800 46.51800 25.26600
C  37.21900 45.43400 24.39900
C  37.53900 44.28600 25.19400
C  37.36000 44.68800 26.48100
C  37.03500 46.09000 26.52400
C  37.79700 42.96100 24.63000
C  37.27600 44.14400 27.82500
O  37.42900 43.02900 28.27000
C  36.82700 45.43600 28.70700
C  35.45700 45.05400 29.26700
O  34.40400 45.19300 28.67800
O  35.61300 44.52800 30.50600
C  34.36200 44.35700 31.28900
H  34.40700 51.89900 27.10100
H  35.42700 50.38400 20.89400
H  37.86000 44.85200 22.34000
H  34.75600 48.07400 29.46700
H  35.99400 50.80200 29.12900
H  33.97300 51.44500 29.79300
H  33.47100 49.77500 30.09500
H  33.05100 50.46600 28.51700
H  37.53800 48.11700 30.38500
H  36.09500 47.53400 30.98900
H  36.49600 50.43500 31.27100
H  37.26300 49.29900 32.31400
H  33.14600 54.12100 24.49700
H  34.62300 54.36000 25.29600
H  33.42200 53.18600 26.01900
H  34.46000 54.86800 22.44200
H  32.89500 53.92000 22.10400
H  33.84800 54.69200 20.81000
H  37.03400 48.91100 19.85300
H  37.11400 46.13600 20.33600
H  34.43200 47.57000 20.23900
H  35.57000 46.73100 19.08600
H  35.08600 48.31600 18.76000
H  39.69500 46.94600 21.39600
H  39.02400 48.41200 20.89700
H  38.77100 46.81400 18.62700
H  40.38300 46.35600 19.43900
H  40.08200 47.89200 18.77700
H  38.60900 42.95700 23.90400
H  36.97800 42.49500 24.08200
H  38.09000 42.35000 25.48500
H  37.49000 45.68100 29.53700
H  34.48600 43.72100 32.16600
H  33.57700 43.83000 30.74600
H  33.97700 45.34100 31.55500

