158

Mg 30.34700 59.69200 40.05500
C  27.61000 57.88500 38.65500
C  32.36100 56.88200 39.34100
C  33.10400 61.57400 40.63600
C  28.30300 62.48200 40.14300
N  29.99200 57.77300 38.91100
C  28.81500 57.25800 38.51500
C  29.03200 55.89400 37.90100
C  30.33700 55.46700 38.64000
C  30.96500 56.78900 38.96100
C  30.21900 54.62100 39.94300
C  29.15300 55.93900 36.36400
C  28.14100 55.03600 35.57400
H  27.28200 55.91900 34.69100
N  32.43300 59.29100 40.00700
C  33.05300 58.08400 39.78000
C  34.46300 58.31400 39.95300
C  34.65300 59.60900 40.33400
C  33.37700 60.19100 40.37900
C  35.35800 57.11400 39.93600
C  35.96500 60.12100 40.76500
O  37.01000 59.47300 40.56400
C  36.18900 61.36200 41.49800
N  30.67000 61.74900 40.12100
C  31.89500 62.29600 40.48000
C  31.76100 63.80800 40.68700
C  30.24500 64.07200 40.44800
C  29.69700 62.65200 40.27800
C  32.32800 64.44100 42.04500
C  30.00000 65.00400 39.25100
C  29.51300 66.43100 39.51200
N  28.28800 60.05900 39.67700
C  27.62300 61.23400 39.87800
C  26.14700 61.02000 39.52600
C  26.10100 59.68600 39.07100
C  27.44200 59.20500 39.12900
C  25.01400 61.95700 39.65000
C  25.19800 58.67500 38.65500
O  23.98600 58.65000 38.52300
C  26.09700 57.43800 38.37400
C  25.67800 56.27800 39.24300
O  26.34600 55.97500 40.17700
O  24.49800 55.70100 38.78200
C  23.82500 54.80900 39.68000
H  32.91500 55.94900 39.21400
H  33.91500 62.20200 41.01200
H  27.69000 63.38300 40.07300
H  28.21300 55.27200 38.26500
H  30.94000 54.86900 37.95700
H  30.25700 53.54600 39.76900
H  29.23700 54.79900 40.38200
H  30.94100 54.88800 40.71500
H  30.10300 55.61500 35.93800
H  28.83200 56.95000 36.11400
H  27.64700 54.33100 36.24300
H  28.68100 54.31000 34.96600
H  35.01100 56.27400 39.33500
H  35.30600 56.80500 40.98000
H  36.40600 57.26400 39.67700
H  37.19400 61.44000 41.91200
H  35.54400 61.33800 42.37600
H  36.01300 62.25600 40.90000
H  32.41700 64.21900 39.91900
H  29.73800 64.40200 41.35400
H  31.49100 64.75500 42.66900
H  32.91200 65.32800 41.79800
H  32.94400 63.77500 42.64900
H  29.15600 64.51300 38.76600
H  30.85100 65.04500 38.57200
H  28.57400 66.78300 39.08300
H  30.31800 67.08800 39.18400
H  29.34300 66.36500 40.58700
H  24.79600 62.31300 38.64300
H  25.26400 62.85800 40.21000
H  24.17400 61.44700 40.12300
H  25.84700 57.13400 37.35800
H  23.40000 54.14500 38.92600
H  23.09200 55.36300 40.26600
H  24.51300 54.28500 40.34300
Mg 15.45600 52.21700 26.25400
C  17.67300 51.46500 28.77200
C  12.94100 52.62400 28.53700
C  13.23900 52.38000 23.70600
C  18.05300 51.28600 23.89900
N  15.34600 51.91200 28.36700
C  16.36000 51.68800 29.25100
C  15.94900 52.01700 30.65400
C  14.40500 51.83900 30.53300
C  14.19700 52.19500 29.05100
C  13.88300 50.45200 30.99300
C  16.54100 53.40100 31.11900
C  16.56500 53.78900 32.57500
H  15.72900 52.90500 33.49900
N  13.37000 52.47400 26.09900
C  12.56600 52.74300 27.13200
C  11.21800 53.12600 26.69700
C  11.27900 52.99700 25.26700
C  12.64300 52.47200 24.96900
C  10.14400 53.66100 27.62100
C  10.15000 53.22000 24.27900
O  10.33900 52.94700 23.12100
C  8.87900 53.72800 24.70900
N  15.58600 51.98100 24.14200
C  14.54500 52.18900 23.31500
C  14.95800 52.12900 21.90300
C  16.48200 51.78200 21.90900
C  16.72400 51.65600 23.38500
C  14.01700 51.15000 21.06700
C  17.34600 52.88700 21.22400
C  18.18200 52.52100 20.01700
N  17.54300 51.57600 26.29500
C  18.48100 51.26600 25.25600
C  19.68000 50.78300 25.89100
C  19.39800 50.89400 27.25800
C  18.10900 51.44400 27.47100
C  20.97000 50.37200 25.28700
C  19.96100 50.71900 28.59500
O  21.06000 50.25600 28.92000
C  18.93900 51.12900 29.62600
C  18.76400 50.02300 30.62600
O  18.48900 48.84800 30.41600
O  18.93400 50.54300 31.91600
C  18.81600 49.61300 32.99700
H  12.17300 52.80700 29.29100
H  12.72600 52.68200 22.79100
H  18.83100 50.95400 23.20900
H  16.42800 51.27300 31.29100
H  13.81300 52.58400 31.06500
H  14.65200 49.69000 30.86500
H  12.97600 50.20300 30.44200
H  13.67000 50.64000 32.04500
H  15.97800 54.15700 30.57100
H  17.54100 53.34400 30.69000
H  16.26600 54.83500 32.65500
H  17.62000 53.75400 32.84800
H  10.23300 53.20100 28.60600
H  9.18300 53.19600 27.40000
H  10.12500 54.75100 27.63300
H  8.54900 52.98600 25.43700
H  8.17500 53.78700 23.87900
H  9.01300 54.69900 25.18400
H  14.55400 53.08000 21.55800
H  16.52100 50.75300 21.55000
H  14.57300 50.58000 20.32200
H  13.21300 51.74500 20.63300
H  13.67600 50.41800 21.79900
H  18.09100 53.36700 21.85900
H  16.67800 53.73900 21.10400
H  18.00000 51.48200 19.74000
H  19.23300 52.56600 20.30400
H  17.93900 53.28800 19.28100
H  20.92500 50.75500 24.26800
H  20.90800 49.28400 25.33300
H  21.78500 50.79900 25.87100
H  19.20400 51.96200 30.27700
H  17.87000 49.07400 32.94600
H  18.83900 50.16500 33.93600
H  19.65200 48.91500 33.03400

