158

Mg 46.95200 25.36300 28.37600
C  47.34400 27.52400 31.05300
C  46.17900 22.77100 30.71400
C  47.31200 23.25300 25.98300
C  48.40600 27.88000 26.42100
N  46.50300 25.25600 30.58300
C  46.69900 26.28500 31.44800
C  46.53000 25.75900 32.91200
C  46.12100 24.27300 32.72200
C  46.31800 24.03900 31.29100
C  46.92200 23.27200 33.50500
C  45.61500 26.66000 33.80900
C  46.03100 26.69400 35.29800
H  44.91600 26.61800 36.37000
N  46.43700 23.28400 28.29200
C  46.12800 22.40100 29.29600
C  45.96500 21.10300 28.68800
C  46.31300 21.22400 27.32400
C  46.65400 22.64000 27.12100
C  45.51700 19.88400 29.52200
C  46.58700 20.02500 26.31700
O  46.88600 20.23200 25.16800
C  46.22100 18.63500 26.63900
N  47.82800 25.48300 26.50400
C  47.75800 24.50300 25.58100
C  48.45500 24.88300 24.27400
C  48.42800 26.42700 24.36000
C  48.25200 26.65600 25.84600
C  49.86500 24.21500 24.04700
C  47.34300 27.12600 23.55800
C  47.79900 28.27500 22.68000
N  47.74100 27.38200 28.61200
C  48.25700 28.24000 27.73500
C  48.53200 29.49900 28.36900
C  48.23700 29.17800 29.72400
C  47.71000 27.94000 29.81600
C  49.16300 30.63100 27.74100
C  48.28000 29.82400 30.98700
O  48.85700 30.89600 31.27500
C  47.68400 28.70100 31.95600
C  48.66100 28.50000 33.00500
O  49.68300 27.96100 32.89700
O  48.24200 29.13100 34.17200
C  49.14000 29.16100 35.27100
H  45.85300 22.03100 31.44800
H  47.44100 22.47600 25.22700
H  48.66000 28.70400 25.75000
H  47.56900 25.84200 33.23300
H  45.05200 24.10300 32.85200
H  47.47700 22.64900 32.80300
H  46.27400 22.60800 34.07600
H  47.64100 23.68700 34.21100
H  44.60500 26.25000 33.80200
H  45.50600 27.66700 33.40600
H  46.46000 27.67800 35.48900
H  46.86900 26.00500 35.39800
H  44.83900 19.19000 29.02500
H  45.02500 20.24700 30.42500
H  46.46700 19.38500 29.70900
H  46.69200 18.26500 27.55000
H  46.58900 17.95100 25.87500
H  45.13700 18.64600 26.75600
H  47.78500 24.62900 23.45200
H  49.40600 26.80000 24.05800
H  49.86800 23.34100 23.39600
H  50.27500 23.85400 24.99000
H  50.64700 24.88700 23.69500
H  46.56200 27.47600 24.23200
H  46.86800 26.47700 22.82200
H  47.63500 27.93600 21.65700
H  48.84100 28.57900 22.78100
H  47.11300 29.08000 22.94500
H  48.40000 31.08900 27.11200
H  49.94400 30.40700 27.01400
H  49.58800 31.40300 28.38300
H  46.79300 29.12300 32.42100
H  48.95300 28.16900 35.68300
H  48.86200 29.98200 35.93200
H  50.20000 29.24000 35.03300
Mg 16.54600 51.31300 24.72500
C  18.20600 50.30100 27.69500
C  14.06900 52.54100 26.68000
C  14.93400 52.19400 21.81500
C  19.06400 49.98100 23.00400
N  16.17000 51.46200 26.95800
C  17.03400 51.03800 27.97000
C  16.52300 51.43900 29.34900
C  15.06400 51.82900 28.91600
C  15.05600 51.93900 27.43300
C  13.83500 50.92700 29.44300
C  17.33200 52.58500 29.99900
C  17.42400 52.60000 31.55300
H  16.31100 51.84900 32.23300
N  14.79300 52.32000 24.27200
C  13.90100 52.73800 25.21400
C  12.80400 53.32100 24.59400
C  13.03100 53.25600 23.17500
C  14.26200 52.61300 23.00700
C  11.60500 53.92800 25.29400
C  12.26600 53.81700 21.99100
O  12.70100 53.78000 20.90300
C  10.97700 54.47300 22.14700
N  16.87300 51.02200 22.73100
C  16.12300 51.45300 21.71800
C  16.73900 51.07300 20.36300
C  18.17000 50.65700 20.69200
C  18.02100 50.53800 22.23200
C  16.08600 50.04800 19.41000
C  19.29700 51.63100 20.31200
C  20.35500 51.05100 19.31900
N  18.22000 50.22000 25.18200
C  19.21000 49.76500 24.34700
C  20.27700 49.11400 25.02500
C  19.91000 49.34000 26.35500
C  18.66400 49.96600 26.39700
C  21.61100 48.61400 24.57500
C  20.32200 49.16200 27.75600
O  21.33600 48.59100 28.18500
C  19.16100 49.69800 28.67200
C  18.61100 48.56800 29.46600
O  18.15200 47.48200 29.10200
O  18.74300 48.95400 30.77000
C  18.42400 47.91700 31.83900
H  13.29400 52.95600 27.32800
H  14.51100 52.43500 20.83700
H  19.92400 49.59800 22.45000
H  16.54600 50.59600 30.03900
H  14.92300 52.83200 29.32000
H  13.30700 51.56500 30.15200
H  14.26500 50.16400 30.09100
H  13.33200 50.51500 28.56900
H  16.96000 53.57100 29.71900
H  18.36700 52.68100 29.67300
H  17.42700 53.63900 31.88400
H  18.38800 52.22500 31.89700
H  10.76600 53.23500 25.22700
H  11.37600 54.90100 24.86000
H  11.91300 54.16600 26.31200
H  10.36000 53.93800 22.86900
H  10.32500 54.34000 21.28400
H  11.04900 55.54800 22.31000
H  16.71800 51.96700 19.73900
H  18.38900 49.66000 20.31000
H  15.01600 50.04300 19.61900
H  16.44900 49.02900 19.54400
H  16.10000 50.40300 18.37900
H  19.85800 51.83800 21.22300
H  18.95000 52.58200 19.90700
H  21.32700 50.94500 19.80100
H  20.38100 51.67000 18.42200
H  19.95000 50.07500 19.04900
H  22.25100 49.42200 24.22000
H  21.50300 47.96200 23.70900
H  22.02900 47.93500 25.31800
H  19.51800 50.48000 29.34200
H  19.15400 47.10800 31.80700
H  17.40500 47.54900 31.72000
H  18.59800 48.43200 32.78400

