158

Mg 6.52800 53.84500 41.98100
C  5.98200 50.39800 41.86600
C  9.78900 53.27800 41.21000
C  6.94700 57.03900 41.74000
C  3.07600 54.31100 42.42700
N  7.67100 51.99300 41.46300
C  7.28200 50.70900 41.42600
C  8.45400 49.70700 41.13300
C  9.71300 50.68100 41.28000
C  9.02800 52.08300 41.41300
C  10.69000 50.40400 42.48700
C  8.39900 49.03800 39.70200
C  8.45200 50.04200 38.52100
H  7.68700 49.56000 37.25800
N  8.13500 54.99600 41.54400
C  9.41000 54.60100 41.21700
C  10.21700 55.71900 40.96500
C  9.36100 56.88900 41.20500
C  8.08800 56.35300 41.56100
C  11.67100 55.67500 40.60100
C  9.91300 58.25000 40.90900
O  10.95200 58.56500 40.40500
C  8.96900 59.44900 41.04500
N  5.17100 55.45700 41.90800
C  5.64300 56.69200 42.00700
C  4.58500 57.64400 42.30000
C  3.25200 56.82800 42.35700
C  3.81300 55.40100 42.25100
C  4.82800 58.65400 43.42000
C  2.14600 57.09800 41.28700
C  0.69200 57.15200 41.72700
N  4.86800 52.64800 42.31800
C  3.52800 52.96400 42.44500
C  2.76500 51.71900 42.71400
C  3.70900 50.76800 42.48200
C  4.94900 51.35400 42.10500
C  1.32400 51.54100 43.09500
C  3.90800 49.29500 42.43200
O  3.11200 48.40200 42.70300
C  5.38100 49.00400 42.01200
C  5.36700 48.23000 40.79500
O  4.83500 48.67200 39.75400
O  5.97600 47.06800 41.04700
C  5.94300 46.15900 39.84100
H  10.84800 53.12700 40.99000
H  7.06500 58.11500 41.59400
H  2.01700 54.54700 42.54700
H  8.49100 48.95500 41.92100
H  10.30600 50.64500 40.36600
H  10.38300 50.82000 43.44700
H  11.63300 50.86600 42.19400
H  10.73900 49.34600 42.74500
H  7.64700 48.25000 39.68600
H  9.28900 48.43000 39.53400
H  9.49300 50.03300 38.19800
H  8.14400 51.06300 38.74800
H  11.79900 55.79700 39.52500
H  12.03700 54.67200 40.81900
H  12.24000 56.38600 41.20100
H  8.09000 59.26900 40.42500
H  9.51600 60.32500 40.69500
H  8.68200 59.57000 42.08900
H  4.52400 58.25800 41.40200
H  2.90000 56.96700 43.37900
H  4.25600 58.40500 44.31300
H  4.65800 59.67500 43.08000
H  5.86900 58.74500 43.72900
H  2.04800 56.34800 40.50100
H  2.43100 57.97700 40.70900
H  0.30700 58.16600 41.83000
H  0.56600 56.66900 42.69600
H  0.05500 56.71100 40.96000
H  1.27000 51.21900 44.13500
H  0.80300 50.79900 42.48900
H  0.88900 52.53600 43.00100
H  5.90900 48.39700 42.74800
H  6.59200 45.30000 40.01100
H  6.31200 46.71800 38.98100
H  4.91200 45.82400 39.72900
Mg 16.83000 51.72800 26.25200
C  18.43100 50.20700 28.90800
C  14.60800 53.19000 28.37600
C  15.06300 52.79400 23.59800
C  19.03900 50.09600 24.12100
N  16.49400 51.44000 28.35900
C  17.26200 50.85900 29.29300
C  16.87700 51.28800 30.68500
C  15.49800 52.01300 30.48100
C  15.57100 52.32300 28.96300
C  14.27300 51.18200 30.78700
C  17.88200 52.27800 31.42900
C  17.98200 52.12200 32.91800
H  17.01100 51.20600 33.63900
N  15.03700 52.81700 26.05500
C  14.26900 53.39800 27.07100
C  13.16300 54.23400 26.54500
C  13.32000 54.12700 25.10400
C  14.50200 53.22900 24.89300
C  12.23300 55.04200 27.33800
C  12.46700 54.76000 24.03200
O  12.59200 54.40500 22.79300
C  11.27100 55.71600 24.38300
N  17.00900 51.46800 24.20300
C  16.22200 51.98800 23.31400
C  16.64200 51.66800 21.89400
C  18.12600 51.30100 22.05500
C  18.02600 50.83000 23.52600
C  15.71000 50.54900 21.19500
C  19.10200 52.54400 21.98600
C  20.38900 52.27000 21.19200
N  18.49800 50.37200 26.43800
C  19.33200 49.82000 25.51500
C  20.39800 49.15800 26.15600
C  20.13000 49.28700 27.51800
C  18.89200 49.99700 27.58700
C  21.56000 48.42700 25.49500
C  20.62600 49.06000 28.90700
O  21.68800 48.61800 29.29600
C  19.48500 49.53000 29.84900
C  19.04600 48.41700 30.68200
O  18.72800 47.31400 30.25700
O  19.17900 48.70400 31.99400
C  18.92400 47.59400 32.89400
H  13.95800 53.86300 28.93800
H  14.48200 53.05000 22.70900
H  19.86400 49.83500 23.45600
H  16.63400 50.40800 31.28100
H  15.45000 52.92500 31.07600
H  14.49200 50.37600 31.48800
H  14.00100 50.67900 29.85900
H  13.54500 51.89300 31.17900
H  17.57100 53.30800 31.25500
H  18.86600 52.30000 30.96200
H  17.92900 53.07500 33.44500
H  19.01800 51.84200 33.11400
H  11.26100 54.92900 26.85600
H  12.47200 56.10500 27.32800
H  12.19400 54.66400 28.35900
H  11.57000 56.51900 25.05700
H  10.51900 55.05000 24.80600
H  10.84600 56.25200 23.53500
H  16.62300 52.59000 21.31300
H  18.29100 50.52100 21.31200
H  14.64600 50.64300 21.41600
H  16.12900 49.65200 21.65200
H  15.95000 50.50800 20.13300
H  19.39700 52.89700 22.97400
H  18.50100 53.30500 21.48700
H  20.26100 52.68500 20.19200
H  20.67200 51.22100 21.27900
H  21.16700 52.87200 21.66200
H  21.41600 48.41500 24.41500
H  21.54300 47.38700 25.82200
H  22.55000 48.83600 25.69800
H  19.89300 50.31200 30.48900
H  17.84100 47.47400 32.94500
H  19.24200 48.05900 33.82700
H  19.48700 46.68400 32.68800

