158

Mg -2.03200 16.98700 26.40100
C  -2.46200 14.91800 29.36700
C  -2.40300 19.74500 28.46400
C  -2.23300 18.81300 23.72300
C  -2.14400 14.13200 24.51800
N  -2.38500 17.24800 28.65400
C  -2.46700 16.25700 29.66100
C  -2.57000 16.91400 31.06500
C  -2.59600 18.47800 30.69600
C  -2.50600 18.50800 29.17500
C  -3.88400 19.20500 31.22400
C  -1.39000 16.59800 32.11700
C  -0.90200 17.55100 33.16900
H  -0.29200 17.08700 34.50500
N  -2.17800 19.02000 26.16400
C  -2.28900 19.98400 27.09200
C  -2.36100 21.20900 26.44600
C  -2.18800 21.03400 25.03400
C  -2.23100 19.53500 24.90600
C  -2.40200 22.47400 27.19300
C  -1.98000 22.05100 23.91300
O  -1.87200 21.75400 22.72600
C  -1.87600 23.47900 24.34100
N  -2.41600 16.49900 24.39300
C  -2.21500 17.41300 23.39600
C  -2.22200 16.83100 22.01100
C  -1.79000 15.34300 22.40300
C  -2.11700 15.29200 23.85400
C  -3.59600 16.99700 21.26600
C  -0.39200 14.76200 21.97200
C  -0.32200 13.61800 20.94000
N  -2.22900 14.96700 26.81300
C  -2.21300 13.93000 25.90100
C  -2.32400 12.66300 26.57600
C  -2.31300 13.05000 27.94700
C  -2.33500 14.43600 28.03600
C  -2.25200 11.35800 25.99400
C  -2.33500 12.60200 29.32300
O  -2.43400 11.45100 29.75200
C  -2.43400 13.77700 30.27500
C  -1.36300 13.70500 31.26100
O  -0.19100 14.01200 31.04500
O  -1.86100 13.39300 32.51500
C  -0.96700 13.40200 33.70400
H  -2.43500 20.59500 29.14800
H  -2.04300 19.46700 22.86900
H  -2.06700 13.25400 23.87300
H  -3.49600 16.57500 31.52900
H  -1.70300 19.00300 31.03600
H  -4.03400 18.73200 32.19500
H  -4.69400 19.05100 30.51000
H  -3.74400 20.28000 31.32800
H  -0.47500 16.25300 31.63600
H  -1.84400 15.83600 32.75000
H  -1.57300 18.38500 33.37600
H  -0.12500 18.10900 32.64700
H  -1.44600 22.97400 27.34600
H  -2.98100 22.49800 28.11700
H  -3.08700 23.12000 26.64300
H  -2.80400 24.01000 24.55200
H  -1.34100 24.08000 23.60600
H  -1.20100 23.48000 25.19800
H  -1.43600 17.22000 21.36400
H  -2.48400 14.66900 21.90100
H  -4.20800 17.74300 21.77200
H  -4.20100 16.09000 21.29400
H  -3.46700 17.14100 20.19300
H  0.11400 14.51400 22.90500
H  0.03200 15.63400 21.47400
H  0.15500 12.75300 21.40100
H  0.41000 13.90100 20.18400
H  -1.29200 13.35600 20.51700
H  -1.50500 11.28600 25.20300
H  -3.16300 11.10300 25.45100
H  -2.06300 10.52900 26.67600
H  -3.35400 13.67800 30.85100
H  -1.03800 12.39000 34.10300
H  -1.44700 14.11100 34.37900
H  0.09000 13.63100 33.57000
Mg 0.09800 7.59800 26.87400
C  1.07400 9.90300 29.38100
C  -0.09200 5.14300 29.27800
C  -0.32100 5.47200 24.33200
C  0.85100 10.17600 24.50200
N  0.53100 7.50400 29.02700
C  0.71500 8.64300 29.83800
C  0.53600 8.24700 31.28900
C  0.45000 6.68900 31.28400
C  0.22400 6.44100 29.78700
C  1.72700 5.97400 31.75300
C  -0.69000 8.89400 32.00000
C  -0.64500 9.01100 33.56900
H  0.54400 8.63600 34.39200
N  -0.12300 5.53100 26.79200
C  -0.14100 4.68700 27.93800
C  -0.29000 3.29000 27.39600
C  -0.25100 3.38400 26.02000
C  -0.18000 4.86700 25.62900
C  -0.63600 2.11900 28.31200
C  -0.27400 2.26300 25.05000
O  -0.14600 2.48000 23.84700
C  -0.28700 0.81200 25.51800
N  -0.06100 7.81800 24.71500
C  -0.27600 6.75800 23.80400
C  -0.36500 7.22500 22.40200
C  0.18800 8.68000 22.50900
C  0.32400 8.93900 24.01200
C  0.41800 6.43900 21.35700
C  -0.66800 9.66400 21.67500
C  -1.82700 10.30000 22.45800
N  0.70700 9.55900 26.89200
C  0.88500 10.52400 25.87400
C  1.38100 11.75600 26.34300
C  1.49100 11.52100 27.72100
C  0.98300 10.21700 28.05200
C  1.74700 12.96900 25.54600
C  1.80700 12.19600 29.04700
O  2.33200 13.29800 29.23300
C  1.56300 11.12000 30.10300
C  2.81700 10.81700 30.85900
O  3.71100 10.04500 30.56500
O  2.89200 11.63900 31.92900
C  4.15200 11.65500 32.75000
H  -0.17600 4.37900 30.05300
H  -0.45800 4.71900 23.55200
H  1.09000 10.96300 23.78400
H  1.47700 8.58300 31.72500
H  -0.41200 6.24200 31.78000
H  2.41300 6.71700 32.15900
H  2.20700 5.76600 30.79700
H  1.66100 5.01600 32.26900
H  -1.46700 8.16300 31.77500
H  -1.08200 9.76100 31.46800
H  -1.57400 8.55900 33.91400
H  -0.71000 10.08600 33.73700
H  -1.59500 1.69300 28.01800
H  -0.70600 2.45200 29.34700
H  0.15100 1.36500 28.30300
H  -1.22000 0.56300 26.02100
H  0.55000 0.79100 26.21600
H  -0.09500 0.12000 24.69800
H  -1.38600 7.16300 22.02600
H  1.17800 8.77000 22.06000
H  0.61000 5.41200 21.66800
H  1.36000 6.96500 21.19900
H  -0.18800 6.24600 20.47200
H  -1.08500 9.11400 20.83300
H  -0.02200 10.50700 21.43100
H  -1.92000 9.85200 23.44700
H  -2.79000 10.32400 21.94800
H  -1.60000 11.35500 22.61200
H  2.49100 13.58900 26.04800
H  0.82400 13.50100 25.31800
H  2.20600 12.65100 24.61000
H  0.82100 11.51500 30.79700
H  4.94900 10.95700 32.49400
H  3.87100 11.43600 33.78000
H  4.62000 12.63100 32.61600

