158

Mg 28.33300 58.21700 43.07800
C  25.84000 56.40200 41.36300
C  30.70400 56.42600 41.19900
C  30.55700 60.71900 43.65700
C  25.82600 60.19300 44.51200
N  28.26300 56.68000 41.51000
C  27.16200 56.01300 41.04400
C  27.59400 54.91400 39.96100
C  29.07700 54.72400 40.22800
C  29.34300 56.05000 40.98700
C  29.50200 53.45500 41.03300
C  27.31100 55.39900 38.54000
C  26.83400 54.26600 37.53900
H  27.59300 54.15100 36.13800
N  30.40900 58.46800 42.54200
C  31.18900 57.58600 41.93300
C  32.52600 58.11000 41.93600
C  32.54400 59.30400 42.66100
C  31.11900 59.57200 42.96700
C  33.65200 57.41700 41.15700
C  33.78800 60.22700 42.83000
O  34.96200 59.95300 42.77600
C  33.59200 61.70000 43.19900
N  28.28300 60.25000 43.76000
C  29.26400 61.03200 44.09000
C  28.86800 62.26200 44.97300
C  27.36900 62.00600 45.15800
C  27.11300 60.72000 44.41100
C  29.68600 62.38600 46.33900
C  26.43100 63.22900 44.83600
C  25.80000 63.21200 43.51700
N  26.24800 58.14800 43.12200
C  25.38900 59.08800 43.69400
C  24.02000 58.65500 43.47200
C  24.22200 57.54900 42.55600
C  25.55700 57.33200 42.30500
C  22.78300 59.24000 44.02800
C  23.38900 56.57600 41.78300
O  22.18700 56.42900 41.75200
C  24.47500 55.79800 40.88800
C  24.33000 54.31300 41.05200
O  24.85600 53.68500 41.95500
O  23.55200 53.71800 39.99500
C  23.60000 52.25100 39.94900
H  31.44100 55.80200 40.68800
H  31.30600 61.36900 44.11600
H  25.09800 60.78300 45.07300
H  26.98700 54.05300 40.24200
H  29.60200 54.58600 39.28300
H  30.06700 53.70900 41.93000
H  30.02500 52.73800 40.40000
H  28.73800 52.79300 41.44100
H  28.18700 55.84800 38.07300
H  26.65100 56.26700 38.53500
H  25.85900 54.66500 37.26100
H  26.70100 53.28900 38.00300
H  33.55000 56.33500 41.24800
H  34.58400 57.73200 41.62400
H  33.67900 57.77900 40.12900
H  32.69300 62.11700 42.74600
H  34.44500 62.32100 42.92500
H  33.41400 61.67600 44.27400
H  29.06700 63.12100 44.33200
H  27.16500 61.83100 46.21400
H  30.50700 63.08800 46.19100
H  30.12400 61.40600 46.52600
H  28.96100 62.63600 47.11300
H  27.04800 64.12800 44.84700
H  25.63800 63.42600 45.55800
H  25.82000 64.20600 43.06900
H  24.72100 63.08400 43.60100
H  26.23200 62.40800 42.92100
H  22.26200 59.80600 43.25600
H  22.89200 59.81600 44.94700
H  22.19900 58.34000 44.22300
H  24.28500 56.07100 39.84900
H  24.67100 52.09800 39.81800
H  23.04800 51.78100 39.13500
H  23.29400 51.80000 40.89200
Mg 0.10000 42.71800 24.64700
C  1.47500 42.83600 27.98600
C  -2.68900 41.33700 25.98900
C  -0.79300 41.87400 21.69700
C  3.46400 43.38000 23.50400
N  -0.48600 42.27400 26.82600
C  0.09900 42.53800 28.03200
C  -0.83000 42.30600 29.18400
C  -2.17600 41.74000 28.47500
C  -1.76600 41.72600 26.99600
C  -2.67100 40.32400 28.93900
C  -0.99600 43.43800 30.21100
C  -0.53000 43.37400 31.70900
H  -1.71900 43.50200 32.75600
N  -1.64600 42.11700 23.95200
C  -2.71300 41.59300 24.65100
C  -3.82000 41.29200 23.73300
C  -3.27000 41.39200 22.38000
C  -1.86500 41.81700 22.57800
C  -5.24300 40.90200 24.10400
C  -3.82400 41.01800 21.01500
O  -3.22300 41.33200 19.96400
C  -5.17600 40.32600 21.01100
N  1.14400 42.72100 22.79600
C  0.53600 42.37500 21.65800
C  1.44800 42.37800 20.45400
C  2.75200 43.00100 21.06500
C  2.48500 43.01000 22.57400
C  1.67800 40.95400 19.79000
C  3.09200 44.41100 20.45900
C  2.50900 45.66000 21.07400
N  2.05800 43.09200 25.45400
C  3.33200 43.33900 24.91100
C  4.29700 43.50800 25.90900
C  3.56700 43.44700 27.10200
C  2.22500 43.11000 26.81900
C  5.72200 43.83700 25.76900
C  3.69200 43.69900 28.51600
O  4.60500 44.08500 29.19400
C  2.31400 43.18800 29.11400
C  2.68300 42.02400 29.95600
O  2.54600 40.81300 29.75900
O  3.04600 42.54600 31.16100
C  3.58900 41.60100 32.11000
H  -3.53300 40.78400 26.40400
H  -1.04600 41.72700 20.64500
H  4.39800 43.64900 23.00600
H  -0.45700 41.42600 29.70800
H  -2.95500 42.50200 28.48500
H  -2.06700 39.92700 29.75400
H  -2.60000 39.69800 28.04900
H  -3.74500 40.33800 29.12800
H  -2.04400 43.73000 30.14900
H  -0.50900 44.34700 29.85900
H  0.25400 44.12600 31.79200
H  -0.08000 42.38800 31.82900
H  -5.35800 39.83200 24.28100
H  -5.99100 41.24000 23.38800
H  -5.54400 41.32100 25.06400
H  -5.14700 39.66400 20.14500
H  -5.92900 41.09700 20.85100
H  -5.34500 39.70700 21.89200
H  1.18200 43.11000 19.69200
H  3.63500 42.41500 20.80900
H  2.72700 40.68400 19.90300
H  1.38600 40.96500 18.74000
H  1.02600 40.25100 20.30800
H  2.77300 44.42100 19.41700
H  4.18100 44.41700 20.50600
H  3.32500 46.20400 21.55000
H  1.87100 45.30100 21.88100
H  1.82200 46.15700 20.38900
H  5.99800 44.07000 24.74100
H  6.35300 43.08400 26.24200
H  5.93900 44.70600 26.38900
H  1.81000 43.90700 29.76100
H  3.40800 42.18200 33.01500
H  4.65800 41.45800 31.95300
H  3.10900 40.63000 32.23400

