158

Mg 24.39900 -5.09000 46.70000
C  26.21400 -2.40000 45.05500
C  21.57000 -4.00900 45.12200
C  23.07200 -8.04300 47.35100
C  27.49800 -6.21100 47.93400
N  24.00000 -3.48700 45.20500
C  24.87500 -2.49000 44.66900
C  24.09400 -1.70900 43.67000
C  22.63600 -1.95400 44.03600
C  22.70800 -3.25500 44.81900
C  21.99100 -0.80000 44.77900
C  24.62000 -1.96700 42.21800
C  25.12100 -0.77500 41.37100
H  26.03200 -1.04200 40.16600
N  22.50600 -5.91700 46.33400
C  21.48600 -5.34700 45.63600
C  20.38800 -6.26400 45.55900
C  20.76600 -7.44600 46.31800
C  22.11800 -7.16600 46.82700
C  19.05700 -5.85200 44.85200
C  19.90700 -8.64600 46.43900
O  18.82600 -8.78300 45.92800
C  20.28500 -9.77400 47.25900
N  25.19200 -6.86000 47.57300
C  24.41400 -7.98300 47.70900
C  25.22500 -9.11000 48.25400
C  26.53100 -8.45700 48.69700
C  26.47500 -7.10400 48.05100
C  24.42600 -10.04100 49.25500
C  27.77600 -9.30000 48.32100
C  28.73500 -9.46000 49.41200
N  26.44800 -4.46100 46.54000
C  27.54200 -5.00300 47.23100
C  28.71400 -4.06500 47.01700
C  28.25400 -3.08300 46.12900
C  26.86000 -3.37300 45.85900
C  30.03900 -4.27700 47.56800
C  28.73000 -1.86000 45.41800
O  29.77600 -1.26500 45.36800
C  27.35800 -1.37700 44.63300
C  27.04300 -0.01300 44.97900
O  26.22100 0.46000 45.72100
O  27.82900 0.74100 44.21600
C  27.64300 2.19100 44.20100
H  20.63500 -3.71400 44.64000
H  22.73900 -9.08200 47.38700
H  28.38200 -6.54100 48.48400
H  24.41600 -0.68000 43.82700
H  22.05100 -1.99100 43.11800
H  22.74000 -0.08700 45.12100
H  21.49100 -1.23700 45.64400
H  21.26300 -0.29200 44.14700
H  23.90500 -2.62800 41.72800
H  25.42600 -2.70100 42.21100
H  25.45200 0.00100 42.06100
H  24.28000 -0.29300 40.87300
H  19.22400 -5.93000 43.77800
H  18.81600 -4.79500 44.97300
H  18.21200 -6.47300 45.15000
H  19.38000 -10.35000 47.45200
H  20.60400 -9.30600 48.19000
H  20.95400 -10.48000 46.76600
H  25.52300 -9.79000 47.45500
H  26.40900 -8.29500 49.76800
H  24.94200 -10.11000 50.21200
H  24.21600 -10.98600 48.75500
H  23.46000 -9.62700 49.54500
H  28.41600 -8.73200 47.64600
H  27.44400 -10.24900 47.90100
H  29.68400 -9.02100 49.10500
H  28.84400 -10.53800 49.53600
H  28.27900 -9.02700 50.30200
H  30.63300 -4.96800 46.97000
H  30.05300 -4.68900 48.57700
H  30.48600 -3.28800 47.66900
H  27.69700 -1.50300 43.60500
H  27.84000 2.56700 45.20500
H  26.65100 2.59500 44.00300
H  28.28200 2.79500 43.55600
Mg -4.41200 26.10500 25.59600
C  -3.10200 27.30400 28.58700
C  -6.41100 24.01600 27.55800
C  -5.16800 24.33500 22.77400
C  -2.03700 27.82400 23.91600
N  -4.48000 25.50100 27.78800
C  -3.96400 26.27500 28.75000
C  -4.50300 25.87000 30.11100
C  -5.18700 24.53700 29.83200
C  -5.45600 24.68100 28.31300
C  -4.30900 23.27400 30.18800
C  -5.43100 26.92400 30.79700
C  -5.89800 26.63800 32.25700
H  -5.34400 25.52000 33.03600
N  -5.68600 24.47700 25.16200
C  -6.52100 23.85300 26.12600
C  -7.27900 22.86300 25.44300
C  -6.89500 22.85400 24.07700
C  -5.87000 23.89500 23.95600
C  -8.19500 21.92500 26.18600
C  -7.39900 21.90000 22.95300
O  -6.95600 22.01800 21.73900
C  -8.60100 20.99400 23.27100
N  -3.76400 26.13700 23.59200
C  -4.13700 25.30200 22.55800
C  -3.38700 25.58500 21.28500
C  -2.53400 26.83300 21.70300
C  -2.76100 26.92300 23.15500
C  -2.62500 24.33200 20.78700
C  -2.76200 28.06600 20.90600
C  -1.54100 28.85700 20.35500
N  -2.93200 27.38000 26.13700
C  -2.06600 28.11600 25.30300
C  -1.44300 29.15600 26.07300
C  -1.81900 28.86300 27.41600
C  -2.65200 27.72900 27.39000
C  -0.47600 30.23300 25.55500
C  -1.58000 29.21100 28.72500
O  -0.87500 30.04800 29.27000
C  -2.44800 28.27600 29.59000
C  -1.61800 27.56400 30.61900
O  -0.88000 26.59400 30.44000
O  -1.87700 28.05700 31.86800
C  -1.26700 27.40200 33.02700
H  -7.15100 23.52300 28.19200
H  -5.41400 23.79600 21.85600
H  -1.49900 28.60400 23.37400
H  -3.63100 25.68600 30.73800
H  -6.03900 24.39800 30.49800
H  -4.82800 22.69700 30.95400
H  -3.31700 23.32100 30.63800
H  -4.06500 22.50900 29.45100
H  -6.40000 26.92900 30.29700
H  -5.17400 27.96000 30.57800
H  -6.98700 26.66900 32.22900
H  -5.57000 27.49500 32.84600
H  -8.27000 22.21700 27.23300
H  -7.88900 20.88700 26.05300
H  -9.20300 22.08100 25.80400
H  -8.39600 20.15500 23.93600
H  -8.92700 20.52500 22.34200
H  -9.41700 21.59400 23.67200
H  -4.16200 25.87500 20.57500
H  -1.49100 26.52400 21.77000
H  -2.94500 24.06200 19.78100
H  -2.70600 23.45400 21.42800
H  -1.55700 24.53000 20.70000
H  -3.35300 28.77600 21.48500
H  -3.28900 27.67600 20.03500
H  -1.43800 29.81200 20.87000
H  -1.66200 28.92900 19.27400
H  -0.57700 28.36100 20.46600
H  -0.26400 30.03500 24.50400
H  0.43200 30.09300 26.14100
H  -0.92500 31.20400 25.76200
H  -3.22200 28.82900 30.12300
H  -1.40600 26.32200 32.98500
H  -1.76200 27.82900 33.89900
H  -0.21200 27.64200 33.16300

