158

Mg 8.23900 3.10500 26.96400
C  9.79700 1.62400 29.79000
C  6.85000 5.35700 29.12700
C  6.93100 4.52100 24.28300
C  9.62800 0.51600 24.90000
N  8.32400 3.46600 29.30800
C  9.02400 2.70700 30.18600
C  8.93300 3.36300 31.61300
C  7.76300 4.40700 31.38100
C  7.53500 4.39100 29.84600
C  6.46000 4.06900 32.22800
C  10.24800 3.87600 32.20700
C  10.04100 4.76800 33.48400
H  10.28900 3.90700 34.76500
N  7.03000 4.72700 26.76000
C  6.56900 5.53800 27.76000
C  5.93100 6.68400 27.12700
C  5.95900 6.44500 25.69300
C  6.68300 5.17800 25.53800
C  5.49200 7.91400 27.89000
C  5.51600 7.35400 24.56000
O  5.63000 7.12000 23.36000
C  4.92000 8.77100 24.90900
N  8.11000 2.43200 24.89700
C  7.62200 3.33700 23.99200
C  7.70000 2.76200 22.50400
C  8.74600 1.58500 22.65800
C  8.89200 1.50800 24.20900
C  6.21900 2.46000 21.91100
C  10.10300 1.86300 21.94200
C  10.50300 0.85400 20.73300
N  9.43700 1.41900 27.25000
C  9.91000 0.45400 26.32400
C  10.70500 -0.51300 27.04900
C  10.65800 -0.13100 28.40400
C  9.87700 1.03200 28.45200
C  11.49200 -1.66200 26.50600
C  11.18000 -0.40900 29.68700
O  11.90500 -1.28500 30.07900
C  10.65600 0.73400 30.68800
C  9.94500 0.06600 31.88400
O  8.79900 -0.33000 31.89600
O  10.75100 0.01700 33.08700
C  10.13600 -0.54600 34.34200
H  6.44700 6.10100 29.81700
H  6.70200 5.04100 23.35100
H  9.96400 -0.33200 24.29900
H  8.68800 2.56800 32.31800
H  8.01700 5.42600 31.67500
H  5.82500 3.55100 31.51000
H  5.87600 4.94600 32.50900
H  6.69000 3.44300 33.09100
H  10.89600 4.31900 31.45100
H  10.74000 2.97600 32.57500
H  9.02000 5.14100 33.56500
H  10.90800 5.40700 33.31200
H  6.09200 8.81500 27.75900
H  5.39300 7.65000 28.94300
H  4.44500 8.09000 27.64400
H  5.51800 9.26200 25.67700
H  3.92900 8.68000 25.35300
H  4.83800 9.49800 24.10100
H  8.17600 3.60000 21.99600
H  8.40000 0.70400 22.11700
H  5.49100 2.74600 22.67000
H  6.11800 1.39400 21.70700
H  6.03500 2.94400 20.95200
H  10.92700 1.78800 22.65200
H  10.20000 2.89200 21.59300
H  10.56600 1.53000 19.88000
H  9.71600 0.12200 20.55000
H  11.46500 0.36500 20.88700
H  11.74400 -1.61200 25.44600
H  10.87700 -2.54600 26.67100
H  12.40200 -1.78000 27.09400
H  11.39500 1.38400 31.15600
H  9.35800 -1.29900 34.21900
H  9.74800 0.28500 34.93000
H  10.98900 -0.86200 34.94200
Mg 40.43000 8.45400 29.65700
C  42.20500 9.54000 32.30600
C  38.38000 6.70100 31.89500
C  38.89600 7.01500 27.03100
C  42.94300 9.58900 27.47100
N  40.36900 8.15800 31.85700
C  41.08900 8.89500 32.78700
C  40.68000 8.56800 34.23500
C  39.64500 7.43000 34.07200
C  39.48400 7.36400 32.50300
C  40.14500 6.16100 34.75700
C  40.10900 9.89100 34.91300
C  40.91800 10.50500 36.08100
H  40.23800 11.48900 37.11600
N  38.70900 7.19600 29.54000
C  38.01800 6.59600 30.56300
C  36.94000 5.75400 29.99400
C  36.94500 6.12500 28.57800
C  38.23500 6.75700 28.28300
C  36.00100 4.72400 30.66500
C  35.94700 5.75100 27.51100
O  36.16100 5.86700 26.27900
C  34.64700 5.16600 27.88600
N  40.92100 8.27500 27.54600
C  40.11900 7.62500 26.71300
C  40.58600 7.81400 25.26200
C  41.67000 8.94100 25.33100
C  41.87500 8.97700 26.87100
C  41.07600 6.54900 24.58100
C  41.24600 10.27700 24.61800
C  39.93500 11.05100 25.06500
N  42.23900 9.43500 29.74000
C  43.17000 9.85600 28.86400
C  44.17100 10.60500 29.51700
C  43.86600 10.50600 30.82900
C  42.67700 9.75000 30.97600
C  45.25500 11.31800 28.84600
C  44.24800 10.91300 32.20100
O  45.20300 11.58300 32.57500
C  43.22600 10.31300 33.13900
C  44.04400 9.55700 34.17400
O  44.45900 8.39800 34.12400
O  44.05600 10.31400 35.34900
C  44.29900 9.44600 36.47800
H  37.74500 6.19700 32.62700
H  38.44900 6.52200 26.16600
H  43.72600 10.02000 26.84400
H  41.61500 8.30100 34.72700
H  38.72700 7.69900 34.59400
H  41.17600 6.24300 35.10300
H  40.03400 5.29000 34.11200
H  39.49400 5.84500 35.57200
H  39.06700 9.87500 35.23400
H  40.11800 10.68500 34.16600
H  41.70100 11.10600 35.61900
H  41.34100 9.63300 36.57900
H  34.97400 5.07600 30.75400
H  36.21800 4.40200 31.68300
H  35.79800 3.83800 30.06300
H  34.00000 5.04600 27.01700
H  34.23100 5.92500 28.54900
H  34.74500 4.14700 28.26200
H  39.71300 8.18900 24.72700
H  42.61100 8.57900 24.91600
H  41.54400 5.89400 25.31600
H  41.71100 6.94600 23.78900
H  40.27400 6.07200 24.01800
H  41.11500 9.87800 23.61300
H  42.04700 11.01700 24.63500
H  39.21900 10.89700 24.25800
H  40.12700 12.11700 25.18200
H  39.56000 10.64700 26.00600
H  45.02400 11.45900 27.79000
H  46.25200 10.90200 28.98800
H  45.19400 12.33200 29.24200
H  42.86900 11.17300 33.70500
H  43.94400 8.41500 36.47300
H  44.10500 9.93800 37.43000
H  45.37300 9.26900 36.53700

