158

Mg 35.20100 0.49200 29.46700
C  32.97500 1.37700 32.02200
C  37.74600 0.38600 31.72700
C  37.36200 -0.54700 27.04000
C  32.70200 0.76500 27.16200
N  35.26200 0.88500 31.53600
C  34.27300 1.18200 32.43600
C  34.74200 1.18600 33.81000
C  36.25500 1.04900 33.68800
C  36.44300 0.70000 32.17800
C  37.08800 2.31000 34.03200
C  34.12900 0.10200 34.72000
C  34.05800 0.31600 36.24900
H  34.93400 1.49400 36.80900
N  37.29700 -0.14100 29.45800
C  38.16500 0.02000 30.44600
C  39.49300 -0.38400 30.00500
C  39.35200 -0.66600 28.62100
C  37.93800 -0.49000 28.32900
C  40.68800 -0.27100 30.95000
C  40.41100 -1.14700 27.62900
O  40.13600 -1.21800 26.40400
C  41.71700 -1.47800 28.09700
N  34.97400 0.02400 27.36900
C  36.05800 -0.36900 26.59400
C  35.59400 -0.61200 25.15000
C  34.04700 -0.25800 25.22600
C  33.89800 0.28000 26.62200
C  36.45200 0.10300 24.09500
C  33.13700 -1.46200 24.84800
C  32.81600 -2.49600 25.94400
N  33.34900 1.18100 29.46100
C  32.40400 1.27300 28.48400
C  31.14300 1.69000 29.03300
C  31.26900 1.72600 30.39200
C  32.63300 1.39300 30.63800
C  29.84800 1.93000 28.25900
C  30.65700 1.93100 31.63600
O  29.53200 2.21100 32.02000
C  31.72600 1.71400 32.79800
C  31.79400 2.88500 33.62400
O  31.91400 4.00800 33.28000
O  31.55800 2.43300 34.94100
C  31.38500 3.51800 35.92700
H  38.55700 0.31000 32.45300
H  37.99000 -0.94700 26.24200
H  31.92200 0.88600 26.40700
H  34.51000 2.17700 34.20100
H  36.53200 0.25200 34.37800
H  36.71800 2.96700 34.81800
H  36.92500 2.81400 33.07900
H  38.13300 2.04800 34.19500
H  34.53200 -0.86900 34.43300
H  33.10300 -0.02000 34.37400
H  34.32100 -0.64200 36.69700
H  33.02500 0.55700 36.50000
H  41.60300 0.05400 30.45500
H  40.82100 -1.17700 31.54100
H  40.52600 0.47200 31.73000
H  41.61600 -2.19200 28.91400
H  42.34700 -0.59500 28.21400
H  42.24900 -1.98400 27.29100
H  35.81000 -1.67500 25.04800
H  33.80800 0.44600 24.42900
H  37.32800 -0.51900 23.91200
H  36.86600 1.06600 24.39400
H  35.80600 0.17500 23.22000
H  33.62100 -1.91300 23.98200
H  32.18700 -1.17100 24.39900
H  31.74200 -2.47200 26.12600
H  33.46300 -2.30600 26.80100
H  33.17200 -3.47500 25.62300
H  29.95500 1.61400 27.22100
H  29.68400 3.00700 28.24700
H  29.04800 1.37100 28.74300
H  31.36800 0.79700 33.26600
H  30.35900 3.74500 36.21900
H  32.02500 4.39800 35.85400
H  31.85500 3.10300 36.81900
Mg 41.21300 6.57800 28.82300
C  42.77900 7.81700 31.66000
C  38.72300 5.30500 31.03100
C  39.64800 5.17300 26.22500
C  43.87600 7.62000 26.93800
N  40.68700 6.78600 31.12300
C  41.49400 7.30300 32.00800
C  40.97800 7.15400 33.41700
C  39.67700 6.31600 33.21300
C  39.65100 6.16200 31.71900
C  39.77200 4.97900 34.01900
C  40.86800 8.51000 34.15800
C  39.85000 8.55800 35.33200
H  40.22100 9.50200 36.45800
N  39.38000 5.56900 28.65700
C  38.53400 5.08800 29.64300
C  37.39600 4.43900 28.99500
C  37.51400 4.55900 27.64000
C  38.87000 5.17700 27.43400
C  36.27000 3.72400 29.77300
C  36.60900 4.15900 26.44000
O  36.88500 4.35700 25.26700
C  35.39700 3.45300 26.73600
N  41.75000 6.37100 26.86500
C  40.92500 5.65100 25.96800
C  41.45600 5.81200 24.55300
C  42.74000 6.71200 24.76200
C  42.87700 6.89800 26.27200
C  41.57600 4.46500 23.85000
C  42.78000 7.96600 23.87200
C  41.82500 9.15800 24.23300
N  42.93600 7.52500 29.14400
C  43.96100 7.91000 28.31900
C  44.98300 8.53500 29.08100
C  44.53000 8.53200 30.41700
C  43.32600 7.80400 30.43800
C  46.29100 9.07200 28.63700
C  44.93900 9.06300 31.71400
O  45.93100 9.58900 32.15300
C  43.72800 8.62400 32.54200
C  44.20500 7.82600 33.73100
O  44.49500 6.64600 33.69700
O  44.37400 8.63800 34.88000
C  44.75100 7.96500 36.12400
H  38.02000 4.80400 31.69900
H  39.17100 4.63800 25.40100
H  44.73900 7.97800 26.37400
H  41.85800 6.58900 33.72400
H  38.73900 6.84500 33.38700
H  39.15400 5.03300 34.91500
H  40.79900 4.81800 34.34600
H  39.42100 4.15000 33.40400
H  40.61200 9.29100 33.44200
H  41.84500 8.85100 34.50100
H  39.66600 7.54000 35.67700
H  38.86800 8.88600 34.99200
H  36.52300 3.58200 30.82300
H  36.24800 2.73200 29.32200
H  35.27600 4.17200 29.78800
H  34.69200 3.98300 27.37700
H  35.73100 2.54000 27.22800
H  34.85200 3.14900 25.84300
H  40.69200 6.39100 24.03400
H  43.61300 6.09100 24.56000
H  41.23200 3.55000 24.33200
H  42.63400 4.29000 23.65200
H  41.05800 4.46000 22.89100
H  42.41600 7.61100 22.90700
H  43.79900 8.35200 23.86200
H  41.17800 8.77200 25.02100
H  41.36500 9.43000 23.28300
H  42.39200 10.02800 24.56400
H  47.01000 8.90900 29.43900
H  46.19600 10.07000 28.20800
H  46.63700 8.45900 27.80400
H  43.42700 9.61100 32.89600
H  44.75500 6.87900 36.21800
H  44.06200 8.20600 36.93400
H  45.79800 8.18100 36.33400

