158

Mg 16.60800 -1.36300 28.57300
C  15.37500 0.71700 30.97000
C  18.63500 -2.96200 30.99100
C  17.92000 -3.25700 26.09600
C  14.49300 0.16700 26.17900
N  16.84700 -1.27800 30.78700
C  16.22300 -0.28600 31.53700
C  16.59800 -0.40100 33.02000
C  17.79300 -1.32500 32.95900
C  17.78100 -1.91900 31.48600
C  19.18900 -0.81700 33.46100
C  15.38500 -0.93200 33.81000
C  15.21700 -0.32600 35.21500
H  16.41300 0.41900 35.89000
N  18.07100 -2.77200 28.52000
C  18.72000 -3.37700 29.66400
C  19.48400 -4.51700 29.23100
C  19.22100 -4.71200 27.79800
C  18.40100 -3.53600 27.40600
C  20.24300 -5.50700 30.12100
C  19.69500 -5.80800 26.77900
O  19.31100 -5.92600 25.62800
C  20.43400 -7.04300 27.36200
N  16.35000 -1.39200 26.42000
C  16.99800 -2.27300 25.63400
C  16.59400 -2.31000 24.14100
C  15.42400 -1.20600 24.18500
C  15.39000 -0.77800 25.66900
C  17.77800 -1.93200 23.10500
C  14.05300 -1.45700 23.49900
C  13.93200 -1.08400 22.04100
N  15.16700 0.17300 28.51000
C  14.41500 0.66800 27.49200
C  13.64400 1.79600 28.00200
C  13.97400 1.83300 29.34700
C  14.92300 0.84500 29.66900
C  12.86100 2.73600 27.10000
C  13.71300 2.56400 30.60700
O  12.97500 3.46900 30.91400
C  14.63900 1.83500 31.71600
C  15.58800 2.86200 32.28200
O  16.82800 2.84400 32.19900
O  14.86900 3.66900 33.12600
C  15.72100 4.57100 33.95500
H  19.28100 -3.56500 31.63300
H  18.39800 -3.89900 25.35400
H  13.86000 0.70700 25.47100
H  16.87200 0.60800 33.32900
H  17.69700 -2.14600 33.67000
H  19.12000 0.21200 33.81600
H  19.80900 -0.82700 32.56500
H  19.71400 -1.38800 34.22700
H  15.34300 -2.01600 33.91500
H  14.51000 -0.67800 33.21200
H  14.93100 -1.12900 35.89500
H  14.38900 0.37800 35.14100
H  20.60700 -4.90900 30.95700
H  21.18600 -5.71400 29.61600
H  19.58400 -6.33700 30.37600
H  19.84100 -7.36700 28.21700
H  21.47200 -6.76100 27.53800
H  20.39300 -7.88600 26.67200
H  16.21900 -3.29700 23.87000
H  15.73400 -0.27000 23.72000
H  17.54800 -1.07600 22.47000
H  17.98000 -2.84600 22.54600
H  18.65300 -1.78500 23.73800
H  13.30100 -0.94300 24.09800
H  13.82900 -2.51100 23.66100
H  14.84900 -0.78400 21.53300
H  13.19300 -0.29100 21.92700
H  13.57500 -2.01300 21.59600
H  12.25400 2.14600 26.41300
H  13.57600 3.24600 26.45400
H  12.10100 3.36300 27.56800
H  13.94200 1.59200 32.51800
H  16.43100 5.11700 33.33400
H  16.32400 4.03500 34.68900
H  14.97000 5.25100 34.35800
Mg 45.06700 3.65900 47.03800
C  43.17000 6.55800 46.93400
C  42.39700 1.78400 47.16200
C  47.14600 1.02600 46.28700
C  48.07300 5.89000 46.74200
N  43.03200 4.14800 46.88100
C  42.41500 5.35300 46.86800
C  40.90000 5.23700 46.93400
C  40.72900 3.68800 47.07800
C  42.14000 3.16500 47.05200
C  39.94900 3.10600 48.35500
C  40.07800 5.75200 45.72300
C  40.69600 5.68100 44.38700
H  40.98900 6.92400 43.59600
N  44.75800 1.70100 46.68900
C  43.56100 0.99600 46.87900
C  43.81300 -0.42600 46.69200
C  45.20200 -0.59800 46.35400
C  45.73600 0.78900 46.34900
C  42.76700 -1.48500 46.82500
C  45.85500 -1.88700 45.99300
O  45.24600 -2.94800 46.15400
C  47.25400 -1.94600 45.51600
N  47.36000 3.53100 46.76900
C  47.86000 2.30900 46.43900
C  49.40000 2.42500 46.27700
C  49.71500 3.91800 46.40800
C  48.31500 4.48700 46.71000
C  50.13800 1.53600 47.41000
C  50.50200 4.56400 45.20000
C  51.98400 4.77700 45.38000
N  45.60800 5.77300 46.99000
C  46.74500 6.49100 46.89300
C  46.49000 7.92600 46.87500
C  45.10000 8.04400 46.98600
C  44.61100 6.70500 46.94100
C  47.59600 8.99300 46.74000
C  43.95200 8.87900 47.06100
O  43.79500 10.08100 46.95800
C  42.67500 7.87500 46.98500
C  41.69700 8.22700 48.11100
O  41.67500 7.60800 49.17600
O  40.71700 9.00300 47.57300
C  39.49200 9.05300 48.33400
H  41.55300 1.10200 47.28200
H  47.93600 0.27700 46.19700
H  48.93100 6.54000 46.55400
H  40.38800 5.70100 47.77700
H  40.19900 3.21500 46.25100
H  39.26000 3.89000 48.67000
H  40.71700 2.89200 49.09800
H  39.44500 2.18200 48.07200
H  39.88800 6.82300 45.80200
H  39.09300 5.29300 45.81500
H  39.97900 5.01800 43.90300
H  41.65000 5.16600 44.50500
H  42.83000 -2.08500 45.91700
H  41.77100 -1.05600 46.71100
H  42.91600 -2.15200 47.67400
H  47.39800 -2.97800 45.19900
H  47.94800 -1.76400 46.33700
H  47.34600 -1.21500 44.71300
H  49.73700 2.18500 45.26800
H  50.28700 4.04400 47.32700
H  50.87700 2.21300 47.83900
H  50.67200 0.65500 47.05300
H  49.50000 1.23400 48.24000
H  50.11600 5.57000 45.03800
H  50.36600 4.04100 44.25300
H  52.22100 5.83800 45.46300
H  52.44000 4.32300 44.50000
H  52.33800 4.20000 46.23400
H  48.17500 8.70100 45.86400
H  48.17300 9.06600 47.66100
H  47.16900 9.99700 46.74600
H  42.14900 8.24800 46.10600
H  39.11200 8.03200 48.37200
H  38.74700 9.73700 47.93000
H  39.78500 9.40100 49.32400

