158

Mg 9.23600 2.80500 27.83500
C  10.20900 1.21000 30.76600
C  7.11600 4.74200 29.90300
C  7.91200 4.10400 25.06300
C  10.38100 0.01500 26.06600
N  8.73700 2.91900 30.17900
C  9.40200 2.30600 31.14700
C  8.97200 2.84100 32.51700
C  7.87700 3.85900 32.18400
C  7.90600 3.86600 30.63300
C  6.36700 3.66100 32.74500
C  10.24100 3.44700 33.31600
C  10.03500 4.33100 34.54600
H  10.85900 3.95300 35.76800
N  7.88300 4.34600 27.54300
C  7.09000 5.00400 28.50500
C  6.32200 5.95900 27.86800
C  6.52100 5.76800 26.40900
C  7.48800 4.70900 26.29900
C  5.33700 6.88800 28.56800
C  5.95400 6.54600 25.20700
O  6.12100 6.26000 24.00400
C  5.10200 7.79600 25.52400
N  9.11600 2.12200 25.81100
C  8.60900 2.87400 24.82200
C  8.92800 2.33200 23.41300
C  9.57000 0.92000 23.76300
C  9.72600 0.99300 25.29500
C  7.75800 2.33600 22.41000
C  10.77000 0.38100 22.98000
C  10.60100 -1.00000 22.34900
N  10.30000 1.07000 28.20200
C  10.72000 0.07900 27.42600
C  11.55700 -0.80600 28.14800
C  11.43000 -0.40000 29.48600
C  10.49800 0.67500 29.48300
C  12.35200 -1.98100 27.51500
C  11.85900 -0.68200 30.89300
O  12.68700 -1.50200 31.31700
C  10.99400 0.31300 31.80700
C  10.17000 -0.28500 32.81900
O  9.46000 -1.24600 32.69100
O  10.59700 0.18500 34.02800
C  10.08500 -0.53600 35.26000
H  6.66100 5.39700 30.64900
H  7.66200 4.53000 24.08900
H  10.75400 -0.80200 25.44400
H  8.67600 2.01600 33.16500
H  8.14000 4.87600 32.47600
H  5.65000 3.76400 31.93000
H  6.15800 4.46200 33.45400
H  6.45500 2.69400 33.24000
H  10.86800 4.08200 32.69000
H  10.95900 2.68000 33.60400
H  8.97800 4.47900 34.76800
H  10.33400 5.36200 34.35900
H  4.40000 6.79800 28.01900
H  5.74600 7.89100 28.68200
H  5.04500 6.60000 29.57700
H  4.14900 7.53000 25.98000
H  4.95100 8.29800 24.56900
H  5.78300 8.34100 26.17900
H  9.64700 2.99400 22.93100
H  8.68300 0.28700 23.75700
H  6.85200 2.69200 22.90100
H  7.60600 1.28100 22.18300
H  8.04600 2.85000 21.49300
H  11.61500 0.37400 23.66900
H  10.99400 1.06600 22.16300
H  10.74600 -0.88200 21.27500
H  9.66100 -1.48700 22.60600
H  11.37300 -1.72000 22.62200
H  11.69800 -2.52300 26.83300
H  12.48600 -2.56600 28.42500
H  13.33500 -1.70600 27.13300
H  11.58200 1.00900 32.40700
H  10.74900 -1.35100 35.54800
H  9.12100 -1.03900 35.17800
H  9.95300 0.12900 36.11400
Mg 48.15300 44.46500 42.39500
C  44.71500 43.97200 42.15700
C  48.50900 41.06000 41.86000
C  51.47200 44.91900 42.09700
C  47.66100 47.81900 41.76900
N  46.75000 42.72800 42.10000
C  45.41200 42.75900 42.22400
C  44.73900 41.36500 42.20600
C  46.05600 40.42500 42.12400
C  47.17900 41.46600 42.00500
C  46.40900 39.45800 43.36800
C  43.75000 41.15800 41.01800
C  43.92600 41.92700 39.70100
H  44.45500 41.06000 38.48100
N  49.72600 43.17500 42.16200
C  49.65800 41.78600 41.93200
C  50.98500 41.33000 41.84200
C  51.90800 42.41400 42.01900
C  51.04500 43.59000 42.15800
C  51.29100 39.91700 41.43000
C  53.41500 42.37300 42.01200
O  53.95500 41.34700 41.72100
C  54.35000 43.59300 42.25500
N  49.32100 46.17000 42.17800
C  50.71300 46.04400 42.20600
C  51.44100 47.42100 41.97000
C  50.18100 48.33700 41.87400
C  48.98500 47.39700 41.94800
C  52.48000 47.75400 42.96700
C  50.20200 49.20600 40.55800
C  49.44900 50.50400 40.68200
N  46.53000 45.74900 42.12000
C  46.47100 47.13700 41.84300
C  45.08500 47.54400 41.67200
C  44.32500 46.31200 41.87000
C  45.26100 45.24600 42.11300
C  44.52900 48.96900 41.51200
C  42.96800 45.70400 41.73400
O  41.86700 46.18500 41.46200
C  43.20700 44.19900 41.96600
C  42.46100 43.80300 43.12500
O  41.31500 43.43300 43.06300
O  43.11400 44.17700 44.25100
C  42.50000 43.51900 45.44100
H  48.57600 39.97800 41.72700
H  52.53700 45.12600 41.97100
H  47.38000 48.86500 41.62400
H  44.31000 41.30600 43.20700
H  46.07500 39.89200 41.17300
H  45.54000 39.44900 44.02500
H  47.20900 39.84100 44.00000
H  46.49200 38.39700 43.13000
H  42.78100 41.36300 41.47500
H  43.74200 40.11700 40.69400
H  44.71400 42.66400 39.85600
H  43.03300 42.45700 39.36900
H  51.36400 39.80400 40.34800
H  50.48700 39.32700 41.87000
H  52.24400 39.55200 41.81200
H  54.43000 44.29200 41.42300
H  55.31100 43.09400 42.38200
H  54.02800 44.11000 43.15900
H  51.85700 47.43200 40.96300
H  50.08100 49.03900 42.70100
H  52.20300 47.16300 43.84000
H  52.52000 48.82100 43.18800
H  53.49100 47.45700 42.68600
H  49.68700 48.69700 39.74300
H  51.20100 49.45200 40.19800
H  48.99600 50.58600 41.67000
H  48.64200 50.49400 39.95000
H  50.14300 51.32400 40.49200
H  43.61600 49.05200 40.92300
H  45.15600 49.73700 41.06000
H  44.24900 49.37500 42.48400
H  42.70400 43.69100 41.14300
H  41.97000 44.26100 46.03900
H  43.32900 43.20400 46.07500
H  41.85600 42.67600 45.19400

