158

Mg 6.87800 54.56600 41.15100
C  6.27700 51.16500 41.28400
C  10.09800 53.97800 39.92700
C  7.14300 57.87000 40.26300
C  3.48800 55.18400 42.17300
N  8.00700 52.70400 40.43400
C  7.57000 51.45200 40.77900
C  8.76300 50.49900 40.58700
C  10.01400 51.38500 40.33700
C  9.37700 52.80300 40.35500
C  11.15600 51.23600 41.43300
C  8.61600 49.39700 39.60800
C  8.55500 49.70800 38.14800
H  7.25700 49.28900 37.48600
N  8.44000 55.77500 40.33400
C  9.68900 55.33400 39.95700
C  10.47800 56.48100 39.53000
C  9.59100 57.56600 39.37700
C  8.33100 57.10900 40.03000
C  11.91100 56.47700 39.06700
C  9.85700 58.87200 38.59600
O  10.94600 58.95400 38.11700
C  8.86300 59.84000 38.33000
N  5.47700 56.25900 41.08400
C  5.92000 57.48400 40.80500
C  4.81400 58.55500 41.23300
C  3.56000 57.68800 41.47800
C  4.20900 56.26200 41.57800
C  5.25100 59.48600 42.34200
C  2.43200 57.73000 40.32100
C  1.65900 59.00400 40.37300
N  5.23600 53.44900 41.70100
C  4.03200 53.81000 42.19900
C  3.37100 52.67700 42.69800
C  4.15900 51.60300 42.38300
C  5.27300 52.11300 41.66800
C  1.98000 52.52800 43.31800
C  4.39100 50.19900 42.42700
O  3.83400 49.29900 43.05100
C  5.60000 49.82900 41.55500
C  5.18200 49.11700 40.32700
O  4.26600 49.48000 39.59800
O  5.69200 47.77200 40.20500
C  4.71500 46.91500 39.42800
H  11.02600 53.71400 39.41600
H  7.18400 58.95800 40.17400
H  2.48200 55.30100 42.58300
H  8.91500 49.88100 41.47200
H  10.41400 51.24600 39.33300
H  10.89600 50.39200 42.07300
H  11.12800 52.14400 42.03500
H  12.06700 51.02000 40.87600
H  7.72600 48.78800 39.76700
H  9.44200 48.69500 39.72100
H  9.38700 49.21300 37.64800
H  8.68900 50.78000 38.00400
H  12.22300 56.59200 38.02900
H  12.32300 55.52800 39.41000
H  12.37400 57.35300 39.52000
H  8.10700 59.54500 37.60300
H  9.46600 60.64800 37.91700
H  8.53100 60.10100 39.33500
H  4.56600 59.18300 40.37700
H  3.14600 57.92100 42.45900
H  6.26400 59.20900 42.63300
H  4.64700 59.39500 43.24500
H  5.20200 60.51900 41.99800
H  1.72000 56.91700 40.46200
H  2.82700 57.82300 39.30900
H  1.73500 59.60900 39.47000
H  1.95600 59.56100 41.26200
H  0.63300 58.71200 40.59600
H  1.20200 53.10700 42.82000
H  2.03700 52.85700 44.35600
H  1.76200 51.46100 43.27400
H  6.23700 49.18200 42.15900
H  4.93100 45.84700 39.42500
H  4.64100 47.16900 38.37100
H  3.76900 46.99000 39.96300
Mg -1.01400 34.93200 26.77000
C  -2.53900 32.88700 29.32900
C  -0.09500 37.01700 29.19300
C  -0.16700 37.01900 24.35700
C  -2.52300 32.89700 24.42900
N  -1.36000 34.91200 29.04700
C  -1.79700 33.92200 29.84600
C  -1.41400 34.14800 31.37100
C  -0.63700 35.59000 31.25000
C  -0.69200 35.89000 29.75300
C  -1.24900 36.76900 32.11100
C  -0.65800 33.00200 32.08000
C  -1.43200 32.30300 33.21600
H  -0.74800 31.84400 34.53800
N  -0.17700 36.67700 26.80500
C  0.16600 37.43400 27.89600
C  0.87100 38.63200 27.43800
C  0.82700 38.69900 26.06000
C  0.06400 37.45500 25.65500
C  1.28600 39.70400 28.43700
C  1.34400 39.76400 25.15300
O  1.21200 39.75500 23.93500
C  2.23500 40.83900 25.72200
N  -1.45500 35.00500 24.71200
C  -0.92500 35.97000 23.93800
C  -1.04400 35.60500 22.43600
C  -1.58400 34.14700 22.46900
C  -1.91900 34.02800 23.98000
C  -1.86300 36.61200 21.61700
C  -0.57800 33.05000 22.04400
C  0.86400 32.99900 22.61300
N  -2.22600 33.20300 26.76900
C  -2.77400 32.51500 25.75000
C  -3.60400 31.48100 26.26900
C  -3.57800 31.62800 27.67200
C  -2.66500 32.64200 27.93100
C  -4.34300 30.55600 25.43500
C  -4.14500 31.05700 28.83300
O  -4.97300 30.19000 29.07600
C  -3.47700 31.84300 30.01300
C  -4.45000 32.57600 30.83500
O  -4.79100 33.79300 30.71700
O  -4.74300 31.80900 32.01000
C  -5.44400 32.68200 32.98400
H  0.23600 37.80500 29.87300
H  0.31000 37.58200 23.55200
H  -2.81000 32.20300 23.63500
H  -2.42200 34.32300 31.74500
H  0.39700 35.45800 31.57000
H  -0.54100 37.57900 32.28800
H  -1.64300 36.41200 33.06300
H  -2.13800 37.13400 31.59800
H  0.29100 33.39500 32.44400
H  -0.38700 32.31800 31.27500
H  -1.74700 31.33500 32.82700
H  -2.32700 32.91200 33.34400
H  2.32900 39.44200 28.61700
H  0.64500 39.65600 29.31800
H  1.22700 40.71100 28.02600
H  2.93900 40.34700 26.39300
H  1.61100 41.53000 26.28900
H  2.84900 41.31800 24.96000
H  -0.03600 35.68100 22.02800
H  -2.50300 34.04200 21.89200
H  -2.57500 37.25400 22.13600
H  -2.52600 36.05900 20.95200
H  -1.29400 37.26000 20.95000
H  -0.62100 33.31700 20.98900
H  -1.00400 32.05200 22.14800
H  1.03500 32.02600 23.07400
H  1.10000 33.86800 23.22700
H  1.54200 33.13700 21.77000
H  -3.69800 29.77900 25.02600
H  -4.89700 31.11800 24.68300
H  -5.09600 30.13000 26.09800
H  -3.00000 31.08200 30.63100
H  -6.41400 33.09800 32.71000
H  -4.77600 33.38500 33.48200
H  -5.79200 31.96200 33.72400

