158

Mg 30.11400 58.88100 38.25700
C  27.44200 56.54200 37.65500
C  32.18300 56.15300 38.13800
C  32.65100 61.07100 38.36700
C  27.79200 61.43900 38.12500
N  29.82100 56.53600 37.72700
C  28.65700 55.86400 37.65500
C  28.90500 54.33600 37.59300
C  30.51900 54.19500 37.80500
C  30.89700 55.69700 37.91600
C  30.83100 53.36700 39.02200
C  28.49600 53.60500 36.25000
C  29.12600 54.17700 34.88500
H  28.14900 54.72600 33.91400
N  32.13600 58.65500 38.21400
C  32.81500 57.42300 38.23600
C  34.26700 57.67800 38.30300
C  34.40700 59.13900 38.29600
C  33.01300 59.69100 38.30000
C  35.25500 56.52500 38.21300
C  35.80300 59.83400 38.30400
O  36.85400 59.24300 38.48100
C  35.77900 61.27000 38.29100
N  30.24100 60.93300 38.26500
C  31.38700 61.64300 38.43200
C  31.12500 63.19900 38.55000
C  29.61000 63.23000 38.60700
C  29.18000 61.78200 38.26200
C  31.91300 63.94300 39.66900
C  29.00300 64.35900 37.67900
C  27.92300 65.26100 38.18600
N  28.06700 59.02200 37.84100
C  27.26400 60.16300 37.84400
C  25.91600 59.77000 37.57800
C  25.93000 58.38500 37.53500
C  27.24200 57.96500 37.65400
C  24.74100 60.70500 37.31000
C  25.07900 57.25900 37.37400
O  23.84000 57.18400 37.20700
C  26.04200 56.06100 37.40700
C  25.59600 55.16900 38.51500
O  25.80300 55.35000 39.71200
O  24.95500 54.06700 38.02300
C  24.25100 53.31400 39.05900
H  32.86300 55.32400 37.92700
H  33.31800 61.93500 38.39600
H  27.09700 62.28100 38.10900
H  28.26400 53.79300 38.28800
H  31.05200 53.77200 36.95300
H  30.10800 52.56800 39.18500
H  30.94700 53.95300 39.93400
H  31.75600 52.86200 38.74500
H  27.41100 53.64600 36.15000
H  28.76600 52.55700 36.38100
H  29.53400 53.36200 34.28800
H  29.89200 54.92700 35.07900
H  35.34800 56.18600 37.18100
H  34.78500 55.71400 38.76900
H  36.20500 56.74900 38.69900
H  35.29200 61.65200 39.18800
H  35.20500 61.76100 37.50500
H  36.76200 61.71500 38.13200
H  31.48100 63.56600 37.58700
H  29.39500 63.47700 39.64700
H  32.52500 63.17300 40.13800
H  31.16800 64.40000 40.32100
H  32.55300 64.73500 39.28100
H  28.58900 63.88400 36.78900
H  29.80300 65.03700 37.38200
H  27.18700 65.63900 37.47600
H  28.21400 66.20200 38.65200
H  27.43600 64.67800 38.96800
H  23.96400 60.14600 36.78900
H  25.10700 61.40300 36.55700
H  24.40700 61.09200 38.27300
H  25.93000 55.61000 36.42100
H  23.73800 53.93600 39.79200
H  24.94100 52.60500 39.51600
H  23.40200 52.87600 38.53400
Mg -4.60400 25.72100 26.07400
C  -3.10400 27.07300 29.03000
C  -6.20200 23.45200 28.12400
C  -5.60800 24.28900 23.34200
C  -2.35800 27.83400 24.20900
N  -4.65300 25.34000 28.29400
C  -4.05500 26.06400 29.27500
C  -4.53800 25.62400 30.70600
C  -5.28300 24.26700 30.33100
C  -5.40900 24.33700 28.79800
C  -4.64100 22.90300 30.77200
C  -5.40300 26.69500 31.38100
C  -5.05200 27.21100 32.79200
H  -4.51700 26.22300 33.81200
N  -5.72800 24.19800 25.77700
C  -6.30300 23.41200 26.71400
C  -7.14900 22.33900 26.04800
C  -7.06600 22.55100 24.68700
C  -6.07900 23.68400 24.58300
C  -8.00500 21.37700 26.92100
C  -7.73900 21.79100 23.49800
O  -7.60300 22.08100 22.32200
C  -8.58800 20.65400 23.78500
N  -4.01600 25.97300 24.08400
C  -4.69100 25.30600 23.12800
C  -4.28800 25.78500 21.71500
C  -3.15500 26.90100 22.02800
C  -3.16100 26.90200 23.52300
C  -3.58800 24.66200 20.87000
C  -3.42400 28.32200 21.31300
C  -2.54800 28.61100 20.09500
N  -3.05600 27.18700 26.49200
C  -2.35700 28.00500 25.61800
C  -1.64000 29.01600 26.33200
C  -1.92100 28.74900 27.68000
C  -2.82200 27.61900 27.73300
C  -0.88700 30.25900 25.76900
C  -1.68600 29.15800 29.01400
O  -0.96500 30.07600 29.43600
C  -2.45600 28.13800 29.92100
C  -1.44600 27.49500 30.78000
O  -0.43300 26.93500 30.39200
O  -1.73800 27.69100 32.11800
C  -0.63900 27.37400 33.09900
H  -6.81400 22.79100 28.74000
H  -5.90500 23.70300 22.46900
H  -1.75700 28.46100 23.54800
H  -3.58600 25.49700 31.22300
H  -6.31000 24.21800 30.69300
H  -4.05200 22.63100 29.89600
H  -5.39500 22.14600 30.98900
H  -3.91600 23.02300 31.57700
H  -6.45900 26.42900 31.42800
H  -5.37900 27.59200 30.76300
H  -5.99500 27.60800 33.16800
H  -4.39300 28.07600 32.71600
H  -7.44900 20.95400 27.75800
H  -8.15600 20.46700 26.34100
H  -9.01000 21.78500 27.02600
H  -9.05700 20.39600 22.83500
H  -9.34400 21.15000 24.39400
H  -8.05100 19.84400 24.27800
H  -5.11000 26.13400 21.09000
H  -2.16700 26.50600 21.79600
H  -4.22300 24.56600 19.98900
H  -3.55700 23.69700 21.37500
H  -2.53200 24.85000 20.67700
H  -3.18100 29.07900 22.05800
H  -4.47800 28.49800 21.09700
H  -2.03500 29.57000 20.16500
H  -3.19700 28.73600 19.22800
H  -1.76600 27.92000 19.77800
H  -1.48800 31.13000 25.50700
H  -0.24900 30.14000 24.89300
H  -0.30000 30.55500 26.63800
H  -3.18100 28.53800 30.63000
H  -0.84100 26.30700 33.18400
H  -0.72200 27.82600 34.08700
H  0.37800 27.56800 32.75900

