158

Mg 48.17300 34.55600 28.02400
C  46.08800 33.26200 30.61600
C  48.39700 37.43400 29.95100
C  49.35100 36.25900 25.42000
C  47.07900 32.07000 25.89600
N  47.36500 35.22300 30.03500
C  46.72800 34.43900 30.99700
C  46.89100 34.99200 32.39500
C  47.33000 36.46100 32.11800
C  47.66200 36.45300 30.58900
C  46.24600 37.50300 32.31400
C  48.03500 34.29100 33.22000
C  47.87200 34.29700 34.73900
H  47.18900 35.60300 35.29300
N  48.89800 36.53900 27.74000
C  48.90100 37.58000 28.67100
C  49.61500 38.72100 28.09000
C  49.88000 38.41200 26.68900
C  49.35400 37.02500 26.56400
C  50.04900 39.87300 28.94000
C  50.59100 39.24300 25.60600
O  50.99500 38.75900 24.55100
C  50.84800 40.68300 25.98000
N  48.24500 34.16800 25.96900
C  48.87400 34.94400 25.13500
C  48.98800 34.28400 23.73100
C  48.62500 32.78600 24.05300
C  47.88800 32.98500 25.31800
C  48.03100 34.95700 22.75200
C  49.79900 31.76800 24.14800
C  51.26300 32.18400 23.76200
N  46.98600 32.90500 28.20300
C  46.68400 31.90500 27.25800
C  45.81800 30.92600 27.86500
C  45.48100 31.49500 29.15400
C  46.28800 32.65200 29.34600
C  45.17200 29.64700 27.29500
C  44.68400 31.30500 30.26700
O  43.97100 30.34900 30.61300
C  44.95900 32.52000 31.28100
C  45.18900 31.94700 32.60200
O  46.12200 31.25800 32.94600
O  44.13800 32.36400 33.33000
C  44.08300 31.92500 34.77000
H  48.57600 38.34400 30.52800
H  49.78400 36.87500 24.63000
H  46.71800 31.21000 25.32700
H  45.99100 34.92100 33.00700
H  48.27300 36.76800 32.57000
H  46.44300 38.27600 33.05700
H  45.42400 36.87300 32.65300
H  45.85000 37.94100 31.39800
H  48.96800 34.71200 32.84600
H  48.00300 33.24000 32.93500
H  48.77400 34.05200 35.30000
H  47.13000 33.50900 34.86500
H  51.10100 40.14900 28.86600
H  49.84600 39.83200 30.01000
H  49.51900 40.74000 28.54700
H  51.61000 40.70900 26.75900
H  49.95200 41.21900 26.29500
H  51.19100 41.30600 25.15400
H  50.04100 34.46100 23.51500
H  47.83800 32.41100 23.39800
H  48.50500 35.00900 21.77300
H  47.66900 35.94000 23.05700
H  47.20400 34.26900 22.57600
H  49.66600 31.08500 23.30900
H  49.85000 31.27700 25.12000
H  51.91600 31.34900 24.01600
H  51.49800 33.11500 24.27700
H  51.38000 32.26300 22.68100
H  45.72300 29.31300 26.41600
H  44.12000 29.84100 27.08900
H  45.32300 28.85700 28.03000
H  44.11900 33.21200 31.33300
H  44.28300 32.83700 35.33200
H  44.72200 31.05800 34.94000
H  43.02300 31.76400 34.97000
Mg 30.14300 57.94800 41.52000
C  27.28900 56.25600 40.30200
C  32.03800 55.37900 40.22800
C  32.90000 59.91000 41.89100
C  28.00400 60.57000 42.17100
N  29.65100 56.02800 40.38600
C  28.45400 55.56700 40.03200
C  28.61700 54.22400 39.26100
C  30.04200 53.85700 39.70500
C  30.62200 55.18200 40.13900
C  30.00900 52.69200 40.76600
C  28.42900 54.53500 37.74500
C  27.07300 53.95900 37.15300
H  26.39400 54.60400 35.84500
N  32.10300 57.69200 41.19000
C  32.68300 56.55200 40.62400
C  34.08300 56.72000 40.41600
C  34.41600 58.05800 40.84300
C  33.11800 58.62600 41.32400
C  35.01700 55.60200 39.98500
C  35.76900 58.68600 40.81000
O  36.72500 57.99800 40.46300
C  35.97900 60.04900 41.20300
N  30.40400 59.98700 41.74800
C  31.66100 60.55400 42.00500
C  31.48700 62.10700 42.35200
C  29.96400 62.16600 42.65000
C  29.38400 60.78900 42.11900
C  32.36900 62.68000 43.46800
C  29.19000 63.37200 42.00300
C  28.32000 64.06300 42.99600
N  27.99600 58.34600 41.50900
C  27.33900 59.47900 41.69900
C  25.88800 59.26500 41.53900
C  25.83200 58.00000 40.98300
C  27.13300 57.51700 40.98500
C  24.80700 60.20100 41.87700
C  24.89500 56.96200 40.46800
O  23.68100 56.83700 40.37600
C  25.87400 55.88800 39.95000
C  25.44400 54.60000 40.64300
O  25.84300 54.12000 41.66400
O  24.43500 54.03800 39.90400
C  23.78700 52.81700 40.46200
H  32.62400 54.49900 39.95400
H  33.67500 60.52500 42.35300
H  27.34000 61.42600 42.30700
H  27.84000 53.51200 39.54100
H  30.60000 53.55700 38.81800
H  29.14300 52.03400 40.69900
H  30.27600 53.08700 41.74700
H  30.88600 52.07600 40.56900
H  29.27100 54.35200 37.07700
H  28.20300 55.59400 37.62100
H  26.32700 53.95600 37.94900
H  27.22900 52.92600 36.84200
H  35.69600 55.44500 40.82300
H  35.48000 55.98500 39.07500
H  34.70400 54.63500 39.59100
H  35.67700 60.13600 42.24700
H  35.31900 60.66700 40.59500
H  37.02100 60.35600 41.11200
H  31.82600 62.71700 41.51400
H  29.80300 62.10400 43.72700
H  33.15800 63.38000 43.19000
H  32.81100 61.83200 43.99000
H  31.76600 63.23100 44.19000
H  28.65100 62.98800 41.13700
H  29.91200 64.12800 41.69200
H  28.49900 65.13900 43.00300
H  28.55500 63.92000 44.05100
H  27.27100 63.91400 42.74100
H  24.70900 60.75100 40.94100
H  25.10300 60.98700 42.57100
H  23.81300 59.83700 42.13900
H  25.79800 55.80300 38.86600
H  22.73500 52.90000 40.18900
H  23.88500 52.75300 41.54500
H  24.13400 51.89100 40.00300

