158

Mg 48.19200 15.00900 28.57100
C  45.96800 15.49500 31.27400
C  50.39800 17.25000 30.09200
C  50.08900 14.91900 25.81600
C  45.54900 13.42100 26.83400
N  48.18400 16.36600 30.47600
C  47.23700 16.14600 31.41900
C  47.70900 16.72900 32.77400
C  48.98900 17.59100 32.30100
C  49.22900 17.08200 30.90200
C  48.97300 19.12700 32.47000
C  48.00900 15.70400 33.85700
C  47.34600 15.85400 35.26200
H  47.36400 17.28200 35.86000
N  49.96500 15.91400 27.98300
C  50.70900 16.76900 28.75400
C  51.94500 17.11200 27.97900
C  51.82500 16.48000 26.71000
C  50.61900 15.73300 26.78400
C  52.97100 18.09200 28.54800
C  52.86200 16.56000 25.51100
O  52.66200 15.96300 24.45500
C  54.13300 17.40300 25.67200
N  47.84900 14.39400 26.54600
C  48.85600 14.27000 25.66600
C  48.43500 13.68800 24.27900
C  46.98300 13.18200 24.70600
C  46.75300 13.71100 26.09900
C  48.43100 14.69000 23.12100
C  47.02400 11.60400 24.64800
C  47.45500 10.81300 25.86700
N  46.15800 14.52300 28.91900
C  45.26000 13.82200 28.17900
C  44.11400 13.50300 29.01600
C  44.38700 14.04100 30.28200
C  45.62300 14.72400 30.13100
C  42.94000 12.77900 28.42400
C  43.85800 14.19600 31.71000
O  42.85800 13.71100 32.23800
C  44.89100 15.14800 32.35000
C  44.09200 16.26700 32.99500
O  43.59300 17.17800 32.40900
O  44.06800 16.07500 34.38000
C  43.39800 17.05100 35.20300
H  51.09500 17.90000 30.62500
H  50.78000 14.78900 24.98100
H  44.87000 12.77600 26.27300
H  46.94800 17.41300 33.15000
H  49.87400 17.26800 32.85000
H  48.71600 19.53100 31.49000
H  49.92000 19.53200 32.82600
H  48.12500 19.36400 33.11300
H  49.07400 15.50200 33.97500
H  47.67400 14.73800 33.47800
H  47.97400 15.14400 35.80100
H  46.31300 15.51500 35.19400
H  53.81800 17.41400 28.65400
H  52.72700 18.57500 29.49400
H  53.13800 18.81600 27.75100
H  53.89700 18.45600 25.51900
H  54.85000 17.11600 24.90400
H  54.45000 17.17000 26.68900
H  49.10000 12.87100 24.00000
H  46.23800 13.50400 23.97900
H  47.93800 14.38300 22.19900
H  49.44600 14.90700 22.78600
H  47.85500 15.56900 23.41100
H  47.65500 11.18100 23.86600
H  45.99900 11.28000 24.46800
H  48.00500 9.94000 25.51500
H  46.57300 10.50000 26.42600
H  48.09700 11.43400 26.49300
H  42.10000 13.26700 27.93000
H  42.56400 12.21000 29.27400
H  43.33000 12.03200 27.73100
H  45.42400 14.67800 33.17600
H  43.45600 18.05900 34.79400
H  43.98100 16.98300 36.12100
H  42.34200 16.78400 35.20600
Mg 9.05100 47.72300 27.43000
C  6.85800 47.57100 30.10900
C  11.66200 48.44300 29.65800
C  11.02800 48.12400 24.79400
C  6.27600 47.86100 25.23800
N  9.21200 47.95800 29.67700
C  8.19200 47.77900 30.58900
C  8.77300 47.74800 32.02200
C  10.27500 48.11400 31.85600
C  10.41400 48.20100 30.32400
C  10.65800 49.53900 32.49700
C  8.47900 46.34700 32.63900
C  9.34800 45.85300 33.79100
H  8.66700 45.40200 35.07700
N  11.07500 48.13900 27.24300
C  11.99400 48.34200 28.24500
C  13.30300 48.48500 27.62800
C  13.14900 48.25500 26.21900
C  11.68600 48.04800 26.05800
C  14.52800 48.84900 28.42600
C  14.15400 48.14900 25.16700
O  13.83000 48.07900 23.96500
C  15.56900 48.20700 25.47900
N  8.68800 48.17300 25.25800
C  9.64800 48.18500 24.43500
C  9.13100 48.31600 22.95400
C  7.59400 48.27600 23.12200
C  7.49600 48.00100 24.58900
C  9.60100 49.55100 22.19800
C  6.79900 47.29100 22.19700
C  7.42500 46.55300 21.00200
N  7.01300 47.60300 27.58900
C  6.01300 47.64500 26.61800
C  4.71000 47.50900 27.21300
C  4.95200 47.48300 28.60400
C  6.35600 47.57300 28.75200
C  3.31800 47.56200 26.45600
C  4.40200 47.43500 29.97900
O  3.23900 47.31900 30.34400
C  5.59800 47.45600 31.01200
C  5.46900 46.18800 31.67900
O  5.95900 45.11700 31.26100
O  4.71700 46.25200 32.84600
C  4.69000 45.07000 33.68000
H  12.54000 48.64300 30.27600
H  11.60400 48.13300 23.86600
H  5.31500 47.71600 24.74000
H  8.17500 48.33200 32.72200
H  10.80500 47.22700 32.20200
H  11.69700 49.48300 32.82100
H  9.98000 49.78100 33.31500
H  10.60900 50.31800 31.73700
H  8.39900 45.57800 31.87100
H  7.50300 46.56900 33.07100
H  10.06900 46.63300 34.03200
H  9.86600 44.96500 33.42800
H  15.25400 48.06400 28.63500
H  14.30100 49.32000 29.38300
H  15.09200 49.56300 27.82600
H  16.09400 48.05800 24.53500
H  15.79000 47.55800 26.32600
H  15.73700 49.24500 25.76700
H  9.49700 47.46500 22.37900
H  7.16900 49.26800 22.96900
H  10.03500 50.23300 22.93000
H  8.73000 49.98400 21.70700
H  10.37200 49.20900 21.50700
H  6.01100 47.95400 21.84200
H  6.40400 46.47300 22.79900
H  6.78500 46.53100 20.11900
H  7.59200 45.51600 21.29200
H  8.39300 46.94500 20.69100
H  2.94200 46.56600 26.22400
H  3.35300 48.08500 25.50000
H  2.54800 48.07500 27.03200
H  5.46900 48.29200 31.69900
H  4.81900 45.44100 34.69600
H  5.48800 44.34500 33.51900
H  3.68400 44.68800 33.50100

