158

Mg 0.29000 7.66900 26.21800
C  0.87100 9.23600 29.16300
C  0.44600 4.70300 27.85600
C  0.01200 6.00500 23.22100
C  0.36400 10.63500 24.40300
N  0.56000 7.07900 28.22000
C  0.68500 7.83700 29.32800
C  0.79300 7.06900 30.70400
C  0.90900 5.63500 30.10200
C  0.57700 5.82000 28.63200
C  2.36200 5.00900 30.37000
C  -0.55200 7.23200 31.53100
C  -0.34400 7.57600 33.01700
H  0.88300 6.92800 33.74000
N  0.31400 5.55900 25.56800
C  0.33100 4.51400 26.43500
C  0.14700 3.35000 25.74200
C  0.06000 3.70200 24.30500
C  0.12700 5.15500 24.31900
C  0.08800 2.00600 26.47200
C  0.03800 2.73500 23.10000
O  0.00200 3.28800 21.98500
C  0.04000 1.22200 23.22600
N  0.39100 8.25200 24.05900
C  0.15700 7.38000 23.05700
C  -0.01000 8.04000 21.61700
C  -0.20400 9.50400 22.12100
C  0.23200 9.47500 23.58000
C  1.14800 7.79500 20.53600
C  -1.64400 10.00500 21.96800
C  -1.98500 10.69200 20.65600
N  0.63200 9.56200 26.66800
C  0.62400 10.67300 25.85000
C  0.96000 11.84500 26.66100
C  1.06200 11.34700 28.01300
C  0.76400 9.97200 27.90500
C  1.10400 13.22300 26.17700
C  1.33900 11.69300 29.38200
O  1.70500 12.69900 29.84700
C  1.11500 10.30500 30.21000
C  2.31600 10.15300 31.05000
O  3.42000 9.86700 30.71900
O  1.87600 10.51700 32.31400
C  2.90100 11.02600 33.20400
H  0.63200 3.78600 28.42000
H  -0.26500 5.50800 22.28800
H  0.41800 11.51200 23.75500
H  1.69400 7.41700 31.20700
H  0.18200 4.92500 30.49500
H  2.23500 3.94900 30.59200
H  2.85000 5.55700 31.17700
H  3.02000 4.99800 29.50100
H  -1.16900 6.33500 31.58300
H  -1.19300 7.97600 31.05800
H  -1.25500 7.20900 33.49000
H  -0.15400 8.63800 33.16900
H  1.13000 1.83600 26.74300
H  -0.20600 1.25400 25.73900
H  -0.62200 2.00600 27.29900
H  0.92000 0.91600 23.79100
H  0.24400 0.80000 22.24200
H  -0.85800 0.80700 23.68400
H  -0.91800 7.70100 21.11800
H  0.55900 10.09200 21.61100
H  1.62500 6.81800 20.61200
H  1.86500 8.60900 20.64200
H  0.68500 7.89700 19.55500
H  -1.92500 10.68900 22.76800
H  -2.22500 9.09900 22.14200
H  -2.84200 10.14000 20.27200
H  -1.18700 10.54700 19.92800
H  -2.31900 11.72400 20.76900
H  0.79900 13.20800 25.13100
H  2.11300 13.59000 26.36500
H  0.38800 13.89700 26.64900
H  0.21400 10.47200 30.80000
H  2.41800 11.83600 33.75100
H  3.78100 11.38600 32.67000
H  3.13700 10.32400 34.00400
Mg 6.96400 54.62000 40.70300
C  7.09200 51.10200 40.59000
C  10.18700 54.80900 39.74700
C  6.73900 58.01700 40.44200
C  3.44500 54.35700 41.16200
N  8.38500 53.16800 40.15800
C  8.32700 51.74300 40.25500
C  9.71500 51.04200 40.04800
C  10.71100 52.28600 40.22300
C  9.72900 53.54100 39.99000
C  11.27700 52.46400 41.66900
C  9.72400 50.33400 38.65400
C  9.20000 51.16800 37.53500
H  7.77600 51.09200 37.00800
N  8.28500 56.24300 40.13700
C  9.59800 56.08000 39.79200
C  10.18300 57.32800 39.39100
C  9.21700 58.29300 39.62400
C  8.02100 57.55500 40.11900
C  11.57000 57.58300 38.69800
C  9.38200 59.76900 39.40400
O  10.48800 60.12300 39.09600
C  8.26700 60.79900 39.56000
N  5.30700 55.97600 40.80000
C  5.51800 57.29800 40.64100
C  4.17300 58.06100 40.73800
C  3.10000 56.90800 40.88000
C  3.96400 55.64300 40.90900
C  4.16500 59.17100 41.86700
C  2.00200 56.93300 39.74300
C  0.55500 57.29800 40.21500
N  5.52600 53.03500 40.89200
C  4.14500 53.07200 41.13100
C  3.69800 51.70500 41.26500
C  4.85100 50.92900 41.12600
C  5.85100 51.75700 40.83200
C  2.26200 51.33800 41.81600
C  5.22300 49.60600 41.33600
O  4.61400 48.64500 41.87000
C  6.74200 49.60400 40.76000
C  6.58100 48.81300 39.50300
O  5.81200 49.04800 38.63200
O  7.13800 47.51700 39.54400
C  6.80900 46.60200 38.46700
H  11.26000 54.72300 39.56100
H  6.49300 59.08100 40.42500
H  2.36100 54.30400 41.28200
H  9.81600 50.32000 40.85800
H  11.51100 52.18800 39.49000
H  12.34000 52.24700 41.56300
H  10.91600 51.80100 42.45500
H  11.10800 53.46200 42.07300
H  9.25900 49.36400 38.82500
H  10.72600 49.98100 38.41200
H  9.78100 50.87500 36.66100
H  9.56000 52.16100 37.80100
H  11.40600 58.15600 37.78500
H  12.06700 56.63600 38.48300
H  12.25800 58.08700 39.37800
H  7.43100 60.40500 38.98200
H  8.65400 61.76800 39.24400
H  8.00900 60.75200 40.61800
H  4.02300 58.45200 39.73200
H  2.70300 57.05300 41.88400
H  4.99700 58.96300 42.54000
H  3.25000 59.21300 42.45700
H  4.47700 60.11500 41.42000
H  2.00900 55.91400 39.35800
H  2.22800 57.62700 38.93200
H  -0.08600 56.43500 40.03500
H  0.25800 58.18400 39.65400
H  0.59700 57.56600 41.27100
H  1.62100 51.37800 40.93500
H  1.89900 52.10200 42.50400
H  2.29900 50.33400 42.23800
H  7.38100 49.05600 41.45300
H  7.47700 45.74100 38.50700
H  7.00800 47.01000 37.47600
H  5.79300 46.28200 38.69600

