158

Mg 48.03200 35.85900 27.89200
C  46.16300 33.90500 30.16900
C  48.29800 38.18400 30.29100
C  49.56900 37.66100 25.43100
C  47.46300 33.35200 25.42400
N  47.29700 36.02300 29.99100
C  46.65200 35.09600 30.76700
C  46.75600 35.45400 32.31500
C  47.13300 36.95500 32.19300
C  47.50300 37.12800 30.65400
C  46.15300 37.97700 32.71800
C  47.85800 34.53500 33.03000
C  48.00600 34.86200 34.45600
H  46.96700 35.56300 35.20500
N  48.75000 37.71200 27.85100
C  48.93000 38.51700 28.95700
C  49.71700 39.69700 28.58800
C  50.01200 39.55200 27.18600
C  49.45900 38.24200 26.75900
C  50.13500 40.68900 29.64200
C  50.67400 40.56700 26.21300
O  50.68800 40.44800 24.96500
C  51.31100 41.81100 26.83200
N  48.21200 35.63400 25.62600
C  48.92900 36.50800 24.89500
C  49.17300 36.06100 23.45600
C  48.64200 34.59500 23.47300
C  48.03700 34.54700 24.87800
C  48.44900 36.86700 22.32900
C  49.74700 33.45000 23.22700
C  49.31800 32.47700 22.06600
N  47.05600 33.95200 27.78300
C  46.88900 33.07300 26.70700
C  46.21800 31.91900 27.18800
C  45.81300 32.26100 28.48800
C  46.36100 33.48500 28.83400
C  45.77000 30.77100 26.33900
C  45.02600 31.79300 29.62200
O  44.43900 30.70900 29.77400
C  45.14100 32.89800 30.76900
C  45.32000 32.33200 32.12500
O  45.95600 31.35500 32.52200
O  44.52300 33.07600 32.93200
C  44.43100 32.73700 34.31600
H  48.28300 39.01500 30.99900
H  50.21300 38.15600 24.70200
H  47.48400 32.53600 24.70000
H  45.74800 35.40500 32.72800
H  48.03500 37.07100 32.79300
H  46.64100 38.71900 33.35000
H  45.35100 37.59400 33.34900
H  45.59900 38.49800 31.93800
H  48.78700 34.70300 32.48500
H  47.69300 33.46200 32.93400
H  48.90100 35.48000 34.52700
H  48.15000 33.89300 34.93400
H  51.20900 40.55200 29.76900
H  49.68800 40.44200 30.60500
H  49.80600 41.69300 29.37300
H  51.55700 41.88900 27.89100
H  50.78300 42.65700 26.39200
H  52.33200 41.88000 26.45800
H  50.23200 36.02500 23.19700
H  47.86800 34.52100 22.70900
H  49.16000 37.59100 21.93100
H  47.58300 37.42900 22.68100
H  48.16600 36.26300 21.46700
H  49.93200 32.87800 24.13600
H  50.62000 34.00900 22.89200
H  49.95900 32.46400 21.18500
H  48.30900 32.74800 21.75400
H  49.41000 31.43900 22.38800
H  46.71300 30.58700 25.82600
H  44.98300 30.93900 25.60300
H  45.46900 29.95600 26.99700
H  44.14400 33.33800 30.76100
H  43.75200 33.40800 34.84200
H  45.44900 32.70700 34.70400
H  43.96900 31.75500 34.42800
Mg 26.81300 50.69400 26.75400
C  24.73200 51.55700 29.64600
C  29.14100 49.55300 28.94100
C  28.58900 49.67000 24.10000
C  24.35700 51.94100 24.76900
N  26.77500 50.39900 29.06500
C  25.85600 50.80200 29.99700
C  26.21400 50.40100 31.43300
C  27.74700 50.00400 31.16300
C  27.95500 50.00600 29.63500
C  28.83000 50.80000 31.91800
C  25.36300 49.27100 32.19500
C  24.77300 49.50000 33.55400
H  25.78500 49.94000 34.60000
N  28.58200 49.72100 26.58600
C  29.43100 49.35900 27.60500
C  30.57700 48.68700 27.09700
C  30.53000 48.78000 25.66500
C  29.20200 49.38400 25.41100
C  31.68200 48.26800 28.02000
C  31.51200 48.40600 24.53900
O  31.31300 48.74500 23.35800
C  32.87200 47.94800 24.88600
N  26.53500 50.71400 24.70900
C  27.39600 50.27500 23.74800
C  26.86400 50.58500 22.36000
C  25.43200 50.88200 22.60500
C  25.40100 51.21100 24.09800
C  27.67000 51.71700 21.63300
C  24.30000 49.90100 22.19400
C  23.11800 50.48900 21.45500
N  25.04400 51.69700 27.06000
C  24.11900 52.19000 26.12800
C  22.88300 52.69300 26.80400
C  23.14800 52.54500 28.15300
C  24.42400 51.88500 28.26900
C  21.68000 53.24100 26.08900
C  22.57000 52.77200 29.49800
O  21.60700 53.37100 29.79400
C  23.57100 52.12400 30.46600
C  23.97900 53.16100 31.50400
O  24.76800 54.01200 31.25600
O  23.22900 52.93100 32.61600
C  23.61700 53.69500 33.80500
H  29.83100 49.14700 29.68300
H  29.15600 49.35600 23.22200
H  23.58600 52.24300 24.05700
H  26.16300 51.31900 32.01900
H  27.90400 48.93600 31.31700
H  28.44500 50.96900 32.92300
H  29.11700 51.73100 31.42900
H  29.73400 50.19100 31.95600
H  25.89200 48.32000 32.14000
H  24.45100 49.19300 31.60400
H  24.34200 48.57300 33.93200
H  23.98100 50.24900 33.58900
H  32.34800 47.52300 27.58300
H  31.28100 47.90900 28.96800
H  32.13900 49.23600 28.22300
H  33.51800 48.04000 24.01200
H  32.82100 46.89000 25.14300
H  33.24600 48.47000 25.76700
H  27.07000 49.69900 21.76000
H  25.02800 51.79700 22.17100
H  28.44800 52.04800 22.32200
H  27.07200 52.57100 21.31600
H  28.34400 51.41800 20.83000
H  23.80600 49.43500 23.04600
H  24.74700 49.05800 21.66600
H  23.03300 49.89700 20.54400
H  23.31300 51.48300 21.05200
H  22.19100 50.55900 22.02400
H  20.96300 53.63000 26.81100
H  21.14600 52.59600 25.39100
H  22.15700 53.96500 25.42900
H  23.10600 51.27900 30.97200
H  22.71500 53.76500 34.41300
H  23.95500 54.72000 33.65400
H  24.38900 53.15000 34.34700

