158

Mg -10.76800 39.74000 42.76500
C  -9.00800 36.92000 41.63400
C  -8.55600 41.59000 40.95300
C  -12.90100 42.35700 43.16200
C  -13.37600 37.60800 43.91000
N  -9.01000 39.19900 41.29000
C  -8.40800 38.01900 41.08500
C  -7.08100 38.08600 40.18900
C  -6.83400 39.67200 40.28500
C  -8.19800 40.22400 40.83400
C  -5.63000 40.07800 41.12900
C  -7.32200 37.55200 38.74400
C  -6.54200 36.33800 38.23800
H  -5.94400 36.52100 36.90000
N  -10.73300 41.70400 42.19000
C  -9.79500 42.23600 41.40700
C  -10.05100 43.70600 41.23900
C  -11.15100 43.98500 42.05900
C  -11.66400 42.65400 42.52400
C  -9.26900 44.57500 40.39600
C  -11.60900 45.40100 42.32300
O  -11.06300 46.38900 41.86600
C  -12.91000 45.68500 43.11500
N  -12.83200 39.93500 43.56100
C  -13.51000 41.15200 43.60900
C  -14.90700 40.95100 44.20400
C  -15.07600 39.40100 44.29000
C  -13.66200 38.95200 43.86200
C  -15.10300 41.77700 45.50800
C  -16.26000 38.83800 43.37300
C  -17.05100 37.62900 43.92700
N  -11.05100 37.71400 42.93600
C  -12.15200 36.98700 43.46400
C  -11.83800 35.55900 43.42000
C  -10.59500 35.49600 42.65700
C  -10.11800 36.82700 42.43300
C  -12.72200 34.42100 43.91500
C  -9.63500 34.63300 42.12300
O  -9.60800 33.38400 42.10600
C  -8.58000 35.53600 41.44400
C  -7.24100 35.21900 41.87200
O  -6.88900 35.29300 43.04500
O  -6.66700 34.51000 40.86900
C  -5.37300 33.85800 41.08000
H  -7.79000 42.27600 40.58600
H  -13.51500 43.26000 43.15700
H  -14.19900 36.91100 44.08000
H  -6.29000 37.47800 40.62800
H  -6.65800 40.12400 39.30900
H  -4.88500 40.59500 40.52500
H  -5.14000 39.29300 41.70500
H  -5.95900 40.92000 41.73800
H  -7.42400 38.39200 38.05700
H  -8.34600 37.18300 38.69600
H  -7.21300 35.49500 38.07400
H  -5.68000 36.23600 38.89700
H  -8.74200 43.90600 39.71600
H  -8.54800 45.02500 41.07800
H  -9.89100 45.32800 39.91000
H  -12.87400 45.19400 44.08700
H  -13.78500 45.38500 42.53800
H  -13.06000 46.75100 43.28600
H  -15.70000 41.46300 43.66000
H  -15.27100 39.06400 45.30900
H  -14.13300 42.10700 45.87700
H  -15.63500 41.14000 46.21600
H  -15.68100 42.65500 45.22100
H  -15.82200 38.57300 42.41000
H  -16.87100 39.65700 42.99200
H  -18.01300 37.86400 44.38300
H  -16.44500 36.99900 44.57800
H  -17.17700 37.01700 43.03400
H  -12.23300 33.44900 43.86300
H  -13.65100 34.39200 43.34500
H  -13.06100 34.49900 44.94900
H  -8.67500 35.27600 40.39000
H  -4.67300 34.41000 41.70500
H  -4.87800 33.86100 40.10900
H  -5.55200 32.93700 41.63500
Mg -9.14400 18.72700 43.00900
C  -5.58300 18.04400 43.22000
C  -8.35600 21.85400 42.10700
C  -12.39100 19.11000 42.15900
C  -9.69800 15.22400 43.29100
N  -7.16400 19.77500 42.89100
C  -5.83200 19.39500 42.96500
C  -4.79900 20.45000 42.60300
C  -5.72000 21.71100 42.44000
C  -7.20500 21.09500 42.57700
C  -5.55900 22.89200 43.49500
C  -3.85100 20.07800 41.36900
C  -4.47700 19.35700 40.10900
H  -3.96700 19.89800 38.70500
N  -10.28400 20.36600 42.28600
C  -9.74500 21.57500 41.95100
C  -10.85300 22.43300 41.45200
C  -12.06700 21.72900 41.68200
C  -11.64100 20.31900 42.04100
C  -10.63700 23.81500 40.97500
C  -13.42700 22.25200 41.39000
O  -13.56700 23.41100 41.07800
C  -14.60400 21.39500 41.46500
N  -10.78200 17.34100 42.79300
C  -12.04800 17.78300 42.39700
C  -13.06500 16.64600 42.39800
C  -12.17100 15.41500 42.74000
C  -10.84400 16.03700 43.05800
C  -14.35900 16.86800 43.16100
C  -11.97800 14.42300 41.53400
C  -12.60700 13.05200 41.77200
N  -7.92200 16.92400 43.10000
C  -8.31600 15.63800 43.23600
C  -7.15400 14.80100 43.39400
C  -6.09800 15.69800 43.42000
C  -6.58200 16.98700 43.25300
C  -7.16700 13.26200 43.53000
C  -4.73200 15.74300 43.64600
O  -3.89000 14.85600 43.96400
C  -4.19100 17.23800 43.49400
C  -3.35500 17.75100 44.63700
O  -2.15300 17.84400 44.52100
O  -4.07200 17.90400 45.78900
C  -3.29100 18.30300 46.83100
H  -8.13400 22.90900 41.93600
H  -13.46100 19.17700 41.95400
H  -9.85800 14.14400 43.25600
H  -4.07500 20.53800 43.41300
H  -5.53400 22.20600 41.48700
H  -6.44400 22.91600 44.12900
H  -5.52000 23.83400 42.94900
H  -4.60100 22.87700 44.01600
H  -2.97000 19.50400 41.65600
H  -3.55700 21.07300 41.03700
H  -5.56300 19.27100 40.09000
H  -4.24000 18.29700 40.02100
H  -11.00500 24.05300 39.97700
H  -9.57100 23.99100 41.11800
H  -11.12700 24.57400 41.58500
H  -14.54800 20.75800 42.34800
H  -14.65300 20.66600 40.65600
H  -15.57700 21.88500 41.48800
H  -13.44100 16.60400 41.37500
H  -12.40300 14.82300 43.62500
H  -14.49700 15.99600 43.80000
H  -15.16100 16.92500 42.42500
H  -14.57500 17.77900 43.71900
H  -10.92100 14.26400 41.32100
H  -12.39500 14.83400 40.61500
H  -13.50300 12.90100 41.17000
H  -12.93800 13.02200 42.81000
H  -11.98300 12.17500 41.59900
H  -6.42600 13.07800 44.30800
H  -6.87000 12.70800 42.64000
H  -8.15000 12.86900 43.79000
H  -3.43000 17.29100 42.71600
H  -2.46800 18.96800 46.56900
H  -2.80600 17.44200 47.29300
H  -3.78500 18.67100 47.73000

