158

Mg -2.28600 17.03300 26.11900
C  -2.73800 15.03000 28.89400
C  -2.19300 19.86100 28.19000
C  -2.30600 18.91600 23.24500
C  -2.72000 14.19300 24.04800
N  -2.50800 17.39200 28.28400
C  -2.56700 16.42600 29.26200
C  -2.78600 17.00900 30.69400
C  -2.89500 18.53500 30.38100
C  -2.53500 18.61700 28.83200
C  -4.22500 19.20800 30.68100
C  -1.59700 16.78300 31.69800
C  -2.21800 16.15100 33.00700
H  -1.27200 15.91900 34.18700
N  -2.08400 19.07000 25.73400
C  -2.06200 20.06500 26.76100
C  -1.89900 21.37600 26.09900
C  -2.11700 21.11200 24.63900
C  -2.17600 19.66200 24.45400
C  -1.72700 22.61000 26.84100
C  -2.06300 22.09300 23.47400
O  -2.18000 21.80500 22.26000
C  -1.84100 23.46900 23.86300
N  -2.43800 16.60600 23.97000
C  -2.38100 17.53800 22.94100
C  -2.70500 17.02200 21.54800
C  -2.55300 15.47800 21.85100
C  -2.55900 15.40300 23.36600
C  -4.12700 17.53900 21.13000
C  -1.27200 14.95300 21.19800
C  0.08800 15.33900 21.84000
N  -2.58900 15.01700 26.38600
C  -2.72500 13.95300 25.45800
C  -2.87000 12.70700 26.21000
C  -2.87100 13.04100 27.53600
C  -2.74400 14.47200 27.58400
C  -3.13400 11.39400 25.54600
C  -2.96000 12.56200 28.90600
O  -3.12800 11.40400 29.28100
C  -2.86900 13.79000 29.84400
C  -1.78100 13.45600 30.83300
O  -0.61200 13.73100 30.67400
O  -2.25700 12.76700 31.94100
C  -1.27600 12.51500 32.98600
H  -1.97600 20.70300 28.85000
H  -2.49300 19.49200 22.33600
H  -2.81900 13.34600 23.36600
H  -3.71200 16.58700 31.08500
H  -2.13400 19.07500 30.94500
H  -3.93600 19.96500 31.41000
H  -4.89600 18.54000 31.22000
H  -4.82700 19.60100 29.86200
H  -1.13700 17.72900 31.98300
H  -0.92000 16.15900 31.11400
H  -2.81000 15.25600 32.81600
H  -2.96300 16.91100 33.24300
H  -2.51600 23.29700 26.53600
H  -0.73600 23.05700 26.75600
H  -1.77200 22.48600 27.92300
H  -1.94600 24.09700 22.97900
H  -0.90300 23.54300 24.41300
H  -2.70600 23.75900 24.46000
H  -1.96800 17.29400 20.79200
H  -3.42900 14.95200 21.47200
H  -4.51400 18.39600 21.68000
H  -4.90000 16.77100 21.15700
H  -4.12600 17.75900 20.06200
H  -1.28500 15.13500 20.12300
H  -1.29500 13.87000 21.32000
H  -0.12300 16.07600 22.61500
H  0.71600 15.78000 21.06700
H  0.43200 14.35600 22.16300
H  -3.57500 11.56900 24.56500
H  -3.79700 10.79300 26.16700
H  -2.17000 10.89100 25.47300
H  -3.86800 13.81300 30.28100
H  -1.64800 12.95400 33.91200
H  -0.27100 12.90400 32.82000
H  -1.16200 11.43700 33.09400
Mg 46.61500 44.86400 43.00900
C  43.38000 43.83800 43.13500
C  47.62500 41.66200 42.66300
C  49.71700 46.02000 42.77200
C  45.47700 48.30200 42.91400
N  45.58300 43.00300 42.79100
C  44.27200 42.73100 42.91700
C  43.96300 41.21600 42.92500
C  45.35500 40.56200 43.04200
C  46.25400 41.79300 42.85200
C  45.58600 39.69100 44.30500
C  43.19200 40.73700 41.73000
C  43.53600 41.34600 40.40500
H  44.00800 40.45900 39.20800
N  48.37900 43.95800 42.66800
C  48.58800 42.62000 42.59500
C  49.96700 42.31900 42.46400
C  50.67800 43.61100 42.50900
C  49.61700 44.59800 42.68100
C  50.61600 40.89500 42.31300
C  52.19600 43.78800 42.39200
O  52.91400 42.81600 42.28600
C  52.85200 45.16300 42.29000
N  47.46500 46.91100 42.77600
C  48.77600 47.00200 42.93900
C  49.17400 48.47500 43.10300
C  47.87300 49.28300 43.10900
C  46.83100 48.09800 42.89500
C  50.07600 48.95300 44.30500
C  47.80000 50.50000 42.10900
C  47.38800 51.86500 42.76100
N  44.87300 45.90300 42.92000
C  44.54400 47.25400 42.86100
C  43.09800 47.37000 42.71900
C  42.61200 46.08000 42.98000
C  43.70800 45.20900 43.04600
C  42.25800 48.60000 42.61200
C  41.38500 45.27600 43.13800
O  40.21200 45.59100 43.29800
C  41.84600 43.79100 43.31600
C  41.41100 43.28800 44.66900
O  41.40800 43.96600 45.70400
O  41.00000 41.95300 44.64500
C  40.37600 41.54400 45.86400
H  47.80900 40.60000 42.49100
H  50.73600 46.39500 42.89100
H  45.02600 49.23800 43.25000
H  43.43000 41.05600 43.86200
H  45.63100 39.92900 42.19900
H  44.59400 39.32000 44.56200
H  46.03800 40.28400 45.10100
H  46.26500 38.84200 44.23500
H  42.11600 40.83700 41.86800
H  43.43300 39.67700 41.65200
H  44.32800 42.09400 40.45200
H  42.76700 42.08800 40.19300
H  51.02200 40.71500 41.31700
H  49.89400 40.09900 42.49700
H  51.46300 40.81400 42.99400
H  52.30200 45.79300 41.59100
H  53.89500 45.01700 42.01200
H  52.85500 45.54800 43.31000
H  49.64200 48.81200 42.17800
H  47.65000 49.53900 44.14400
H  51.11800 48.79900 44.02400
H  49.81400 48.38700 45.19900
H  49.79900 49.97600 44.56000
H  47.10900 50.38600 41.27300
H  48.74300 50.73300 41.61400
H  48.10400 52.67000 42.59300
H  47.40800 51.83700 43.85100
H  46.43600 52.20400 42.35300
H  41.96000 48.57000 41.56400
H  42.71300 49.58000 42.75300
H  41.41300 48.49200 43.29200
H  41.40400 43.10400 42.59400
H  39.55900 42.19500 46.17600
H  41.08700 41.33100 46.66200
H  39.82700 40.61800 45.69300

