158

Mg -2.97700 17.63500 26.72900
C  -3.32500 15.31500 29.47900
C  -3.56900 20.14000 28.97700
C  -3.25100 19.75900 24.16800
C  -3.14600 14.88700 24.67500
N  -3.46900 17.69300 29.02000
C  -3.45700 16.62400 29.92100
C  -3.60800 17.12100 31.39500
C  -3.80200 18.66200 31.15200
C  -3.69900 18.87100 29.58900
C  -5.10000 19.18000 31.77700
C  -2.36400 16.79600 32.31500
C  -2.35200 17.64500 33.59100
H  -1.89500 16.95700 34.90300
N  -3.21000 19.66600 26.64100
C  -3.30300 20.52400 27.64500
C  -2.94800 21.84400 27.10600
C  -2.82400 21.78600 25.69000
C  -3.15300 20.41900 25.44200
C  -2.89100 23.07600 28.02200
C  -2.44200 22.88700 24.73600
O  -2.30700 22.65400 23.53800
C  -2.32200 24.30800 25.16000
N  -3.39100 17.34500 24.71400
C  -3.35600 18.36000 23.86700
C  -3.59800 17.90500 22.40000
C  -3.45900 16.29700 22.57900
C  -3.28100 16.14900 24.07800
C  -4.69100 18.58600 21.56100
C  -2.23600 15.75100 21.81900
C  -0.86600 16.31900 22.25600
N  -3.08100 15.54000 26.95900
C  -3.15400 14.57900 26.00500
C  -3.05400 13.25200 26.57400
C  -3.19200 13.52200 27.93700
C  -3.19800 14.92000 28.14000
C  -2.96100 11.97500 25.85400
C  -3.37600 12.83200 29.22500
O  -3.47200 11.68300 29.58100
C  -3.42300 14.01700 30.24600
C  -2.29900 13.77300 31.10600
O  -1.12900 14.02600 30.89800
O  -2.73100 13.08400 32.20800
C  -1.67900 12.77900 33.23100
H  -3.54400 20.96800 29.69000
H  -3.41400 20.41100 23.30700
H  -3.24100 13.98000 24.07300
H  -4.49400 16.63000 31.79800
H  -3.09600 19.36800 31.58900
H  -5.68900 19.64800 30.98800
H  -4.88200 19.92400 32.54300
H  -5.69300 18.42200 32.28800
H  -1.41700 16.76100 31.77900
H  -2.65400 15.83400 32.73700
H  -3.15700 18.36400 33.74600
H  -1.55300 18.34300 33.33800
H  -1.89900 23.52400 27.96300
H  -3.15600 22.90200 29.06500
H  -3.59000 23.88300 27.79900
H  -2.40500 24.92900 24.26800
H  -1.42100 24.31900 25.77400
H  -3.17500 24.57800 25.78200
H  -2.67600 18.24100 21.92600
H  -4.39900 15.83500 22.27800
H  -5.15800 17.98100 20.78400
H  -4.34900 19.54100 21.16100
H  -5.57600 18.79200 22.16300
H  -2.28700 15.86500 20.73700
H  -2.08000 14.69200 22.02600
H  -0.90900 17.13300 22.98000
H  -0.34000 16.61600 21.34900
H  -0.31500 15.52600 22.76300
H  -3.74200 12.02700 25.09500
H  -3.12400 11.17200 26.57200
H  -1.98900 11.91900 25.36400
H  -4.34800 13.95500 30.82000
H  -2.17100 11.90100 33.64900
H  -1.57600 13.65700 33.86800
H  -0.71600 12.46100 32.83100
Mg 9.46400 47.97900 26.14200
C  7.51400 47.92500 29.08000
C  12.07400 49.30100 28.02800
C  11.18100 48.36500 23.33400
C  6.60900 47.42300 24.26800
N  9.67900 48.86700 28.27400
C  8.77800 48.52800 29.27700
C  9.45100 48.88700 30.68200
C  10.82600 49.56900 30.28700
C  10.88700 49.26500 28.79000
C  11.07300 51.04600 30.68700
C  9.58900 47.67900 31.57700
C  10.13900 47.87600 32.98100
H  9.78900 46.94100 34.11100
N  11.38300 48.56400 25.71900
C  12.35900 49.01200 26.64900
C  13.62100 49.16700 25.98900
C  13.32300 48.82500 24.61400
C  11.92800 48.65900 24.48200
C  14.91000 49.69800 26.63400
C  14.33400 48.87400 23.46600
O  14.05800 48.49200 22.33000
C  15.71300 49.14900 23.81200
N  8.94800 48.07500 24.16300
C  9.84000 48.14500 23.17900
C  9.20300 48.00500 21.78500
C  7.95100 47.25300 22.14300
C  7.78600 47.62100 23.61200
C  8.81600 49.38800 21.03400
C  8.01100 45.71700 21.80400
C  7.69300 44.61400 22.83100
N  7.48900 47.68200 26.49300
C  6.43200 47.40800 25.67700
C  5.18300 47.19800 26.44100
C  5.58700 47.34900 27.77800
C  6.98500 47.57300 27.77500
C  3.82800 46.89600 25.96800
C  5.12200 47.43400 29.14800
O  3.99800 47.39400 29.66400
C  6.43100 47.60100 30.01900
C  6.69500 46.26200 30.65700
O  6.99800 45.24200 30.11000
O  6.44100 46.42900 31.99300
C  6.74700 45.19200 32.75000
H  12.87500 49.66500 28.67500
H  11.78100 48.29800 22.42400
H  5.76600 47.07700 23.66600
H  8.92500 49.69700 31.18800
H  11.58400 48.94300 30.75700
H  11.78600 51.01100 31.51100
H  10.17800 51.54300 31.06100
H  11.56100 51.60300 29.88700
H  10.25700 46.96700 31.09200
H  8.57400 47.33400 31.77600
H  10.02900 48.92700 33.24700
H  11.20200 47.63700 32.95600
H  15.22700 50.62000 26.14700
H  15.77600 49.04500 26.53000
H  14.73800 49.81800 27.70400
H  16.29100 49.17500 22.88800
H  16.15100 48.48500 24.55800
H  15.69900 50.19000 24.13700
H  9.79700 47.47600 21.04100
H  7.13000 47.65800 21.55100
H  8.61600 50.12600 21.81000
H  7.89300 49.33700 20.45800
H  9.65200 49.74900 20.43400
H  9.05800 45.42400 21.72800
H  7.42600 45.56500 20.89700
H  7.06900 43.85900 22.35200
H  7.20000 45.08700 23.68100
H  8.65800 44.18600 23.10300
H  3.05100 47.23700 26.65200
H  3.80100 45.82700 25.75900
H  3.69500 47.43600 25.03000
H  6.18900 48.35300 30.77100
H  6.95100 45.65900 33.71300
H  7.72600 44.73100 32.61800
H  5.90300 44.50400 32.78300

