158

Mg 41.26300 8.01000 30.01900
C  42.94800 9.56000 32.84600
C  38.96500 6.91200 32.25400
C  39.87400 6.55900 27.35100
C  43.96500 8.91600 28.15300
N  40.96800 8.33600 32.27700
C  41.71500 9.05500 33.17600
C  41.05100 9.10900 34.58700
C  39.90000 8.06900 34.44300
C  39.89000 7.73100 32.87400
C  40.03100 6.79800 35.25000
C  40.61400 10.46600 35.20000
C  40.35000 10.39800 36.70600
H  41.10900 11.40500 37.57600
N  39.66800 6.79600 29.82100
C  38.79400 6.53000 30.90100
C  37.65100 5.82700 30.29000
C  37.93800 5.64800 28.88400
C  39.19300 6.27600 28.57900
C  36.42100 5.50200 31.16900
C  37.08000 5.16400 27.79700
O  37.52800 4.89800 26.72000
C  35.59200 5.15100 28.03000
N  41.80300 7.82200 27.96000
C  41.04300 7.21800 27.04100
C  41.56500 7.35800 25.63500
C  42.92600 8.16200 25.91000
C  42.90600 8.32600 27.39700
C  41.80200 6.01700 24.88500
C  43.00000 9.57700 25.11600
C  41.93300 10.67900 25.44600
N  43.19500 8.96800 30.39100
C  44.24000 9.22600 29.50000
C  45.29500 9.81400 30.13100
C  44.85300 10.01800 31.46600
C  43.57200 9.47200 31.55300
C  46.66200 10.06300 29.58400
C  45.21200 10.55700 32.73100
O  46.21700 11.15600 33.08100
C  43.98700 10.28200 33.70400
C  44.36900 9.34200 34.79700
O  44.65800 8.17500 34.60300
O  44.22800 9.97100 35.96200
C  44.32700 9.14200 37.09800
H  38.20800 6.66400 33.00000
H  39.35300 6.23100 26.44900
H  44.75900 9.15700 27.44300
H  41.81100 8.62600 35.20100
H  38.96600 8.51800 34.78000
H  40.20200 6.04200 34.48400
H  39.09000 6.45900 35.68300
H  40.83300 6.69700 35.98200
H  39.79900 10.98400 34.69500
H  41.48900 11.05800 34.93100
H  40.61100 9.39100 37.03100
H  39.28800 10.63900 36.76600
H  36.82700 5.40500 32.17600
H  35.90400 4.59800 30.84900
H  35.64600 6.24700 31.35500
H  35.03400 5.10200 27.09500
H  35.31800 6.08900 28.51300
H  35.20700 4.35100 28.66300
H  40.87500 8.02300 25.11500
H  43.76600 7.50200 25.69400
H  41.59600 6.12100 23.81900
H  41.07000 5.29500 25.24600
H  42.82300 5.67200 25.04600
H  42.89200 9.22700 24.09000
H  43.99200 10.00100 25.27100
H  42.38800 11.29000 26.22600
H  41.00100 10.22000 25.77500
H  41.72000 11.34500 24.61000
H  47.44400 9.63400 30.21100
H  46.83000 11.12500 29.40600
H  46.69300 9.59500 28.60000
H  43.62400 11.19100 34.18400
H  45.28800 8.75900 37.44100
H  43.68500 8.27600 36.93000
H  43.75800 9.66600 37.86600
Mg 41.97500 40.81900 26.63200
C  41.61500 43.56000 28.88100
C  42.86900 38.87200 29.39100
C  43.07500 38.46800 24.50600
C  41.67000 43.11600 24.08200
N  42.01500 41.15200 28.91900
C  41.72600 42.30800 29.54700
C  41.84800 42.06400 31.08000
C  42.70000 40.68000 31.18200
C  42.51200 40.15000 29.81400
C  44.15000 40.69400 31.70600
C  40.39200 41.96000 31.70600
C  40.15700 43.02500 32.82800
H  39.69700 42.49500 34.21800
N  42.67900 38.85200 26.90200
C  42.90900 38.19800 28.13100
C  43.42500 36.91000 27.81800
C  43.56400 36.78300 26.41900
C  43.17600 38.09500 25.87500
C  43.76500 35.88500 28.91500
C  44.13100 35.57500 25.55500
O  44.35600 35.86900 24.38000
C  44.43100 34.28100 26.04400
N  42.51500 40.88700 24.53900
C  42.72200 39.70700 23.89400
C  42.51900 39.95400 22.40900
C  42.02900 41.45500 22.24500
C  42.01100 41.83800 23.71800
C  43.87800 39.61600 21.62200
C  40.65100 41.51500 21.52400
C  39.39200 41.37000 22.47500
N  41.67200 42.90300 26.45300
C  41.56400 43.67600 25.35900
C  41.26300 45.03100 25.66100
C  41.28600 45.01600 27.05900
C  41.54400 43.74200 27.50400
C  40.93100 46.10600 24.67100
C  41.04500 45.87700 28.21100
O  40.71700 47.06100 28.28500
C  41.22700 44.94600 29.46400
C  42.27700 45.56400 30.31400
O  43.48400 45.58700 30.08800
O  41.68300 46.16200 31.38800
C  42.58800 46.77700 32.33100
H  43.38200 38.24300 30.12200
H  43.11700 37.71900 23.71300
H  41.33000 43.78900 23.29200
H  42.38300 42.89700 31.53500
H  42.13100 40.03700 31.85400
H  44.80500 39.99700 31.18400
H  44.09800 40.65900 32.79400
H  44.56500 41.67300 31.46300
H  40.19000 40.99900 32.18000
H  39.59200 41.96200 30.96600
H  39.35700 43.66500 32.45800
H  41.04900 43.63500 32.97000
H  43.16800 34.99700 28.70900
H  43.48200 36.33200 29.86800
H  44.81500 35.62100 29.03900
H  45.20700 33.88700 25.38900
H  43.53900 33.79000 25.65600
H  44.61200 34.24100 27.11900
H  41.69600 39.27200 22.19300
H  42.74800 42.09100 21.73000
H  43.84100 39.86800 20.56300
H  44.06000 38.54100 21.64000
H  44.67900 40.19900 22.07700
H  40.62900 40.74100 20.75800
H  40.60500 42.46100 20.98400
H  38.64800 40.71100 22.02700
H  38.94700 42.35500 22.61000
H  39.62700 40.98900 23.46900
H  41.23400 45.78000 23.67600
H  41.51500 46.97100 24.98300
H  39.86800 46.31600 24.78600
H  40.28800 44.77600 29.99200
H  42.00200 47.17700 33.15800
H  43.04200 47.59700 31.77500
H  43.36100 46.07500 32.64300

