158

Mg 7.50800 3.23200 28.08700
C  8.93800 1.75000 30.92600
C  5.59600 5.19400 30.29000
C  5.71500 4.22600 25.46500
C  9.20800 0.86400 26.05400
N  7.17000 3.34500 30.40200
C  8.05500 2.82000 31.27900
C  7.84600 3.49400 32.64700
C  6.40900 4.20400 32.57900
C  6.41400 4.25400 30.97500
C  5.27900 3.25300 33.09300
C  9.00500 4.39400 33.06000
C  10.02200 4.02300 34.17900
H  10.12600 4.95200 35.41700
N  5.95800 4.60400 27.86400
C  5.38700 5.33000 28.87600
C  4.41700 6.18700 28.25400
C  4.52400 6.09500 26.84200
C  5.44700 4.94700 26.68700
C  3.52400 7.04200 29.14100
C  3.85300 6.86400 25.75000
O  4.14700 6.57500 24.64200
C  2.88000 7.91500 26.03600
N  7.39700 2.57800 26.13700
C  6.65800 3.25000 25.18300
C  6.97500 2.73100 23.76400
C  8.10100 1.71000 23.97100
C  8.30200 1.76800 25.44700
C  5.68200 2.19500 23.09300
C  9.45200 2.06600 23.26200
C  10.51100 2.90900 24.01300
N  8.86300 1.57300 28.35300
C  9.44400 0.71400 27.44000
C  10.23700 -0.24500 28.19100
C  10.20000 0.13700 29.55000
C  9.24700 1.22100 29.62400
C  10.92700 -1.46400 27.71600
C  10.66100 -0.10700 30.88500
O  11.46400 -0.93500 31.40600
C  10.01100 1.06000 31.74000
C  9.36900 0.53100 32.95200
O  8.18600 0.15000 32.95800
O  10.29600 0.50900 34.02300
C  9.81100 0.05700 35.41600
H  5.04600 5.82600 30.99000
H  5.07400 4.44400 24.60900
H  9.70100 0.11200 25.43400
H  7.76700 2.69900 33.38800
H  6.30700 5.17600 33.06200
H  5.03700 3.59900 34.09800
H  5.63000 2.22600 33.19400
H  4.41600 3.28200 32.42800
H  8.62400 5.38200 33.31500
H  9.71100 4.54600 32.24400
H  10.99500 3.96000 33.69200
H  9.84300 2.99800 34.50500
H  2.58200 6.49200 29.15300
H  3.56600 8.06900 28.77900
H  3.86700 7.14900 30.17000
H  1.94800 7.42500 26.31800
H  2.61800 8.45500 25.12600
H  3.09100 8.65700 26.80500
H  7.37600 3.55600 23.17500
H  7.83200 0.70300 23.65100
H  4.87700 2.32700 23.81600
H  5.74300 1.11700 22.93900
H  5.52100 2.88100 22.26200
H  9.13400 2.59800 22.36600
H  9.96300 1.14100 22.99400
H  11.21200 2.18800 24.43200
H  9.95400 3.50600 24.73600
H  11.04300 3.65600 23.42300
H  10.83200 -1.58900 26.63700
H  10.68400 -2.38100 28.25300
H  12.00600 -1.36500 27.83200
H  10.72500 1.79700 32.10900
H  9.03300 -0.65500 35.14100
H  9.53900 0.87600 36.08200
H  10.66900 -0.41600 35.89400
Mg 36.88800 49.45900 25.19900
C  37.03500 47.79500 28.20500
C  35.41000 52.11900 27.02100
C  36.49000 51.03100 22.27500
C  38.06800 46.73900 23.48900
N  36.12300 49.85400 27.32700
C  36.42300 49.04000 28.40700
C  35.91500 49.61200 29.72500
C  35.25900 50.95100 29.27100
C  35.62200 50.99500 27.80400
C  33.75500 51.13400 29.52700
C  37.16700 49.84100 30.64600
C  37.15300 49.24800 32.06900
H  35.82900 49.24900 32.86900
N  36.12600 51.31700 24.75500
C  35.55100 52.24200 25.61600
C  35.00300 53.32400 24.80300
C  35.39300 53.08200 23.46700
C  36.04200 51.76500 23.42600
C  34.23200 54.50900 25.38700
C  35.11700 53.98500 22.29500
O  35.45600 53.68100 21.10700
C  34.58200 55.39200 22.48500
N  37.37100 48.97100 23.15700
C  37.08000 49.76400 22.13500
C  37.43200 49.19100 20.79100
C  38.14600 47.86300 21.22500
C  37.95000 47.86500 22.70200
C  36.25900 49.02200 19.83600
C  39.67100 47.92400 20.96100
C  40.18800 47.72800 19.52300
N  37.45600 47.57600 25.70800
C  37.89200 46.56300 24.87200
C  38.28000 45.50300 25.77000
C  37.99100 45.89000 27.06700
C  37.41800 47.15600 26.99500
C  38.93000 44.23900 25.28100
C  38.07500 45.55300 28.47400
O  38.54500 44.56200 28.99300
C  37.28700 46.73600 29.29300
C  36.07300 46.11100 29.99400
O  34.88800 46.22100 29.68400
O  36.54200 45.50300 31.15300
C  35.59000 44.87800 32.13500
H  35.14800 53.04200 27.54300
H  36.37800 51.63300 21.37100
H  38.35200 45.87200 22.89000
H  35.32500 48.79500 30.14100
H  35.70000 51.80600 29.78200
H  33.30500 50.35100 30.13700
H  33.23300 51.26400 28.57900
H  33.61700 52.05800 30.08900
H  37.38000 50.90800 30.70600
H  38.04600 49.45000 30.13300
H  37.69200 50.01500 32.62500
H  37.64700 48.28000 32.14900
H  34.06000 54.33500 26.44900
H  33.26900 54.71700 24.92000
H  34.88900 55.37400 25.30100
H  35.13100 55.87400 23.29400
H  33.51800 55.43400 22.71900
H  34.74400 55.91400 21.54200
H  38.20900 49.78200 20.30800
H  37.76200 46.93900 20.79500
H  36.59000 49.47000 18.89900
H  35.40100 49.56400 20.23400
H  35.92600 48.03700 19.50700
H  40.03600 47.13200 21.61500
H  40.07500 48.87200 21.31500
H  40.75300 48.61300 19.23200
H  39.42500 47.31900 18.86100
H  40.87800 46.92200 19.77500
H  40.01000 44.27700 25.13900
H  38.48400 43.87200 24.35700
H  38.78700 43.54900 26.11300
H  37.92400 47.09400 30.10200
H  35.86200 43.84200 32.33700
H  34.56200 44.91800 31.77500
H  35.70200 45.41600 33.07700

