158

Mg 49.81000 46.23800 43.23700
C  46.60600 46.78500 41.96900
C  49.85100 43.10800 41.79200
C  53.17700 46.09100 43.74000
C  49.82900 49.47000 44.54800
N  48.33600 45.12200 41.91700
C  47.06700 45.47000 41.58400
C  46.32600 44.30500 40.90100
C  47.30900 43.06700 41.15600
C  48.64000 43.81200 41.53600
C  46.75300 42.03400 42.15900
C  46.13900 44.68000 39.38200
C  44.72700 44.42300 38.85500
H  44.63000 43.35700 37.75200
N  51.30100 44.72500 42.91900
C  51.08400 43.53100 42.32000
C  52.26700 42.72900 42.41300
C  53.28900 43.54000 42.96700
C  52.65700 44.88300 43.19200
C  52.32300 41.23300 41.96500
C  54.70900 43.06000 43.23700
O  54.99900 41.87800 43.11200
C  55.68500 43.94200 43.84100
N  51.32800 47.66000 43.72600
C  52.54800 47.25800 44.07400
C  53.33800 48.32500 44.85100
C  52.19900 49.33000 45.25400
C  51.09700 48.81600 44.38800
C  54.19000 47.71000 46.07400
C  52.46000 50.83500 45.07800
C  52.10100 51.75200 46.26000
N  48.56400 47.88800 43.22500
C  48.62700 49.10200 43.86700
C  47.42900 49.88100 43.56200
C  46.59900 49.00700 42.84600
C  47.31900 47.78200 42.64400
C  47.19600 51.28200 43.89700
C  45.29100 48.88800 42.21700
O  44.33300 49.65300 42.05800
C  45.29000 47.45100 41.54600
C  44.08200 46.68500 42.09500
O  44.15500 46.11000 43.22500
O  42.98900 46.80000 41.37700
C  41.72700 46.20300 41.84600
H  49.80400 42.04600 41.54000
H  54.24200 46.00900 43.96400
H  49.82500 50.34100 45.20700
H  45.36400 44.14400 41.38800
H  47.42400 42.63400 40.16200
H  47.01500 41.06700 41.73200
H  45.67000 42.11000 42.25300
H  47.30300 42.11900 43.09700
H  46.84700 44.23200 38.68500
H  46.23200 45.76500 39.40600
H  44.23400 45.28000 38.39600
H  44.03500 44.10900 39.63700
H  51.47600 40.92900 41.35000
H  52.31400 40.54100 42.80700
H  53.19500 41.07100 41.33200
H  56.57000 43.38000 44.14100
H  55.30900 44.44800 44.73000
H  55.84500 44.70000 43.07400
H  54.06800 48.75800 44.16600
H  51.83300 49.16700 46.26800
H  53.87700 48.30600 46.93000
H  55.26600 47.82200 45.94600
H  53.83800 46.69800 46.27600
H  51.98400 51.25500 44.19200
H  53.53400 50.96300 44.94400
H  51.58900 52.63900 45.88500
H  52.98200 52.09200 46.80400
H  51.44200 51.34000 47.02400
H  48.03700 51.73900 44.42000
H  46.25900 51.30100 44.45300
H  47.02600 51.90300 43.01800
H  45.16200 47.62900 40.47900
H  41.90600 45.37100 42.52600
H  41.18700 45.68500 41.05400
H  41.16900 46.98100 42.36700
Mg -1.90200 34.58500 27.24400
C  -3.44500 32.60400 29.89000
C  -0.55400 36.52600 29.84000
C  -0.07500 36.01900 24.88400
C  -3.15500 32.29900 24.98100
N  -2.15500 34.65600 29.63500
C  -2.64600 33.67000 30.41100
C  -2.37200 33.95200 31.92900
C  -1.72700 35.36900 31.86100
C  -1.47600 35.58900 30.42100
C  -2.48900 36.59200 32.51600
C  -1.57400 32.80300 32.52900
C  -1.00600 32.95800 33.99500
H  -1.52900 32.05500 35.03300
N  -0.75100 36.13100 27.27500
C  -0.22900 36.76200 28.43500
C  0.69000 37.74800 27.93000
C  0.69600 37.75700 26.46000
C  -0.14000 36.65700 26.11000
C  1.49300 38.59800 28.86700
C  1.42200 38.70900 25.49600
O  1.38200 38.58500 24.27400
C  2.37900 39.87600 25.94600
N  -1.76100 34.33700 25.08300
C  -0.82300 34.95400 24.36300
C  -0.61300 34.25500 22.97000
C  -1.75900 33.18900 23.03900
C  -2.25200 33.23700 24.50800
C  -0.77500 35.22500 21.71300
C  -1.26000 31.80900 22.62200
C  -0.16000 31.11400 23.47800
N  -3.15500 32.98000 27.31500
C  -3.61700 32.16900 26.31000
C  -4.54800 31.16700 26.89200
C  -4.47500 31.40800 28.22900
C  -3.55800 32.42500 28.44500
C  -5.37100 30.15800 26.19200
C  -5.07700 30.86000 29.45600
O  -5.90800 30.02000 29.63400
C  -4.34600 31.59100 30.57400
C  -5.39400 32.14800 31.54000
O  -6.32900 32.86200 31.28100
O  -5.13400 31.69400 32.81000
C  -6.07500 32.00900 33.83900
H  -0.06400 37.14000 30.59800
H  0.77000 36.34400 24.27300
H  -3.55200 31.52900 24.31500
H  -3.22600 33.83700 32.59500
H  -0.81200 35.21600 32.43300
H  -3.55300 36.37500 32.41800
H  -2.44600 37.49700 31.90900
H  -2.20600 36.89000 33.52500
H  -0.77700 32.64500 31.80200
H  -2.18900 31.90900 32.42800
H  -1.33400 33.91100 34.41100
H  0.08100 32.88500 34.02800
H  1.67600 38.10400 29.82100
H  0.91800 39.50100 29.07300
H  2.45900 38.85000 28.43000
H  2.89100 40.44500 25.16900
H  3.15900 39.35300 26.49900
H  1.79100 40.52600 26.59300
H  0.34300 33.76900 23.16700
H  -2.55400 33.49200 22.35800
H  0.13100 35.35700 21.12000
H  -1.08900 36.20600 22.06800
H  -1.53200 34.87100 21.01300
H  -0.99400 31.73600 21.56700
H  -2.09600 31.11200 22.66300
H  0.00500 31.61300 24.43300
H  0.74700 31.06100 22.87600
H  -0.45900 30.10200 23.74900
H  -6.45200 30.22600 26.31900
H  -5.05100 29.17400 26.53600
H  -5.10000 30.09000 25.13900
H  -3.84400 30.83300 31.17500
H  -6.87700 32.65600 33.48400
H  -5.39200 32.49500 34.53500
H  -6.54300 31.07400 34.14700

