158

Mg -0.69900 18.36200 28.11900
C  -1.21300 16.20900 30.74500
C  -1.49500 21.07000 30.05600
C  -0.39800 20.59800 25.37500
C  -0.34100 15.74900 25.86200
N  -1.11000 18.59800 30.20100
C  -1.26800 17.54300 31.11100
C  -1.47400 18.09400 32.46800
C  -1.83900 19.61400 32.22800
C  -1.35800 19.87900 30.74500
C  -3.29400 20.00000 32.51800
C  -0.30000 17.83300 33.49700
C  -0.73500 17.61300 34.95600
H  0.38600 17.28800 35.91000
N  -0.90200 20.51500 27.76300
C  -1.29900 21.45400 28.71900
C  -1.25800 22.79900 28.17000
C  -0.96300 22.69100 26.76200
C  -0.74300 21.22300 26.58000
C  -1.52200 24.09100 28.98900
C  -0.88200 23.66300 25.64400
O  -0.89000 23.36400 24.46000
C  -0.77700 25.12700 26.01600
N  -0.42300 18.16000 25.98700
C  -0.34400 19.22800 25.10600
C  -0.20200 18.67200 23.63400
C  0.14200 17.23300 23.84900
C  -0.26200 16.99000 25.31100
C  -1.56100 18.85900 22.85400
C  1.65300 16.80800 23.58300
C  2.70200 17.46700 24.50100
N  -0.79100 16.39300 28.19400
C  -0.58100 15.43600 27.23300
C  -0.84400 14.13700 27.79500
C  -1.05000 14.37900 29.14600
C  -1.01400 15.80900 29.34600
C  -0.77200 12.84000 27.11000
C  -1.31500 13.75400 30.46500
O  -1.41300 12.56200 30.73400
C  -1.40100 14.87900 31.56000
C  -0.43400 14.55900 32.65400
O  0.76900 14.69300 32.52400
O  -1.07700 13.83800 33.64300
C  -0.29600 13.27400 34.75000
H  -1.70700 21.98400 30.61500
H  -0.33600 21.28600 24.52900
H  -0.34800 14.98200 25.08400
H  -2.38100 17.56700 32.76500
H  -1.24100 20.34600 32.77100
H  -3.81900 19.17700 33.00200
H  -3.62600 20.18700 31.49600
H  -3.37900 20.92400 33.09100
H  0.34500 18.70900 33.43000
H  0.33000 17.00000 33.18200
H  -1.57100 16.91900 35.04300
H  -0.99500 18.54800 35.45200
H  -1.97200 24.88700 28.39600
H  -0.60800 24.44900 29.46400
H  -2.28500 23.81400 29.71600
H  -0.24000 25.28200 26.95200
H  -1.80600 25.48600 26.02400
H  -0.37900 25.64000 25.14000
H  0.65900 19.12600 23.14400
H  -0.45200 16.67100 23.12900
H  -1.99800 19.80000 23.18900
H  -2.25600 18.02500 22.95700
H  -1.22100 18.92500 21.82000
H  1.88700 17.06400 22.54900
H  1.72500 15.72700 23.70200
H  3.31400 16.75000 25.04600
H  2.37100 18.26600 25.16500
H  3.48300 17.90300 23.87800
H  -1.80200 12.48500 27.14900
H  -0.11800 12.15300 27.64900
H  -0.45600 12.92900 26.07100
H  -2.41200 14.90800 31.96700
H  -0.08100 13.98600 35.54700
H  0.66400 12.93100 34.36200
H  -0.89400 12.41800 35.06200
Mg 9.25000 48.08700 24.69800
C  7.00900 48.88600 27.43600
C  11.79800 49.28900 26.78200
C  11.46700 47.48800 22.24900
C  6.52700 47.57500 22.67800
N  9.35000 48.79900 26.86400
C  8.33900 48.99900 27.77400
C  8.80100 49.54000 29.11700
C  10.13500 50.16600 28.58600
C  10.48700 49.31300 27.36300
C  10.05700 51.65100 28.23800
C  8.98000 48.42900 30.20200
C  8.84300 48.84300 31.65900
H  8.14400 47.86000 32.62500
N  11.33100 48.28100 24.57200
C  12.20800 48.78400 25.54000
C  13.60600 48.61100 25.11700
C  13.46000 48.04400 23.78200
C  12.06600 47.92000 23.47800
C  14.75600 48.93600 25.94800
C  14.57800 47.68900 22.83900
O  14.38600 47.22300 21.74100
C  15.92800 47.95700 23.31800
N  9.02600 47.71600 22.74500
C  10.12700 47.52400 21.90000
C  9.69300 47.00500 20.58200
C  8.10400 46.99200 20.57600
C  7.83600 47.46300 22.09100
C  10.14600 47.87800 19.38000
C  7.47100 45.64200 20.14800
C  7.32400 45.55400 18.57900
N  7.23200 48.17200 24.91900
C  6.23900 48.06700 23.99900
C  4.96800 48.38600 24.48700
C  5.16800 48.59200 25.84900
C  6.54700 48.51100 26.13900
C  3.69900 48.19800 23.74900
C  4.50900 48.85000 27.16300
O  3.29700 48.83200 27.45500
C  5.73300 49.18900 28.15400
C  5.50100 48.46900 29.38500
O  5.74900 47.32400 29.63900
O  4.84300 49.35500 30.23900
C  4.58100 48.84100 31.58800
H  12.59400 49.80300 27.32500
H  12.10100 47.24900 21.39200
H  5.64700 47.32800 22.08000
H  8.10900 50.29100 29.49900
H  10.89000 49.95900 29.34400
H  9.18400 52.19400 28.60100
H  9.87300 51.77900 27.17100
H  10.87400 52.24700 28.64400
H  10.00300 48.08900 30.04700
H  8.38400 47.52000 30.12000
H  8.56000 49.86200 31.92300
H  9.86300 48.85200 32.04300
H  14.44400 48.89500 26.99200
H  15.15800 49.89300 25.61700
H  15.45700 48.10700 25.84600
H  16.04800 48.91900 23.81600
H  16.74300 47.97600 22.59400
H  16.06900 47.17200 24.06100
H  10.19400 46.05400 20.40500
H  7.71800 47.80800 19.96500
H  9.35800 48.37300 18.81300
H  10.79800 47.38400 18.65900
H  10.72900 48.73200 19.72500
H  6.49900 45.51400 20.62600
H  8.17000 44.93100 20.58800
H  7.78500 46.42700 18.11800
H  6.27000 45.40000 18.34700
H  7.83900 44.66100 18.22600
H  3.52800 47.14400 23.52900
H  3.73200 48.79800 22.83900
H  2.95000 48.68000 24.37800
H  5.56600 50.24900 28.34600
H  3.50400 48.93100 31.72900
H  4.87900 49.61800 32.29200
H  4.94300 47.89600 31.99300

