158

Mg -1.88100 17.40200 26.74500
C  -2.18200 14.97100 29.27600
C  -2.70000 19.96700 29.07700
C  -2.06000 19.63200 24.23900
C  -2.09200 14.62100 24.36400
N  -2.26300 17.39300 28.94000
C  -2.32700 16.30200 29.82800
C  -2.58900 16.74800 31.29000
C  -2.77900 18.34900 31.09100
C  -2.59400 18.63300 29.61700
C  -4.06700 18.94400 31.63900
C  -1.46000 16.39600 32.22900
C  -1.45300 17.14800 33.53500
H  -0.76700 16.48900 34.72200
N  -2.01300 19.51200 26.63900
C  -2.31000 20.38200 27.69500
C  -2.07000 21.76600 27.20900
C  -1.77700 21.64100 25.82600
C  -1.86200 20.25600 25.47600
C  -2.09700 22.98100 28.04900
C  -1.45400 22.76200 24.79500
O  -1.14200 22.51500 23.58400
C  -1.66500 24.18400 25.12500
N  -1.98200 17.12500 24.67200
C  -2.10000 18.25000 23.83300
C  -2.34300 17.80300 22.38600
C  -2.02000 16.24500 22.43100
C  -2.01700 15.93400 23.90000
C  -3.77500 18.14100 21.85300
C  -0.69700 15.79500 21.75900
C  0.68600 16.41400 22.25800
N  -2.13700 15.24800 26.75700
C  -2.09300 14.29800 25.75700
C  -2.01400 13.00000 26.36000
C  -2.03800 13.22500 27.74200
C  -2.17700 14.57500 27.93900
C  -2.06900 11.73200 25.62400
C  -2.03100 12.53900 29.11200
O  -1.91500 11.34100 29.36800
C  -2.26700 13.67800 30.13300
C  -1.11400 13.49200 31.04900
O  0.02800 13.90700 30.99100
O  -1.61500 12.75200 32.07000
C  -0.83000 12.64600 33.33900
H  -2.92100 20.78500 29.76600
H  -2.26400 20.36600 23.45700
H  -2.13900 13.80300 23.64200
H  -3.54100 16.30800 31.58600
H  -1.99800 18.87900 31.63500
H  -4.77100 19.29400 30.88300
H  -3.77200 19.79700 32.25000
H  -4.56400 18.20300 32.26500
H  -0.46400 16.44300 31.78900
H  -1.65700 15.39300 32.60900
H  -2.47800 17.36800 33.83500
H  -0.97900 18.12600 33.45600
H  -2.94300 23.65500 27.91600
H  -1.23300 23.64500 28.01200
H  -2.13800 22.70100 29.10200
H  -0.89300 24.46900 25.84000
H  -2.66300 24.22000 25.56100
H  -1.72900 24.81700 24.24000
H  -1.58500 18.30200 21.78200
H  -2.74800 15.65200 21.87700
H  -4.18300 18.95500 22.45300
H  -4.36800 17.23500 21.72600
H  -3.74600 18.61000 20.87000
H  -0.83600 16.14100 20.73500
H  -0.70500 14.70700 21.81200
H  1.37000 15.57100 22.35800
H  0.58800 17.08500 23.11200
H  0.99200 17.08900 21.45900
H  -1.56800 10.94900 26.19300
H  -1.39800 11.94100 24.79000
H  -3.02000 11.48000 25.15600
H  -3.17500 13.53400 30.72000
H  -0.13700 11.80700 33.27700
H  -1.42100 12.35100 34.20700
H  -0.24900 13.55200 33.51000
Mg 26.61800 49.69400 26.17000
C  24.56200 50.77700 28.83100
C  29.02400 48.78200 28.30400
C  28.42600 48.67500 23.37700
C  24.21200 50.90000 24.04200
N  26.66700 49.71000 28.31300
C  25.78200 50.18400 29.27200
C  26.26400 49.87100 30.66200
C  27.74900 49.29800 30.45700
C  27.86100 49.27600 28.94900
C  28.83300 50.10300 31.22300
C  25.29600 48.75800 31.32700
C  24.80800 49.23900 32.72000
H  25.66000 49.69300 33.89900
N  28.49800 48.86600 25.85200
C  29.30200 48.54900 26.87500
C  30.51700 47.91600 26.34200
C  30.39700 47.90300 24.90100
C  29.05300 48.48100 24.65200
C  31.70700 47.59600 27.26900
C  31.42500 47.46900 23.84000
O  31.26700 47.57100 22.61100
C  32.74300 46.82000 24.38500
N  26.45400 49.84300 23.97700
C  27.22600 49.18000 23.04500
C  26.69500 49.32100 21.66200
C  25.33400 49.99000 21.82800
C  25.32800 50.23800 23.40000
C  27.70500 49.95300 20.66800
C  24.24900 49.16600 21.27400
C  23.12700 49.88700 20.44700
N  24.80400 50.63300 26.38200
C  23.94400 51.12000 25.39100
C  22.86400 51.75600 26.00000
C  22.98000 51.62200 27.37100
C  24.21400 50.97700 27.55000
C  21.78800 52.43100 25.25800
C  22.45600 51.94600 28.62500
O  21.57700 52.69700 28.86600
C  23.39800 51.22000 29.62500
C  23.80700 52.24500 30.58500
O  24.57600 53.19400 30.35200
O  22.98400 52.14700 31.72000
C  23.44300 52.92600 32.92900
H  29.83700 48.57300 29.00300
H  29.05100 48.38200 22.53100
H  23.43500 51.23200 23.34900
H  26.29200 50.82000 31.19600
H  27.85300 48.23700 30.68500
H  28.42300 50.89000 31.85600
H  29.40800 50.77800 30.58900
H  29.40300 49.45000 31.88400
H  25.80100 47.79900 31.44900
H  24.36500 48.61000 30.78000
H  24.19800 48.38400 33.00900
H  24.18900 50.09400 32.44600
H  32.14200 46.66400 26.90900
H  31.43800 47.60400 28.32500
H  32.49700 48.32400 27.08500
H  33.36800 46.37600 23.61000
H  32.46300 46.01200 25.06200
H  33.37000 47.54900 24.89800
H  26.57600 48.33000 21.22300
H  25.40800 50.94200 21.30300
H  28.62600 50.28200 21.15000
H  27.23200 50.78800 20.15200
H  27.96400 49.26900 19.86000
H  23.76500 48.60500 22.07400
H  24.71100 48.44600 20.59800
H  23.18000 50.94600 20.70000
H  22.05700 49.71300 20.56200
H  23.30900 49.77300 19.37800
H  21.34400 51.68200 24.60300
H  22.20200 53.14600 24.54800
H  21.08500 52.90400 25.94500
H  22.80100 50.44400 30.10400
H  24.06400 52.31000 33.57800
H  22.49800 53.14000 33.42900
H  23.87700 53.91400 32.78000

