158

Mg 41.27600 9.75200 29.14100
C  43.38100 10.47800 31.83900
C  39.06700 8.40300 31.22800
C  39.71100 8.40200 26.42200
C  44.03700 10.45700 26.95200
N  41.26600 9.47700 31.30900
C  42.10800 9.96100 32.26000
C  41.52700 9.84700 33.68000
C  40.20200 9.14700 33.41100
C  40.12800 9.05900 31.86900
C  40.09200 7.71800 34.07400
C  41.33400 11.19700 34.42700
C  40.89700 11.18200 35.92100
H  41.99900 11.44100 36.93800
N  39.65700 8.52200 28.83600
C  38.78500 8.11300 29.84200
C  37.65800 7.38000 29.30200
C  37.77500 7.64000 27.87000
C  39.13900 8.17500 27.66100
C  36.57100 6.72900 30.14500
C  36.77100 7.40800 26.76500
O  36.97200 7.65900 25.57200
C  35.43400 6.87500 27.05900
N  41.88000 9.37200 26.95900
C  40.95600 8.94600 26.04400
C  41.42000 9.17400 24.58000
C  42.72600 9.88700 24.82800
C  42.92300 9.93400 26.33400
C  41.57200 7.81900 23.79400
C  42.57600 11.28600 24.21600
C  42.09000 12.47500 25.14600
N  43.27700 10.36200 29.30400
C  44.23100 10.66900 28.34700
C  45.42500 11.12800 28.95900
C  45.13500 11.10200 30.33300
C  43.82300 10.65800 30.50400
C  46.69400 11.38200 28.23700
C  45.70700 11.30200 31.63500
O  46.84600 11.63300 32.02900
C  44.55100 10.89700 32.69700
C  44.92800 9.93100 33.69600
O  44.99100 8.74300 33.46600
O  45.24600 10.54300 34.85200
C  45.66400 9.63700 35.92700
H  38.41600 7.91200 31.95400
H  39.27800 7.84900 25.58600
H  44.75200 10.87400 26.23900
H  42.16400 9.16800 34.24800
H  39.31900 9.77100 33.54100
H  40.97500 7.41800 34.63800
H  39.92300 6.88800 33.38700
H  39.18300 7.94800 34.63000
H  40.68100 11.92500 33.94400
H  42.32700 11.63700 34.34100
H  40.43200 10.24400 36.22400
H  40.08500 11.90000 36.03600
H  36.79200 6.83500 31.20700
H  36.36700 5.68000 29.92600
H  35.64700 7.28700 29.99400
H  34.85100 6.88200 26.13800
H  34.93400 7.62100 27.67600
H  35.50800 5.89400 27.52800
H  40.71600 9.68500 23.92400
H  43.55400 9.43000 24.28600
H  41.44300 6.96500 24.46000
H  42.55300 7.67000 23.34200
H  40.78500 7.92500 23.04900
H  42.03600 11.40000 23.27600
H  43.59600 11.55100 23.93700
H  42.96700 13.06100 25.41900
H  41.56600 12.12700 26.03700
H  41.41300 13.08300 24.54500
H  47.52400 11.23400 28.92700
H  46.91100 12.36000 27.80700
H  46.75900 10.73000 27.36600
H  44.34200 11.81400 33.24900
H  44.73600 9.31300 36.39900
H  46.32300 10.16500 36.61600
H  46.29800 8.82900 35.56400
Mg 26.86600 49.31100 26.42800
C  24.80500 50.08600 29.03500
C  29.29400 48.45600 28.76500
C  29.24100 49.20100 23.91000
C  24.59300 50.36600 24.12400
N  27.00200 49.33700 28.71100
C  26.03700 49.61400 29.52700
C  26.27000 49.36700 30.95400
C  27.74400 48.73600 30.83800
C  28.04000 48.84000 29.33000
C  28.87900 49.47100 31.71600
C  25.18700 48.51600 31.76000
C  25.62500 47.92700 33.09700
H  25.77700 48.89100 34.27400
N  28.92900 48.84500 26.38300
C  29.72200 48.40400 27.40900
C  31.06700 48.03100 26.84800
C  31.03700 48.24000 25.42600
C  29.69400 48.82000 25.18100
C  32.22400 47.59200 27.70800
C  32.11600 47.95300 24.43700
O  31.96700 48.06800 23.23200
C  33.40800 47.30900 24.78200
N  26.86800 49.69200 24.32900
C  27.92200 49.50200 23.47300
C  27.52300 49.66500 21.98500
C  26.02700 49.70600 22.06100
C  25.76500 49.90000 23.56700
C  28.16700 50.89200 21.21200
C  25.23700 48.54300 21.58100
C  23.73600 48.55800 21.38600
N  25.08100 50.14000 26.50400
C  24.26400 50.61700 25.49200
C  23.11800 51.16900 26.07800
C  23.25700 50.91700 27.48600
C  24.50200 50.36200 27.66500
C  21.94200 51.82200 25.40800
C  22.61800 51.06300 28.74000
O  21.49100 51.56800 28.87500
C  23.54300 50.53300 29.84100
C  23.88900 51.54600 30.82900
O  24.83900 52.30600 30.80200
O  22.93700 51.60500 31.79700
C  23.29300 52.56600 32.94900
H  30.05700 47.98100 29.38500
H  29.94900 49.09200 23.08700
H  23.79400 50.60000 23.41800
H  26.17900 50.27300 31.55300
H  27.64000 47.67400 31.05800
H  29.58600 48.81100 32.21900
H  28.49700 50.07400 32.54000
H  29.47500 50.16000 31.11800
H  24.83900 47.66900 31.17000
H  24.31200 49.12000 32.00100
H  26.54900 47.34900 33.09000
H  24.88900 47.22000 33.47900
H  32.19400 46.50300 27.72200
H  32.18600 47.99900 28.71800
H  33.12700 47.98800 27.24400
H  34.00700 48.11700 25.20400
H  33.99000 46.94300 23.93600
H  33.28200 46.44700 25.43600
H  27.84100 48.72400 21.53600
H  25.58800 50.58300 21.58500
H  29.01800 51.26600 21.78100
H  27.41400 51.64500 20.97800
H  28.80000 50.52000 20.40600
H  25.52100 47.69000 22.19800
H  25.58500 48.23600 20.59500
H  23.29800 49.55000 21.49300
H  23.33300 47.95700 22.20200
H  23.47800 48.11700 20.42300
H  21.91400 52.81300 25.86100
H  20.99100 51.30300 25.28900
H  22.17000 52.01700 24.36000
H  23.08000 49.66800 30.31600
H  23.10200 53.58200 32.60200
H  24.31000 52.46500 33.32700
H  22.51400 52.52000 33.71000

