158

Mg 1.18200 8.27200 25.71100
C  1.90000 10.29400 28.46800
C  1.57200 5.53500 27.66700
C  0.96400 6.41300 22.88500
C  1.42800 11.20500 23.74600
N  2.01000 7.96500 27.77300
C  1.93100 8.92400 28.76200
C  1.95200 8.28600 30.17400
C  2.07700 6.76600 29.83100
C  1.91500 6.75600 28.35100
C  3.38800 6.02400 30.27900
C  0.67600 8.57000 31.02400
C  1.04100 9.16200 32.39700
H  2.25400 8.82900 33.21200
N  1.10800 6.29400 25.29500
C  1.29900 5.31400 26.24600
C  1.14500 4.03300 25.66800
C  0.79700 4.26000 24.26100
C  0.91700 5.75300 24.07800
C  1.28400 2.78200 26.50000
C  0.46500 3.30500 23.15800
O  0.42300 3.54800 21.93500
C  0.25000 1.87200 23.58900
N  1.12400 8.75200 23.59500
C  0.97800 7.73700 22.62500
C  0.92000 8.35500 21.25800
C  0.83700 9.91400 21.53100
C  1.17600 9.98500 23.05600
C  2.16900 7.89500 20.42300
C  -0.50700 10.55600 21.24300
C  -0.48100 12.00300 20.66700
N  1.53300 10.34400 26.02400
C  1.62100 11.40100 25.13900
C  1.91200 12.61700 25.78300
C  1.96800 12.23200 27.14300
C  1.77200 10.82300 27.23500
C  2.01200 13.92300 25.11900
C  2.07100 12.73600 28.46300
O  2.15100 13.93900 28.73700
C  1.95200 11.53300 29.39100
C  3.13600 11.72700 30.27000
O  4.16900 11.11300 30.10900
O  2.96100 12.64300 31.27400
C  4.22100 12.75900 32.07700
H  1.51000 4.69500 28.36100
H  0.97400 5.86200 21.94200
H  1.54400 12.06200 23.08000
H  2.84800 8.71400 30.62300
H  1.24500 6.21400 30.26800
H  3.88700 6.61400 31.04800
H  4.10600 6.06200 29.46000
H  3.10600 5.00700 30.55100
H  0.16800 7.64200 31.28500
H  -0.00500 9.13100 30.38500
H  0.19900 8.97200 33.06200
H  1.02900 10.21300 32.10900
H  2.24200 2.70200 27.01400
H  1.04100 1.81200 26.06600
H  0.55500 2.98000 27.28600
H  1.23200 1.42000 23.73200
H  -0.22100 1.32400 22.77300
H  -0.44800 1.90000 24.42600
H  0.01500 8.03200 20.74300
H  1.55400 10.36800 20.84700
H  2.89100 7.35000 21.03000
H  2.51900 8.75000 19.84300
H  1.76000 7.13000 19.76300
H  -0.99500 10.72400 22.20300
H  -1.19400 9.90600 20.70100
H  -1.07300 11.98500 19.75200
H  0.52600 12.25300 20.33200
H  -0.82900 12.78400 21.34300
H  2.34300 13.80400 24.08700
H  2.68000 14.57600 25.68000
H  1.02700 14.38600 25.06700
H  1.02200 11.72200 29.92700
H  4.01700 13.51600 32.83300
H  5.14400 13.02500 31.56200
H  4.38000 11.82400 32.61500
Mg 26.05600 -0.25400 29.56600
C  28.19500 -0.52700 32.37400
C  23.53100 0.32300 31.70400
C  24.15100 -0.11200 26.89300
C  28.72000 -1.52100 27.62300
N  25.90900 -0.16600 31.77500
C  26.91200 -0.11600 32.68800
C  26.43900 0.33800 34.08100
C  24.90200 0.41200 33.91500
C  24.76200 0.21900 32.37000
C  24.05800 -0.65200 34.71800
C  27.14300 1.67800 34.45300
C  28.07300 1.56300 35.71600
H  27.88900 2.57900 36.87400
N  24.08900 0.11100 29.33300
C  23.16100 0.32900 30.31400
C  21.88500 0.57300 29.74700
C  21.97600 0.40000 28.36300
C  23.43600 0.10000 28.09200
C  20.69800 1.02800 30.62100
C  20.89300 0.44100 27.25600
O  21.17800 0.12500 26.08900
C  19.59900 1.09400 27.54000
N  26.41300 -0.66000 27.51500
C  25.46800 -0.45800 26.63100
C  26.00500 -0.69500 25.12300
C  27.44200 -1.12100 25.41400
C  27.59500 -1.11600 26.90500
C  25.13400 -1.69400 24.19600
C  28.52400 -0.26000 24.66200
C  28.56500 1.26800 24.86900
N  28.04100 -0.84500 29.89000
C  28.98100 -1.33500 29.01200
C  30.28600 -1.49500 29.69700
C  30.00400 -1.12700 31.03300
C  28.63900 -0.82900 31.07300
C  31.52300 -1.94700 29.10700
C  30.58200 -0.96400 32.35600
O  31.65400 -1.25400 32.82100
C  29.47000 -0.57600 33.24900
C  29.41200 -1.58100 34.31900
O  28.88000 -2.67300 34.25700
O  30.09800 -1.17100 35.43200
C  30.23600 -2.01800 36.64500
H  22.74200 0.58100 32.41400
H  23.47800 -0.00600 26.04000
H  29.63800 -1.71700 27.06600
H  26.76800 -0.40400 34.80800
H  24.55100 1.34800 34.35000
H  24.64700 -1.05700 35.54100
H  23.70900 -1.48800 34.11200
H  23.13000 -0.22300 35.09600
H  26.42700 2.48200 34.62500
H  27.75900 2.03200 33.62700
H  29.10200 1.70900 35.39000
H  28.07400 0.50900 35.99100
H  20.45200 2.07000 30.42000
H  20.88300 1.07700 31.69400
H  19.86700 0.35800 30.39500
H  19.55200 2.10200 27.95200
H  19.01300 0.45000 28.19600
H  19.05000 1.17500 26.60200
H  25.98900 0.25200 24.58200
H  27.60900 -2.15100 25.09800
H  24.21100 -1.84900 24.75500
H  25.58000 -2.67300 24.02500
H  24.80200 -1.22500 23.26900
H  28.22300 -0.26000 23.61400
H  29.48700 -0.72200 24.88000
H  27.87000 1.63400 25.62500
H  28.15000 1.75400 23.98600
H  29.61200 1.56100 24.94400
H  32.33200 -1.64400 29.77100
H  31.55400 -1.60200 28.07300
H  31.56500 -3.03600 29.14900
H  29.85100 0.40700 33.52500
H  29.64900 -1.53800 37.42700
H  31.25400 -2.08700 37.02900
H  29.95000 -3.05000 36.44400

