158

Mg 0.12000 7.39400 27.23600
C  0.77100 9.36900 30.07400
C  0.69700 4.58200 29.13200
C  -0.12200 5.60000 24.38400
C  0.08200 10.37700 25.38600
N  0.62400 7.06400 29.41100
C  0.66000 8.02100 30.36400
C  0.71600 7.36300 31.77500
C  0.97300 5.80800 31.36300
C  0.77400 5.81000 29.87000
C  2.48300 5.35900 31.49800
C  -0.65300 7.57600 32.52500
C  -0.53200 8.15400 33.86800
H  0.69500 7.88600 34.71600
N  0.16100 5.34700 26.82500
C  0.36100 4.32200 27.77000
C  0.22800 3.09300 27.06800
C  -0.00900 3.37600 25.67800
C  0.04300 4.80900 25.59000
C  0.32900 1.70400 27.87300
C  -0.03300 2.36700 24.63200
O  -0.03500 2.74800 23.47900
C  -0.23600 0.90700 24.93400
N  -0.24100 7.89800 25.15200
C  -0.21700 6.96700 24.14300
C  -0.19900 7.59700 22.75000
C  -0.40200 9.13200 23.10100
C  -0.22100 9.15600 24.65600
C  1.05500 7.41100 21.85400
C  -1.78300 9.73400 22.72700
C  -1.87500 10.22900 21.32200
N  0.32400 9.40300 27.57000
C  0.40300 10.51700 26.75000
C  0.71900 11.71400 27.42200
C  0.83600 11.30700 28.73800
C  0.60800 9.91700 28.80800
C  0.76400 13.02200 26.76500
C  1.10200 11.75900 30.07000
O  1.30300 12.91200 30.42700
C  0.95900 10.48200 31.04300
C  2.22000 10.48700 31.81100
O  3.30200 9.96700 31.51200
O  1.91000 11.15400 32.95700
C  3.06500 11.56600 33.80300
H  0.77500 3.63100 29.66300
H  -0.13200 5.09500 23.41500
H  0.18400 11.22400 24.70400
H  1.60100 7.75500 32.27700
H  0.30500 5.10100 31.85600
H  2.62000 4.27900 31.54200
H  2.92800 5.83000 32.37500
H  3.18200 5.55800 30.68600
H  -1.23200 6.65900 32.62600
H  -1.25700 8.29200 31.96700
H  -1.21200 7.56800 34.48500
H  -0.91300 9.17500 33.84600
H  -0.40100 0.95200 27.57400
H  0.15600 1.83500 28.94200
H  1.32900 1.30600 27.69700
H  0.42100 0.34800 25.60000
H  -0.19400 0.42400 23.95800
H  -1.25500 0.77100 25.29800
H  -1.09600 7.31400 22.19900
H  0.39200 9.74200 22.67000
H  0.69100 6.81700 21.01500
H  1.81400 6.89800 22.44400
H  1.43100 8.38800 21.55000
H  -1.96800 10.51300 23.46600
H  -2.55200 8.96900 22.83200
H  -0.93400 10.02600 20.81000
H  -2.14700 11.27900 21.22100
H  -2.68800 9.72600 20.79800
H  1.33800 13.69900 27.39700
H  -0.25500 13.36800 26.58600
H  1.25400 12.91600 25.79700
H  0.11700 10.75700 31.67800
H  2.64300 11.89700 34.75100
H  3.59300 12.36200 33.27700
H  3.81700 10.81200 34.03400
Mg -11.97300 16.24000 42.76900
C  -9.03500 14.47500 42.16700
C  -10.45800 18.91400 40.92300
C  -15.01100 17.56900 42.22800
C  -13.34000 13.32500 44.04400
N  -10.02500 16.57900 41.52000
C  -8.95500 15.77200 41.55300
C  -7.77000 16.39500 40.78100
C  -8.19100 17.85200 40.54100
C  -9.58600 17.84600 41.19400
C  -7.16200 18.89300 41.12900
C  -7.53100 15.67300 39.46700
C  -6.09200 15.33100 39.03500
H  -5.52900 16.13000 37.83600
N  -12.57700 18.09100 41.98000
C  -11.84200 18.97300 41.22000
C  -12.73100 20.10600 40.80000
C  -14.07600 19.67900 41.17100
C  -13.93900 18.45300 41.88300
C  -12.32200 21.28100 39.89700
C  -15.32500 20.49000 40.80800
O  -15.25300 21.52000 40.12200
C  -16.68200 20.15200 41.27900
N  -13.94300 15.55200 43.09100
C  -14.99000 16.31200 42.83500
C  -16.24500 15.50500 43.17000
C  -15.62500 14.46700 44.13500
C  -14.21700 14.37300 43.73400
C  -17.42200 16.40600 43.71600
C  -16.41400 13.13600 44.22600
C  -16.37400 12.09700 43.09800
N  -11.32800 14.31600 43.11500
C  -11.99900 13.28900 43.71200
C  -11.13500 12.12500 43.89300
C  -9.93900 12.56000 43.30600
C  -10.07600 13.90200 42.82800
C  -11.37100 10.78200 44.50000
C  -8.62300 12.22900 43.06700
O  -7.99900 11.23900 43.42500
C  -7.95200 13.39900 42.31800
C  -6.82800 13.93900 43.14700
O  -6.95300 14.43900 44.23900
O  -5.64100 13.69700 42.44300
C  -4.35600 14.07200 43.07900
H  -9.99700 19.73900 40.37600
H  -15.97200 17.81500 41.77200
H  -13.58700 12.44700 44.64400
H  -6.86800 16.24800 41.37600
H  -8.38300 17.98000 39.47600
H  -6.62700 18.43600 41.96100
H  -7.49500 19.84200 41.55000
H  -6.40600 19.05400 40.36000
H  -8.04100 16.04300 38.57800
H  -7.93400 14.66900 39.60400
H  -6.00300 14.24700 38.96300
H  -5.48900 15.73400 39.85000
H  -13.08000 21.49100 39.14300
H  -11.38800 21.06400 39.37700
H  -12.23000 22.18700 40.49400
H  -16.74500 19.79500 42.30700
H  -17.10500 19.39000 40.62400
H  -17.29900 21.05000 41.31100
H  -16.64500 14.96500 42.31100
H  -15.67300 14.83000 45.16200
H  -17.38300 17.43500 43.35900
H  -17.55900 16.37200 44.79700
H  -18.39600 16.03000 43.40400
H  -17.44900 13.42000 44.41600
H  -16.16100 12.57600 45.12700
H  -17.27400 11.92700 42.50700
H  -16.05000 11.16500 43.56000
H  -15.54300 12.25800 42.41100
H  -12.02900 10.14700 43.90700
H  -11.76900 10.90200 45.50800
H  -10.45500 10.21000 44.64400
H  -7.42500 13.06600 41.42300
H  -4.49300 15.14900 43.17400
H  -3.53200 13.79000 42.42400
H  -4.20600 13.68300 44.08700

