158

Mg 35.30200 2.65900 30.35300
C  32.91800 3.92700 32.50800
C  37.56200 2.72100 32.95900
C  37.79700 2.00200 28.16400
C  33.05900 3.05300 27.75300
N  35.24300 3.37100 32.42200
C  34.16400 3.65200 33.15000
C  34.42300 3.70000 34.64000
C  35.97400 3.55900 34.66500
C  36.32600 3.15000 33.24900
C  36.73500 4.87300 35.02700
C  33.54100 2.57500 35.34300
C  33.71100 2.31200 36.83400
H  34.41400 3.32300 37.73300
N  37.34900 2.42900 30.51500
C  38.07600 2.34500 31.69800
C  39.39600 1.85400 31.38000
C  39.53300 1.81400 29.92200
C  38.14900 2.01600 29.46900
C  40.35800 1.48200 32.46300
C  40.79900 1.51200 29.08900
O  40.86200 1.57700 27.83200
C  42.11600 1.16700 29.74400
N  35.43200 2.74700 28.21600
C  36.58300 2.27500 27.55400
C  36.39200 2.08200 26.05400
C  34.77000 2.16400 25.95700
C  34.32900 2.68500 27.40000
C  37.25800 3.10600 25.17800
C  34.07300 0.87000 25.47400
C  32.84600 1.09500 24.55600
N  33.41900 3.39000 30.09400
C  32.55400 3.35600 29.03500
C  31.26600 3.73000 29.43700
C  31.35600 4.04100 30.81400
C  32.64700 3.78600 31.15300
C  29.97900 3.66700 28.61400
C  30.57300 4.53000 31.90000
O  29.43200 4.93200 31.97500
C  31.52900 4.35600 33.13400
C  31.57200 5.70400 33.80200
O  32.09600 6.72200 33.34200
O  31.14600 5.60500 35.09300
C  31.40200 6.73800 35.91600
H  38.25400 2.63000 33.79800
H  38.44100 1.48900 27.44800
H  32.31500 3.00000 26.95500
H  34.14200 4.67900 35.03000
H  36.28400 2.79100 35.37500
H  36.14900 5.51500 35.68500
H  37.04200 5.46200 34.16400
H  37.63100 4.50600 35.52900
H  33.66300 1.63400 34.80600
H  32.50000 2.88900 35.26300
H  34.14000 1.31900 36.97100
H  32.69200 2.16300 37.18900
H  41.16400 2.20600 32.33400
H  40.96500 0.64600 32.11600
H  39.91100 1.24900 33.42900
H  42.17200 0.19300 30.22900
H  42.32400 1.88200 30.54000
H  42.95100 1.15100 29.04400
H  36.43900 1.00700 25.87800
H  34.54600 2.98800 25.27900
H  38.20300 2.65300 24.87900
H  37.44100 4.01700 25.74800
H  36.83100 3.50200 24.25600
H  33.72600 0.21800 26.27600
H  34.79500 0.30900 24.88100
H  32.19100 0.30200 24.91600
H  33.34100 0.95000 23.59600
H  32.38600 2.08200 24.50200
H  29.11400 3.29400 29.16200
H  30.06400 3.10300 27.68500
H  29.74100 4.69300 28.33200
H  31.17500 3.58600 33.81900
H  32.37100 7.23100 35.83200
H  31.39600 6.33000 36.92700
H  30.64700 7.52100 35.85400
Mg -10.97100 37.85200 41.42700
C  -8.65400 35.19600 41.27900
C  -8.50500 39.85500 39.96300
C  -13.19600 40.16500 41.12600
C  -13.39900 35.40500 42.40400
N  -8.80100 37.57000 40.60100
C  -8.13200 36.37500 40.71200
C  -7.00100 36.47900 39.70400
C  -6.73800 38.01200 39.67600
C  -8.07500 38.54400 40.15700
C  -5.43000 38.39000 40.47100
C  -7.13000 35.76900 38.40600
C  -6.05700 34.80100 37.86800
H  -5.33800 35.32500 36.56900
N  -10.84100 39.79900 40.80800
C  -9.76200 40.48300 40.22100
C  -10.15600 41.88900 40.04800
C  -11.56200 41.94800 40.28300
C  -11.92900 40.57700 40.77600
C  -9.20400 43.02200 39.65000
C  -12.51500 43.16000 40.12100
O  -11.97200 44.12800 39.69100
C  -14.04100 43.20000 40.18000
N  -13.07800 37.77300 41.81300
C  -13.74900 38.92200 41.60000
C  -15.28000 38.60600 41.62900
C  -15.29000 37.09600 41.97000
C  -13.85900 36.71600 42.08100
C  -16.10200 39.58400 42.54500
C  -16.02100 36.06700 41.13200
C  -17.08100 35.29200 41.90100
N  -11.07700 35.73600 41.82300
C  -12.06800 34.94200 42.35000
C  -11.61400 33.64800 42.56800
C  -10.25900 33.66700 42.10600
C  -9.96500 35.01700 41.73600
C  -12.42200 32.48700 43.12700
C  -9.11400 32.89100 41.93700
O  -8.86000 31.75100 42.21800
C  -8.09500 33.79000 41.20600
C  -6.75700 33.65600 41.83900
O  -5.88000 32.95200 41.36000
O  -6.82100 34.13500 43.15000
C  -5.62200 34.00000 44.00100
H  -7.69000 40.45300 39.54900
H  -13.99700 40.88900 40.95800
H  -14.16000 34.69000 42.72300
H  -6.19900 35.97600 40.24400
H  -6.63100 38.39600 38.66100
H  -4.65600 37.62300 40.47000
H  -5.69900 38.58300 41.51000
H  -5.07800 39.28200 39.95400
H  -7.30900 36.53300 37.65000
H  -8.05600 35.19500 38.41800
H  -6.55100 33.85700 37.63600
H  -5.30100 34.67400 38.64200
H  -8.19600 42.65900 39.45100
H  -9.32900 43.90800 40.27300
H  -9.43700 43.47500 38.68700
H  -14.21700 44.17600 39.72600
H  -14.47100 43.14200 41.18000
H  -14.47700 42.43800 39.53400
H  -15.62000 38.75600 40.60400
H  -15.70000 36.97500 42.97300
H  -16.44200 40.39100 41.89600
H  -15.44800 39.89300 43.36000
H  -16.95900 38.96700 42.81800
H  -15.51500 35.28300 40.56900
H  -16.60100 36.58600 40.36900
H  -18.02200 35.39600 41.36100
H  -17.18400 35.60400 42.94000
H  -16.84600 34.22800 41.89200
H  -13.43400 32.55200 42.72700
H  -12.27800 32.43800 44.20600
H  -11.99300 31.55600 42.75600
H  -8.03600 33.45800 40.16900
H  -5.26800 35.03000 44.03800
H  -4.78800 33.38700 43.65800
H  -5.93100 33.71100 45.00600

