158

Mg 2.50500 -1.38700 43.59500
C  5.81900 -0.75600 43.27500
C  1.75100 1.27700 41.61900
C  -0.65600 -2.37600 43.77500
C  3.38800 -4.47700 45.35000
N  3.65300 0.14000 42.52900
C  5.01900 0.16400 42.51300
C  5.51100 1.28800 41.55600
C  4.18400 1.94200 41.03100
C  3.09100 1.12500 41.73000
C  4.11300 3.47100 41.36700
C  6.34100 0.74700 40.28000
C  7.56200 1.60500 39.82600
H  7.41300 2.50100 38.59300
N  0.68200 -0.53700 42.88300
C  0.58200 0.56900 42.11300
C  -0.86900 0.73700 41.69700
C  -1.60600 -0.29800 42.32800
C  -0.56000 -1.09900 43.10400
C  -1.38500 1.72800 40.60500
C  -3.07100 -0.49400 42.22700
O  -3.75500 0.22500 41.46700
C  -3.77400 -1.75000 42.75800
N  1.50600 -3.12700 44.47600
C  0.18900 -3.26100 44.36800
C  -0.34200 -4.51400 45.06900
C  0.95200 -5.22700 45.48400
C  2.01400 -4.21800 45.14200
C  -1.26900 -4.17800 46.19300
C  1.21600 -6.55300 44.72800
C  1.73200 -7.67700 45.61300
N  4.21100 -2.44200 44.29300
C  4.37600 -3.63000 44.93700
C  5.80200 -3.84800 45.12000
C  6.46100 -2.76500 44.50300
C  5.41200 -1.86300 43.98200
C  6.46400 -5.09900 45.89500
C  7.69700 -2.08200 44.16100
O  8.88100 -2.32500 44.35300
C  7.34900 -0.82000 43.43300
C  7.97500 0.29400 44.16400
O  7.67900 0.62800 45.29700
O  8.90400 0.96400 43.37300
C  9.30200 2.35000 43.83800
H  1.38900 1.96800 40.85500
H  -1.69800 -2.69300 43.86400
H  3.66300 -5.45900 45.74200
H  6.11700 2.01800 42.09300
H  4.00600 1.82100 39.96300
H  4.05700 4.13600 40.50500
H  4.91800 3.69100 42.06900
H  3.14400 3.67800 41.81900
H  5.60200 0.68100 39.48100
H  6.72600 -0.25800 40.45600
H  8.33100 0.85600 39.63600
H  7.96600 2.15200 40.67700
H  -1.85400 1.31500 39.71200
H  -0.52500 2.27800 40.22400
H  -1.96300 2.50800 41.10200
H  -4.81100 -1.72800 42.42300
H  -3.72200 -1.89900 43.83700
H  -3.18600 -2.50900 42.24300
H  -0.99700 -5.02900 44.36700
H  1.02700 -5.42100 46.55400
H  -0.98100 -3.18900 46.55000
H  -1.10300 -4.89400 46.99700
H  -2.31700 -4.23300 45.90100
H  1.96500 -6.25000 43.99600
H  0.32700 -6.84900 44.17100
H  2.70400 -8.03100 45.27000
H  1.10000 -8.56400 45.56600
H  1.87000 -7.42700 46.66400
H  6.12000 -6.05100 45.48900
H  6.08200 -5.02400 46.91300
H  7.55300 -5.05100 45.90100
H  7.88500 -0.81900 42.48400
H  9.68500 2.94200 43.00600
H  10.10500 2.13100 44.54200
H  8.55700 2.93900 44.37300
Mg 16.40800 52.25500 25.31800
C  18.04100 51.21500 28.19700
C  13.59000 52.94200 27.08600
C  15.00200 53.15700 22.36000
C  19.02300 50.73700 23.43800
N  15.99300 52.16900 27.43600
C  16.83400 51.86300 28.45000
C  16.22300 52.14000 29.86700
C  14.78900 52.61700 29.46500
C  14.74200 52.51600 27.86200
C  13.59900 51.81900 30.20300
C  17.07900 53.20800 30.69900
C  17.73000 52.80200 32.05100
H  16.88300 52.01800 33.02400
N  14.57300 52.95600 24.80900
C  13.51000 53.20500 25.66600
C  12.36800 53.72900 24.92400
C  12.76700 53.87700 23.53100
C  14.20700 53.35900 23.49100
C  11.01500 54.01900 25.62900
C  12.03000 54.36700 22.28800
O  12.52300 54.62200 21.16000
C  10.65200 54.77900 22.40900
N  16.98000 52.07400 23.26500
C  16.23800 52.57600 22.20700
C  16.86300 52.20800 20.81500
C  18.28300 51.73100 21.26700
C  18.08700 51.42700 22.75400
C  16.02800 51.11300 20.10200
C  19.37700 52.79800 20.95200
C  20.06700 52.57900 19.62600
N  18.19100 51.14800 25.67100
C  19.11500 50.57300 24.83700
C  20.08000 49.86200 25.58100
C  19.65900 50.10200 26.94000
C  18.54600 50.92100 26.93000
C  21.37600 49.16200 25.21500
C  20.05400 49.73400 28.28200
O  20.96800 49.05000 28.71600
C  18.90300 50.45100 29.25800
C  18.20500 49.31600 29.88300
O  17.17600 48.83400 29.51000
O  18.83200 48.96500 31.05900
C  18.12100 48.00300 31.88500
H  12.73000 53.21000 27.70300
H  14.58500 53.46100 21.39800
H  19.91700 50.53600 22.84200
H  16.07700 51.19600 30.39100
H  14.59800 53.65500 29.73600
H  14.01900 51.15400 30.95800
H  13.03600 51.26500 29.45100
H  12.91700 52.52400 30.67600
H  16.52600 54.14700 30.71700
H  17.87900 53.52500 30.03000
H  18.17600 53.59900 32.64500
H  18.65600 52.26800 31.84000
H  10.34400 53.16400 25.54100
H  10.55000 54.91300 25.21300
H  11.09000 54.20800 26.70000
H  10.16000 55.10200 21.49200
H  10.59800 55.68100 23.01900
H  10.23300 54.00500 23.05300
H  17.06300 53.00400 20.09900
H  18.68900 50.84200 20.78500
H  15.70200 51.41900 19.10900
H  15.22900 50.71900 20.73000
H  16.68300 50.25200 19.97100
H  20.03700 52.94600 21.80600
H  18.91400 53.77600 20.82100
H  21.13500 52.41500 19.77000
H  19.99800 53.44000 18.96200
H  19.51200 51.80000 19.10300
H  21.74600 49.53600 24.26100
H  21.37100 48.07200 25.20400
H  22.15800 49.44600 25.92000
H  19.45100 51.00900 30.01700
H  17.89900 48.48100 32.83900
H  18.84700 47.22500 32.12200
H  17.16600 47.58400 31.56900

