158

Mg 24.20500 -5.19100 45.72000
C  26.05200 -2.63300 44.13000
C  21.57000 -4.29300 43.72100
C  22.74900 -8.07400 46.56600
C  27.18400 -6.20800 47.39900
N  23.94800 -3.71500 43.96600
C  24.79100 -2.74200 43.62800
C  24.19300 -1.95100 42.47000
C  22.62600 -2.16100 42.72800
C  22.70500 -3.45500 43.50900
C  22.01300 -0.90700 43.47900
C  24.72600 -2.30800 41.06300
C  24.98400 -1.06000 40.18300
H  24.96300 -1.48000 38.73400
N  22.39700 -6.09100 45.20100
C  21.40400 -5.53000 44.40000
C  20.25200 -6.41900 44.30900
C  20.58000 -7.53400 45.14000
C  21.95400 -7.27100 45.72000
C  19.04100 -6.16400 43.45800
C  19.51900 -8.64500 45.48200
O  18.37700 -8.61400 45.00500
C  19.89300 -9.65700 46.50300
N  24.87400 -6.86500 46.96200
C  23.99000 -7.98000 47.13700
C  24.68700 -9.08200 47.90300
C  26.08700 -8.46000 48.22200
C  26.07800 -7.11200 47.46800
C  23.84400 -9.59100 49.07100
C  27.38100 -9.34800 47.91300
C  28.25800 -9.67900 49.15800
N  26.21900 -4.57000 45.83600
C  27.29400 -5.02100 46.63000
C  28.31500 -4.14500 46.42700
C  27.87500 -3.17900 45.49500
C  26.58900 -3.51800 45.13000
C  29.55100 -4.13400 47.11100
C  28.28700 -2.01800 44.77400
O  29.31600 -1.44200 44.70200
C  27.14000 -1.61700 43.81100
C  26.85500 -0.21000 44.03400
O  26.21600 0.20600 44.97500
O  27.46500 0.58000 43.07300
C  27.36400 2.01200 43.21200
H  20.63100 -3.89400 43.33200
H  22.25000 -8.99000 46.88800
H  28.04200 -6.64500 47.91500
H  24.45700 -0.90300 42.61800
H  22.16800 -2.40600 41.77000
H  21.11300 -0.54400 42.98300
H  22.70700 -0.06700 43.51200
H  21.86100 -1.26000 44.49900
H  24.08300 -2.99300 40.50900
H  25.67900 -2.83600 41.06800
H  26.01200 -0.81400 40.44900
H  24.36400 -0.18000 40.35500
H  19.33900 -5.74000 42.49900
H  18.41000 -5.44300 43.97900
H  18.43300 -6.98800 43.08600
H  18.99900 -10.28000 46.54200
H  20.14500 -9.27100 47.49000
H  20.74400 -10.20000 46.09300
H  24.71400 -9.93300 47.22300
H  26.06100 -8.13000 49.26100
H  24.28100 -9.48100 50.06400
H  23.55800 -10.62900 48.90100
H  23.00900 -8.89300 49.12800
H  27.85600 -8.93200 47.02500
H  27.09800 -10.37300 47.67200
H  29.15000 -10.19900 48.80700
H  27.72000 -10.22200 49.93400
H  28.48600 -8.73300 49.64900
H  30.04200 -3.16400 47.19800
H  30.27100 -4.61900 46.45200
H  29.38100 -4.64000 48.06100
H  27.56000 -1.73100 42.81100
H  26.75400 2.37400 42.38500
H  28.35400 2.46600 43.25700
H  26.76700 2.25800 44.09000
Mg -4.54200 25.24500 26.28300
C  -3.21500 26.66600 29.23100
C  -6.50000 23.16200 28.24600
C  -5.56100 23.85300 23.50000
C  -2.30200 27.31400 24.47500
N  -4.68000 24.92500 28.48900
C  -4.18700 25.68800 29.48600
C  -4.72700 25.25600 30.84400
C  -5.62700 23.99900 30.51100
C  -5.69300 24.04400 28.97700
C  -5.28200 22.66200 31.10400
C  -5.47200 26.42800 31.54900
C  -5.48000 26.43700 33.13700
H  -4.89800 25.17200 33.95000
N  -5.78100 23.61400 25.90500
C  -6.48800 22.88800 26.84000
C  -7.33500 21.89600 26.15200
C  -7.08600 22.10200 24.77100
C  -6.12500 23.21800 24.64700
C  -8.29900 20.95100 26.86700
C  -7.71400 21.33700 23.56600
O  -7.24600 21.46000 22.45600
C  -8.79700 20.34700 23.72900
N  -4.01400 25.50500 24.31500
C  -4.52900 24.78000 23.27000
C  -3.92700 25.16400 21.91200
C  -3.00700 26.36900 22.34100
C  -3.15800 26.50900 23.82700
C  -3.16300 24.04000 21.24600
C  -3.26200 27.68200 21.61500
C  -2.21800 28.02300 20.52400
N  -3.10800 26.75500 26.68500
C  -2.27700 27.47200 25.86300
C  -1.49100 28.38900 26.60000
C  -1.80700 28.07300 27.95600
C  -2.84200 27.08600 27.96600
C  -0.38500 29.30000 26.01900
C  -1.48900 28.44200 29.33700
O  -0.68900 29.28200 29.76000
C  -2.39800 27.48700 30.24800
C  -1.47900 26.58300 30.91600
O  -0.69500 25.76400 30.34500
O  -1.69000 26.60500 32.26900
C  -0.68500 25.99300 33.15800
H  -7.12800 22.45900 28.79700
H  -5.92700 23.44200 22.55700
H  -1.66300 27.93800 23.84700
H  -3.96900 25.01600 31.59000
H  -6.65700 24.22000 30.79500
H  -5.20600 21.90100 30.32800
H  -6.02000 22.36100 31.84800
H  -4.39100 22.70900 31.73100
H  -6.52000 26.35500 31.26100
H  -5.17500 27.35900 31.06700
H  -6.49900 26.58500 33.49300
H  -4.87700 27.29400 33.44000
H  -9.25300 20.96300 26.33900
H  -8.50200 21.14300 27.92100
H  -7.82400 19.97200 26.80000
H  -8.77000 19.82100 22.77500
H  -9.72200 20.92200 23.78200
H  -8.66900 19.66000 24.56600
H  -4.79900 25.43000 21.31500
H  -1.97600 26.13600 22.07100
H  -3.54400 23.69100 20.28700
H  -2.91100 23.22300 21.92200
H  -2.20900 24.37600 20.83800
H  -3.18200 28.54000 22.28200
H  -4.24300 27.74300 21.14400
H  -2.32300 27.32900 19.69000
H  -1.18700 27.86700 20.84300
H  -2.26200 29.08900 20.29700
H  -0.59800 29.42500 24.95700
H  0.55900 28.77500 26.16600
H  -0.48700 30.30400 26.42900
H  -3.01200 28.04100 30.95900
H  -1.00100 25.05800 33.62200
H  -0.29300 26.66500 33.92100
H  0.22400 25.68900 32.64000

