158

Mg -11.22500 39.17300 41.69800
C  -9.41100 36.50700 40.83600
C  -8.96500 41.30600 40.01600
C  -13.40100 41.93900 41.88000
C  -13.72500 37.20000 42.98700
N  -9.42900 38.90500 40.48300
C  -8.82900 37.71600 40.28200
C  -7.53700 37.79000 39.46200
C  -7.41600 39.36900 39.26800
C  -8.64200 39.94100 40.05900
C  -6.06900 40.05500 39.48400
C  -7.47700 36.90400 38.15100
C  -6.21500 35.91800 38.02800
H  -5.04500 36.41800 37.23800
N  -11.12600 41.29500 41.22600
C  -10.04300 41.89700 40.62200
C  -10.28600 43.34100 40.61700
C  -11.54600 43.53500 41.27000
C  -12.10700 42.22500 41.47600
C  -9.37100 44.34900 40.05000
C  -12.20900 44.86300 41.50100
O  -11.66300 45.88300 40.96300
C  -13.43400 45.11400 42.46100
N  -13.43300 39.50600 42.14300
C  -13.97300 40.69900 42.23300
C  -15.49400 40.52000 42.67500
C  -15.50900 39.01300 43.10200
C  -14.15000 38.52300 42.70000
C  -15.97200 41.58300 43.68200
C  -16.69900 38.13000 42.53000
C  -17.99000 37.97800 43.32300
N  -11.51900 37.25600 41.80300
C  -12.49600 36.58400 42.54100
C  -12.18900 35.19000 42.66600
C  -10.95200 35.09500 41.98200
C  -10.61000 36.40000 41.50700
C  -12.98400 34.13800 43.32500
C  -9.91800 34.21600 41.71500
O  -9.77900 33.03000 42.04100
C  -8.82200 35.06700 40.86300
C  -7.50200 34.86200 41.61400
O  -6.75400 33.88000 41.48300
O  -7.18500 36.01100 42.23800
C  -5.87000 36.13500 42.89300
H  -8.15500 41.90700 39.59700
H  -14.08200 42.78200 41.74900
H  -14.34500 36.60000 43.65600
H  -6.77000 37.49400 40.17700
H  -7.71800 39.44200 38.22400
H  -5.49800 39.43200 38.79600
H  -5.65500 39.98600 40.49000
H  -6.22900 41.08900 39.17700
H  -7.32200 37.61900 37.34300
H  -8.31800 36.23000 37.99200
H  -6.52600 35.02600 37.48300
H  -5.96900 35.71400 39.07000
H  -8.39000 43.87600 40.00000
H  -9.33300 45.19400 40.73700
H  -9.63600 44.71200 39.05700
H  -13.48900 46.18100 42.67700
H  -13.15900 44.52600 43.33600
H  -14.34600 44.77600 41.96900
H  -16.04800 40.68000 41.75100
H  -15.49500 38.94700 44.19000
H  -15.09300 42.12500 44.03100
H  -16.53200 41.12700 44.49900
H  -16.66900 42.27300 43.20600
H  -16.44100 37.10600 42.25800
H  -16.95800 38.51200 41.54200
H  -18.82700 38.46700 42.82500
H  -17.72200 38.43600 44.27600
H  -18.22400 36.93700 43.54600
H  -12.44500 33.25000 42.99500
H  -14.01500 34.12800 42.96900
H  -12.97100 34.14400 44.41500
H  -8.67700 34.69300 39.85000
H  -5.67600 37.19200 43.07400
H  -5.13900 35.87200 42.12800
H  -5.88100 35.44800 43.73900
Mg -12.34700 16.73100 41.60200
C  -9.41700 14.79200 41.34200
C  -10.82300 19.25800 39.96700
C  -15.32000 18.15300 41.22900
C  -13.93900 13.62300 42.63700
N  -10.44600 16.94000 40.53300
C  -9.38800 16.08400 40.73400
C  -8.10400 16.66500 40.00400
C  -8.54000 18.11200 39.68400
C  -10.02000 18.11500 40.19100
C  -7.65800 19.27600 40.26100
C  -7.62500 15.84900 38.79500
C  -6.13700 16.16100 38.34600
H  -6.03000 16.55700 36.87500
N  -13.00200 18.58000 40.91900
C  -12.21500 19.49100 40.24500
C  -12.93400 20.66000 39.93100
C  -14.27400 20.37400 40.31500
C  -14.21800 19.01700 40.87400
C  -12.38100 21.97000 39.41200
C  -15.48300 21.29100 40.14200
O  -15.39200 22.45700 39.78600
C  -16.81200 20.81900 40.60100
N  -14.26800 15.91600 41.92100
C  -15.33700 16.81200 41.76200
C  -16.70300 16.11700 41.87500
C  -16.26500 14.72500 42.22900
C  -14.72700 14.72900 42.24500
C  -17.52900 16.87900 43.00400
C  -16.90100 13.59100 41.38100
C  -17.99500 12.80600 42.11500
N  -11.80300 14.63000 42.04300
C  -12.52200 13.54900 42.43600
C  -11.69500 12.39800 42.57600
C  -10.40000 12.84100 42.19800
C  -10.51200 14.23300 41.88500
C  -12.13100 10.99400 43.12200
C  -9.06600 12.46100 42.02400
O  -8.55000 11.41500 42.23600
C  -8.31800 13.65000 41.42900
C  -7.12900 14.03200 42.23400
O  -7.13900 14.42100 43.42300
O  -5.92700 13.85800 41.46900
C  -4.70200 14.30700 42.17800
H  -10.31200 20.12300 39.53800
H  -16.32700 18.44400 40.92300
H  -14.43800 12.66500 42.79800
H  -7.20600 16.64400 40.62200
H  -8.70000 18.29500 38.62100
H  -6.74400 18.87100 40.69500
H  -8.06800 19.77500 41.13800
H  -7.36800 20.03200 39.53100
H  -8.11900 16.11100 37.85900
H  -7.79500 14.78400 38.94800
H  -5.53900 15.26500 38.51000
H  -5.65400 16.82500 39.06400
H  -13.08800 22.49600 38.77100
H  -11.49000 21.68300 38.85500
H  -12.12700 22.67600 40.20200
H  -16.62000 20.54000 41.63700
H  -17.10100 19.96300 39.99200
H  -17.71900 21.41300 40.70800
H  -17.17900 16.16400 40.89600
H  -16.47800 14.56400 43.28600
H  -17.82600 16.21300 43.81400
H  -18.42900 17.11100 42.43300
H  -17.07800 17.74700 43.48300
H  -16.06000 12.91400 41.22900
H  -17.31400 13.89400 40.41800
H  -17.67300 11.82100 42.45400
H  -18.95300 12.74400 41.59800
H  -18.38600 13.27700 43.01600
H  -11.74500 10.28000 42.39400
H  -13.21500 10.97300 43.22900
H  -11.61600 10.78100 44.05900
H  -7.98400 13.22600 40.48200
H  -4.31700 13.46700 42.75600
H  -4.78800 15.23500 42.74200
H  -3.98000 14.47700 41.38000

