158

Mg 30.30600 57.79500 40.62100
C  27.60400 55.69600 39.60200
C  32.51400 55.49400 39.72200
C  32.66900 60.17500 40.92400
C  27.88500 60.19000 41.21300
N  30.04100 55.94800 39.61900
C  28.89100 55.21900 39.30700
C  29.28900 53.91800 38.66800
C  30.83800 53.70300 38.99700
C  31.14000 55.11000 39.55100
C  31.15500 52.51800 39.99700
C  29.05800 53.95000 37.16700
C  28.14300 52.85200 36.54200
H  27.22000 53.32800 35.38100
N  32.37900 57.83500 40.34800
C  33.07400 56.75200 40.05100
C  34.51000 57.04300 40.09000
C  34.64300 58.38400 40.37100
C  33.19700 58.85800 40.55000
C  35.58300 55.95800 39.83700
C  35.91100 59.12500 40.70500
O  37.00000 58.53800 40.71100
C  36.00800 60.57300 41.02700
N  30.31300 59.94500 40.90900
C  31.40400 60.63300 41.16300
C  31.06300 62.06800 41.52300
C  29.52700 61.98400 41.85500
C  29.19500 60.58600 41.35200
C  32.02300 62.68600 42.63200
C  28.71200 63.22700 41.29900
C  27.72600 63.91500 42.24300
N  28.16400 57.93900 40.52600
C  27.37600 59.01200 40.77100
C  25.97500 58.67100 40.63300
C  26.02100 57.37100 40.09000
C  27.40700 56.97000 40.11600
C  24.77000 59.50200 40.69400
C  25.20300 56.26400 39.59000
O  23.99500 56.15100 39.39900
C  26.24000 55.05600 39.26400
C  25.67600 53.95400 39.95600
O  26.05900 53.55200 41.07100
O  24.85200 53.24600 39.09900
C  24.65300 51.87900 39.59700
H  33.20500 54.64900 39.67500
H  33.48500 60.86900 41.13500
H  27.24300 61.03700 41.46400
H  28.64200 53.15100 39.09300
H  31.48500 53.63600 38.12300
H  32.23500 52.46700 39.85400
H  30.76000 51.55300 39.67900
H  30.87500 52.60600 41.04600
H  30.01300 53.96800 36.64200
H  28.55800 54.88600 36.92000
H  27.50600 52.35300 37.27400
H  28.80900 52.22000 35.95500
H  35.42900 55.24000 40.64300
H  36.64500 56.20500 39.80600
H  35.42800 55.37300 38.93100
H  35.34000 60.66600 41.88300
H  35.74200 61.15000 40.14100
H  36.95300 60.97600 41.39300
H  31.17000 62.67600 40.62400
H  29.49500 61.95900 42.94400
H  32.55300 61.88300 43.14500
H  31.50900 63.28600 43.38200
H  32.76100 63.29600 42.11100
H  28.35700 62.86800 40.33300
H  29.48100 63.95100 41.02900
H  27.95800 63.71500 43.28900
H  26.73400 63.52800 42.00700
H  27.71900 65.00400 42.19500
H  23.89300 58.89800 40.92900
H  24.61900 59.95200 39.71300
H  24.85300 60.30200 41.43000
H  26.11100 54.88000 38.19600
H  23.66700 51.73300 40.03800
H  25.43300 51.44700 40.22500
H  24.66200 51.29900 38.67400
Mg -2.77400 33.98700 26.07400
C  -4.52100 32.50100 28.76900
C  -1.00800 35.97100 28.35600
C  -1.54700 35.80000 23.45700
C  -4.85400 32.37000 23.89600
N  -2.86200 34.31700 28.21600
C  -3.62400 33.50300 29.10600
C  -3.44000 34.02400 30.56300
C  -2.43800 35.19700 30.43100
C  -2.09500 35.17500 28.95500
C  -2.97800 36.57600 30.99000
C  -2.91500 32.82200 31.40700
C  -2.28800 33.21700 32.83100
H  -2.70100 32.40900 34.08000
N  -1.38800 35.57000 25.93600
C  -0.70000 36.19100 27.00300
C  0.25500 37.20200 26.34300
C  0.13300 37.05000 24.97600
C  -0.99200 36.10100 24.70400
C  1.16100 38.02000 27.21400
C  0.91100 37.81200 23.92800
O  0.68000 37.69900 22.76000
C  1.98300 38.68700 24.38500
N  -3.29300 34.23200 24.01200
C  -2.67100 35.04800 23.15600
C  -3.11600 34.86200 21.67900
C  -4.01200 33.53800 21.79000
C  -4.03000 33.34000 23.33900
C  -3.91700 36.07100 21.11600
C  -3.63900 32.27100 21.01100
C  -2.79700 31.22900 21.79800
N  -4.30500 32.62300 26.21200
C  -5.08700 32.05200 25.25200
C  -5.92800 31.05600 25.85100
C  -5.74200 31.24900 27.21400
C  -4.81200 32.22600 27.41200
C  -6.71600 30.04000 25.08800
C  -6.18500 30.75900 28.54300
O  -6.88500 29.82300 28.82900
C  -5.42200 31.58200 29.59400
C  -6.41700 32.24300 30.47200
O  -7.27800 33.01100 30.12200
O  -6.24800 31.79300 31.81400
C  -7.31500 32.14100 32.77000
H  -0.39100 36.55100 29.04500
H  -1.14100 36.27800 22.56300
H  -5.45000 31.75000 23.22400
H  -4.40300 34.37900 30.93100
H  -1.49400 35.10100 30.96700
H  -2.71500 37.43000 30.36600
H  -2.42900 36.86700 31.88600
H  -4.02100 36.57800 31.30900
H  -2.11700 32.36300 30.82200
H  -3.59500 32.01500 31.67800
H  -2.74300 34.17900 33.06800
H  -1.21600 33.38400 32.72200
H  1.03900 37.77400 28.26900
H  0.92900 39.07400 27.06400
H  2.23500 38.02400 27.02900
H  1.65500 39.68900 24.66100
H  2.68700 38.80100 23.56100
H  2.65900 38.15800 25.05700
H  -2.22800 34.52400 21.14500
H  -5.03500 33.79800 21.51800
H  -3.92000 36.91800 21.80200
H  -4.96400 35.94000 20.84200
H  -3.40200 36.36500 20.20100
H  -3.07300 32.63500 20.15400
H  -4.57900 31.82600 20.68500
H  -2.26100 31.66300 22.64200
H  -2.07100 30.68700 21.19100
H  -3.42200 30.42000 22.17500
H  -6.14300 29.16300 24.78700
H  -7.26000 30.49500 24.26100
H  -7.53800 29.75000 25.74200
H  -4.79600 30.87400 30.13700
H  -6.72600 32.26300 33.67900
H  -7.95500 31.28500 32.98800
H  -7.87600 33.01300 32.43500

