158

Mg 46.81100 24.31100 28.58700
C  47.58800 26.77000 31.15400
C  46.27700 22.09300 31.20500
C  46.60100 21.90900 26.24500
C  48.19000 26.52200 26.27300
N  46.85500 24.45900 30.90600
C  47.06800 25.59500 31.69500
C  46.91600 25.26400 33.21600
C  46.60300 23.68400 33.17800
C  46.59100 23.33300 31.64000
C  47.60000 22.86300 34.06600
C  45.72300 26.10100 33.88000
C  45.99000 26.53700 35.28600
H  44.72500 27.01200 36.09100
N  46.39400 22.30100 28.67700
C  46.12000 21.57500 29.86100
C  45.75500 20.24300 29.41000
C  45.90200 20.11800 28.02700
C  46.33700 21.40900 27.52500
C  45.28600 19.25900 30.39200
C  45.88900 18.84000 27.17400
O  46.24700 18.93100 25.98500
C  45.41100 17.57700 27.75900
N  47.34400 24.17000 26.59000
C  47.01500 23.14200 25.78000
C  47.37800 23.35000 24.28300
C  48.02000 24.77400 24.38400
C  47.79400 25.23700 25.77300
C  48.47000 22.27500 23.63400
C  47.36700 25.86200 23.34000
C  47.89500 25.73300 21.85600
N  47.60000 26.26100 28.57100
C  48.22200 27.01300 27.58100
C  48.78400 28.21000 28.09200
C  48.49400 28.14800 29.46200
C  47.81900 26.98300 29.75600
C  49.61000 29.29400 27.36600
C  48.80000 28.87500 30.72700
O  49.44900 29.88800 30.88600
C  48.17800 27.99100 31.83700
C  49.14800 27.63200 32.83800
O  50.13700 26.95900 32.70400
O  48.77800 28.13200 34.04200
C  49.64500 27.93100 35.25300
H  46.09400 21.46700 32.08100
H  46.33000 21.21000 25.45100
H  48.75700 27.14700 25.58100
H  47.79600 25.55900 33.78700
H  45.64800 23.42700 33.63700
H  48.08500 23.58500 34.72200
H  48.32700 22.45200 33.36500
H  47.17500 22.01100 34.59700
H  44.84400 25.46300 33.79600
H  45.47500 26.98900 33.29800
H  46.64100 27.40500 35.19200
H  46.53800 25.72200 35.76000
H  45.05400 19.78500 31.31800
H  46.05000 18.51300 30.61300
H  44.36700 18.83400 29.98800
H  46.12100 17.14300 28.46300
H  45.30400 16.94400 26.87800
H  44.37600 17.73800 28.06100
H  46.47600 23.37600 23.67300
H  49.10200 24.85500 24.28000
H  49.17300 22.88800 23.07000
H  47.97300 21.56200 22.97600
H  48.99800 21.75000 24.43000
H  47.54700 26.87000 23.71300
H  46.27800 25.80600 23.31300
H  47.00600 25.59300 21.24200
H  48.60600 24.91400 21.74100
H  48.30900 26.70200 21.57900
H  50.19900 28.72600 26.64500
H  50.25100 29.59500 28.19400
H  49.10900 30.10000 26.83000
H  47.46100 28.51800 32.46600
H  49.17000 27.28900 35.99400
H  49.80000 28.89800 35.73200
H  50.58600 27.50300 34.90500
Mg -11.24800 16.31800 42.55000
C  -8.02000 16.96600 42.89300
C  -11.97100 19.44000 41.65000
C  -14.42000 15.37900 42.24000
C  -10.40400 12.81800 42.40300
N  -10.17200 17.96100 42.05400
C  -8.79600 18.00000 42.31000
C  -8.32500 19.41700 42.05300
C  -9.62700 20.25700 41.82500
C  -10.67500 19.17400 41.85800
C  -9.92700 21.38400 42.86100
C  -7.34800 19.57000 40.83600
C  -6.20200 20.56500 40.93600
H  -4.90600 20.00200 40.39100
N  -13.04400 17.29600 42.07200
C  -13.12900 18.59500 41.76700
C  -14.50400 18.98800 41.57700
C  -15.26300 17.79500 41.74700
C  -14.29100 16.75400 41.96400
C  -14.97700 20.42300 41.40800
C  -16.77800 17.73600 41.58000
O  -17.42700 18.76500 41.35400
C  -17.56300 16.49200 41.81800
N  -12.28000 14.32300 42.18200
C  -13.57300 14.28400 42.39800
C  -13.97900 12.85600 42.71100
C  -12.77700 12.12500 42.07600
C  -11.69400 13.11300 42.18900
C  -14.22200 12.43400 44.13300
C  -13.06300 11.56900 40.73000
C  -13.51800 10.07500 40.63600
N  -9.56200 15.11000 42.77600
C  -9.40200 13.68900 42.75100
C  -7.99500 13.42000 43.03700
C  -7.43600 14.70100 43.19200
C  -8.44600 15.68800 43.06600
C  -7.30100 12.04300 43.12000
C  -6.17500 15.50800 43.55600
O  -5.01700 15.10900 43.83600
C  -6.64000 16.98400 43.36800
C  -6.50200 17.71800 44.64200
O  -7.08800 17.36000 45.63300
O  -5.72800 18.84700 44.51700
C  -5.36900 19.36600 45.85500
H  -12.21300 20.49500 41.50800
H  -15.45400 15.07700 42.41700
H  -10.24900 11.74000 42.47600
H  -7.83100 19.77200 42.95700
H  -9.76800 20.76600 40.87100
H  -10.40200 20.98100 43.75500
H  -10.55300 22.15300 42.40900
H  -9.06700 21.93300 43.24500
H  -7.87500 19.90500 39.94200
H  -6.99700 18.57000 40.58200
H  -5.99200 20.73000 41.99200
H  -6.41900 21.52200 40.46100
H  -14.14600 21.12600 41.34600
H  -15.55900 20.58500 42.31500
H  -15.49200 20.58400 40.46100
H  -18.64100 16.65600 41.81100
H  -17.24300 16.17400 42.81000
H  -17.30500 15.73200 41.08100
H  -14.91300 12.68700 42.17600
H  -12.54000 11.25900 42.69400
H  -15.22700 12.03600 44.27000
H  -14.00900 13.21000 44.86700
H  -13.60100 11.59400 44.44600
H  -12.11800 11.57900 40.18700
H  -13.81900 12.23200 40.30900
H  -13.11800 9.65900 41.56000
H  -13.22300 9.50600 39.75500
H  -14.60600 10.12300 40.58000
H  -8.10500 11.30800 43.16500
H  -6.76100 11.97200 44.06400
H  -6.73000 11.79300 42.22500
H  -5.83800 17.41500 42.76800
H  -4.87600 18.64100 46.50200
H  -6.22600 19.84100 46.33300
H  -4.60800 20.12400 45.67000

