158

Mg 35.87000 1.87200 30.27100
C  33.19800 3.08500 32.36700
C  37.90700 2.15300 32.91800
C  38.29600 0.93700 28.34900
C  33.55000 2.05300 27.63500
N  35.52700 2.45000 32.42600
C  34.34600 2.82600 33.08400
C  34.60900 3.05800 34.61000
C  36.20000 3.02300 34.66800
C  36.58600 2.51400 33.24800
C  36.83900 4.43500 35.07700
C  33.79000 2.06300 35.46400
C  34.40500 1.50700 36.68100
H  34.91400 2.52200 37.72200
N  37.77400 1.50300 30.61300
C  38.50100 1.61600 31.76000
C  39.86100 1.17800 31.57200
C  40.01300 0.94500 30.22400
C  38.66700 1.09000 29.64500
C  40.78000 1.08200 32.76400
C  41.25600 0.58900 29.41500
O  41.30800 0.66400 28.22000
C  42.59100 0.43200 30.18100
N  35.90000 1.57800 28.28700
C  37.04100 1.14500 27.66100
C  36.85600 0.86300 26.19100
C  35.32500 1.20400 25.97400
C  34.88700 1.65500 27.36500
C  37.79000 1.65300 25.25700
C  34.44500 0.07400 25.26200
C  33.47600 0.46800 24.07500
N  33.77000 2.45900 30.00600
C  32.98700 2.48300 28.87500
C  31.66000 2.88200 29.28100
C  31.65900 3.16000 30.62200
C  32.98300 2.87200 30.99700
C  30.56100 3.19800 28.34400
C  30.89200 3.74000 31.72800
O  29.81000 4.32400 31.74400
C  31.82200 3.53500 32.93200
C  31.95400 4.82400 33.69700
O  32.76100 5.71500 33.42000
O  31.24300 4.62900 34.81900
C  31.38000 5.60000 35.81800
H  38.56700 2.35900 33.76300
H  39.00400 0.60900 27.58500
H  32.84700 2.11400 26.80100
H  34.37400 4.08100 34.90100
H  36.57400 2.30300 35.39600
H  37.40100 4.40100 36.01000
H  36.19300 5.30800 34.98500
H  37.70500 4.63600 34.44500
H  33.21900 1.27500 34.97200
H  32.96200 2.68700 35.79800
H  35.23500 0.89600 36.32700
H  33.67400 0.87600 37.18700
H  41.33100 2.01300 32.63500
H  41.43900 0.21500 32.71200
H  40.27100 1.11700 33.72800
H  42.62100 1.33000 30.79800
H  43.37600 0.19600 29.46300
H  42.35000 -0.34200 30.91100
H  37.10500 -0.19400 26.10000
H  35.31700 2.10600 25.36200
H  38.65900 1.09900 24.90200
H  38.23900 2.58900 25.58900
H  37.16200 1.97000 24.42400
H  33.94700 -0.48000 26.05700
H  35.22400 -0.59700 24.90100
H  33.76400 -0.09200 23.18600
H  33.57900 1.52300 23.82000
H  32.43800 0.36600 24.39300
H  30.32600 2.38200 27.66000
H  30.76600 4.03100 27.67300
H  29.72500 3.45300 28.99500
H  31.38200 2.71900 33.50400
H  30.42900 5.83300 36.29800
H  31.72200 6.57600 35.47400
H  31.97000 5.23000 36.65700
Mg 41.61300 7.80300 30.22000
C  43.31900 8.70100 33.08600
C  39.34600 6.16600 32.12000
C  40.11400 6.56800 27.32700
C  44.13800 8.96100 28.30400
N  41.57800 7.18700 32.37900
C  42.25900 7.88900 33.34800
C  41.59800 7.57100 34.68200
C  40.63600 6.36300 34.33700
C  40.45200 6.61300 32.88400
C  41.16100 4.94200 34.68200
C  41.04100 8.75900 35.45100
C  41.17300 8.71700 36.98800
H  41.56600 10.01500 37.79900
N  39.96500 6.65900 29.82300
C  39.05400 6.14700 30.77500
C  37.86600 5.60400 30.09300
C  38.10300 5.73500 28.65600
C  39.38400 6.35100 28.58300
C  36.69900 4.96500 30.87100
C  37.12100 5.49900 27.45400
O  37.30500 5.93500 26.32700
C  35.74200 4.89000 27.74500
N  42.10500 7.59200 28.08800
C  41.32700 7.16900 27.09200
C  41.91500 7.44400 25.64500
C  42.96400 8.46700 26.06400
C  43.12400 8.31000 27.58500
C  42.48900 6.09100 25.11600
C  42.61900 9.94400 25.71400
C  41.25600 10.49500 26.20600
N  43.40800 8.68000 30.62400
C  44.31900 9.08100 29.72100
C  45.39100 9.87500 30.48800
C  44.90600 9.82300 31.76100
C  43.79400 8.96500 31.82600
C  46.56600 10.51800 29.90400
C  45.25800 10.20900 33.08600
O  46.11600 10.87100 33.52800
C  44.18500 9.57200 34.05800
C  44.77900 8.72700 35.08500
O  45.18800 7.61400 34.95200
O  44.80300 9.42600 36.22200
C  45.46000 8.86300 37.41900
H  38.49900 5.67400 32.60400
H  39.56100 6.37200 26.40600
H  44.70500 9.54200 27.57400
H  42.32000 6.99400 35.26000
H  39.69300 6.48100 34.87000
H  40.43700 4.42900 35.31400
H  42.10600 4.90000 35.22500
H  41.23700 4.34800 33.77200
H  39.99400 8.97100 35.23300
H  41.58100 9.66300 35.17000
H  41.81900 7.88500 37.26900
H  40.27700 8.29800 37.44500
H  36.84300 4.97900 31.95100
H  36.63500 3.92700 30.54700
H  35.80500 5.55000 30.65300
H  35.32500 4.67800 26.76100
H  35.16300 5.70800 28.17200
H  35.78400 3.99400 28.36400
H  41.13800 7.85700 25.00100
H  43.96900 8.23000 25.71700
H  41.87100 5.68400 24.31500
H  42.58500 5.31900 25.87900
H  43.48600 6.27500 24.71600
H  42.55200 10.03000 24.62900
H  43.35800 10.68500 26.02000
H  40.52000 10.53100 25.40200
H  41.45800 11.37500 26.81600
H  40.83100 9.68500 26.79800
H  46.36800 11.52700 29.54300
H  46.90700 9.95200 29.03700
H  47.35900 10.54700 30.65100
H  43.60000 10.45500 34.31500
H  44.74800 8.22400 37.94200
H  45.80100 9.68700 38.04500
H  46.36500 8.34100 37.11100

