158

Mg 44.25600 5.49500 47.89700
C  41.90100 8.11000 47.44800
C  41.79100 3.21300 47.67300
C  46.62500 3.12000 47.93500
C  46.80700 7.85000 47.29300
N  42.05600 5.68700 47.57300
C  41.29000 6.81800 47.53800
C  39.79100 6.43400 47.44300
C  39.75200 4.84100 47.57400
C  41.34400 4.51000 47.62400
C  39.00900 4.35000 48.83600
C  38.90600 7.03400 46.30200
C  39.18900 6.66000 44.86100
H  39.39600 7.82700 43.95700
N  44.27300 3.40000 47.82400
C  43.12100 2.63900 47.69500
C  43.50800 1.24900 47.67400
C  44.93200 1.17000 47.74200
C  45.35000 2.58700 47.82400
C  42.46200 0.09400 47.59300
C  45.75100 -0.14600 47.85700
O  45.12700 -1.19300 48.00800
C  47.26100 -0.12900 47.78000
N  46.36100 5.51100 47.61900
C  47.15800 4.41800 47.86200
C  48.63900 4.57700 47.55800
C  48.60900 6.12500 47.10100
C  47.18900 6.53200 47.32800
C  49.57500 4.23400 48.76500
C  49.17000 6.46300 45.62900
C  48.77200 5.52900 44.51900
N  44.38500 7.55700 47.63900
C  45.48600 8.42300 47.40600
C  45.06800 9.79000 47.35500
C  43.64300 9.61700 47.36100
C  43.28900 8.27600 47.47600
C  45.87500 11.10900 47.13600
C  42.40500 10.40300 47.26800
O  42.30600 11.61100 47.11500
C  41.18800 9.41700 47.39100
C  40.39900 9.71500 48.59100
O  40.46200 9.13200 49.66600
O  39.44000 10.65100 48.27100
C  38.57900 11.18100 49.28600
H  40.98200 2.48300 47.61100
H  47.33000 2.30300 48.10300
H  47.67700 8.50100 47.18400
H  39.46600 6.97800 48.33000
H  39.36800 4.30200 46.70800
H  38.70600 5.27400 49.33000
H  39.79100 3.99100 49.50600
H  38.15100 3.73600 48.56300
H  38.94300 8.10100 46.52300
H  37.92300 6.77000 46.69300
H  38.31700 6.13200 44.47500
H  40.06600 6.02200 44.75900
H  42.81400 -0.69800 46.93300
H  41.51600 0.38000 47.13300
H  42.27500 -0.25200 48.61000
H  47.58900 0.54800 46.99100
H  47.50900 -1.17500 47.59600
H  47.73700 0.10900 48.73100
H  48.97300 3.83800 46.83000
H  49.19300 6.68900 47.82900
H  50.37800 4.96000 48.89100
H  50.07600 3.27900 48.61100
H  49.08800 4.10600 49.73200
H  50.22500 6.69600 45.76700
H  48.84800 7.44800 45.29000
H  48.57800 6.12500 43.62800
H  47.87000 4.96400 44.75600
H  49.59900 4.89100 44.20900
H  45.22100 11.98100 47.15700
H  46.62300 11.16600 46.34500
H  46.35600 11.10700 48.11400
H  40.55700 9.38300 46.50300
H  38.23800 12.20000 49.10500
H  39.12500 11.16100 50.22900
H  37.69500 10.57000 49.46600
Mg 40.15900 10.59900 29.59800
C  42.12100 11.63900 32.25300
C  38.12400 8.93300 31.75600
C  38.56500 9.19300 26.89700
C  42.75300 11.63400 27.46900
N  40.18000 10.28800 31.80000
C  40.88000 11.06100 32.68900
C  40.32600 10.83600 34.12400
C  39.18500 9.78800 33.95200
C  39.21100 9.61500 32.39700
C  39.28400 8.46500 34.78700
C  39.87400 12.26500 34.72200
C  39.26500 12.34800 36.18100
H  39.95800 13.22800 37.24900
N  38.62500 9.19700 29.36400
C  37.87000 8.65300 30.41600
C  36.78200 7.83200 29.85400
C  36.83400 8.03600 28.40800
C  38.02000 8.82700 28.17500
C  35.88300 7.08700 30.76000
C  35.84300 7.54200 27.42300
O  35.92900 7.67800 26.21700
C  34.66200 6.77400 27.90200
N  40.68800 10.30700 27.53200
C  39.77700 9.87500 26.59800
C  40.17100 10.28000 25.17700
C  41.39200 11.24300 25.39700
C  41.62400 11.05900 26.93300
C  40.49600 8.91300 24.45000
C  41.23200 12.81200 25.10800
C  39.82700 13.50900 25.25400
N  42.07600 11.54400 29.73900
C  43.07500 11.82000 28.81100
C  44.26100 12.34300 29.45600
C  43.90600 12.37000 30.77500
C  42.64600 11.71300 30.92200
C  45.56800 12.71300 28.96600
C  44.38200 12.66800 32.13800
O  45.43300 13.11600 32.62000
C  43.23300 12.32600 33.12100
C  43.81800 11.51600 34.24300
O  44.74400 10.76000 34.23100
O  43.01300 11.71400 35.36000
C  43.30200 10.93300 36.52600
H  37.39000 8.58300 32.48500
H  37.98700 8.80300 26.05700
H  43.52400 12.07400 26.83300
H  41.24000 10.42500 34.55300
H  38.26400 10.28700 34.25300
H  40.19500 8.26900 35.35100
H  39.29000 7.64300 34.07100
H  38.41900 8.35200 35.44100
H  39.18800 12.70100 33.99600
H  40.76900 12.88700 34.69200
H  39.17900 11.32300 36.54200
H  38.23400 12.63900 35.98000
H  36.28600 6.88300 31.75200
H  35.72900 6.09100 30.34600
H  34.88300 7.51800 30.71600
H  34.00700 7.34100 28.56400
H  35.01500 5.89700 28.44500
H  34.04700 6.37300 27.09700
H  39.29000 10.74600 24.73400
H  42.29200 10.81300 24.95800
H  39.60700 8.60400 23.90100
H  40.66700 8.10200 25.15700
H  41.33100 9.10100 23.77400
H  41.61800 12.97700 24.10200
H  41.95500 13.30500 25.75800
H  39.14500 12.82500 25.75900
H  39.47200 13.82700 24.27400
H  39.97400 14.34700 25.93400
H  45.53000 12.63900 27.87900
H  46.26200 11.93600 29.28700
H  45.81500 13.73700 29.24700
H  42.87400 13.24900 33.57800
H  43.94600 11.45200 37.23600
H  43.67100 9.95300 36.22200
H  42.36300 10.66200 37.00900

