158

Mg 48.46500 34.98300 26.87500
C  46.27600 33.53900 29.38900
C  48.74600 37.71400 28.91400
C  49.67700 36.47500 24.21000
C  47.46900 32.25300 24.83200
N  47.69300 35.45900 28.91000
C  46.97600 34.68000 29.74100
C  46.94300 35.31300 31.18400
C  47.36000 36.85100 30.88800
C  47.93500 36.69200 29.46300
C  46.09900 37.79800 30.83800
C  47.89200 34.41900 32.03900
C  49.29500 34.91900 32.53900
H  49.58400 35.20600 34.00900
N  49.24400 36.74700 26.69100
C  49.36100 37.76700 27.63000
C  50.32000 38.73900 27.09800
C  50.49300 38.46000 25.67900
C  49.77800 37.16000 25.51200
C  50.83900 39.91000 27.86200
C  51.25900 39.32400 24.68200
O  51.34300 38.99400 23.53700
C  51.99500 40.53900 25.10100
N  48.55200 34.38700 24.77700
C  49.18000 35.24500 23.85800
C  49.27300 34.57600 22.48600
C  48.82900 33.11900 22.74300
C  48.25200 33.21600 24.22900
C  48.53300 35.24200 21.33200
C  49.95100 32.00300 22.69100
C  50.14800 31.46400 21.21300
N  47.17200 33.28300 27.01300
C  46.81900 32.35100 26.08500
C  45.86400 31.38000 26.57200
C  45.57400 31.81800 27.88400
C  46.37400 32.96800 28.13800
C  45.26000 30.23500 25.85600
C  44.76800 31.59600 29.08200
O  43.88000 30.74700 29.26500
C  45.11200 32.80800 30.05700
C  45.45600 32.26800 31.48100
O  46.30400 31.48800 31.88000
O  44.64600 32.98800 32.35300
C  44.78900 32.57600 33.77100
H  48.98800 38.54300 29.58200
H  50.17700 36.96400 23.37000
H  47.18800 31.44000 24.16000
H  45.91100 35.26600 31.53000
H  48.15300 37.23300 31.53100
H  46.00900 38.41400 31.73300
H  45.22900 37.15700 30.69600
H  46.25600 38.53300 30.04900
H  48.03400 33.49500 31.48000
H  47.34900 34.21900 32.96300
H  49.70400 35.80700 32.05800
H  50.04000 34.22100 32.15500
H  51.91800 39.82500 27.99400
H  50.47400 39.92800 28.88900
H  50.70400 40.85500 27.33700
H  51.30100 41.37400 25.19700
H  52.67300 40.86300 24.31200
H  52.60200 40.23900 25.95600
H  50.32400 34.48800 22.21000
H  47.99700 32.74800 22.14500
H  47.85100 34.57100 20.80900
H  49.19700 35.60600 20.54800
H  47.88500 36.01800 21.73800
H  49.64000 31.20000 23.35900
H  50.90500 32.38800 23.05200
H  51.16000 31.73000 20.90700
H  49.42600 31.91600 20.53400
H  50.02500 30.38700 21.09300
H  44.90000 30.45000 24.85000
H  44.40500 29.98500 26.48400
H  46.02300 29.45600 25.86900
H  44.24900 33.46800 30.14300
H  45.37600 33.28000 34.36100
H  45.18500 31.58000 33.97000
H  43.81500 32.62600 34.25900
Mg -1.84500 33.82000 26.94900
C  -3.63800 31.96900 29.42000
C  -0.61600 35.73500 29.58300
C  -0.56000 35.94000 24.67700
C  -3.47100 32.11000 24.50700
N  -2.22300 33.92200 29.15500
C  -2.81100 32.93900 29.91300
C  -2.44600 33.10100 31.45200
C  -1.63500 34.39300 31.43500
C  -1.45400 34.67100 29.97500
C  -2.14500 35.61100 32.15900
C  -1.71500 31.85800 32.09800
C  -2.37400 31.09700 33.26500
H  -1.75800 31.27900 34.59800
N  -0.65600 35.56500 27.11900
C  -0.21800 36.13900 28.29100
C  0.66000 37.23000 27.93500
C  0.56400 37.46500 26.53700
C  -0.21700 36.31000 26.02300
C  1.37100 38.00500 28.95300
C  1.19300 38.55100 25.73900
O  1.08600 38.60800 24.49300
C  1.97700 39.68600 26.49000
N  -2.13300 34.10600 24.88800
C  -1.38600 34.98700 24.12600
C  -1.70800 34.78100 22.59100
C  -2.71700 33.57300 22.62200
C  -2.75000 33.19100 24.07600
C  -2.30200 35.96600 21.70000
C  -2.54500 32.39600 21.56300
C  -1.60200 31.21600 21.92500
N  -3.23800 32.37300 26.87400
C  -3.69600 31.64100 25.82400
C  -4.44700 30.57000 26.25300
C  -4.50900 30.67600 27.68800
C  -3.72000 31.78500 27.99400
C  -5.14800 29.49600 25.41600
C  -5.03100 30.05800 28.86500
O  -5.88200 29.16300 29.14200
C  -4.43000 30.82600 29.96800
C  -5.41900 31.19500 30.97900
O  -6.42900 31.92900 30.81000
O  -5.29100 30.42900 32.12100
C  -6.31200 30.50800 33.18000
H  -0.23000 36.17100 30.50600
H  -0.01700 36.59900 23.99600
H  -4.02500 31.40400 23.88500
H  -3.35700 33.32400 32.00900
H  -0.68700 34.17600 31.92800
H  -1.37600 36.35000 32.38400
H  -2.53000 35.32200 33.13700
H  -3.00300 36.05400 31.65300
H  -0.67800 32.07500 32.35100
H  -1.72000 31.05800 31.35800
H  -2.43100 30.01900 33.11900
H  -3.39600 31.47600 33.24600
H  2.39900 37.92400 28.60000
H  1.31300 37.55300 29.94300
H  0.89800 38.98400 29.03600
H  2.21800 40.39500 25.69700
H  2.95000 39.34900 26.84600
H  1.48500 40.19200 27.32000
H  -0.78800 34.39400 22.15400
H  -3.72800 33.92900 22.42600
H  -2.85600 36.66800 22.32300
H  -2.99600 35.54500 20.97300
H  -1.46500 36.46900 21.21600
H  -2.09200 32.85000 20.68200
H  -3.52600 32.05300 21.23500
H  -0.91000 30.96900 21.11900
H  -2.24500 30.37500 22.18600
H  -0.99600 31.55600 22.76500
H  -4.64300 29.19600 24.49700
H  -6.08100 29.92900 25.05700
H  -5.26700 28.59300 26.01500
H  -3.74100 30.15600 30.48300
H  -5.80500 30.95900 34.03400
H  -6.68800 29.52300 33.45700
H  -7.15500 31.15500 32.94100

