158

Mg 47.50800 16.49200 28.87800
C  45.62300 16.03600 31.66700
C  49.62500 18.43000 30.74300
C  49.47000 16.95200 26.12700
C  44.96300 15.23900 26.92600
N  47.55100 17.22100 30.91600
C  46.68400 16.89700 31.87800
C  47.27700 17.25800 33.25900
C  48.34000 18.30600 32.90300
C  48.43700 18.05800 31.41000
C  47.92600 19.75300 33.23500
C  47.93900 15.99100 33.95100
C  48.06400 16.00800 35.54600
H  47.83600 17.32000 36.33500
N  49.35100 17.41300 28.52100
C  50.09500 18.00500 29.48600
C  51.32000 18.48700 28.87800
C  51.38800 17.93900 27.59100
C  50.05600 17.39100 27.33800
C  52.32600 19.34400 29.69300
C  52.52500 17.80300 26.65000
O  52.48700 17.16500 25.58900
C  53.89300 18.30500 27.07600
N  47.19300 16.36600 26.72600
C  48.21100 16.38100 25.84000
C  47.64700 16.03100 24.34800
C  46.26100 15.35200 24.68800
C  46.06900 15.70000 26.18200
C  47.62500 17.22500 23.35300
C  46.10900 13.82900 24.45900
C  45.05700 13.40000 23.43500
N  45.67400 15.72200 29.15100
C  44.77500 15.19700 28.30500
C  43.68200 14.61200 29.01300
C  43.95600 14.88400 30.37200
C  45.22800 15.53300 30.39700
C  42.60900 13.90700 28.33900
C  43.52000 14.67300 31.73200
O  42.45600 14.18700 32.17100
C  44.64800 15.40000 32.63700
C  43.99800 16.35600 33.54300
O  43.26900 17.23700 33.13500
O  44.18600 16.08300 34.84500
C  43.75300 17.14000 35.80700
H  50.21500 19.08200 31.39100
H  50.12100 16.91500 25.25100
H  44.21200 14.71500 26.33100
H  46.42900 17.71300 33.77000
H  49.27900 18.02900 33.38300
H  48.69500 20.09600 33.92700
H  46.98800 19.77500 33.79100
H  47.95300 20.36600 32.33400
H  48.87900 15.68300 33.49300
H  47.25200 15.16200 33.77700
H  49.08600 15.65100 35.66800
H  47.38100 15.24600 35.92200
H  52.63600 20.14300 29.01900
H  53.19400 18.75600 29.99100
H  51.97900 19.82500 30.60800
H  53.95600 19.39300 27.07900
H  54.66400 17.93000 26.40200
H  54.21200 18.13200 28.10400
H  48.34000 15.30400 23.92200
H  45.56100 15.96200 24.11700
H  48.32800 17.05000 22.53900
H  47.86700 18.14400 23.88700
H  46.64000 17.40200 22.92100
H  45.96700 13.29800 25.40000
H  47.05900 13.40400 24.13700
H  45.11100 14.17200 22.66700
H  44.04000 13.26800 23.80300
H  45.31600 12.41100 23.05800
H  42.00200 13.42100 29.10300
H  43.04600 13.13900 27.70100
H  41.96000 14.56600 27.76100
H  44.98700 14.54600 33.22200
H  42.66900 17.23300 35.75400
H  44.09700 18.10100 35.42600
H  44.22500 16.89500 36.75900
Mg 41.44100 40.86200 27.38000
C  40.72200 43.18400 29.82900
C  42.66500 38.59700 29.76200
C  42.71600 38.74100 24.89100
C  40.81500 43.39200 24.98700
N  41.49400 40.83500 29.56600
C  41.12400 41.88700 30.39600
C  41.16900 41.51400 31.90400
C  41.76300 40.06800 31.84800
C  42.08800 39.81100 30.26200
C  43.09500 39.89800 32.60400
C  39.76400 41.53400 32.69600
C  39.82700 42.14100 34.11600
H  38.94000 41.54600 35.25400
N  42.42500 38.91600 27.35500
C  42.83300 38.17600 28.43200
C  43.31800 36.88600 28.01400
C  43.21000 36.88200 26.57900
C  42.80600 38.27800 26.23300
C  43.63600 35.78700 29.00400
C  43.46100 35.73100 25.59900
O  43.10700 35.76200 24.41300
C  44.01900 34.44000 26.13900
N  41.70900 41.08000 25.28000
C  42.21800 40.00700 24.44900
C  41.98700 40.37900 22.95900
C  41.55500 41.90400 23.03100
C  41.28400 42.17800 24.54400
C  43.00400 40.18900 21.86900
C  40.34100 42.20100 22.14000
C  38.90400 41.82800 22.62500
N  40.89400 42.92600 27.36400
C  40.74700 43.82700 26.34000
C  40.44700 45.12000 26.86600
C  40.36900 44.89200 28.25500
C  40.67800 43.54900 28.47900
C  40.25300 46.39000 26.11100
C  40.16800 45.52300 29.56900
O  39.90700 46.67400 29.94900
C  40.40500 44.39300 30.63600
C  41.54100 44.91900 31.47200
O  42.67400 45.27900 31.20700
O  41.00800 45.16800 32.74000
C  41.75300 45.97700 33.71500
H  42.92800 37.92500 30.58100
H  43.04900 38.13100 24.04800
H  40.60900 43.99000 24.09800
H  41.88100 42.18900 32.37900
H  40.99100 39.34200 32.10600
H  42.94600 39.19100 33.42000
H  43.42300 40.86100 32.99700
H  43.85000 39.53500 31.90700
H  39.40600 40.53600 32.94900
H  39.05400 41.97700 31.99700
H  39.64200 43.21400 34.06200
H  40.88100 42.13100 34.39400
H  43.09300 34.86400 28.79900
H  43.39100 36.03500 30.03600
H  44.70300 35.56400 29.00200
H  43.22800 33.92900 26.68800
H  44.90500 34.53500 26.76600
H  44.23100 33.80200 25.28200
H  41.06300 39.87600 22.67500
H  42.38000 42.52400 22.68200
H  43.25500 41.14000 21.39800
H  42.63800 39.50100 21.10800
H  43.88900 39.78800 22.36300
H  40.54500 41.63400 21.23200
H  40.34500 43.24400 21.82300
H  38.81200 41.19700 23.51000
H  38.54200 41.18000 21.82700
H  38.23700 42.69000 22.63800
H  40.74000 46.34600 25.13600
H  40.68000 47.16300 26.75000
H  39.17600 46.51400 26.00600
H  39.49300 44.22500 31.20900
H  42.03900 45.22100 34.44700
H  41.11900 46.74500 34.15600
H  42.73000 46.29900 33.35300

