158

Mg -0.93700 18.29500 27.28600
C  -1.56300 16.07400 30.19100
C  -1.93900 20.81300 29.17700
C  -0.70600 19.98200 24.53000
C  -0.45900 15.23900 25.50600
N  -1.53700 18.42400 29.52400
C  -1.71800 17.39600 30.52500
C  -1.90500 18.00600 31.90500
C  -2.32900 19.48200 31.46700
C  -1.92200 19.62500 29.97600
C  -3.85200 19.67200 31.56900
C  -0.72000 18.07100 32.83700
C  -1.12000 17.73400 34.26800
H  -0.08900 17.77500 35.29300
N  -1.16500 20.19500 26.93800
C  -1.56900 21.08600 27.83300
C  -1.66500 22.46000 27.18800
C  -1.39500 22.20300 25.76100
C  -1.06600 20.74000 25.66200
C  -2.16200 23.58300 27.94900
C  -1.33500 23.17200 24.55200
O  -1.00700 22.79900 23.42900
C  -1.80600 24.57100 24.67600
N  -0.42600 17.71300 25.39100
C  -0.41700 18.67300 24.38400
C  -0.30000 17.93200 22.93800
C  0.05600 16.52100 23.40100
C  -0.24000 16.44300 24.88700
C  -1.55300 17.96600 21.97500
C  1.51300 16.03300 23.08900
C  2.66000 16.95400 23.67300
N  -1.11200 16.07700 27.60600
C  -1.01200 14.99700 26.76400
C  -1.26400 13.74300 27.50100
C  -1.42100 14.11800 28.78200
C  -1.29600 15.52800 28.87300
C  -1.26300 12.38200 26.90500
C  -1.63900 13.59800 30.08400
O  -1.80800 12.42100 30.41600
C  -1.71200 14.87500 31.01700
C  -0.59400 14.78300 31.90600
O  0.58600 15.20200 31.63600
O  -0.99600 14.13700 33.02200
C  0.05500 13.92300 34.00600
H  -2.35300 21.67400 29.70400
H  -0.68700 20.49900 23.56800
H  -0.19500 14.31800 24.98200
H  -2.65900 17.41400 32.42400
H  -1.83200 20.31300 31.96800
H  -4.37700 18.82900 32.01900
H  -4.24100 19.85500 30.56700
H  -4.11600 20.55600 32.14900
H  -0.32700 19.08500 32.89700
H  0.14300 17.45600 32.58200
H  -1.43000 16.69100 34.19900
H  -2.00900 18.31100 34.52000
H  -1.84500 23.59700 28.99200
H  -3.24500 23.49600 27.86400
H  -1.85900 24.55800 27.56800
H  -1.59000 25.12000 23.75900
H  -1.17500 25.11700 25.37700
H  -2.82800 24.73800 25.01700
H  0.54300 18.37800 22.41100
H  -0.51300 15.78200 22.83700
H  -2.31400 17.36700 22.47600
H  -1.42500 17.58900 20.96000
H  -1.68600 19.03600 21.81100
H  1.60100 15.92300 22.00900
H  1.67800 15.02700 23.47600
H  2.97300 17.66200 22.90500
H  3.54400 16.32500 23.77200
H  2.41100 17.27500 24.68400
H  -1.13200 12.24600 25.83200
H  -2.21000 11.92500 27.19200
H  -0.57400 11.75400 27.47000
H  -2.65300 15.01000 31.54900
H  0.46900 14.89200 34.28500
H  0.86200 13.36600 33.53100
H  -0.41600 13.54400 34.91300
Mg 16.56700 51.82000 26.40800
C  18.47500 50.83000 29.20200
C  14.08400 52.75000 28.46900
C  14.85900 52.82100 23.65900
C  19.21300 50.86600 24.34800
N  16.33900 51.85000 28.55100
C  17.22000 51.40000 29.53700
C  16.65500 51.58100 30.93500
C  15.15000 51.89000 30.61000
C  15.19400 52.17800 29.10800
C  14.05500 50.82300 30.99500
C  17.40600 52.65500 31.78600
C  17.80800 52.21000 33.15600
H  16.80700 52.70100 34.20100
N  14.78000 52.75700 26.15200
C  13.84300 53.01400 27.12800
C  12.72300 53.73100 26.54200
C  12.91000 53.74600 25.14100
C  14.19800 53.02900 24.95400
C  11.54600 54.30300 27.39400
C  12.07200 54.36700 24.02600
O  12.39100 54.37300 22.87900
C  10.68200 54.95200 24.31800
N  16.89000 51.68500 24.29100
C  16.05700 52.24700 23.36900
C  16.68800 52.29300 21.95500
C  18.08200 51.65900 22.20900
C  18.12600 51.47800 23.69500
C  15.84400 51.67300 20.85400
C  19.33100 52.50600 21.75200
C  20.29300 51.90500 20.72900
N  18.39000 50.82500 26.65600
C  19.38200 50.54700 25.72500
C  20.55100 49.92000 26.39100
C  20.24300 50.07800 27.76400
C  18.90900 50.58900 27.86200
C  21.85100 49.44200 25.81900
C  20.72000 49.88000 29.11300
O  21.84000 49.52300 29.49400
C  19.56400 50.20000 30.13000
C  19.14100 48.94000 30.83800
O  18.65400 47.95600 30.31100
O  19.21700 49.14900 32.16700
C  18.73800 48.05500 33.08600
H  13.32800 53.08200 29.18400
H  14.37300 53.07200 22.71400
H  20.10900 50.60100 23.78400
H  16.74000 50.60500 31.41200
H  14.85300 52.79700 31.13800
H  13.47000 51.12400 31.86500
H  14.59200 49.87700 31.05500
H  13.36600 50.67900 30.16200
H  16.90200 53.62100 31.79600
H  18.37200 52.83200 31.31300
H  18.77900 52.63500 33.41100
H  17.90800 51.12700 33.22800
H  10.62500 53.87600 26.99700
H  11.55200 55.38700 27.28600
H  11.57900 53.99300 28.43800
H  10.20500 55.09100 23.34800
H  10.89200 55.76800 25.00900
H  10.07600 54.11300 24.66100
H  16.83600 53.35300 21.75300
H  18.15300 50.67400 21.74700
H  16.19200 50.73600 20.41800
H  15.73400 52.50800 20.16200
H  14.92000 51.35200 21.33600
H  19.86100 52.92900 22.60500
H  18.96400 53.40500 21.25600
H  21.18100 52.53600 20.75900
H  19.81500 51.99900 19.75400
H  20.44400 50.83400 20.86900
H  21.72600 48.51600 25.25800
H  22.59800 49.36900 26.61000
H  22.07100 50.15300 25.02200
H  20.07200 50.83300 30.85600
H  17.68700 48.29900 33.24000
H  19.23300 48.06600 34.05700
H  18.88300 47.06200 32.66200

