158

Mg 26.02200 1.23200 29.24100
C  28.10400 1.30700 32.10600
C  23.41900 1.62400 31.42900
C  24.04500 1.13700 26.53800
C  28.74800 0.62300 27.22600
N  25.84900 1.40300 31.53100
C  26.75700 1.35400 32.54800
C  26.20800 1.60200 33.96900
C  24.71400 1.49000 33.59500
C  24.62400 1.52900 32.07400
C  23.98400 0.29700 34.27600
C  26.74200 2.86500 34.68200
C  27.12500 2.48100 36.13100
H  26.36300 3.25900 37.21700
N  23.92400 1.25800 28.99600
C  23.04500 1.56200 30.01800
C  21.71900 1.70800 29.40000
C  21.80500 1.36900 27.99500
C  23.30000 1.27700 27.76900
C  20.45000 1.91800 30.32700
C  20.76600 1.25500 26.86400
O  21.06100 0.82100 25.78300
C  19.29500 1.63900 27.17600
N  26.36200 1.07000 27.12700
C  25.39000 0.95900 26.19800
C  25.93800 0.78100 24.73200
C  27.49500 0.60600 25.07500
C  27.58000 0.78200 26.54800
C  25.38000 -0.22400 23.73000
C  28.32000 1.63600 24.40300
C  28.68800 1.35300 22.93900
N  28.03100 1.17900 29.49800
C  29.01200 0.75400 28.56000
C  30.21000 0.74300 29.25900
C  29.86500 0.94000 30.59600
C  28.55200 1.19700 30.74900
C  31.63800 0.60000 28.73000
C  30.48400 0.97500 31.94700
O  31.68400 0.84100 32.26800
C  29.35500 1.23400 32.97200
C  29.39900 0.12500 34.03500
O  28.96300 -1.00300 33.93700
O  29.82800 0.68500 35.22500
C  29.66000 -0.17500 36.45000
H  22.57200 1.83100 32.08500
H  23.36800 1.32800 25.70300
H  29.63100 0.41700 26.61700
H  26.51500 0.70400 34.50500
H  24.25900 2.37200 34.04600
H  23.86900 -0.61200 33.68500
H  22.97800 0.62600 34.53600
H  24.41200 0.05400 35.24900
H  26.03800 3.69600 34.63900
H  27.65500 3.25700 34.23300
H  28.19300 2.59700 36.31500
H  26.74400 1.47500 36.30900
H  19.65600 1.23200 30.03100
H  20.11400 2.95200 30.25300
H  20.69500 1.77300 31.37900
H  19.39200 2.67900 27.48800
H  19.02900 0.86500 27.89500
H  18.64800 1.60000 26.29900
H  25.77000 1.76100 24.28500
H  27.76800 -0.39900 24.75300
H  24.71700 -0.80900 24.36800
H  26.15200 -0.88100 23.32900
H  24.85000 0.20200 22.87900
H  29.17500 1.92000 25.01500
H  27.76100 2.54600 24.18600
H  28.27300 0.35700 22.78500
H  29.77100 1.28600 22.84000
H  28.30000 2.03000 22.17800
H  32.22900 0.02200 29.44100
H  31.96100 1.64100 28.76700
H  31.55300 0.32100 27.68000
H  29.49100 2.22300 33.40900
H  29.54000 -1.24400 36.27200
H  28.78600 0.17500 37.00000
H  30.48700 -0.09900 37.15600
Mg 48.03700 16.41100 28.68200
C  46.09400 16.16900 31.64100
C  50.33500 18.17300 30.39600
C  49.54800 16.70600 25.74200
C  45.18400 14.83700 27.06500
N  48.14300 17.11300 30.73500
C  47.31900 16.83700 31.78800
C  47.82400 17.32500 33.16300
C  49.04100 18.22000 32.70000
C  49.20900 17.82900 31.16300
C  48.98600 19.73000 33.03600
C  48.11000 16.03400 34.06800
C  47.94200 16.14700 35.61600
H  47.49400 17.50000 36.22900
N  49.76700 17.20900 28.13200
C  50.62200 17.90800 29.00200
C  51.90100 18.15300 28.32900
C  51.72900 17.70500 26.95700
C  50.37200 17.19600 26.91400
C  53.18400 18.74000 29.06300
C  52.69200 17.72700 25.87800
O  52.38100 17.26400 24.78400
C  54.06700 18.19600 26.07400
N  47.45000 15.75900 26.75600
C  48.30000 16.12200 25.69100
C  47.64200 15.71600 24.33900
C  46.34500 14.96800 24.75400
C  46.31400 15.19000 26.26600
C  47.52200 16.82600 23.35800
C  46.25700 13.41600 24.50500
C  46.04600 12.95600 23.06400
N  46.14900 15.53300 29.29100
C  45.12000 14.98200 28.45000
C  43.94600 14.78300 29.25800
C  44.30100 15.18000 30.53000
C  45.59500 15.67300 30.47500
C  42.57700 14.25700 28.69000
C  43.75600 15.28900 31.83000
O  42.66500 14.99800 32.38400
C  45.01900 15.77800 32.64600
C  44.57700 16.96100 33.36900
O  44.13800 18.00700 32.87600
O  44.45100 16.60700 34.70700
C  43.50300 17.24100 35.66300
H  51.07600 18.75000 30.95400
H  50.03200 16.71100 24.76300
H  44.34000 14.51200 26.45300
H  46.96800 17.86600 33.56700
H  49.94000 17.78200 33.13400
H  48.86700 20.44100 32.21800
H  49.86200 19.96600 33.64000
H  48.08400 19.89000 33.62600
H  49.13100 15.73500 33.83100
H  47.48500 15.23200 33.67500
H  48.91400 15.91600 36.05300
H  47.17400 15.38000 35.71100
H  53.93800 17.95900 29.15300
H  53.05400 19.05700 30.09700
H  53.47100 19.61900 28.48700
H  54.61500 18.04400 25.14400
H  54.38500 17.56100 26.90200
H  54.01700 19.25700 26.32000
H  48.33700 15.04000 23.84100
H  45.49100 15.51700 24.35800
H  48.21200 16.62800 22.53800
H  47.89800 17.71900 23.85800
H  46.48900 17.00200 23.06000
H  45.77000 12.85400 25.30200
H  47.26700 13.07200 24.72700
H  46.49000 11.96900 22.93000
H  46.47100 13.66400 22.35300
H  44.96200 12.93300 22.95200
H  42.20000 14.77100 27.80600
H  41.87000 14.45100 29.49800
H  42.68400 13.19100 28.48900
H  45.25500 14.99700 33.36700
H  42.80500 16.43800 35.89800
H  42.88800 17.98100 35.15000
H  43.90800 17.60100 36.60900

