158

Mg 49.82000 35.96300 28.55400
C  47.50600 34.67000 30.48000
C  50.10900 38.67100 30.57500
C  52.15500 37.33600 26.39500
C  49.15600 33.71000 25.98800
N  49.00000 36.51400 30.43000
C  48.12400 35.75400 31.15100
C  47.84800 36.40900 32.60500
C  48.35500 37.88200 32.28300
C  49.27900 37.65500 31.09500
C  47.24500 38.92100 31.96900
C  48.44000 35.67800 33.76300
C  49.97400 35.33900 33.72900
H  50.74700 35.48300 35.00900
N  51.05100 37.73800 28.53700
C  51.03000 38.70400 29.53400
C  52.11100 39.63500 29.27900
C  52.67300 39.31600 27.97600
C  52.02000 38.07700 27.54500
C  52.33900 40.72700 30.22800
C  53.93600 39.94400 27.28100
O  54.56300 39.51900 26.32800
C  54.45700 41.20000 28.02000
N  50.32200 35.77300 26.24900
C  51.43700 36.35600 25.77400
C  51.82600 35.80900 24.39100
C  50.75700 34.66900 24.21500
C  50.10300 34.65300 25.57400
C  51.73300 36.86800 23.20300
C  51.39200 33.34900 23.82900
C  52.31900 33.33100 22.57700
N  48.66000 34.45400 28.27100
C  48.43600 33.59700 27.19400
C  47.54200 32.57100 27.57100
C  47.06100 33.03100 28.80400
C  47.78600 34.13900 29.19100
C  47.08200 31.38600 26.86300
C  46.10200 32.75600 29.88900
O  45.26500 31.81500 29.97900
C  46.24900 33.93800 30.92300
C  46.28100 33.31200 32.24600
O  46.94900 32.33000 32.46100
O  45.35600 33.78000 33.06200
C  45.35300 33.27500 34.42900
H  50.12300 39.41500 31.37400
H  53.02000 37.58400 25.77700
H  48.85500 32.93800 25.27600
H  46.78300 36.23200 32.75800
H  48.94200 38.22300 33.13600
H  47.29400 39.64000 32.78800
H  46.26400 38.44800 31.94100
H  47.37200 39.59800 31.12500
H  47.96700 34.70000 33.66900
H  48.13400 36.05900 34.73700
H  50.43700 35.99700 32.99300
H  50.13000 34.32600 33.35800
H  53.32600 40.68000 30.69000
H  51.68500 40.61200 31.09300
H  52.18600 41.68900 29.74100
H  53.83000 42.08900 28.09300
H  55.30200 41.52700 27.41300
H  54.84800 40.87600 28.98400
H  52.84400 35.42500 24.45100
H  49.99700 34.98900 23.50200
H  51.08200 36.61400 22.36600
H  52.72000 36.90700 22.74200
H  51.54800 37.83100 23.67900
H  50.65700 32.55800 23.68000
H  51.89500 32.87600 24.67200
H  53.36600 33.31500 22.87800
H  52.20200 34.34100 22.18500
H  52.02700 32.54100 21.88500
H  46.49200 31.77500 26.03300
H  46.52300 30.72900 27.52900
H  47.88600 30.74500 26.50200
H  45.42800 34.65000 30.84400
H  45.31300 34.18100 35.03300
H  46.16300 32.62000 34.74800
H  44.46700 32.69500 34.68600
Mg 30.10600 57.71600 40.67000
C  27.72300 55.39000 39.50800
C  32.48200 55.62700 39.19200
C  32.42700 60.20800 40.97000
C  27.56000 59.97800 41.42800
N  30.03100 55.74200 39.56300
C  29.01500 54.91200 39.20700
C  29.49100 53.68800 38.36800
C  30.93400 53.59200 38.75600
C  31.17500 55.03800 39.19500
C  31.40200 52.54200 39.82900
C  29.26100 54.02800 36.85200
C  28.54200 52.92900 36.12100
H  27.37100 53.48500 35.27100
N  32.16600 57.90700 40.17200
C  32.91900 56.85700 39.65300
C  34.28800 57.27500 39.65100
C  34.37800 58.65700 40.12700
C  32.95500 58.97600 40.46000
C  35.39300 56.36500 39.16700
C  35.65400 59.40600 40.32000
O  36.73500 58.91500 39.95300
C  35.66600 60.68800 41.12000
N  30.03000 59.76400 41.22100
C  31.06700 60.60400 41.28100
C  30.65200 62.02400 41.79500
C  29.13300 61.91800 41.97300
C  28.88100 60.45400 41.53100
C  31.36300 62.62100 43.02300
C  28.23400 62.94400 41.20000
C  27.37300 63.84900 42.12700
N  28.13200 57.68000 40.67300
C  27.22600 58.61800 41.04800
C  25.88800 58.12800 40.95500
C  26.06700 56.88200 40.33100
C  27.43600 56.60900 40.16900
C  24.60200 58.87000 41.29700
C  25.31500 55.67300 39.93000
O  24.12300 55.40200 40.04100
C  26.38300 54.65200 39.32500
C  26.30800 53.39800 40.09800
O  26.66700 53.17300 41.25300
O  25.61400 52.52600 39.31200
C  25.45900 51.18100 39.93400
H  33.20000 54.86000 38.89400
H  33.16600 61.00600 41.06900
H  26.82800 60.64100 41.89200
H  28.96600 52.86000 38.84600
H  31.60200 53.38300 37.92000
H  32.01000 51.75300 39.38700
H  30.55500 52.06200 40.32000
H  31.98700 53.03500 40.60500
H  30.19400 54.06400 36.28900
H  28.78000 55.00400 36.78500
H  28.20600 52.15000 36.80400
H  29.26100 52.48600 35.43200
H  35.98500 56.86700 38.40200
H  35.08100 55.40300 38.76100
H  36.09600 56.07700 39.94800
H  35.43000 61.52800 40.46700
H  36.66700 60.84900 41.52000
H  35.01100 60.62600 41.98900
H  30.87800 62.69100 40.96300
H  28.99500 61.96400 43.05300
H  32.11000 61.88500 43.32300
H  30.72100 62.87100 43.86700
H  31.85400 63.53600 42.69100
H  27.52000 62.42500 40.56100
H  28.77600 63.51000 40.44200
H  27.64400 64.90000 42.03100
H  27.44000 63.46300 43.14400
H  26.34000 63.60500 41.88000
H  24.16000 59.41100 40.46100
H  24.63700 59.60800 42.09800
H  23.92800 58.05500 41.56100
H  26.22800 54.52900 38.25300
H  26.45900 50.80400 40.14900
H  24.94800 50.60000 39.16500
H  24.93400 51.22100 40.88800

