158

Mg 49.61900 45.98600 42.14400
C  46.31300 46.79300 41.50100
C  49.15100 42.81700 40.66700
C  53.03200 45.53700 41.96800
C  50.15700 49.16200 43.37500
N  47.93500 44.97400 41.21700
C  46.75400 45.53400 40.96200
C  45.80400 44.67300 40.12100
C  46.69700 43.36200 39.99000
C  48.03100 43.74700 40.65000
C  46.05500 42.15700 40.59000
C  45.41700 45.39700 38.71500
C  43.95600 45.17300 38.42400
H  43.58300 44.77500 36.98400
N  50.87200 44.32600 41.55500
C  50.49200 43.10300 41.04100
C  51.63600 42.23600 40.86200
C  52.77000 43.03300 41.18400
C  52.30900 44.38600 41.55300
C  51.52700 40.85900 40.20400
C  54.19600 42.49200 41.18600
O  54.40100 41.27500 40.92700
C  55.42800 43.37700 41.60800
N  51.30200 47.17100 42.55500
C  52.65800 46.74700 42.45100
C  53.68600 47.84300 42.95500
C  52.73000 49.01500 43.39100
C  51.25600 48.40700 43.14500
C  54.73800 47.42500 44.03100
C  52.99800 50.40000 42.64900
C  53.69100 51.45300 43.50600
N  48.49100 47.69000 42.34700
C  48.80900 48.86500 43.04200
C  47.66200 49.71800 43.17100
C  46.59700 48.86400 42.65600
C  47.18600 47.67200 42.08800
C  47.64600 51.08500 43.65300
C  45.10400 48.77000 42.38900
O  44.18600 49.48100 42.77400
C  44.86400 47.35400 41.63000
C  43.90300 46.52600 42.43100
O  43.99900 46.19500 43.59700
O  42.85500 46.09000 41.60500
C  41.90500 45.14900 42.28600
H  48.84100 41.83700 40.29800
H  54.10600 45.35500 42.04000
H  50.29500 50.14400 43.83200
H  44.96000 44.43000 40.76700
H  46.73300 43.17800 38.91600
H  46.24200 41.31900 39.91900
H  44.97100 42.23500 40.50800
H  46.33100 41.88500 41.60800
H  46.04500 44.92000 37.96300
H  45.63000 46.46500 38.77500
H  43.56800 46.18100 38.57200
H  43.59000 44.33300 39.01400
H  52.30500 40.09900 40.13100
H  51.19200 40.97100 39.17300
H  50.73100 40.27900 40.67000
H  55.11800 43.66300 42.61300
H  55.46800 44.20900 40.90600
H  56.35800 42.80800 41.62600
H  54.23900 48.04700 42.03800
H  52.87400 49.09800 44.46900
H  55.72700 47.66000 43.63800
H  54.64600 46.37600 44.31300
H  54.56200 48.08500 44.88100
H  52.08300 50.92700 42.38200
H  53.60100 50.25900 41.75100
H  54.71600 51.43600 43.13400
H  53.51500 51.23900 44.56000
H  53.30800 52.46500 43.36900
H  47.94200 51.78800 42.87400
H  48.20200 51.12800 44.59000
H  46.61900 51.36700 43.88600
H  44.38000 47.47600 40.66100
H  41.20200 44.64500 41.62300
H  41.46600 45.79100 43.05000
H  42.59100 44.44300 42.75300
Mg -5.99100 25.25500 25.54300
C  -4.42300 26.37800 28.28800
C  -7.88500 23.18700 27.65600
C  -7.11400 23.43300 22.85000
C  -3.69000 26.80600 23.54600
N  -6.08400 24.83900 27.71000
C  -5.45600 25.50200 28.71300
C  -5.98500 25.24400 30.12000
C  -6.85300 23.98500 29.85700
C  -6.91000 23.95300 28.26600
C  -6.29500 22.70000 30.40100
C  -6.68200 26.49200 30.78800
C  -6.07800 26.88500 32.13300
H  -5.52100 25.74500 32.97900
N  -7.50000 23.74600 25.26000
C  -8.16700 23.11200 26.26900
C  -9.08800 22.16900 25.66400
C  -8.80900 22.14000 24.28200
C  -7.79800 23.12900 24.07700
C  -9.94900 21.29700 26.37500
C  -9.53100 21.23600 23.21700
O  -9.39000 21.46400 22.00800
C  -10.49100 20.14500 23.57800
N  -5.39800 25.07200 23.41800
C  -6.03800 24.24600 22.51800
C  -5.32500 24.37100 21.12100
C  -4.34600 25.62500 21.37100
C  -4.50000 25.92300 22.89500
C  -4.64400 23.13000 20.58600
C  -4.74800 26.92300 20.47500
C  -3.56200 27.42200 19.63900
N  -4.32400 26.41000 25.86500
C  -3.49400 27.06100 24.93100
C  -2.64300 27.93000 25.64600
C  -2.96700 27.65800 27.00600
C  -3.98900 26.72400 27.04900
C  -1.76300 28.94500 24.95200
C  -2.61100 27.95400 28.35100
O  -1.69400 28.61400 28.85500
C  -3.56300 27.11400 29.18200
C  -2.51500 26.31100 30.01900
O  -1.92400 25.33800 29.59200
O  -2.43600 26.76300 31.29000
C  -1.39400 26.05700 32.14600
H  -8.45900 22.55100 28.33300
H  -7.44100 23.06800 21.87400
H  -3.12500 27.44300 22.86200
H  -5.19200 24.90500 30.78700
H  -7.90200 24.04900 30.14400
H  -5.21900 22.79700 30.54400
H  -6.38700 21.93700 29.62700
H  -6.83900 22.40700 31.29900
H  -7.76300 26.35900 30.83800
H  -6.53800 27.30200 30.07300
H  -6.87100 27.32600 32.73600
H  -5.40900 27.74600 32.11900
H  -10.93100 21.24500 25.90300
H  -10.18800 21.73700 27.34300
H  -9.42400 20.35100 26.50400
H  -10.13400 19.50300 24.38300
H  -10.73200 19.51800 22.72000
H  -11.39400 20.62400 23.95800
H  -6.14500 24.62700 20.45100
H  -3.38000 25.24100 21.04200
H  -3.57600 23.26700 20.41800
H  -5.12000 22.90900 19.63100
H  -4.78800 22.25400 21.22000
H  -4.91600 27.77600 21.13300
H  -5.74700 26.80500 20.05600
H  -2.73200 26.71900 19.56700
H  -3.23000 28.29400 20.20200
H  -4.01900 27.61300 18.66800
H  -1.38000 28.60600 23.98900
H  -0.93000 29.10400 25.63700
H  -2.28600 29.89700 24.86500
H  -4.14900 27.73700 29.85900
H  -1.86200 25.65900 33.04700
H  -0.73100 26.87000 32.44000
H  -0.80300 25.25600 31.70200

