158

Mg 48.74100 45.94100 44.16900
C  45.50600 46.21500 42.81600
C  48.85800 42.86900 42.71200
C  51.95800 45.99900 44.80800
C  48.55300 49.41400 44.99300
N  47.29500 44.67200 42.94600
C  46.01000 44.92800 42.57500
C  45.47200 43.83900 41.58300
C  46.45400 42.69000 41.91800
C  47.62600 43.46500 42.56000
C  46.02500 41.55500 42.91500
C  45.58400 44.31700 40.05600
C  44.29400 44.48500 39.24100
H  44.03300 43.42400 38.21300
N  50.23300 44.57500 43.88500
C  50.07600 43.33400 43.31100
C  51.31400 42.57600 43.48900
C  52.31600 43.53400 43.98400
C  51.52600 44.76400 44.25000
C  51.52400 41.18700 42.97600
C  53.79700 43.32300 44.13600
O  54.19200 42.12700 44.00400
C  54.72400 44.30000 44.67100
N  50.02200 47.45700 44.91200
C  51.34100 47.20300 45.11600
C  52.22800 48.47800 45.34400
C  51.05000 49.57200 45.40400
C  49.81300 48.75700 45.12400
C  53.09400 48.44500 46.62900
C  51.22200 50.69400 44.33400
C  51.45800 52.05700 44.97200
N  47.33600 47.51900 44.15600
C  47.42300 48.86200 44.46600
C  46.14700 49.56500 44.13400
C  45.39900 48.53800 43.45200
C  46.18100 47.31000 43.42800
C  45.71500 50.96000 44.36100
C  44.11300 48.34600 42.72900
O  43.23800 49.15700 42.37300
C  44.13000 46.80400 42.33100
C  42.98100 46.14000 43.06300
O  42.81000 46.17200 44.30500
O  42.08200 45.59000 42.18700
C  41.08900 44.73500 42.81300
H  48.75600 41.80500 42.48900
H  53.04800 46.06000 44.84900
H  48.57100 50.48800 45.19000
H  44.45200 43.64200 41.91200
H  46.78500 42.23000 40.98700
H  45.67200 40.67300 42.38000
H  45.15500 41.88300 43.48400
H  46.79100 41.31800 43.65300
H  46.15000 43.52900 39.55900
H  46.20700 45.21100 40.07600
H  44.26900 45.45300 38.74100
H  43.41000 44.55200 39.87400
H  50.74700 40.99800 42.23500
H  51.46400 40.43500 43.76300
H  52.46400 41.19400 42.42300
H  55.77400 44.01100 44.64700
H  54.51600 44.44000 45.73200
H  54.70600 45.14000 43.97700
H  52.89200 48.58900 44.48700
H  50.95700 49.98500 46.40900
H  52.57100 48.91400 47.46300
H  53.88700 49.11000 46.28700
H  53.49100 47.45400 46.84800
H  50.32100 50.90300 43.75800
H  52.04500 50.39600 43.68400
H  52.51500 52.13800 45.22500
H  50.85800 52.11100 45.88100
H  51.12300 52.82400 44.27300
H  44.74800 50.87100 44.85700
H  45.79000 51.59500 43.47900
H  46.34500 51.40900 45.12800
H  43.94300 46.72900 41.25900
H  41.18300 43.71800 42.43400
H  40.09900 45.16100 42.65000
H  41.18600 44.68600 43.89700
Mg 48.92400 36.32100 28.16300
C  46.83900 34.52300 30.32700
C  48.87200 39.06700 30.25700
C  50.83100 38.04100 25.98000
C  48.54200 33.75000 25.89300
N  48.00400 36.69600 30.05800
C  47.32700 35.75100 30.83400
C  47.21900 36.29100 32.26100
C  47.56500 37.82500 32.17200
C  48.23300 37.89800 30.75000
C  46.28200 38.74900 32.21600
C  48.33100 35.60100 33.14200
C  47.84100 35.34300 34.61100
H  46.75600 36.24500 35.17000
N  49.63900 38.33300 28.04200
C  49.54900 39.29500 29.04400
C  50.12600 40.51100 28.57900
C  50.79100 40.24100 27.38400
C  50.44800 38.78800 27.09600
C  50.13500 41.78400 29.38500
C  51.80000 41.08800 26.62700
O  52.52300 40.58600 25.77600
C  51.95800 42.55500 26.92800
N  49.66300 35.88900 26.28000
C  50.41500 36.75600 25.57600
C  50.96000 36.11900 24.32900
C  50.32100 34.65600 24.36300
C  49.39000 34.81400 25.54700
C  50.64700 36.89900 22.96200
C  51.31200 33.42200 24.46600
C  51.17500 32.23100 23.41500
N  47.92000 34.47300 28.08200
C  47.85600 33.52500 27.11400
C  47.10500 32.36700 27.66000
C  46.67800 32.73100 28.92800
C  47.16800 34.03400 29.07700
C  46.87900 31.06500 27.00600
C  45.85200 32.32600 30.05300
O  45.28300 31.28300 30.28600
C  45.88100 33.60100 30.96100
C  46.07800 33.24500 32.41500
O  46.98000 32.51300 32.74900
O  44.90500 33.58500 33.16500
C  44.76300 32.78100 34.42300
H  49.00200 39.92200 30.92400
H  51.53700 38.45500 25.25800
H  48.47900 32.93100 25.17400
H  46.22500 35.94500 32.54300
H  48.20200 38.16200 32.99000
H  46.17900 39.43500 33.05700
H  45.34800 38.18800 32.22500
H  46.21800 39.28800 31.27000
H  49.19000 36.27100 33.19900
H  48.76200 34.72000 32.66700
H  48.68200 35.36900 35.30300
H  47.61400 34.27800 34.63100
H  50.09000 42.77800 28.94000
H  51.08900 41.79700 29.91300
H  49.40000 41.77800 30.18900
H  52.33100 42.75600 27.93200
H  51.00800 43.08500 26.85300
H  52.63900 42.82200 26.12000
H  52.01700 35.92800 24.51000
H  49.71900 34.47600 23.47300
H  50.03400 37.77500 23.17500
H  50.12500 36.26600 22.24500
H  51.47500 37.37200 22.43400
H  51.26600 33.05100 25.49000
H  52.34000 33.77600 24.37700
H  50.41400 32.40100 22.65200
H  50.92800 31.29300 23.91400
H  52.14900 32.09900 22.94400
H  47.15100 30.23400 27.65700
H  47.41000 30.81600 26.08700
H  45.81200 30.88700 26.86500
H  44.92300 34.10100 30.82200
H  45.56800 32.11400 34.73000
H  43.79100 32.28900 34.45000
H  44.75100 33.46300 35.27300

