158

Mg -1.39800 17.26600 26.21900
C  -1.94300 15.11200 28.91800
C  -1.86000 20.01800 28.20600
C  -1.61600 19.20100 23.52700
C  -1.79200 14.33600 24.08100
N  -1.80800 17.47700 28.28300
C  -1.90700 16.46800 29.30400
C  -2.03900 17.10200 30.66300
C  -2.00700 18.58900 30.35500
C  -1.89600 18.74900 28.87200
C  -3.18300 19.33400 31.06100
C  -0.98600 16.53700 31.74100
C  -0.63500 17.43900 32.89100
H  -0.32100 16.77800 34.23900
N  -1.56600 19.31300 25.94200
C  -1.76700 20.27000 26.88100
C  -1.80400 21.54100 26.25600
C  -1.67700 21.36900 24.83300
C  -1.61600 19.89600 24.70000
C  -1.92600 22.85200 27.03200
C  -1.76700 22.41500 23.71300
O  -1.72600 22.11100 22.53300
C  -1.92900 23.90600 24.03300
N  -1.47400 16.80100 24.11500
C  -1.55600 17.84300 23.24600
C  -1.79200 17.27300 21.80400
C  -1.60200 15.73000 21.89400
C  -1.57100 15.58600 23.44300
C  -3.12200 17.78600 21.13900
C  -0.35000 15.15800 21.29500
C  1.07400 15.90300 21.62000
N  -1.76300 15.16200 26.36600
C  -1.82000 14.10800 25.47800
C  -1.87600 12.87300 26.16000
C  -1.97300 13.22700 27.49800
C  -1.90400 14.59800 27.59300
C  -1.92200 11.52200 25.47300
C  -2.08100 12.73000 28.83900
O  -2.17000 11.51600 29.16400
C  -2.16400 13.92100 29.81100
C  -1.08300 13.65900 30.82700
O  0.05800 14.01700 30.68800
O  -1.62700 12.91900 31.87700
C  -0.72200 12.50400 32.94700
H  -1.85700 20.86700 28.89400
H  -1.49900 19.67600 22.55100
H  -1.96800 13.48000 23.42700
H  -2.96100 16.69900 31.08200
H  -1.02500 18.92700 30.68600
H  -3.37500 18.80600 31.99500
H  -4.10200 19.44200 30.48400
H  -2.88400 20.31200 31.43700
H  -0.09200 16.10400 31.29200
H  -1.45900 15.72800 32.29900
H  -1.39900 18.20000 33.05100
H  0.24700 17.98100 32.54900
H  -0.92500 23.25700 27.18400
H  -2.35700 22.75300 28.02800
H  -2.51100 23.60100 26.49900
H  -2.97300 24.10700 24.27200
H  -1.94100 24.40900 23.06600
H  -1.26800 24.27800 24.81600
H  -0.97600 17.71300 21.23100
H  -2.42500 15.11700 21.52600
H  -3.65800 18.47500 21.79100
H  -3.90400 17.02900 21.08100
H  -2.95400 18.15900 20.12900
H  -0.50900 15.13400 20.21700
H  -0.32700 14.10000 21.55500
H  1.28200 16.54000 20.76000
H  1.81900 15.11100 21.69900
H  1.07700 16.54600 22.50000
H  -1.35100 10.85800 26.12200
H  -1.58900 11.43900 24.43900
H  -2.95700 11.18000 25.50600
H  -3.19100 13.88800 30.17300
H  -1.30800 12.48700 33.86600
H  0.15600 13.14600 33.02800
H  -0.43200 11.46900 32.76900
Mg 48.82100 45.52400 43.67800
C  45.54200 45.62800 42.38300
C  48.95800 42.29000 42.84200
C  52.02400 45.80000 43.91200
C  48.47700 49.05600 44.19200
N  47.34400 44.21800 42.74500
C  46.15800 44.45500 42.23800
C  45.61400 43.22700 41.45400
C  46.63100 42.09900 41.83500
C  47.72300 42.88300 42.59100
C  46.11500 40.91200 42.82300
C  45.62700 43.50000 39.87400
C  44.37100 43.11900 39.11300
H  44.36000 41.89400 38.14700
N  50.30700 44.18400 43.51200
C  50.22000 42.84400 43.19300
C  51.51000 42.22800 43.19800
C  52.43400 43.23700 43.55000
C  51.62500 44.51900 43.63500
C  51.64300 40.70300 42.86700
C  53.88300 42.98900 43.82900
O  54.26500 41.84000 43.78700
C  54.90400 44.08700 44.16800
N  50.04100 47.23300 44.11800
C  51.36300 47.06100 44.13500
C  52.11200 48.40000 44.35900
C  50.98200 49.47800 44.54700
C  49.75100 48.53200 44.26400
C  53.14400 48.35600 45.50500
C  51.09700 50.61300 43.49900
C  50.80600 52.10500 43.92000
N  47.33500 47.09600 43.38800
C  47.27900 48.38700 43.69600
C  45.99700 48.95300 43.53900
C  45.25300 47.90000 42.96100
C  46.16600 46.80400 42.93400
C  45.53300 50.43700 43.90400
C  43.99400 47.52000 42.36400
O  43.01600 48.21500 42.18100
C  44.10100 45.97700 42.01400
C  43.01500 45.28100 42.72200
O  42.49700 44.30100 42.22400
O  42.55900 45.86600 43.82900
C  41.53900 45.07600 44.56200
H  48.93200 41.25100 42.50600
H  53.11400 45.86400 43.88700
H  48.27100 50.05100 44.59100
H  44.67000 42.79300 41.78200
H  47.01000 41.52800 40.98700
H  46.30900 39.99900 42.26200
H  45.05400 41.10800 42.97500
H  46.48900 40.86400 43.84600
H  46.32900 42.82200 39.38800
H  45.81700 44.54400 39.62500
H  44.11700 43.97400 38.48500
H  43.56800 42.98200 39.83600
H  52.16100 40.65100 41.90900
H  50.75900 40.08700 42.70400
H  52.33000 40.19300 43.54200
H  55.85900 43.67900 44.49800
H  54.42100 44.59100 45.00600
H  55.00600 44.69200 43.26700
H  52.69200 48.75400 43.50700
H  50.99400 49.79100 45.59100
H  54.11600 48.54200 45.04700
H  53.15700 47.35100 45.92600
H  52.92700 49.04900 46.31800
H  50.64300 50.47800 42.51700
H  52.16200 50.65900 43.27400
H  50.27700 52.05000 44.87100
H  50.13000 52.67700 43.28500
H  51.72400 52.69200 43.90000
H  44.61100 50.70000 43.38600
H  46.27500 51.11100 43.47500
H  45.33500 50.61900 44.96100
H  43.95100 45.83000 40.94500
H  40.58600 44.86800 44.07500
H  41.19000 45.80300 45.29500
H  41.89500 44.25500 45.18500

