158

Mg 0.96000 42.94200 25.90200
C  3.17600 42.84100 28.72800
C  -1.59600 42.59200 28.18000
C  -1.06900 43.00500 23.32800
C  3.68100 43.50100 23.89700
N  0.83800 42.54000 28.19800
C  1.83600 42.66300 29.13000
C  1.22700 42.62500 30.49700
C  -0.21200 42.12700 30.28300
C  -0.35300 42.43400 28.76700
C  -0.57600 40.66700 30.70000
C  1.40900 44.10100 31.13500
C  1.21900 44.29800 32.62300
H  0.85400 43.00500 33.35400
N  -1.00300 42.93000 25.86500
C  -1.93200 42.80600 26.82900
C  -3.24600 42.80900 26.31100
C  -3.14000 43.06800 24.91400
C  -1.65300 43.02400 24.62500
C  -4.50200 42.49000 27.20100
C  -4.25400 43.26600 23.90200
O  -4.01800 43.47500 22.79000
C  -5.71200 43.14500 24.32500
N  1.20700 42.93400 23.81900
C  0.23600 43.00300 22.93000
C  0.79800 43.10600 21.56000
C  2.27100 43.73300 21.76200
C  2.43100 43.32500 23.29000
C  0.92300 41.74300 20.79600
C  2.24200 45.27500 21.68900
C  3.45500 45.96200 20.96500
N  3.00300 42.97400 26.15600
C  4.00200 43.32800 25.27800
C  5.24500 43.51200 25.92600
C  5.02500 43.29500 27.28200
C  3.62300 43.14200 27.42500
C  6.55200 44.00700 25.26000
C  5.59400 43.30400 28.62100
O  6.68100 43.66800 29.02200
C  4.43200 43.04800 29.57700
C  4.61100 41.84500 30.41700
O  4.74300 40.72000 30.07000
O  4.72700 42.28900 31.66700
C  5.04200 41.39100 32.77000
H  -2.46200 42.31100 28.78400
H  -1.68900 43.18200 22.44700
H  4.40500 43.83900 23.15200
H  1.78500 41.91200 31.10300
H  -0.87200 42.81800 30.80700
H  0.21000 40.25100 31.33000
H  -0.64900 40.14400 29.74600
H  -1.51800 40.66800 31.24900
H  0.71400 44.75200 30.60500
H  2.40300 44.40000 30.80100
H  0.42400 45.04000 32.68900
H  2.16900 44.72800 32.94000
H  -5.28200 42.06900 26.56700
H  -4.90000 43.30400 27.80700
H  -4.35200 41.71100 27.94900
H  -5.87400 43.85900 25.13300
H  -6.00300 42.10400 24.46500
H  -6.30900 43.49200 23.48200
H  0.25900 43.84500 20.96800
H  3.05500 43.28200 21.15400
H  1.99000 41.53200 20.73200
H  0.37900 41.70600 19.85200
H  0.47800 41.04300 21.50300
H  2.14500 45.82900 22.62300
H  1.40500 45.61900 21.08200
H  3.13800 46.60900 20.14700
H  4.13300 45.21400 20.55400
H  4.02800 46.56700 21.66800
H  6.51800 44.26400 24.20100
H  7.19000 43.12700 25.17200
H  7.08900 44.77500 25.81700
H  4.37100 43.93100 30.21200
H  4.87500 41.90200 33.71800
H  6.11200 41.20400 32.67100
H  4.46400 40.49300 32.55000
Mg -6.37000 25.35100 26.15500
C  -5.04700 26.88200 29.09100
C  -8.11200 23.26100 28.28600
C  -7.08400 23.43800 23.49100
C  -4.22600 27.21700 24.29500
N  -6.43800 25.09300 28.44000
C  -5.91400 25.87000 29.44200
C  -6.46100 25.49000 30.83100
C  -7.30100 24.20900 30.57100
C  -7.28200 24.17200 29.01000
C  -6.86100 22.90200 31.25600
C  -7.08300 26.60600 31.65500
C  -6.72300 26.73700 33.15000
H  -6.06400 25.60500 33.86500
N  -7.54300 23.71400 25.88100
C  -8.17800 22.99700 26.88500
C  -9.10400 22.11800 26.26400
C  -8.91000 22.20500 24.87000
C  -7.81000 23.14600 24.68700
C  -10.14000 21.28500 27.05500
C  -9.64700 21.55400 23.72500
O  -9.34900 21.83400 22.59600
C  -10.62400 20.46200 24.07200
N  -5.79700 25.29600 24.25200
C  -6.21700 24.50300 23.23200
C  -5.45700 24.61700 21.95400
C  -4.86700 26.10100 22.16500
C  -4.87300 26.13600 23.73400
C  -4.47000 23.49000 21.61500
C  -5.64000 27.23300 21.47200
C  -5.15100 27.85900 20.15800
N  -4.99400 26.84300 26.56100
C  -4.19100 27.55200 25.66600
C  -3.52000 28.65100 26.38500
C  -3.78600 28.37300 27.70800
C  -4.71800 27.30700 27.76200
C  -2.69600 29.75200 25.73400
C  -3.46400 28.76600 29.02800
O  -2.67300 29.60500 29.47300
C  -4.30000 27.83500 29.91500
C  -3.26400 27.13500 30.79100
O  -2.58300 26.20500 30.49600
O  -3.34100 27.77900 31.97000
C  -2.25700 27.52200 32.88400
H  -8.73100 22.59300 28.88900
H  -7.18200 22.68200 22.71000
H  -3.74300 27.85200 23.55000
H  -5.59100 25.24700 31.44100
H  -8.26800 24.58000 30.91200
H  -7.38800 22.05300 30.81900
H  -7.14900 22.90400 32.30700
H  -5.78100 22.79600 31.35300
H  -8.17200 26.58000 31.69700
H  -6.85000 27.48700 31.05700
H  -7.60900 27.04800 33.70400
H  -6.03200 27.57800 33.10700
H  -9.88100 21.40900 28.10600
H  -10.26400 20.24200 26.76200
H  -11.08700 21.80400 26.90300
H  -10.14300 19.71400 24.70300
H  -11.06200 20.15800 23.12200
H  -11.43400 20.82600 24.70500
H  -6.11500 24.76400 21.09800
H  -3.80200 26.21100 21.96100
H  -4.48100 22.81000 22.46700
H  -3.45600 23.74200 21.30300
H  -4.89400 22.97700 20.75300
H  -5.83800 28.05300 22.16300
H  -6.66200 26.88900 21.31400
H  -4.71300 28.83400 20.37200
H  -5.87300 27.85700 19.34100
H  -4.23000 27.36400 19.85100
H  -2.07100 29.30200 24.96300
H  -2.11200 30.35000 26.43400
H  -3.42900 30.32900 25.17100
H  -4.89200 28.47300 30.57100
H  -1.28400 27.89400 32.56300
H  -2.24600 26.49000 33.23200
H  -2.53100 28.11600 33.75600

