158

Mg 17.10200 -2.20200 27.25200
C  16.11500 -0.50200 30.20000
C  18.69500 -4.41500 29.33200
C  17.94200 -3.76000 24.47300
C  15.53000 0.39500 25.45100
N  17.23500 -2.54300 29.51500
C  16.85700 -1.64600 30.48100
C  17.39600 -2.10000 31.91700
C  18.27200 -3.29500 31.58300
C  18.08200 -3.42900 30.03600
C  19.71100 -3.39500 32.14300
C  16.20900 -2.38200 32.89200
C  16.25900 -1.75300 34.33400
H  17.53200 -0.91100 34.69200
N  18.13800 -3.95500 26.97400
C  18.68600 -4.72600 27.96400
C  19.22200 -5.90400 27.28600
C  19.07200 -5.75200 25.88300
C  18.38500 -4.42700 25.69900
C  19.83900 -7.11200 28.01100
C  19.39400 -6.63500 24.66900
O  18.98700 -6.40900 23.56700
C  19.94200 -8.00600 24.94000
N  16.81000 -1.75800 25.32500
C  17.25700 -2.51600 24.31800
C  17.12500 -1.80500 22.94200
C  16.05200 -0.76700 23.31600
C  16.21500 -0.65400 24.81600
C  18.44900 -1.35700 22.25000
C  14.60800 -0.97900 22.84400
C  13.58700 -1.67700 23.76700
N  16.04900 -0.34600 27.69500
C  15.42300 0.48100 26.83500
C  14.72900 1.52800 27.60500
C  14.95400 1.18000 28.92200
C  15.80800 0.00300 28.90700
C  14.03900 2.74200 27.02100
C  14.72300 1.53000 30.29000
O  14.07600 2.49100 30.66000
C  15.50300 0.48300 31.16100
C  16.59900 1.20800 31.91300
O  17.78800 1.38800 31.55500
O  16.00900 1.82000 32.90500
C  16.75000 2.97900 33.44400
H  19.31400 -5.07600 29.94200
H  18.23700 -4.11000 23.48200
H  15.03800 1.21700 24.92800
H  17.98000 -1.23100 32.22000
H  17.78500 -4.13300 32.08000
H  20.43000 -3.56100 31.34000
H  19.73800 -4.23100 32.84100
H  20.11700 -2.51400 32.64100
H  16.24700 -3.44800 33.11200
H  15.29000 -2.40500 32.30700
H  16.30500 -2.57200 35.05100
H  15.37200 -1.12500 34.40900
H  20.82100 -7.39100 27.62900
H  19.01600 -7.82400 27.95200
H  19.91600 -6.87200 29.07100
H  21.03100 -8.04000 24.96300
H  19.59100 -8.63700 24.12400
H  19.62500 -8.56300 25.82200
H  16.67600 -2.67100 22.45500
H  16.35400 0.17100 22.85000
H  18.88900 -2.05400 21.53700
H  19.28400 -1.15700 22.92200
H  18.31100 -0.43000 21.69400
H  14.62500 -1.40000 21.83800
H  14.24500 0.04000 22.70900
H  14.09900 -2.23100 24.55300
H  12.93100 -2.38500 23.26000
H  12.99700 -0.88200 24.22500
H  13.95900 3.51200 27.78900
H  13.08100 2.44000 26.60000
H  14.62300 3.10000 26.17300
H  14.82900 -0.06900 31.81600
H  17.24000 3.51900 32.63400
H  17.56200 2.77600 34.14200
H  16.08200 3.57300 34.06900
Mg 53.28000 23.38400 45.03300
C  50.91400 25.75500 44.26400
C  51.25600 21.00100 43.69800
C  55.85900 21.22400 45.00500
C  55.42400 25.99200 45.89900
N  51.34500 23.39600 43.92700
C  50.46500 24.48000 43.78900
C  49.05000 24.08300 43.20000
C  49.12400 22.52100 43.51100
C  50.69900 22.25500 43.67800
C  48.26500 21.90200 44.71200
C  48.82700 24.53000 41.68100
C  48.83700 23.49000 40.52800
H  48.77800 23.94100 39.12800
N  53.51400 21.36100 44.47100
C  52.54300 20.57400 43.93400
C  53.09900 19.19400 43.87700
C  54.36100 19.22800 44.39800
C  54.65100 20.65100 44.65100
C  52.26800 18.10000 43.50700
C  55.21600 17.93700 44.61200
O  54.79500 16.78700 44.38600
C  56.73300 18.09100 45.08800
N  55.33900 23.55000 45.43100
C  56.20700 22.51300 45.39700
C  57.69800 23.01000 45.63600
C  57.49000 24.46000 45.97000
C  55.99700 24.68000 45.71300
C  58.48500 22.14000 46.70500
C  58.41200 25.48700 45.35000
C  59.75000 25.80700 46.08900
N  53.23300 25.43100 45.19800
C  54.08200 26.33700 45.68900
C  53.42100 27.63800 45.84300
C  52.19800 27.47900 45.22300
C  52.11400 26.12000 44.87900
C  53.90500 28.90500 46.42000
C  50.93500 28.14600 44.97400
O  50.54500 29.29300 45.28400
C  50.02100 27.06700 44.23400
C  49.60400 27.54600 42.89600
O  50.43900 27.96200 42.08500
O  48.27000 27.57500 42.61300
C  47.91300 28.11100 41.32500
H  50.51500 20.20400 43.78800
H  56.71200 20.54600 44.92900
H  56.06700 26.83800 46.15100
H  48.25400 24.55200 43.77800
H  48.92200 21.94900 42.60600
H  48.82600 21.33000 45.45100
H  47.50500 21.20900 44.35100
H  47.75900 22.71000 45.24200
H  49.45800 25.37000 41.39100
H  47.84700 25.00700 41.65600
H  48.02300 22.76900 40.59700
H  49.70000 22.82900 40.61000
H  51.55200 17.82200 44.28100
H  52.70900 17.20500 43.06800
H  51.76200 18.60400 42.68400
H  57.39700 18.39000 44.27700
H  57.15100 17.16300 45.47900
H  56.76000 18.77200 45.93800
H  58.22400 22.92500 44.68500
H  57.58700 24.43400 47.05600
H  58.98500 22.71900 47.48100
H  59.29000 21.67300 46.13900
H  57.79300 21.38300 47.07700
H  57.94800 26.39400 44.96400
H  58.87900 24.91700 44.54700
H  60.59300 25.94200 45.41200
H  60.05200 24.94500 46.68400
H  59.53900 26.71100 46.66100
H  53.25300 29.71200 46.08700
H  54.92300 29.09600 46.07900
H  53.97000 28.92300 47.50800
H  49.06600 27.04300 44.75800
H  48.09300 27.47800 40.45600
H  48.28100 29.13300 41.24100
H  46.82400 28.08200 41.29300

