158

Mg 0.62400 -2.74700 43.43300
C  4.00000 -1.99500 42.32100
C  -0.43600 -0.22600 41.38700
C  -2.50900 -3.85200 43.79300
C  1.82100 -5.80300 44.55300
N  1.72500 -1.40100 41.93900
C  3.06700 -1.16900 41.64300
C  3.24600 -0.00400 40.67500
C  1.83100 0.67500 40.61000
C  0.96800 -0.42800 41.33100
C  1.76300 2.10800 41.24900
C  3.88600 -0.37000 39.29700
C  5.15300 0.32800 38.95300
H  5.42800 0.69800 37.47000
N  -1.25000 -1.98900 42.90600
C  -1.48900 -0.93900 42.08400
C  -2.86800 -0.68400 42.00300
C  -3.49800 -1.69200 42.77000
C  -2.42600 -2.55500 43.23400
C  -3.39000 0.50600 41.37400
C  -4.95600 -1.71100 43.00400
O  -5.69700 -0.83900 42.46900
C  -5.60700 -2.81500 43.73100
N  -0.22200 -4.69200 43.88000
C  -1.59900 -4.86100 44.02100
C  -1.86400 -6.36900 44.40400
C  -0.41900 -6.79000 44.89600
C  0.50500 -5.66800 44.46800
C  -3.01800 -6.46100 45.49300
C  0.00500 -8.20700 44.42200
C  -1.03200 -9.31400 44.39400
N  2.51000 -3.68200 43.63600
C  2.86700 -4.91800 44.15800
C  4.30900 -4.93300 44.18100
C  4.79600 -3.82700 43.50600
C  3.66400 -3.12000 43.07300
C  5.17600 -6.06700 44.83500
C  5.98500 -3.14100 43.11000
O  7.17400 -3.26100 43.43400
C  5.52500 -1.90900 42.29600
C  6.19000 -0.65900 42.68300
O  7.00500 -0.08600 41.94700
O  5.85300 -0.34200 44.00300
C  6.36700 1.02000 44.41800
H  -0.71000 0.74200 40.96100
H  -3.51600 -4.24400 43.94800
H  2.14700 -6.74300 45.00400
H  3.91700 0.63200 41.25200
H  1.51200 0.88300 39.58900
H  1.28700 2.18500 42.22700
H  1.32200 2.84200 40.57500
H  2.81500 2.31700 41.44100
H  3.20800 0.03600 38.54500
H  4.09500 -1.43300 39.18300
H  6.03700 -0.20900 39.29700
H  5.19400 1.22100 39.57600
H  -3.93600 0.29000 40.45600
H  -2.71500 1.35300 41.24800
H  -4.10100 1.03900 42.00500
H  -5.08000 -3.11900 44.63500
H  -5.63500 -3.76300 43.19600
H  -6.58700 -2.41900 43.99600
H  -2.15200 -6.97300 43.54300
H  -0.43800 -6.70700 45.98300
H  -3.23500 -5.42900 45.76700
H  -2.72000 -6.78900 46.48900
H  -3.92600 -6.94900 45.13800
H  0.79800 -8.57200 45.07400
H  0.53200 -8.18000 43.46800
H  -1.33200 -9.31000 43.34600
H  -1.93800 -9.18000 44.98400
H  -0.61900 -10.28300 44.67400
H  6.13600 -5.58100 45.01100
H  5.26800 -6.91500 44.15600
H  4.88200 -6.50300 45.79000
H  5.72800 -2.11200 41.24500
H  7.26700 1.01600 45.03300
H  5.67800 1.58000 45.05000
H  6.63400 1.68300 43.59500
Mg 35.06400 3.26400 29.22300
C  32.89700 4.13700 31.82400
C  37.63100 3.26000 31.44100
C  37.03600 2.10800 26.68100
C  32.42800 3.68800 26.99500
N  35.23000 3.59400 31.40200
C  34.18800 3.91900 32.27700
C  34.68700 3.81000 33.69600
C  36.26200 3.90900 33.53900
C  36.43200 3.61100 32.01500
C  36.92800 5.32500 33.97200
C  34.29400 2.54900 34.43900
C  33.61600 2.89700 35.80900
H  34.21400 4.01900 36.69000
N  37.09500 2.73700 29.05600
C  37.99400 2.75700 30.19200
C  39.23800 2.17800 29.77900
C  39.10900 1.83600 28.37100
C  37.73100 2.21000 27.95000
C  40.44600 2.12600 30.68000
C  40.10700 1.27800 27.32900
O  39.89800 0.95200 26.17300
C  41.52400 0.97100 27.82300
N  34.82400 3.07200 27.20500
C  35.76100 2.54500 26.30500
C  35.33200 2.66500 24.85300
C  33.86100 2.98800 25.05300
C  33.66000 3.25600 26.53500
C  36.17600 3.84600 24.05100
C  32.85600 1.90900 24.43200
C  32.25600 0.82000 25.31500
N  33.18100 3.91500 29.32700
C  32.16300 3.98500 28.35200
C  30.90600 4.32600 28.88900
C  31.07600 4.33700 30.28400
C  32.52200 4.10000 30.46900
C  29.63300 4.64600 28.15300
C  30.48900 4.46300 31.61200
O  29.32700 4.72900 31.91400
C  31.69300 4.39200 32.59200
C  31.71200 5.65700 33.29600
O  32.03300 6.78800 32.92900
O  31.33100 5.43600 34.67200
C  30.97000 6.64600 35.43100
H  38.33500 3.27600 32.27600
H  37.61100 1.78600 25.81000
H  31.70400 3.83100 26.19100
H  34.31800 4.73100 34.14800
H  36.77900 3.11500 34.07700
H  36.19900 5.97800 34.45300
H  37.35400 5.93100 33.17300
H  37.69100 5.12200 34.72400
H  35.16500 1.89800 34.51900
H  33.58400 1.96500 33.85400
H  33.61600 2.06000 36.50800
H  32.64000 3.23900 35.46600
H  40.78600 1.11000 30.88200
H  40.24000 2.55000 31.66300
H  41.17800 2.77100 30.19500
H  42.08700 1.85500 28.12000
H  42.13000 0.66800 26.97000
H  41.54200 0.05000 28.40700
H  35.44600 1.76700 24.24700
H  33.70800 3.90200 24.48000
H  35.66000 4.80500 24.00800
H  36.43800 3.45900 23.06600
H  37.12800 4.09300 24.52100
H  33.22900 1.38200 23.55400
H  32.01300 2.52800 24.12400
H  32.98500 0.39800 26.00700
H  32.03100 -0.02500 24.66400
H  31.32500 1.17600 25.75600
H  28.88400 4.58200 28.94300
H  29.48000 3.87400 27.39900
H  29.68300 5.60400 27.63500
H  31.57000 3.53700 33.25700
H  30.08100 7.19200 35.11700
H  31.77900 7.37400 35.49600
H  30.84100 6.26300 36.44400

