158

Mg 54.83700 25.16800 44.56900
C  51.85700 27.00500 43.79200
C  53.28700 22.39600 43.70000
C  57.75400 23.77200 44.65800
C  56.27500 28.29400 45.54000
N  52.94300 24.82200 43.46500
C  51.84000 25.65400 43.47200
C  50.54900 24.90600 42.97300
C  50.97900 23.41800 43.33000
C  52.54000 23.51700 43.49600
C  50.26800 22.64300 44.43900
C  50.41800 25.03400 41.46600
C  48.92500 24.92600 41.06000
H  48.55300 24.58500 39.63300
N  55.49000 23.35200 44.04000
C  54.67300 22.28400 43.75800
C  55.53600 21.12900 43.61100
C  56.90800 21.52300 43.76200
C  56.76100 22.94300 44.21600
C  54.93900 19.75400 43.20700
C  58.13900 20.62800 43.51800
O  58.03900 19.40400 43.40800
C  59.51100 21.26500 43.43100
N  56.71700 25.94300 45.08800
C  57.76000 25.09900 45.03100
C  59.03500 25.83200 45.16800
C  58.67800 27.36400 45.44800
C  57.16700 27.21700 45.31300
C  60.08800 25.39000 46.23900
C  59.16500 28.32000 44.39300
C  59.35100 29.75600 44.90900
N  54.23300 27.27300 44.75800
C  54.89300 28.35800 45.27300
C  53.90100 29.37500 45.55800
C  52.74600 28.98900 44.80000
C  52.97000 27.66700 44.41000
C  54.13000 30.51200 46.33600
C  51.37100 29.36000 44.26100
O  50.85600 30.45600 44.35700
C  50.84200 28.15000 43.57700
C  50.61000 28.53200 42.18200
O  51.40700 29.01000 41.43600
O  49.29400 28.31100 41.91500
C  48.85200 28.48600 40.52200
H  52.77700 21.43500 43.60600
H  58.76100 23.35400 44.71700
H  56.74500 29.27000 45.67600
H  49.68800 25.22400 43.56100
H  50.77400 22.97900 42.35400
H  49.65700 23.39400 44.93900
H  50.94600 22.10600 45.10200
H  49.50500 21.94400 44.09600
H  51.03200 24.34300 40.88900
H  50.83600 25.97700 41.11300
H  48.41000 25.88000 41.17900
H  48.39500 24.20000 41.67500
H  54.02400 19.61900 43.78300
H  55.47900 19.00400 43.78500
H  54.95400 19.58300 42.13000
H  59.49800 22.33400 43.21300
H  60.02200 20.75300 42.61500
H  60.01900 21.10800 44.38200
H  59.57300 25.92000 44.22400
H  58.86400 27.74300 46.45300
H  61.06300 25.13800 45.82300
H  59.68400 24.58000 46.84700
H  60.35200 26.15900 46.96500
H  58.60600 28.30100 43.45700
H  60.18500 28.07700 44.09500
H  59.07700 30.50400 44.16600
H  60.39700 29.88800 45.18400
H  58.67100 29.92500 45.74400
H  54.80600 31.22100 45.86000
H  54.59600 30.13300 47.24600
H  53.22300 31.05700 46.59800
H  49.89700 27.92600 44.07400
H  48.55600 29.52800 40.40500
H  48.03400 27.78500 40.35600
H  49.60200 28.14800 39.80700
Mg 26.78200 50.16700 26.03300
C  24.66000 51.21700 28.82900
C  29.05500 49.27400 28.34200
C  28.45200 49.23500 23.51900
C  24.32400 51.57600 24.00200
N  26.83500 50.24000 28.31700
C  25.85700 50.55500 29.20600
C  26.34800 50.27500 30.66600
C  27.86900 49.82800 30.49200
C  27.93000 49.77100 28.96000
C  28.86200 50.72100 31.31000
C  25.34600 49.08300 31.27600
C  25.57100 48.70300 32.75900
H  26.52100 49.42600 33.74800
N  28.56300 49.52400 25.93900
C  29.36700 49.14800 26.93100
C  30.58200 48.62600 26.39900
C  30.41000 48.59000 24.98300
C  29.11300 49.17500 24.74600
C  31.76200 48.12600 27.28900
C  31.41400 48.11000 23.93200
O  31.19000 48.22900 22.75800
C  32.68600 47.47800 24.37800
N  26.44200 50.41300 23.99600
C  27.24600 49.80500 23.13800
C  26.49600 49.56200 21.76500
C  25.17600 50.33000 21.92000
C  25.34700 50.87900 23.36200
C  27.35500 49.94200 20.51700
C  23.89700 49.53800 21.70100
C  22.80200 50.03500 20.71700
N  24.96800 51.27400 26.31200
C  24.12200 51.79100 25.34400
C  23.06100 52.45100 26.02900
C  23.24200 52.31500 27.39700
C  24.39800 51.48300 27.50900
C  21.81100 53.09000 25.43100
C  22.62700 52.60800 28.69400
O  21.55000 53.22800 29.01800
C  23.68500 51.90900 29.67400
C  24.19500 53.01200 30.46200
O  24.89600 53.95000 30.16200
O  23.73800 52.90800 31.74400
C  24.11900 53.89800 32.70800
H  29.65200 48.86900 29.16100
H  28.85800 48.75800 22.62500
H  23.44400 51.82800 23.40700
H  26.30300 51.26900 31.11100
H  27.95000 48.87800 31.02000
H  29.43700 49.98700 31.87500
H  28.47100 51.51600 31.94700
H  29.61800 51.16300 30.66200
H  25.62600 48.17200 30.74700
H  24.30400 49.33700 31.08000
H  25.83800 47.64700 32.78100
H  24.60500 48.84400 33.24400
H  32.01300 47.08300 27.09400
H  31.62600 48.39800 28.33500
H  32.63500 48.69100 26.96100
H  32.53100 46.56700 24.95700
H  33.38400 48.16200 24.86100
H  33.20000 47.25400 23.44300
H  26.28600 48.49300 21.75400
H  25.29700 51.20000 21.27500
H  28.01900 50.78100 20.72400
H  26.80200 50.16000 19.60300
H  27.96200 49.04500 20.40200
H  23.36800 49.60200 22.65200
H  24.13500 48.47600 21.63100
H  23.16100 50.99900 20.35800
H  21.81400 50.21300 21.14100
H  22.62400 49.32400 19.91000
H  22.19800 53.86200 24.76600
H  21.29500 53.45500 26.32000
H  21.30100 52.38300 24.77700
H  23.08900 51.27700 30.33200
H  23.83100 54.89800 32.38600
H  25.17700 53.74000 32.92000
H  23.54100 53.82500 33.63000

