158

Mg 17.42600 -0.68600 27.71900
C  16.18800 1.12900 30.34800
C  19.67400 -2.25900 29.77700
C  18.81200 -2.09200 25.01600
C  15.52300 1.43400 25.58300
N  17.87700 -0.58300 29.73800
C  17.08200 0.06500 30.64800
C  17.53500 -0.25200 32.05200
C  18.84600 -1.04900 31.88700
C  18.82600 -1.34600 30.35800
C  20.22700 -0.22800 32.24800
C  16.42000 -0.86800 33.04500
C  16.71000 -0.95800 34.57700
H  17.98900 -0.19900 35.13600
N  18.93500 -2.07900 27.41800
C  19.71400 -2.69800 28.38300
C  20.50500 -3.72100 27.84500
C  20.24100 -3.70900 26.43400
C  19.28900 -2.67100 26.26700
C  21.49800 -4.63500 28.64800
C  20.77300 -4.58900 25.29700
O  20.34200 -4.50000 24.14000
C  21.65700 -5.74300 25.56500
N  17.30600 -0.28400 25.59500
C  18.02100 -0.96100 24.67800
C  17.82200 -0.32100 23.22700
C  16.56200 0.54900 23.44100
C  16.49900 0.59500 24.97400
C  19.11100 0.34000 22.68600
C  15.27200 -0.06600 22.74900
C  14.22000 0.75300 21.99700
N  16.03600 0.90400 27.83700
C  15.32300 1.69300 26.95500
C  14.51200 2.68500 27.66500
C  14.86500 2.43200 28.99800
C  15.80600 1.43700 29.01200
C  13.63000 3.76100 27.04700
C  14.64600 2.90700 30.34800
O  13.90700 3.79800 30.72400
C  15.50100 2.06000 31.29700
C  16.34700 2.97500 32.10400
O  17.28000 3.60500 31.65500
O  15.61100 3.17000 33.29100
C  16.22900 4.09800 34.17600
H  20.24000 -2.75300 30.57000
H  19.14100 -2.50000 24.05900
H  14.82600 2.03700 24.99800
H  17.84800 0.73100 32.40200
H  18.84400 -1.95700 32.49200
H  20.95400 -0.35400 31.44500
H  20.72100 -0.59600 33.14700
H  20.09000 0.80900 32.55800
H  16.04900 -1.81500 32.65200
H  15.54600 -0.22000 32.97300
H  16.72000 -1.99100 34.92400
H  15.90200 -0.50400 35.15000
H  21.25500 -4.74200 29.70500
H  22.54500 -4.44400 28.41200
H  21.35800 -5.65700 28.29800
H  22.44900 -5.67100 26.31000
H  22.18300 -6.05500 24.66200
H  20.97500 -6.49800 25.95600
H  17.66400 -1.10000 22.48100
H  16.69800 1.59900 23.17900
H  18.93000 1.37800 22.40800
H  19.44700 -0.20200 21.80200
H  19.93000 0.40600 23.40200
H  14.62000 -0.45400 23.53200
H  15.59300 -0.81900 22.03000
H  13.93000 0.35800 21.02400
H  14.52600 1.77300 21.76200
H  13.38400 0.82800 22.69200
H  12.71800 3.76300 27.64300
H  13.28900 3.37200 26.08800
H  14.07300 4.74900 26.92700
H  14.83700 1.38400 31.83700
H  16.91500 3.47500 34.75100
H  15.52900 4.64500 34.80600
H  16.69200 4.95200 33.68100
Mg 45.14400 4.29000 47.74800
C  43.31300 7.27400 46.95300
C  42.27400 2.56500 46.94100
C  46.93700 1.60300 47.23500
C  48.04300 6.42700 47.88000
N  43.04600 4.84200 46.87600
C  42.58300 6.10300 46.67000
C  41.16900 6.03000 46.13900
C  40.69900 4.57500 46.40600
C  42.03800 3.97800 46.88200
C  39.47900 4.42000 47.33900
C  41.15700 6.42600 44.64100
C  40.66000 7.85900 44.33200
H  39.59100 7.88200 43.18600
N  44.62400 2.21600 47.44100
C  43.40200 1.70000 47.20000
C  43.47700 0.27900 47.11900
C  44.89500 -0.08200 47.30000
C  45.56600 1.21800 47.40100
C  42.19400 -0.59200 46.85000
C  45.48400 -1.48900 47.17800
O  44.81000 -2.48200 46.91800
C  46.97600 -1.74400 47.35700
N  47.22900 4.10700 47.56300
C  47.66500 2.81100 47.33600
C  49.23200 2.84900 47.31400
C  49.57700 4.41000 47.54000
C  48.20200 5.03500 47.71900
C  49.79500 1.92900 48.41000
C  50.41000 4.98700 46.36200
C  51.80100 5.66700 46.63200
N  45.60500 6.46400 47.61100
C  46.79600 7.09600 47.69700
C  46.56600 8.54800 47.53700
C  45.21300 8.69100 47.36200
C  44.64800 7.38500 47.29600
C  47.56400 9.59300 47.60300
C  44.04800 9.60800 47.14600
O  43.98800 10.83100 47.15700
C  42.83600 8.73400 46.79200
C  41.87900 9.09000 47.90200
O  41.71500 8.48800 48.96000
O  40.98900 10.02400 47.39000
C  39.84000 10.35200 48.25200
H  41.33300 2.05700 46.71800
H  47.69400 0.81900 47.16800
H  48.89000 7.10600 47.99900
H  40.59300 6.76300 46.70600
H  40.40300 4.03200 45.50900
H  39.06900 5.40900 47.54100
H  39.85000 3.99900 48.27400
H  38.73600 3.72300 46.95100
H  40.63500 5.76200 43.95100
H  42.18900 6.37200 44.29600
H  41.49600 8.47400 43.99700
H  40.14300 8.26500 45.20100
H  42.51700 -1.40100 46.19300
H  41.37400 -0.14400 46.28900
H  41.73300 -1.02800 47.73600
H  47.10600 -2.80700 47.56100
H  47.21400 -1.21600 48.28000
H  47.59500 -1.45700 46.50700
H  49.50500 2.58100 46.29300
H  49.97200 4.65100 48.52700
H  50.57000 2.48900 48.93300
H  50.28400 1.07200 47.94700
H  49.06800 1.47900 49.08700
H  49.79200 5.73600 45.86700
H  50.71200 4.21100 45.65900
H  52.22600 5.42000 47.60500
H  51.72600 6.73300 46.41500
H  52.58600 5.32200 45.95900
H  48.14700 9.73600 48.51300
H  47.11300 10.53400 47.28700
H  48.26200 9.27200 46.83000
H  42.52300 8.89500 45.76100
H  40.01100 10.21200 49.31900
H  38.99200 9.72000 47.98700
H  39.66900 11.41900 48.10800

