158

Mg 1.49800 -1.59500 43.23100
C  4.95400 -1.04000 42.55900
C  0.83100 1.26000 41.35000
C  -1.76000 -2.25000 43.45500
C  2.35200 -4.68500 44.51300
N  2.81300 -0.16600 41.95200
C  4.17800 -0.07000 41.93200
C  4.68000 1.07700 41.02000
C  3.36100 1.81300 40.64200
C  2.23400 0.93400 41.30200
C  3.30800 3.28900 40.98900
C  5.53000 0.57200 39.86200
C  7.01500 1.20900 39.81200
H  7.55900 1.71000 38.37300
N  -0.21300 -0.62200 42.59500
C  -0.26800 0.52900 41.79300
C  -1.64300 0.87900 41.48300
C  -2.48800 -0.11900 42.13500
C  -1.48300 -1.03900 42.83800
C  -2.02800 2.09700 40.62900
C  -3.99700 -0.15200 42.06800
O  -4.65900 0.76100 41.54300
C  -4.78700 -1.26700 42.65500
N  0.42800 -3.33000 43.70000
C  -0.95200 -3.27000 43.90100
C  -1.43700 -4.62200 44.43200
C  -0.11300 -5.45700 44.73600
C  0.94700 -4.44900 44.26600
C  -2.52500 -4.62500 45.52100
C  0.00500 -6.82300 44.02400
C  0.60600 -7.91600 44.84800
N  3.26100 -2.69000 43.53500
C  3.46900 -3.89400 44.17100
C  4.87800 -4.11800 44.38700
C  5.52700 -2.96700 43.84200
C  4.47300 -2.18100 43.27200
C  5.51600 -5.30700 44.97000
C  6.83300 -2.30400 43.53700
O  7.94400 -2.66400 43.82600
C  6.48200 -1.04900 42.75400
C  7.03600 0.07000 43.51300
O  6.90100 0.18700 44.71800
O  7.59200 1.05000 42.72300
C  7.75700 2.35600 43.37700
H  0.65300 2.25200 40.93000
H  -2.79600 -2.56700 43.59500
H  2.59300 -5.59500 45.06700
H  5.23600 1.77600 41.64400
H  3.25000 1.68700 39.56500
H  2.23700 3.48000 41.05500
H  3.71000 3.83200 40.13400
H  3.87800 3.61600 41.85900
H  4.95500 0.90100 38.99700
H  5.72400 -0.49800 39.78600
H  7.71400 0.49000 40.23800
H  7.11100 2.07100 40.47300
H  -2.96000 2.03800 40.06500
H  -1.16600 2.24800 39.98000
H  -1.99700 2.97300 41.27500
H  -5.83200 -0.95800 42.64200
H  -4.46700 -1.41000 43.68700
H  -4.60600 -2.13100 42.01500
H  -1.97500 -5.08300 43.60400
H  -0.00300 -5.59600 45.81200
H  -2.08000 -4.97100 46.45400
H  -3.24700 -5.38800 45.23000
H  -3.02300 -3.67100 45.69900
H  0.66700 -6.68400 43.16800
H  -0.96300 -7.09300 43.60200
H  0.01100 -8.82900 44.85200
H  0.81900 -7.61200 45.87300
H  1.57800 -8.13300 44.40600
H  4.94300 -5.73400 45.79400
H  6.55100 -5.28100 45.31100
H  5.59300 -6.01100 44.14100
H  7.08500 -1.11300 41.84800
H  8.59700 2.26900 44.06600
H  6.87500 2.73700 43.89100
H  8.00400 3.14800 42.67000
Mg -6.15500 25.28600 26.04800
C  -4.46600 27.01300 28.69100
C  -7.55800 23.36500 28.28000
C  -7.45800 23.75900 23.46600
C  -4.24400 27.35900 23.72500
N  -5.86900 25.13200 28.21800
C  -5.21000 25.92800 29.12600
C  -5.65600 25.61000 30.57800
C  -6.28100 24.15700 30.36100
C  -6.68000 24.25900 28.88500
C  -5.27100 22.90600 30.58900
C  -6.67400 26.67800 31.12700
C  -7.23500 26.47700 32.58900
H  -6.71600 25.49200 33.61500
N  -7.37300 23.72400 25.92700
C  -7.94400 23.06700 26.94800
C  -8.87300 22.07900 26.48400
C  -8.95200 22.19900 25.02000
C  -7.88500 23.26900 24.74600
C  -9.77500 21.28900 27.40200
C  -9.85900 21.41600 24.08700
O  -9.67700 21.47800 22.87700
C  -10.91800 20.45600 24.62000
N  -5.96600 25.59300 24.00900
C  -6.61100 24.80500 23.15800
C  -6.64500 25.35100 21.69600
C  -5.50300 26.46000 21.79700
C  -5.21400 26.51900 23.22700
C  -6.46500 24.32500 20.62900
C  -6.03800 27.81000 21.01300
C  -5.51700 28.10400 19.62200
N  -4.67800 26.78900 26.14000
C  -4.01100 27.54200 25.16100
C  -3.07700 28.54000 25.76600
C  -3.27200 28.33200 27.11200
C  -4.30700 27.36200 27.30500
C  -2.22100 29.57100 24.97500
C  -2.88700 28.81900 28.43300
O  -2.17300 29.75400 28.66700
C  -3.72300 28.10200 29.46300
C  -2.83200 27.53400 30.44700
O  -1.89900 26.78400 30.22700
O  -3.34500 27.84600 31.64900
C  -2.73600 27.18800 32.79500
H  -8.10400 22.70200 28.95400
H  -8.04300 23.45200 22.59700
H  -3.73300 28.01800 23.02000
H  -4.79600 25.46900 31.23200
H  -7.25400 24.01400 30.83000
H  -5.65800 22.10700 31.22100
H  -4.26000 23.07000 30.96200
H  -5.16800 22.44300 29.60800
H  -7.54200 26.84800 30.48900
H  -6.09700 27.60000 31.06400
H  -8.30900 26.35400 32.45200
H  -7.11400 27.43200 33.09900
H  -9.43500 20.26400 27.54500
H  -10.81200 21.33700 27.06800
H  -9.86200 21.80300 28.35900
H  -10.64100 19.61900 25.26000
H  -11.38600 19.96500 23.76600
H  -11.67300 21.13400 25.02000
H  -7.60300 25.83100 21.49500
H  -4.68800 25.98500 21.25000
H  -5.89600 23.53100 21.11300
H  -5.79900 24.79800 19.90800
H  -7.44500 23.97800 20.30100
H  -5.94100 28.66500 21.68100
H  -7.12100 27.83000 20.88500
H  -4.91200 29.00300 19.50200
H  -6.30800 28.25500 18.88700
H  -4.98400 27.22000 19.27200
H  -1.46000 29.98700 25.63500
H  -2.78200 30.28600 24.37300
H  -1.72600 28.88700 24.28600
H  -4.43900 28.80500 29.89000
H  -1.65700 27.24900 32.65300
H  -3.04200 26.14200 32.78500
H  -2.95600 27.71100 33.72600

