158

Mg 16.68300 51.76100 26.87900
C  18.73200 50.58100 29.48000
C  14.45200 52.90000 29.31500
C  14.63500 52.90400 24.42600
C  19.17100 50.88200 24.54000
N  16.65300 51.76500 29.16800
C  17.58700 51.17100 30.03200
C  17.14000 51.19800 31.50300
C  15.59000 51.59600 31.21900
C  15.55700 52.18900 29.80800
C  14.63500 50.38400 31.46300
C  17.92200 52.35200 32.31200
C  18.14200 51.97500 33.78500
H  17.17200 52.34000 34.95100
N  14.79600 52.74500 26.87900
C  14.10100 53.20400 27.99300
C  12.94900 53.95000 27.50800
C  12.89200 53.89400 26.10900
C  14.13900 53.06800 25.73300
C  12.05300 54.66000 28.55400
C  11.88300 54.55100 25.21200
O  12.01700 54.40900 23.97300
C  10.68700 55.33500 25.73000
N  16.89400 51.88800 24.77200
C  15.88700 52.39100 23.94500
C  16.25300 52.21900 22.37200
C  17.72100 51.55800 22.53400
C  17.97200 51.41400 24.03200
C  15.13300 51.33700 21.75900
C  18.87000 52.28500 21.85400
C  19.85300 51.30600 21.22700
N  18.55700 50.99300 26.93700
C  19.53800 50.69300 25.89800
C  20.67300 50.09000 26.38300
C  20.38600 50.05900 27.77800
C  19.10900 50.60100 28.05900
C  21.93000 49.61700 25.51800
C  20.90400 49.69900 29.08200
O  22.00800 49.21300 29.32800
C  19.84800 49.91500 30.23300
C  19.60700 48.59900 30.86700
O  18.91200 47.65500 30.44800
O  20.20500 48.51900 32.03500
C  19.90300 47.44000 32.97800
H  13.85900 53.33700 30.12100
H  13.89800 53.08500 23.64100
H  19.97600 50.58700 23.86400
H  17.20800 50.23800 32.01400
H  15.40000 52.34300 31.98900
H  13.87400 50.29200 30.68800
H  14.09300 50.44600 32.40700
H  15.13900 49.43000 31.31400
H  17.41900 53.31900 32.33800
H  18.85500 52.59100 31.80200
H  19.08200 52.38200 34.15800
H  18.26400 50.89200 33.76000
H  11.02800 54.71800 28.18700
H  12.28600 55.70300 28.76700
H  12.12300 54.18800 29.53400
H  11.10300 55.98900 26.49600
H  9.89200 54.65700 26.04100
H  10.31600 56.01900 24.96600
H  16.22200 53.21100 21.92200
H  17.61500 50.52600 22.20000
H  15.46500 50.62900 21.00000
H  14.32900 51.95200 21.35600
H  14.64600 50.75500 22.54200
H  19.46600 52.93700 22.49300
H  18.61500 52.97200 21.04700
H  19.86600 51.51900 20.15800
H  19.58900 50.25100 21.30900
H  20.85600 51.55400 21.57400
H  22.73900 49.97900 26.15200
H  21.92900 50.08000 24.53200
H  21.96600 48.52900 25.45200
H  20.40000 50.61100 30.86500
H  20.19100 47.79600 33.96700
H  20.57900 46.59700 32.83300
H  18.90000 47.02800 32.86300
Mg 1.46300 42.44700 25.92400
C  3.77900 42.76900 28.57400
C  -0.95300 41.74700 28.33400
C  -0.63300 41.40900 23.44400
C  3.95500 43.02800 23.62500
N  1.46600 42.29800 28.12900
C  2.44400 42.62400 29.04300
C  2.02400 42.56900 30.45200
C  0.54700 42.19700 30.29300
C  0.32500 42.05300 28.77100
C  0.00300 40.93300 31.01100
C  2.08400 43.94800 31.12700
C  2.52000 43.85600 32.61200
H  2.22200 42.56700 33.36200
N  -0.51800 41.68700 25.93700
C  -1.40000 41.50400 26.97500
C  -2.69000 40.94500 26.54600
C  -2.56200 40.82200 25.13400
C  -1.19900 41.35000 24.73600
C  -3.74600 40.57200 27.50000
C  -3.59200 40.24600 24.24700
O  -3.59500 40.30800 23.01300
C  -4.88200 39.63500 24.82300
N  1.61500 42.10600 23.91800
C  0.63700 41.78000 23.05500
C  1.00500 41.99000 21.55100
C  2.35700 42.71200 21.63300
C  2.71000 42.61600 23.15900
C  0.97300 40.56800 20.84400
C  2.50900 44.17100 21.10100
C  3.76800 44.54700 20.30200
N  3.51900 42.87500 26.02400
C  4.40600 43.09800 24.97000
C  5.70000 43.30200 25.55500
C  5.55200 43.22900 26.89800
C  4.18700 42.89800 27.16700
C  6.94500 43.48300 24.75300
C  6.20700 43.14200 28.25300
O  7.40800 43.24600 28.46500
C  5.04700 42.98500 29.38800
C  5.50300 41.82300 30.24400
O  5.90400 40.76200 29.77700
O  5.71600 42.16500 31.54800
C  6.27700 41.15900 32.45500
H  -1.79800 41.60600 29.01200
H  -1.26300 41.21200 22.57400
H  4.72200 43.28900 22.89200
H  2.65100 41.90800 31.05100
H  -0.13800 42.98800 30.59700
H  -0.47800 40.24000 30.32000
H  -0.83100 41.23900 31.64200
H  0.75500 40.40700 31.59900
H  1.15300 44.51000 31.20700
H  2.81100 44.56300 30.59800
H  2.06500 44.68000 33.16200
H  3.58600 43.96800 32.81000
H  -4.21400 39.63100 27.21100
H  -4.63800 41.19500 27.57400
H  -3.33100 40.20800 28.44000
H  -5.32000 40.21900 25.63200
H  -4.54400 38.65500 25.15900
H  -5.56600 39.58800 23.97600
H  0.42000 42.69900 20.96500
H  3.05400 42.08300 21.08000
H  1.98300 40.17200 20.74200
H  0.48400 40.60800 19.87000
H  0.36900 39.88600 21.44100
H  2.54000 44.74500 22.02700
H  1.62100 44.51800 20.57200
H  4.29200 45.24600 20.95500
H  3.57000 45.01900 19.33900
H  4.26900 43.59300 20.14000
H  7.00900 42.52800 24.23100
H  7.88900 43.47100 25.29800
H  6.72500 44.32900 24.10200
H  5.01000 43.84100 30.06200
H  5.48000 40.44800 32.67500
H  6.63500 41.69700 33.33200
H  7.13800 40.57200 32.13600

