158

Mg 24.93300 -7.64200 47.71600
C  27.24800 -5.38200 46.27200
C  22.65900 -6.30500 45.22900
C  22.83300 -10.14000 48.43500
C  27.49600 -8.99200 49.47400
N  25.08100 -6.17700 45.83600
C  26.09500 -5.33900 45.52000
C  25.75000 -4.35800 44.31800
C  24.21200 -4.56600 44.11000
C  23.96000 -5.74300 45.16800
C  23.33800 -3.34500 44.43400
C  26.59000 -4.55700 43.07500
C  27.35000 -3.35700 42.48500
H  26.98200 -2.83300 41.11700
N  22.99700 -8.10800 47.08000
C  22.23900 -7.38800 46.10300
C  20.93000 -8.00500 46.16000
C  20.95500 -9.12000 47.08200
C  22.27100 -9.18700 47.63200
C  19.86800 -7.64700 45.18400
C  19.73600 -10.02600 47.27400
O  18.63700 -9.94800 46.69900
C  19.77200 -11.21900 48.12600
N  25.16100 -9.47400 48.56700
C  24.15900 -10.28100 48.93800
C  24.65000 -11.39600 49.79700
C  26.06700 -10.92000 50.21000
C  26.29000 -9.68700 49.39600
C  23.73100 -11.75100 50.95800
C  27.16600 -11.96900 50.24900
C  27.92600 -12.25300 51.62000
N  26.94000 -7.24500 48.03800
C  27.83200 -7.85000 48.87600
C  29.02600 -7.01300 49.00400
C  28.90700 -6.10300 47.89700
C  27.57700 -6.20300 47.43400
C  30.21400 -7.34200 49.82100
C  29.57900 -5.10800 46.99400
O  30.76700 -4.71900 46.93100
C  28.49800 -4.48300 46.04600
C  28.27500 -3.12200 46.56400
O  27.54200 -2.77400 47.51300
O  28.69100 -2.21200 45.57800
C  28.00600 -0.89000 45.70900
H  21.91100 -6.01700 44.48700
H  22.23200 -10.89300 48.94800
H  28.16600 -9.39400 50.23700
H  26.03200 -3.36500 44.66900
H  23.90200 -5.04400 43.18100
H  22.81500 -3.53300 45.37200
H  22.68100 -3.22100 43.57300
H  23.98000 -2.47700 44.59100
H  26.02800 -5.02400 42.26700
H  27.25600 -5.37800 43.33800
H  28.41100 -3.60400 42.52100
H  27.25900 -2.48900 43.13700
H  19.83600 -6.60000 44.88000
H  18.84900 -7.87800 45.49200
H  20.06400 -8.27300 44.31300
H  20.59800 -11.90200 47.92300
H  18.85200 -11.79500 48.02200
H  19.79600 -10.90400 49.16900
H  24.54200 -12.29600 49.19300
H  26.04000 -10.37600 51.15400
H  24.26900 -12.17200 51.80700
H  22.95600 -12.42800 50.59800
H  23.26900 -10.82800 51.30700
H  27.91000 -11.80100 49.47000
H  26.74600 -12.94000 49.98500
H  28.99100 -12.25700 51.38800
H  27.59000 -13.22200 51.98900
H  27.69800 -11.47500 52.34800
H  30.86400 -7.89300 49.14100
H  29.94400 -7.92300 50.70200
H  30.82100 -6.48400 50.11000
H  28.81700 -4.51800 45.00400
H  28.50600 -0.34800 46.51100
H  26.93300 -0.94900 45.89100
H  28.04700 -0.37000 44.75200
Mg -5.13200 25.45200 25.69500
C  -3.71500 26.99100 28.46300
C  -6.68200 23.20000 27.78000
C  -6.65900 24.20400 22.94600
C  -3.31600 27.63300 23.52000
N  -5.03500 25.03000 27.90400
C  -4.49900 25.86900 28.83300
C  -4.84000 25.46400 30.26000
C  -5.67300 24.16200 30.02700
C  -5.77700 24.05600 28.51300
C  -5.11300 22.83600 30.63300
C  -5.56600 26.66800 31.00100
C  -5.56500 26.81300 32.52200
H  -4.82000 25.80800 33.36900
N  -6.40700 23.84200 25.40400
C  -6.89700 22.99000 26.38700
C  -7.87300 22.03600 25.72800
C  -7.87100 22.34600 24.31400
C  -6.90900 23.51600 24.14800
C  -8.56100 20.99900 26.49400
C  -8.76100 21.75000 23.22500
O  -8.56800 21.99000 22.04300
C  -9.86900 20.84700 23.47500
N  -4.99600 25.87400 23.46700
C  -5.85100 25.26200 22.64900
C  -5.52300 25.64500 21.19200
C  -4.39200 26.79500 21.32100
C  -4.17200 26.73300 22.84900
C  -5.02900 24.42800 20.31600
C  -4.89600 28.18900 20.81100
C  -3.89000 29.00100 20.01100
N  -3.79000 26.99100 25.85500
C  -3.11300 27.77100 24.94900
C  -2.31000 28.72300 25.66400
C  -2.48400 28.42300 27.02300
C  -3.46600 27.40900 27.14400
C  -1.46300 29.88000 25.20100
C  -2.06700 28.74800 28.30100
O  -1.14800 29.48800 28.68600
C  -2.86000 27.91000 29.34700
C  -1.85200 27.12400 30.11500
O  -1.32400 26.06100 29.73400
O  -1.51400 27.76600 31.23300
C  -0.46300 27.24800 32.11000
H  -7.15500 22.48200 28.45300
H  -7.21800 23.97700 22.03600
H  -2.75200 28.43300 23.03500
H  -3.91900 25.25700 30.80500
H  -6.68400 24.35100 30.38600
H  -4.77800 22.11500 29.88700
H  -5.90800 22.34900 31.19800
H  -4.27300 23.08000 31.28300
H  -6.63500 26.62800 30.79300
H  -5.26400 27.64000 30.61300
H  -6.59400 26.60400 32.81600
H  -5.24400 27.82000 32.78800
H  -9.52400 20.73700 26.05500
H  -8.77200 21.49300 27.44300
H  -7.91800 20.12300 26.41900
H  -9.58700 20.08000 24.19600
H  -10.20300 20.33700 22.57200
H  -10.75100 21.31500 23.91200
H  -6.33500 26.10600 20.63000
H  -3.44000 26.49400 20.88400
H  -4.11000 24.61100 19.75900
H  -5.84400 24.16600 19.64100
H  -4.90300 23.53100 20.92200
H  -5.24200 28.65100 21.73500
H  -5.78700 28.20100 20.18300
H  -4.22300 29.27500 19.01000
H  -2.89800 28.56200 19.90400
H  -3.69800 29.88500 20.62000
H  -0.45200 29.49800 25.06100
H  -1.58600 30.72700 25.87500
H  -1.84800 30.23700 24.24600
H  -3.39100 28.55300 30.04800
H  0.34500 27.96900 31.98400
H  -0.02000 26.31600 31.75900
H  -0.91700 27.13600 33.09400

