158

Mg 46.67200 25.02700 27.78200
C  47.89600 26.97200 30.57700
C  45.65400 22.72700 29.95300
C  45.66400 23.32300 25.12300
C  47.65700 27.55900 25.83100
N  46.76100 24.95200 30.03100
C  47.22500 25.81300 30.94700
C  46.86800 25.39900 32.45700
C  46.42900 23.95300 32.14000
C  46.25300 23.86500 30.62000
C  47.32600 22.80600 32.65000
C  45.83600 26.37800 33.15700
C  46.35300 26.96700 34.47800
H  45.36500 27.11100 35.56700
N  45.79000 23.21700 27.65400
C  45.44300 22.38700 28.63800
C  44.97400 21.20000 28.05900
C  44.90500 21.34800 26.65500
C  45.44200 22.63100 26.37700
C  44.56500 20.00000 28.88200
C  44.42900 20.34200 25.58200
O  44.54100 20.50000 24.40100
C  43.95400 18.92800 25.99300
N  46.91200 25.27400 25.75200
C  46.35900 24.46100 24.85100
C  46.50300 24.96600 23.36500
C  46.99800 26.44100 23.57900
C  47.26600 26.42000 25.13800
C  47.49600 23.99200 22.48300
C  46.08300 27.65400 23.15500
C  46.77900 28.72100 22.33300
N  47.65300 26.79600 28.09300
C  47.99800 27.71900 27.14900
C  48.64200 28.84300 27.71700
C  48.62600 28.68200 29.07100
C  48.03700 27.33900 29.25200
C  49.30500 29.92200 26.96700
C  49.01300 29.20300 30.37800
O  49.53000 30.24600 30.71300
C  48.54400 28.13000 31.41400
C  49.59700 27.58900 32.40100
O  50.34200 26.66800 32.15400
O  49.58400 28.34000 33.58400
C  50.53200 27.92700 34.66500
H  45.13000 21.99800 30.57400
H  45.35200 22.68300 24.29500
H  47.70700 28.45100 25.20300
H  47.82500 25.27100 32.96200
H  45.51300 23.71000 32.68000
H  48.32000 23.22600 32.80100
H  47.25700 21.95200 31.97600
H  47.05800 22.57200 33.68000
H  44.89500 25.88500 33.40300
H  45.58700 27.20100 32.48800
H  46.90000 27.89000 34.28900
H  47.16400 26.27500 34.70300
H  43.51500 19.77700 28.69700
H  44.62900 20.19200 29.95300
H  45.25900 19.20200 28.61800
H  42.97400 18.89500 26.46800
H  44.71400 18.49400 26.64200
H  43.79800 18.31800 25.10400
H  45.56100 24.94700 22.81600
H  48.01900 26.58000 23.22300
H  47.29700 24.23800 21.44000
H  47.21900 22.96400 22.71700
H  48.53300 24.20500 22.74300
H  45.60000 28.25900 23.92200
H  45.28000 27.14500 22.62100
H  46.19300 28.98400 21.45200
H  47.72400 28.35900 21.92800
H  47.00100 29.56800 22.98200
H  50.23300 30.19300 27.47000
H  48.76300 30.84400 26.75700
H  49.43800 29.56700 25.94500
H  47.73600 28.50100 32.04500
H  50.86900 26.91100 34.45800
H  49.98100 28.06200 35.59600
H  51.43300 28.53400 34.57700
Mg 1.46100 42.81000 26.13300
C  2.99300 42.74900 29.28700
C  -1.46600 41.70100 27.59200
C  0.12600 42.45100 23.01800
C  4.50100 43.57000 24.68100
N  0.90800 42.17400 28.22600
C  1.61100 42.43100 29.32700
C  0.76800 42.29000 30.61900
C  -0.61400 41.58900 29.99200
C  -0.44800 41.93700 28.48300
C  -0.76700 40.12200 30.31200
C  0.52300 43.58900 31.34800
C  0.88600 43.50000 32.89000
H  -0.09400 42.80800 33.87500
N  -0.45000 42.27700 25.40900
C  -1.46500 41.81800 26.12800
C  -2.57800 41.54200 25.29900
C  -2.19100 41.86500 23.97300
C  -0.77500 42.22800 24.10900
C  -3.85500 41.01300 25.88100
C  -3.00900 41.85700 22.69200
O  -2.58800 42.34000 21.66200
C  -4.45900 41.54800 22.68600
N  2.18500 43.04700 24.20200
C  1.49200 42.65300 23.06600
C  2.38700 42.75300 21.81200
C  3.75500 43.36900 22.30300
C  3.48600 43.31900 23.80400
C  2.67000 41.46600 21.08300
C  3.92500 44.78500 21.89400
C  2.82600 45.81800 22.15900
N  3.39800 43.16900 26.80600
C  4.54100 43.49200 26.13100
C  5.62400 43.64700 27.02500
C  5.06400 43.25200 28.25300
C  3.71200 43.03900 28.07500
C  6.92000 44.26400 26.74100
C  5.34900 43.14500 29.64800
O  6.42100 43.35900 30.25500
C  4.07700 42.82100 30.40100
C  4.31200 41.60200 31.19900
O  4.43000 40.46400 30.79600
O  4.28000 42.01300 32.51800
C  4.34800 40.84000 33.42400
H  -2.42200 41.38800 28.01800
H  -0.22300 42.21600 22.01000
H  5.44000 43.70900 24.14200
H  1.38400 41.60900 31.20700
H  -1.54400 42.01300 30.37100
H  -0.10100 39.85200 31.13200
H  -0.46300 39.43200 29.52500
H  -1.81800 40.04500 30.58900
H  -0.50900 43.86700 31.13300
H  1.09300 44.39800 30.89300
H  1.12800 44.51500 33.20300
H  1.74100 42.82600 32.94600
H  -4.74400 41.33000 25.33600
H  -4.01100 41.42500 26.87700
H  -3.81100 39.93400 26.02600
H  -4.87400 41.54900 21.67800
H  -5.01300 42.32100 23.22000
H  -4.62900 40.59900 23.19400
H  1.85300 43.38600 21.10400
H  4.60000 42.69700 22.15200
H  1.98500 41.26900 20.25800
H  2.44500 40.59700 21.70200
H  3.69900 41.21800 20.82600
H  4.19600 44.83500 20.84000
H  4.77800 45.24400 22.39500
H  3.06800 46.45500 23.01000
H  1.97200 45.25900 22.54200
H  2.63200 46.40200 21.25900
H  7.67800 43.81100 27.38000
H  7.00900 45.33400 26.93000
H  7.18800 44.22000 25.68500
H  3.81300 43.62400 31.08900
H  5.17900 40.17700 33.18200
H  3.34000 40.47200 33.23300
H  4.53200 41.16700 34.44800

