158

Mg 47.59300 16.15300 29.02000
C  45.35500 15.93300 31.63400
C  49.90200 17.53500 30.93700
C  49.35900 17.05100 26.16200
C  45.17000 14.80600 26.91500
N  47.58800 16.63400 30.99400
C  46.61500 16.46900 31.95800
C  47.08500 16.70300 33.34700
C  48.39700 17.44700 33.07500
C  48.68400 17.17600 31.59100
C  48.36900 18.99600 33.42000
C  47.24500 15.30300 34.04700
C  47.32200 15.37600 35.57200
H  46.95500 16.66500 36.24900
N  49.48900 17.09000 28.61600
C  50.28500 17.56000 29.57100
C  51.54000 18.03300 28.95400
C  51.36600 17.87400 27.58200
C  49.98900 17.32300 27.42400
C  52.72200 18.45300 29.76200
C  52.31100 18.26900 26.42600
O  52.08800 18.04500 25.32000
C  53.67700 18.80900 26.64300
N  47.34500 15.82800 26.90300
C  48.21300 16.27500 25.95200
C  47.64800 16.11200 24.54400
C  46.37000 15.16000 24.80100
C  46.28900 15.21800 26.32100
C  47.38900 17.42300 23.76200
C  46.61300 13.68500 24.31200
C  46.34800 13.54000 22.79700
N  45.63400 15.35700 29.19900
C  44.77300 14.87500 28.28200
C  43.61400 14.44700 28.89100
C  43.73600 14.84900 30.27600
C  44.96400 15.38700 30.36400
C  42.35400 14.05300 28.10900
C  43.11000 14.91800 31.53200
O  41.96300 14.60700 31.83200
C  44.13200 15.58500 32.59900
C  43.43200 16.76800 33.14700
O  43.19800 17.83400 32.55100
O  42.84800 16.42500 34.31900
C  41.95000 17.47500 34.97200
H  50.64700 17.95300 31.61600
H  49.85500 17.38700 25.24900
H  44.48500 14.30100 26.23000
H  46.44800 17.39900 33.89300
H  49.14500 16.99800 33.72900
H  48.55500 19.53000 32.48900
H  49.11500 19.39400 34.10800
H  47.41800 19.33100 33.83500
H  48.26500 15.02200 33.78700
H  46.58700 14.48800 33.74600
H  48.35600 15.15100 35.83200
H  46.82800 14.50200 35.99500
H  53.55200 18.05100 29.18200
H  52.72000 18.21100 30.82500
H  52.78500 19.54100 29.74400
H  54.17900 19.16900 25.74500
H  54.35900 18.13400 27.15900
H  53.59200 19.56900 27.42000
H  48.48500 15.51000 24.19000
H  45.46700 15.50800 24.29700
H  46.33500 17.70200 23.75600
H  47.83700 17.36500 22.76900
H  47.94000 18.17700 24.32400
H  45.98400 13.03400 24.92000
H  47.60400 13.28300 24.51800
H  45.88600 12.55600 22.71800
H  47.34600 13.50300 22.36000
H  45.77700 14.37700 22.39400
H  41.94300 14.81100 27.44200
H  41.62000 13.79200 28.87100
H  42.58600 13.19000 27.48500
H  44.22700 14.76300 33.30900
H  41.05500 17.66000 34.37900
H  42.47000 18.40100 35.21900
H  41.67500 17.10400 35.95900
Mg 42.20000 40.97900 26.37300
C  41.43300 43.40900 28.67600
C  42.96600 38.77300 28.90400
C  42.80000 38.80100 24.04900
C  42.15100 43.65000 23.92200
N  42.16200 41.10100 28.56100
C  41.68400 42.18200 29.29600
C  41.74100 41.83000 30.78100
C  42.38300 40.41600 30.84400
C  42.42800 39.99800 29.32700
C  43.71900 40.38900 31.57500
C  40.37200 41.92000 31.54400
C  40.37600 42.78500 32.90200
H  39.67900 42.27000 34.16400
N  42.90700 39.10500 26.47400
C  43.25900 38.35800 27.54700
C  43.63400 36.98100 27.09500
C  43.58600 36.95400 25.70900
C  43.08500 38.32000 25.35000
C  43.91900 35.83500 28.03100
C  44.09500 35.95000 24.70400
O  43.98000 36.03300 23.48800
C  44.68900 34.67100 25.15400
N  42.31700 41.18700 24.23200
C  42.48700 40.06200 23.47900
C  42.70900 40.46100 21.94200
C  42.49000 42.05100 21.98700
C  42.29100 42.35700 23.44800
C  44.11500 40.01800 21.33300
C  41.30500 42.45000 21.17700
C  40.03900 42.91600 21.79700
N  41.86200 43.09600 26.26300
C  41.86500 43.99800 25.21000
C  41.50000 45.29500 25.65000
C  41.22900 45.10100 27.04600
C  41.53300 43.72800 27.35500
C  41.35200 46.57800 24.85900
C  40.89100 45.84900 28.30500
O  40.68400 47.05600 28.57500
C  41.03800 44.69600 29.40600
C  42.15700 45.25100 30.33200
O  43.33300 45.12300 30.00300
O  41.72800 45.79500 31.50000
C  42.81600 46.20600 32.39000
H  43.13200 38.01000 29.66600
H  43.03200 38.11300 23.23400
H  42.26900 44.44300 23.18000
H  42.39100 42.62300 31.15300
H  41.73700 39.71600 31.37400
H  44.47700 40.44700 30.79400
H  43.84000 39.41100 32.04100
H  43.85800 41.18200 32.31000
H  40.24500 40.88900 31.87500
H  39.54300 42.31200 30.95400
H  40.05500 43.80800 32.70600
H  41.37200 42.83000 33.34200
H  44.42700 34.96100 27.62300
H  42.93500 35.43200 28.27300
H  44.41800 36.09900 28.96400
H  45.57400 34.85800 25.76300
H  44.97100 34.07200 24.28800
H  43.88100 34.29800 25.78300
H  41.95400 40.00500 21.30200
H  43.34400 42.57500 21.55700
H  43.89800 39.49200 20.40300
H  44.57300 39.26800 21.97900
H  44.76400 40.82200 20.98600
H  40.95000 41.55800 20.66200
H  41.75900 43.11700 20.44400
H  40.19700 43.88300 22.27500
H  39.83200 42.13900 22.53300
H  39.26200 42.78000 21.04500
H  40.34300 46.98200 24.77500
H  41.86700 46.56500 23.89800
H  41.75600 47.34900 25.51500
H  40.17200 44.70100 30.06800
H  43.36200 45.42900 32.92600
H  42.28300 46.86200 33.07800
H  43.60300 46.78200 31.90300

