158

Mg 46.68600 17.19100 27.65500
C  44.90400 16.82800 30.65000
C  49.09400 18.96700 29.48300
C  48.10200 18.21800 24.73700
C  43.98100 15.86800 25.82100
N  46.91400 17.92800 29.89300
C  46.14000 17.40900 30.88100
C  46.88100 17.53200 32.25800
C  48.09900 18.47000 31.85100
C  48.02200 18.48200 30.32000
C  48.14600 20.00100 32.44000
C  47.21000 16.19800 33.02100
C  47.13300 16.10300 34.53600
H  47.03000 17.39900 35.29900
N  48.40100 18.29600 27.15000
C  49.30000 18.93300 28.05600
C  50.40100 19.44900 27.29200
C  50.04100 19.26900 25.94700
C  48.83600 18.50000 25.87800
C  51.65200 20.00300 27.96400
C  50.74900 19.72300 24.61100
O  50.32700 19.54600 23.47500
C  52.08800 20.29000 24.65900
N  46.14900 16.94900 25.51600
C  46.89800 17.48400 24.56000
C  46.16200 17.39800 23.22800
C  45.03100 16.28800 23.51900
C  45.05400 16.31800 25.01600
C  45.61200 18.70300 22.79800
C  45.29900 14.94100 22.86100
C  44.24300 14.46700 21.86300
N  44.82700 16.54100 28.03500
C  43.91100 15.89200 27.28400
C  42.81100 15.44000 28.13600
C  43.23100 15.72400 29.41800
C  44.42500 16.42100 29.36400
C  41.48500 14.70800 27.87000
C  42.82800 15.55700 30.79700
O  41.94900 15.00600 31.31800
C  43.91600 16.26300 31.73400
C  43.22000 17.24000 32.63700
O  42.89100 18.41000 32.45400
O  43.14900 16.61800 33.82400
C  42.62800 17.45000 34.92800
H  49.88600 19.38600 30.10600
H  48.33900 18.61400 23.74800
H  43.15800 15.44800 25.23900
H  46.29600 18.16500 32.92500
H  49.02700 17.98400 32.15200
H  49.02500 20.11700 33.07400
H  47.29000 20.11200 33.10600
H  48.00700 20.64500 31.57200
H  48.21800 15.92600 32.70900
H  46.50200 15.51300 32.55400
H  47.77200 15.34000 34.98100
H  46.12900 15.69500 34.65500
H  51.51000 21.07000 28.13000
H  52.56500 19.81600 27.39900
H  51.79600 19.49700 28.91800
H  52.03600 21.15100 25.32500
H  52.34200 20.66800 23.66900
H  52.83700 19.53800 24.90500
H  46.80600 17.05200 22.41900
H  44.04400 16.59100 23.17000
H  44.53400 18.76200 22.64900
H  46.21000 19.02700 21.94600
H  45.72500 19.40700 23.62200
H  45.52800 14.21300 23.63900
H  46.22100 15.03500 22.28700
H  43.46300 15.20800 21.69100
H  43.68900 13.63900 22.30600
H  44.67500 14.12300 20.92300
H  40.68300 15.05200 28.52300
H  41.72400 13.69900 28.20500
H  41.19400 14.71800 26.81900
H  44.41000 15.53300 32.37600
H  41.55100 17.49600 35.09300
H  42.99200 18.47700 34.90100
H  42.93600 17.00700 35.87500
Mg -11.87000 38.43100 41.01500
C  -9.63900 35.76600 40.62500
C  -9.51200 40.45800 39.52500
C  -14.23700 40.78100 40.64800
C  -14.21100 36.03500 42.03500
N  -9.77000 38.13000 40.21700
C  -9.18900 36.96200 39.99500
C  -7.88800 37.15700 39.24900
C  -7.65700 38.76300 39.24300
C  -9.02800 39.18700 39.72700
C  -6.37900 39.28100 40.00300
C  -7.99500 36.58500 37.84700
C  -7.01900 35.37900 37.57000
H  -5.80500 35.80300 36.75000
N  -11.77600 40.40500 40.34300
C  -10.73400 41.05500 39.84000
C  -11.12200 42.46500 39.63500
C  -12.47300 42.57600 40.01100
C  -12.88800 41.23300 40.35500
C  -10.32400 43.54800 39.13700
C  -13.22600 43.89600 39.98200
O  -12.63500 44.94200 39.65400
C  -14.69100 44.03100 40.27900
N  -13.92200 38.41600 41.39000
C  -14.70000 39.54800 41.13600
C  -16.16300 39.26400 41.42900
C  -16.17100 37.70300 41.81900
C  -14.72700 37.29100 41.69300
C  -16.83200 40.20600 42.46300
C  -17.04600 36.82000 40.94200
C  -18.05200 35.92900 41.72500
N  -11.91000 36.38100 41.42700
C  -12.88000 35.54000 41.89400
C  -12.34600 34.19400 42.20500
C  -11.09800 34.26100 41.67500
C  -10.85400 35.59100 41.24600
C  -13.10600 33.08800 42.81100
C  -9.90600 33.49700 41.43600
O  -9.78600 32.34500 41.79200
C  -8.95600 34.39400 40.60500
C  -7.56200 34.18700 41.22800
O  -6.91300 33.16500 41.18300
O  -7.17300 35.29900 42.07500
C  -5.89600 35.29900 42.82400
H  -8.78300 41.12200 39.05500
H  -15.05400 41.46600 40.41100
H  -14.97200 35.28300 42.25200
H  -7.02500 36.71600 39.74700
H  -7.41900 39.11100 38.23800
H  -6.73000 40.12200 40.60200
H  -5.63700 39.71100 39.33000
H  -5.94400 38.46400 40.57900
H  -7.69500 37.37800 37.16200
H  -9.05400 36.33800 37.77200
H  -7.50900 34.65800 36.91600
H  -6.61200 34.95200 38.48700
H  -10.71600 44.03900 38.24600
H  -9.32900 43.18200 38.88600
H  -9.99500 44.27200 39.88300
H  -14.97600 45.07500 40.41100
H  -14.80200 43.49800 41.22300
H  -15.29200 43.67400 39.44300
H  -16.63000 39.33200 40.44600
H  -16.44800 37.63500 42.87100
H  -17.44100 40.99900 42.03000
H  -16.07700 40.56100 43.16500
H  -17.54500 39.60500 43.02800
H  -16.46700 36.17100 40.28600
H  -17.62700 37.51200 40.33200
H  -17.76800 35.95500 42.77700
H  -18.05600 34.85100 41.56900
H  -19.00100 36.46600 41.73600
H  -13.72500 32.61100 42.05100
H  -13.85900 33.55000 43.44900
H  -12.46000 32.33200 43.25600
H  -8.89300 33.96300 39.60500
H  -5.14700 36.01200 42.47800
H  -5.40000 34.32900 42.82700
H  -6.15500 35.52200 43.85900

