158

Mg 8.69500 4.20300 27.90400
C  9.97300 2.56600 30.84600
C  6.94300 6.35400 30.04700
C  7.40000 5.60700 25.24500
C  10.27900 1.82400 25.98300
N  8.47700 4.46500 30.18900
C  9.12300 3.68000 31.09100
C  8.85300 4.20500 32.51700
C  7.67800 5.27800 32.31600
C  7.74800 5.44900 30.76000
C  6.30500 4.75600 32.74200
C  10.10800 4.89500 33.13900
C  10.50700 4.26800 34.52400
H  10.89200 5.15900 35.72000
N  7.37800 5.79900 27.70000
C  6.79800 6.59900 28.66300
C  6.01200 7.65000 28.03000
C  6.12200 7.47400 26.56800
C  6.95300 6.24100 26.41900
C  5.27000 8.80800 28.75800
C  5.44400 8.08200 25.38100
O  5.52400 7.65800 24.24800
C  4.58600 9.30000 25.71800
N  8.71400 3.70300 25.92200
C  8.14600 4.49000 24.99100
C  8.47500 3.98100 23.53900
C  9.65800 2.96400 23.71800
C  9.53000 2.76500 25.28300
C  7.25800 3.44100 22.79200
C  11.06700 3.44900 23.32500
C  11.93900 2.37100 22.51500
N  9.78200 2.48000 28.24900
C  10.40700 1.61500 27.37600
C  11.28000 0.72700 28.12700
C  11.15600 1.08900 29.47600
C  10.21400 2.18000 29.48000
C  12.15600 -0.34100 27.60900
C  11.63700 0.80400 30.82300
O  12.50300 0.05000 31.24800
C  10.92400 1.79900 31.70400
C  10.14700 0.98900 32.70500
O  9.21100 0.26900 32.35400
O  10.73200 1.15100 33.91300
C  10.17500 0.31000 34.99200
H  6.40700 6.96500 30.77700
H  7.06800 6.01700 24.28800
H  10.90100 1.22200 25.31700
H  8.45600 3.39500 33.12900
H  7.91600 6.26400 32.71400
H  6.40400 3.72500 33.08300
H  5.68400 4.67900 31.84900
H  5.89800 5.38500 33.53300
H  9.96300 5.97400 33.20000
H  10.94700 4.91600 32.44300
H  11.43500 3.74000 34.30600
H  9.80700 3.52000 34.89600
H  5.81600 9.75100 28.74500
H  5.08700 8.62900 29.81800
H  4.28100 8.96400 28.32500
H  3.73000 9.02900 26.33600
H  4.15400 9.60800 24.76600
H  5.27300 10.05000 26.11000
H  8.71400 4.75900 22.81300
H  9.53200 1.96300 23.30400
H  7.50900 2.48700 22.32800
H  7.23100 4.15700 21.97000
H  6.35700 3.51700 23.40100
H  11.51200 3.78200 24.26200
H  11.03200 4.35000 22.71300
H  12.21700 2.74900 21.53100
H  11.45200 1.40700 22.65800
H  12.91300 2.28200 22.99500
H  12.61900 -0.07500 26.65900
H  11.57200 -1.25900 27.66000
H  13.01300 -0.39200 28.28200
H  11.62900 2.49600 32.15700
H  9.23200 -0.18400 34.75900
H  9.96700 1.00300 35.80700
H  10.92000 -0.42200 35.30500
Mg -11.12000 17.14700 41.04600
C  -7.65800 16.69000 40.71800
C  -10.57300 20.46800 39.94900
C  -14.37600 17.63200 40.49700
C  -11.46800 13.68500 41.09400
N  -9.26800 18.38500 40.40000
C  -7.99900 17.99200 40.45800
C  -6.97400 19.14600 40.28700
C  -7.99700 20.40000 40.45500
C  -9.35900 19.76500 40.20100
C  -7.89800 21.23800 41.73200
C  -6.37000 19.22400 38.90400
C  -4.88600 18.89000 38.83200
H  -4.37300 18.06800 37.71300
N  -12.32200 18.86900 40.53600
C  -11.90200 20.03800 39.95200
C  -13.00800 20.84700 39.56400
C  -14.16700 20.14200 40.03600
C  -13.66600 18.80300 40.42300
C  -13.00700 22.28600 39.05000
C  -15.63300 20.60700 39.81200
O  -15.93600 21.66900 39.23400
C  -16.77200 19.81200 40.26400
N  -12.64600 15.78500 40.77000
C  -13.93100 16.29700 40.73300
C  -14.97700 15.18400 40.65700
C  -14.01200 13.85600 40.82600
C  -12.64200 14.43300 40.93400
C  -16.05400 15.31400 41.73800
C  -14.05500 12.74300 39.64200
C  -14.72200 11.41700 39.98800
N  -9.89500 15.39800 41.03200
C  -10.17800 14.08300 41.24300
C  -8.90200 13.38900 41.39800
C  -7.83900 14.31200 41.19500
C  -8.54800 15.60200 40.94300
C  -8.67400 11.97700 41.72100
C  -6.41500 14.54600 41.15400
O  -5.50300 13.74300 41.29100
C  -6.26900 16.09000 40.94800
C  -5.52600 16.54400 42.03500
O  -4.42900 17.13600 41.91000
O  -6.14000 16.39900 43.21000
C  -5.46200 16.88600 44.40900
H  -10.40900 21.52900 39.75200
H  -15.41400 17.67500 40.16000
H  -11.56400 12.60100 41.18500
H  -6.32200 19.09800 41.15800
H  -7.75800 21.08600 39.64300
H  -7.08700 20.87200 42.36200
H  -8.83800 21.11500 42.27100
H  -7.82000 22.29200 41.46800
H  -6.51500 20.17200 38.38700
H  -6.89800 18.48600 38.30000
H  -4.63200 18.49700 39.81600
H  -4.31700 19.81400 38.72800
H  -13.83800 22.26800 38.34600
H  -12.03700 22.37300 38.56000
H  -13.23100 22.97600 39.86300
H  -17.09500 19.11900 39.48700
H  -17.57500 20.52400 40.45300
H  -16.65000 19.29600 41.21600
H  -15.44700 15.12700 39.67500
H  -14.34400 13.28200 41.69100
H  -16.91000 15.31100 41.06200
H  -16.12100 16.23500 42.31700
H  -16.29100 14.55100 42.48000
H  -13.09300 12.47600 39.20500
H  -14.66600 13.19500 38.86000
H  -15.56600 11.37500 39.29900
H  -15.10400 11.34100 41.00600
H  -14.13400 10.54900 39.69300
H  -8.62000 11.79100 42.79400
H  -7.80600 11.53800 41.22900
H  -9.59400 11.46100 41.44500
H  -5.61500 16.34300 40.11300
H  -5.90600 17.84400 44.68000
H  -4.38200 17.03200 44.38300
H  -5.68300 16.16000 45.19100

