158

Mg 24.82600 1.64900 30.15100
C  26.95200 1.04900 32.79300
C  22.10800 1.53400 32.26700
C  22.79800 1.71700 27.33500
C  27.49000 1.00400 27.86300
N  24.54600 1.29100 32.36800
C  25.57300 1.30100 33.23600
C  25.08900 1.64800 34.61500
C  23.53600 1.55700 34.48800
C  23.35600 1.49600 32.96400
C  22.78500 0.32100 35.12500
C  25.60500 3.03400 35.05400
C  26.76100 2.99900 36.09100
H  26.42500 3.94300 37.29900
N  22.70700 1.58400 29.86200
C  21.79900 1.47500 30.81900
C  20.46400 1.47100 30.24800
C  20.63500 1.58700 28.84000
C  22.09700 1.71400 28.63900
C  19.22300 1.28200 31.09700
C  19.50100 1.77700 27.74200
O  19.65500 2.23600 26.59600
C  18.11500 1.25900 28.08700
N  25.10200 1.56700 27.91800
C  24.14000 1.64900 27.02000
C  24.63700 1.74900 25.62200
C  26.18400 1.64800 25.81500
C  26.26900 1.43800 27.29200
C  24.05000 0.81500 24.56100
C  26.93800 2.86900 25.15500
C  26.96500 4.14600 26.05200
N  26.89700 1.07600 30.23700
C  27.78700 0.93600 29.23800
C  29.10100 0.71700 29.88100
C  28.81000 0.68800 31.26700
C  27.40000 0.88000 31.46000
C  30.45700 0.62000 29.18000
C  29.36900 0.61200 32.65300
O  30.55700 0.59200 32.98800
C  28.17200 0.91800 33.66100
C  28.05500 -0.23000 34.57900
O  27.54700 -1.26700 34.36000
O  28.64400 0.04500 35.77200
C  28.36100 -0.93800 36.88600
H  21.26700 1.67400 32.94900
H  22.19800 1.74600 26.42400
H  28.29400 0.91300 27.12900
H  25.34300 0.89100 35.35800
H  22.97400 2.44600 34.77400
H  23.37400 -0.35000 35.75000
H  22.30500 -0.31600 34.38100
H  22.04800 0.78400 35.78100
H  24.76600 3.65500 35.36800
H  25.92800 3.64700 34.21200
H  27.66200 3.42400 35.64900
H  27.00300 1.97800 36.38500
H  18.47800 2.00000 30.75600
H  19.42000 1.56200 32.13200
H  18.81400 0.27500 31.18300
H  18.06400 0.28700 28.57900
H  17.59600 1.28800 27.12900
H  17.70700 2.04700 28.72000
H  24.51900 2.76300 25.23800
H  26.42200 0.67500 25.38400
H  23.53300 1.28800 23.72700
H  23.45500 0.10900 25.14000
H  24.86300 0.21600 24.15000
H  26.61000 3.13200 24.14900
H  27.96900 2.54100 25.02700
H  26.33800 4.08000 26.94200
H  26.60000 4.92500 25.38300
H  27.99000 4.42700 26.29600
H  30.54200 1.32900 28.35600
H  30.57800 -0.38200 28.76800
H  31.17800 0.88300 29.95400
H  28.40800 1.82300 34.22100
H  27.44800 -0.56200 37.34800
H  29.24900 -0.92200 37.51900
H  28.15600 -1.93700 36.50100
Mg 44.24500 4.43000 46.87500
C  42.51200 7.55800 46.63200
C  41.38400 2.83100 45.89100
C  46.15800 1.77900 46.14700
C  47.30800 6.31500 47.07400
N  42.19100 5.13400 46.17300
C  41.71600 6.43700 46.24000
C  40.19400 6.45200 45.89000
C  39.79400 4.94800 45.74700
C  41.17900 4.22900 46.00000
C  38.59400 4.43600 46.64900
C  39.71700 7.51700 44.78800
C  40.68800 7.60700 43.53800
H  39.98800 7.85900 42.19700
N  43.85200 2.52400 46.26200
C  42.56900 2.09600 45.87800
C  42.70700 0.70200 45.60200
C  44.05100 0.43800 45.42500
C  44.81000 1.62500 45.94800
C  41.59100 -0.21500 45.41300
C  44.57600 -0.82400 44.86300
O  43.80000 -1.76200 44.56600
C  46.04100 -1.18700 44.77600
N  46.37700 4.10500 46.74600
C  46.88900 2.86300 46.66200
C  48.45300 2.83900 46.76100
C  48.77600 4.35300 46.87500
C  47.39500 5.01500 46.89100
C  49.03500 2.00400 47.92900
C  49.70200 4.91900 45.75800
C  50.95900 5.52600 46.29100
N  44.81300 6.48100 46.87900
C  46.11300 7.09700 47.01000
C  45.95200 8.55800 47.06300
C  44.52700 8.75400 47.02900
C  43.92400 7.50300 46.89000
C  47.06500 9.50800 47.05200
C  43.53500 9.79300 46.96400
O  43.70900 11.01100 47.09700
C  42.13300 9.09500 46.86300
C  41.35900 9.19500 48.12700
O  41.54200 8.57200 49.14300
O  40.47200 10.16000 47.94900
C  39.57900 10.36300 49.07100
H  40.47800 2.38800 45.47400
H  46.84100 0.97300 45.86800
H  48.24100 6.87100 47.19600
H  39.81800 6.75700 46.86600
H  39.57100 4.73400 44.70200
H  39.01400 3.70800 47.34300
H  37.85200 4.04500 45.95300
H  38.14200 5.24500 47.22200
H  39.36400 8.43900 45.24900
H  38.75700 7.18300 44.39700
H  41.21700 6.65400 43.54500
H  41.38300 8.42200 43.74300
H  41.50100 -0.54300 44.37800
H  40.67800 0.32600 45.66300
H  41.59800 -1.09000 46.06300
H  46.24300 -2.21200 44.46700
H  46.30600 -1.05800 45.82500
H  46.42500 -0.45500 44.06500
H  48.89800 2.46400 45.84000
H  49.21800 4.36200 47.87100
H  49.93000 1.49800 47.56800
H  48.18200 1.41500 48.26700
H  49.29600 2.62000 48.79000
H  49.14600 5.71700 45.26600
H  49.90200 4.07500 45.09900
H  50.78500 5.99800 47.25900
H  51.19100 6.27200 45.53200
H  51.77600 4.80600 46.34400
H  46.71900 10.44100 46.60900
H  48.05700 9.28500 46.66000
H  47.25200 9.78300 48.09000
H  41.47300 9.50700 46.10000
H  40.14300 10.65700 49.95600
H  38.86400 9.54200 49.13500
H  39.01000 11.24500 48.77500

