158

Mg 47.84100 15.72100 28.58900
C  45.77600 15.68700 31.59500
C  49.95500 17.83400 30.42900
C  49.61400 16.19700 25.86300
C  45.22000 14.10600 26.93300
N  47.77700 16.72100 30.73500
C  46.99900 16.32300 31.82900
C  47.50000 16.85200 33.13900
C  48.60900 17.91400 32.68300
C  48.83700 17.48100 31.20300
C  48.40400 19.40100 33.12500
C  47.92200 15.61400 34.04000
C  48.02400 15.74400 35.56900
H  47.78300 17.14100 36.14400
N  49.55200 16.80100 28.14600
C  50.31200 17.55400 29.08800
C  51.50600 17.93200 28.44100
C  51.42200 17.49800 27.04600
C  50.16000 16.81700 26.96900
C  52.67900 18.68600 29.06700
C  52.43000 17.63100 25.85400
O  52.15000 17.31100 24.70700
C  53.87600 18.15300 26.02900
N  47.51500 15.15400 26.55800
C  48.33300 15.50600 25.58800
C  47.86100 14.89500 24.25500
C  46.60700 14.04400 24.72900
C  46.39500 14.43100 26.17600
C  47.64400 15.97000 23.22500
C  46.78900 12.46600 24.68700
C  48.00400 11.83100 25.43900
N  45.88800 14.99300 29.10900
C  44.93000 14.39400 28.31600
C  43.69200 14.04700 29.05400
C  44.00700 14.53000 30.37400
C  45.32800 15.10900 30.37400
C  42.46700 13.28700 28.49200
C  43.53700 14.57600 31.70400
O  42.46000 14.14500 32.17600
C  44.61400 15.34700 32.52100
C  44.09600 16.55800 33.05100
O  44.17100 17.70500 32.58800
O  43.40000 16.20700 34.21500
C  42.30600 17.00000 34.69600
H  50.71400 18.42200 30.94900
H  50.10500 16.28300 24.89100
H  44.38300 13.63000 26.41700
H  46.68000 17.33400 33.67100
H  49.56800 17.60300 33.09700
H  48.43300 20.04700 32.24800
H  49.25700 19.61500 33.77000
H  47.46900 19.58500 33.65500
H  48.89400 15.40900 33.59000
H  47.33400 14.77400 33.67100
H  49.06200 15.45400 35.73100
H  47.30400 15.06400 36.02300
H  53.61700 18.13100 29.06800
H  52.40200 18.94300 30.08900
H  52.65600 19.66000 28.57900
H  54.32000 18.38600 25.06200
H  54.46200 17.55300 26.72500
H  53.80700 19.11900 26.52900
H  48.62100 14.20000 23.89900
H  45.76500 14.37200 24.12000
H  47.88300 16.99200 23.51700
H  46.60500 15.93900 22.89900
H  48.23900 15.72500 22.34500
H  46.89600 12.18800 23.63900
H  45.82400 12.06000 24.99200
H  48.59500 11.09100 24.90000
H  47.72100 11.45300 26.42200
H  48.80400 12.55100 25.61100
H  42.44300 13.15700 27.41000
H  41.54500 13.79000 28.78400
H  42.38800 12.29500 28.93800
H  44.87000 14.74700 33.39400
H  41.41100 16.38500 34.59700
H  42.08600 17.88100 34.09300
H  42.37300 17.45400 35.68400
Mg 50.84600 45.46800 42.74900
C  47.96800 46.87300 41.14800
C  50.38800 42.62600 40.95800
C  53.98100 44.64400 43.49600
C  51.32800 48.71400 44.16400
N  49.40200 44.91000 41.25900
C  48.28500 45.55100 40.76000
C  47.38700 44.73300 39.94500
C  48.13300 43.34000 39.90300
C  49.34800 43.56000 40.80500
C  47.19500 42.16800 40.25800
C  47.03400 45.24800 38.52900
C  45.51600 45.23700 38.14900
H  45.05800 44.05600 37.25300
N  52.06000 43.79400 42.36300
C  51.63400 42.71700 41.62700
C  52.63200 41.76300 41.73000
C  53.74800 42.24800 42.48200
C  53.33500 43.59700 42.82700
C  52.45600 40.41000 41.11900
C  55.01900 41.47000 42.77100
O  55.16600 40.31700 42.39300
C  56.21900 42.19600 43.45500
N  52.50600 46.65400 43.39900
C  53.67900 46.02500 43.77800
C  54.66800 47.02700 44.33000
C  53.75800 48.17700 44.70400
C  52.43300 47.82100 44.07800
C  55.57000 46.55500 45.51700
C  54.32500 49.60000 44.44400
C  54.36900 50.47900 45.62500
N  49.87100 47.39000 42.75400
C  50.09000 48.51600 43.47200
C  48.99000 49.49200 43.21400
C  48.10800 48.81100 42.34400
C  48.72800 47.58900 42.05600
C  48.84900 50.90400 43.72200
C  46.86800 48.96500 41.64400
O  46.06800 49.89700 41.66300
C  46.68300 47.68100 40.90600
C  45.48100 47.06800 41.57900
O  45.50900 46.21200 42.40000
O  44.32200 47.40000 40.95400
C  43.10800 46.96500 41.63100
H  50.17900 41.70800 40.40400
H  54.98200 44.35500 43.82500
H  51.37900 49.57800 44.82900
H  46.44400 44.68300 40.48900
H  48.44700 43.13800 38.87800
H  46.19600 42.41200 40.61800
H  47.69200 41.69900 41.10700
H  47.25500 41.48000 39.41500
H  47.59400 44.69600 37.77400
H  47.31900 46.29500 38.42800
H  45.33400 46.11600 37.53100
H  44.83600 45.21200 39.00000
H  51.42500 40.19200 40.84000
H  52.69900 39.55400 41.74900
H  53.00600 40.34000 40.18100
H  55.87500 42.43000 44.46200
H  56.49900 43.05500 42.84500
H  57.13800 41.61400 43.53000
H  55.28200 47.15800 43.43900
H  53.49700 48.10600 45.76000
H  55.26900 47.09000 46.41800
H  56.57500 46.89400 45.26500
H  55.63500 45.48900 45.73400
H  53.60300 50.01800 43.74200
H  55.27100 49.51700 43.90900
H  55.39500 50.80400 45.79800
H  53.97300 50.10400 46.56900
H  53.79600 51.36500 45.35200
H  48.07500 51.02600 44.47900
H  48.66600 51.36200 42.75000
H  49.75400 51.38500 44.09200
H  46.45700 48.01000 39.89100
H  42.47000 47.81700 41.86500
H  43.29700 46.36500 42.52100
H  42.79600 46.29600 40.82900

