158

Mg 1.82200 -1.78400 43.55300
C  5.34000 -1.07100 43.01000
C  1.05100 0.97000 42.05800
C  -1.39100 -2.92000 43.51700
C  2.93600 -4.86900 44.93100
N  3.12900 -0.32200 42.51600
C  4.52400 -0.08200 42.49100
C  4.84900 1.26600 41.90400
C  3.43800 1.95200 41.60500
C  2.44700 0.83400 42.19100
C  3.28100 3.36600 42.21000
C  5.65900 1.26300 40.60400
C  5.49800 0.05300 39.70600
H  5.41400 0.31800 38.12800
N  0.03900 -1.03800 42.91400
C  -0.10700 0.15300 42.38700
C  -1.50500 0.43900 42.10000
C  -2.21100 -0.70900 42.56500
C  -1.19800 -1.63000 43.02800
C  -1.95300 1.83400 41.61600
C  -3.66500 -0.82600 42.70200
O  -4.35600 0.00500 42.15500
C  -4.33500 -1.83600 43.59200
N  0.91400 -3.67700 43.96200
C  -0.47300 -3.88700 43.96700
C  -0.82400 -5.24100 44.36200
C  0.53100 -5.72600 45.06700
C  1.56900 -4.65300 44.74300
C  -1.94700 -5.45700 45.37900
C  0.94400 -7.12400 44.57100
C  1.79400 -8.09500 45.48500
N  3.74700 -2.85600 43.96600
C  4.02300 -4.02900 44.57000
C  5.41000 -4.34800 44.68000
C  5.96500 -3.16500 44.06400
C  4.89500 -2.27900 43.68100
C  6.14000 -5.54700 45.22900
C  7.25400 -2.49100 43.70600
O  8.39200 -2.93500 43.80200
C  6.86900 -1.10900 43.02900
C  7.42900 0.12500 43.74400
O  6.81700 0.66600 44.66600
O  8.54500 0.65500 43.20400
C  9.01100 1.93600 43.59100
H  0.80300 2.00500 41.81400
H  -2.39900 -3.31100 43.36000
H  3.35000 -5.77000 45.38900
H  5.39800 1.71300 42.73300
H  3.23800 1.98200 40.53400
H  3.61900 4.14200 41.52400
H  3.84600 3.36300 43.14200
H  2.22100 3.41900 42.46000
H  6.68700 1.46400 40.90700
H  5.32200 2.10300 39.99600
H  4.79300 -0.71300 40.02900
H  6.39500 -0.56600 39.73400
H  -3.03400 1.94400 41.53000
H  -1.37100 2.09300 40.73200
H  -1.66300 2.59500 42.34100
H  -4.49100 -2.67300 42.91000
H  -5.28700 -1.44900 43.95500
H  -3.72400 -2.08900 44.45800
H  -1.06900 -5.83400 43.48000
H  0.48600 -5.82400 46.15200
H  -2.29400 -4.53600 45.84700
H  -1.74000 -6.21100 46.13800
H  -2.76300 -5.84500 44.76900
H  1.56900 -7.09600 43.67900
H  0.08600 -7.78300 44.43900
H  1.98200 -7.70200 46.48400
H  2.76400 -8.27500 45.02100
H  1.40100 -9.10600 45.59100
H  6.94900 -5.84300 44.56100
H  5.45600 -6.39200 45.30900
H  6.54800 -5.33000 46.21600
H  7.28000 -1.03800 42.02200
H  8.21500 2.66400 43.74900
H  9.72000 2.31600 42.85600
H  9.47400 2.00100 44.57500
Mg 0.39800 43.01100 26.53700
C  2.49600 42.24600 29.21000
C  -2.24600 41.89300 28.43900
C  -1.59400 43.39600 23.89100
C  3.12300 44.02000 24.60700
N  0.18600 41.94200 28.57100
C  1.17500 41.88400 29.52300
C  0.55000 41.78000 30.88400
C  -0.96500 41.52300 30.62400
C  -1.03900 41.84500 29.09900
C  -1.54900 40.17800 30.85000
C  0.80700 43.06400 31.75200
C  1.08700 42.83600 33.27800
H  0.53000 41.59800 33.94600
N  -1.63900 42.65100 26.19600
C  -2.60000 42.25600 27.12800
C  -3.89500 42.15600 26.46100
C  -3.72100 42.53400 25.07400
C  -2.29000 42.88600 24.98400
C  -5.14400 41.75200 27.19600
C  -4.67000 42.70500 23.97000
O  -4.44400 43.22700 22.90900
C  -6.05100 42.22800 24.15900
N  0.68100 43.62000 24.55900
C  -0.32200 43.81100 23.65400
C  0.07100 44.49800 22.35100
C  1.52200 44.79300 22.73600
C  1.83700 44.11700 24.05000
C  -0.07300 43.61000 21.12800
C  2.09500 46.24400 22.42900
C  1.98200 47.29500 23.51500
N  2.40400 43.08700 26.75100
C  3.38600 43.51100 25.88400
C  4.67100 43.38900 26.55100
C  4.36800 42.89600 27.81300
C  2.94100 42.74200 27.96400
C  6.03800 43.75000 25.89700
C  4.95500 42.54300 29.05900
O  6.10200 42.34300 29.39700
C  3.74900 42.30200 30.04300
C  4.03800 41.07300 30.85200
O  3.79600 39.92500 30.49300
O  4.64300 41.41400 32.01200
C  5.03000 40.25100 32.86500
H  -3.17300 41.62700 28.95000
H  -2.26600 43.41800 23.03000
H  3.94000 44.45700 24.02900
H  1.08300 40.94000 31.33000
H  -1.60600 42.26800 31.09600
H  -1.08800 39.66100 31.69100
H  -1.28800 39.58100 29.97600
H  -2.63900 40.16700 30.89200
H  -0.09600 43.66900 31.67200
H  1.66600 43.67900 31.48400
H  0.74400 43.71800 33.82000
H  2.17500 42.86600 33.33600
H  -5.87100 42.55800 27.30000
H  -5.03600 41.40300 28.22300
H  -5.61900 40.91500 26.68400
H  -6.42200 42.19100 23.13400
H  -6.61900 42.96500 24.72800
H  -6.05400 41.21300 24.55400
H  -0.53800 45.38600 22.17900
H  2.15000 44.04400 22.25400
H  0.88600 43.29400 20.71800
H  -0.66100 44.14300 20.38100
H  -0.65800 42.71400 21.33900
H  1.51800 46.61400 21.58200
H  3.05400 46.03300 21.95400
H  1.75400 46.90800 24.50800
H  1.36600 48.16000 23.27200
H  3.05400 47.47100 23.60600
H  6.25500 43.02400 25.11300
H  6.73100 43.64800 26.73200
H  6.01700 44.74300 25.44700
H  3.64400 43.05600 30.82300
H  5.00500 40.54400 33.91400
H  6.10500 40.09500 32.77300
H  4.54200 39.31100 32.60700

