158

Mg 40.60600 8.66900 29.68900
C  42.31000 10.03600 32.53300
C  38.35900 7.25100 31.85500
C  39.10400 7.33600 27.01200
C  42.96400 10.19500 27.69100
N  40.49500 8.53500 31.98200
C  41.22200 9.21700 32.88700
C  40.61600 9.07200 34.30200
C  39.55300 7.97800 34.05300
C  39.46900 7.85100 32.50800
C  39.80300 6.65100 34.74500
C  40.11300 10.55800 34.70700
C  40.77700 11.19500 35.94000
H  39.93000 11.87800 36.97000
N  38.97900 7.50600 29.48300
C  38.18500 7.03200 30.43400
C  37.11400 6.28700 29.89000
C  37.22000 6.40100 28.48200
C  38.46800 7.06700 28.26200
C  36.04500 5.61800 30.74500
C  36.16600 5.98400 27.38700
O  36.32400 6.11800 26.15200
C  34.86100 5.22800 27.84500
N  40.89700 8.87800 27.66900
C  40.19600 8.17200 26.72600
C  40.75600 8.34600 25.24100
C  41.93900 9.28200 25.47900
C  41.92200 9.45600 27.06100
C  41.15500 7.03400 24.48600
C  41.83800 10.71900 24.79100
C  42.95700 11.08700 23.77200
N  42.37100 9.85800 29.98600
C  43.24000 10.33800 29.07100
C  44.30400 11.02500 29.72700
C  44.00100 10.96900 31.02800
C  42.79500 10.23300 31.14800
C  45.40700 11.70600 29.09100
C  44.36100 11.41800 32.34700
O  45.27000 12.14100 32.73600
C  43.26800 10.91400 33.26200
C  43.93600 10.17900 34.42800
O  44.40700 9.11000 34.34900
O  44.03300 11.02100 35.54300
C  44.72700 10.34400 36.66400
H  37.49300 7.03700 32.48600
H  38.66200 6.81900 26.15800
H  43.65900 10.63000 26.97000
H  41.43000 8.65800 34.89800
H  38.57700 8.42100 34.25000
H  39.88700 5.77700 34.10000
H  38.97800 6.38300 35.40500
H  40.71000 6.74700 35.34300
H  39.08400 10.31700 34.97100
H  40.10900 11.34900 33.95700
H  41.53700 11.91200 35.62900
H  41.40900 10.43300 36.39600
H  36.59900 5.13500 31.55000
H  35.52900 4.78400 30.26800
H  35.27500 6.29800 31.11000
H  34.31100 5.81200 28.58300
H  35.36900 4.30300 28.11800
H  34.23300 5.23300 26.95400
H  39.86100 8.75200 24.77000
H  42.88900 8.87500 25.13200
H  40.47100 6.95000 23.64200
H  41.02600 6.25000 25.23300
H  42.20800 7.10900 24.21800
H  41.77200 11.55300 25.49000
H  40.86500 10.81000 24.30800
H  43.76900 10.36100 23.80200
H  43.32400 11.97300 24.29000
H  42.46600 11.08000 22.79900
H  45.13600 12.67500 28.67300
H  45.72200 11.04800 28.28100
H  46.28200 11.68100 29.74100
H  42.93600 11.87500 33.65600
H  45.79300 10.14100 36.55900
H  44.15000 9.51100 37.06600
H  44.67500 10.96700 37.55700
Mg 46.16900 24.80600 28.44300
C  47.05900 27.09200 31.08500
C  45.53200 22.45600 30.96600
C  45.53900 22.51500 26.09300
C  47.46100 26.95200 26.17700
N  46.36900 24.84600 30.75000
C  46.66600 25.83900 31.57400
C  46.26900 25.51200 33.07600
C  46.06200 23.95300 33.02800
C  46.03300 23.68300 31.46000
C  47.13700 22.99000 33.73700
C  45.06400 26.36000 33.59900
C  45.26600 27.48400 34.67600
H  44.30900 27.45200 35.85900
N  45.54400 22.84400 28.50200
C  45.35600 22.04700 29.60900
C  44.92700 20.65500 29.21300
C  44.73500 20.71900 27.79100
C  45.33800 22.00100 27.39000
C  44.66100 19.47900 30.21700
C  44.13500 19.73100 26.78500
O  43.96500 20.09000 25.59400
C  43.65400 18.31100 27.25400
N  46.43900 24.76600 26.38500
C  46.01900 23.71900 25.65100
C  46.26700 23.97600 24.13500
C  46.68500 25.50800 24.11800
C  46.84700 25.80700 25.62100
C  47.18400 23.11200 23.34600
C  45.71500 26.60700 23.44400
C  46.20000 27.62500 22.38100
N  47.03700 26.65700 28.52900
C  47.60800 27.40100 27.54100
C  48.24200 28.59900 28.13400
C  48.02600 28.59800 29.47400
C  47.30300 27.36400 29.71700
C  48.73800 29.73600 27.29400
C  48.19400 29.24400 30.81300
O  48.64400 30.32300 31.01300
C  47.51900 28.35900 31.85900
C  48.65600 28.08400 32.83100
O  49.67100 27.45800 32.57500
O  48.35600 28.60700 34.06700
C  49.33500 28.21600 35.04800
H  45.32200 21.72200 31.74600
H  45.39300 21.83600 25.25100
H  47.87500 27.60800 25.40800
H  47.17200 25.71100 33.65400
H  45.12800 23.70700 33.53300
H  46.76000 22.51800 34.64400
H  48.04800 23.50300 34.04600
H  47.52200 22.16300 33.14000
H  44.37900 25.67800 34.10400
H  44.57400 26.87900 32.77500
H  45.07900 28.43200 34.17100
H  46.20900 27.24100 35.16400
H  43.88200 18.79900 29.87200
H  44.39000 19.84100 31.20900
H  45.59500 18.93700 30.36500
H  44.38000 17.68200 27.76800
H  43.48300 17.57800 26.46500
H  42.72900 18.40400 27.82400
H  45.32800 23.87300 23.59300
H  47.63500 25.61800 23.59600
H  47.57500 23.69700 22.51400
H  46.82000 22.09800 23.18100
H  48.13300 23.12800 23.88200
H  45.25300 27.21100 24.22500
H  44.99600 25.99800 22.89700
H  45.71100 27.53000 21.41200
H  47.27000 27.54700 22.19100
H  46.04200 28.63600 22.75500
H  48.66900 30.50400 28.06500
H  48.05900 29.87500 26.45300
H  49.74100 29.47300 26.95900
H  46.75900 28.88800 32.43400
H  50.32500 28.64800 34.90400
H  49.54800 27.15700 34.89900
H  48.96400 28.27300 36.07100

