158

Mg 29.30200 59.77500 40.84200
C  26.24000 58.36500 40.06200
C  30.81700 56.90000 39.78100
C  32.29900 61.33200 41.11900
C  27.62900 62.77200 41.50300
N  28.59700 57.87100 40.12500
C  27.35100 57.63500 39.70000
C  27.41300 56.28700 38.88900
C  28.69500 55.56400 39.35500
C  29.41500 56.83100 39.73900
C  28.54700 54.53100 40.46400
C  27.26500 56.48100 37.36400
C  26.70600 55.28600 36.57800
H  25.92100 55.70100 35.39100
N  31.28500 59.17300 40.47200
C  31.73200 57.98000 40.05200
C  33.16800 57.95400 39.93000
C  33.62800 59.19200 40.30600
C  32.36600 59.91900 40.69800
C  33.96200 56.73800 39.48000
C  35.05700 59.58300 40.49600
O  35.93600 58.75100 40.31000
C  35.43600 60.98000 40.85700
N  29.85900 61.79800 41.29400
C  31.19700 62.13700 41.39000
C  31.33400 63.66600 41.71600
C  29.79300 63.96600 42.02300
C  29.01000 62.78900 41.54300
C  32.28000 64.05200 42.84400
C  29.17100 65.31500 41.49000
C  28.28400 66.15200 42.42100
N  27.25300 60.41600 41.10000
C  26.79200 61.67700 41.26700
C  25.40400 61.61400 41.18500
C  25.11500 60.29400 40.65500
C  26.27800 59.62900 40.62500
C  24.40300 62.61800 41.44000
C  24.01900 59.37200 40.23400
O  22.81200 59.43500 40.26700
C  24.71800 58.05600 39.84300
C  24.27900 56.91300 40.84900
O  24.32700 57.14600 42.04800
O  23.78200 55.81900 40.21500
C  23.49300 54.73000 41.17100
H  31.18400 55.92300 39.46100
H  33.25600 61.84300 41.24300
H  27.13100 63.70100 41.78700
H  26.58100 55.66100 39.21500
H  29.16200 55.09200 38.49100
H  28.80700 54.94100 41.44000
H  29.19100 53.66100 40.33300
H  27.51200 54.19400 40.40400
H  28.23200 56.76200 36.94700
H  26.52900 57.24900 37.12800
H  26.10200 54.58600 37.15600
H  27.57000 54.69700 36.27000
H  33.34000 55.97900 39.00400
H  34.61200 56.25500 40.20900
H  34.63600 57.17000 38.74000
H  34.95000 61.62600 40.12600
H  36.49400 61.23300 40.92900
H  35.14800 61.08000 41.90300
H  31.76300 64.21000 40.87500
H  29.77200 63.92700 43.11200
H  32.97000 63.26700 43.15500
H  31.72900 64.15100 43.77900
H  32.94100 64.86800 42.55100
H  28.58800 65.03800 40.61200
H  30.02700 65.89200 41.14000
H  28.57700 67.20100 42.37400
H  28.41800 65.85200 43.46000
H  27.21900 66.06000 42.20800
H  23.46200 62.55700 40.89300
H  24.71500 63.54000 40.95100
H  24.38100 62.82200 42.51000
H  24.52200 57.68600 38.83700
H  24.46800 54.29500 41.39000
H  22.90900 53.89000 40.79400
H  23.00900 54.99100 42.11200
Mg -9.54400 42.46400 42.48500
C  -8.32100 39.12600 41.72800
C  -6.51100 43.51700 40.94400
C  -10.78200 45.43300 42.24700
C  -12.53900 40.96400 43.48000
N  -7.51900 41.38200 41.56400
C  -7.30100 40.06000 41.40000
C  -6.02300 39.76100 40.62600
C  -5.32900 41.23800 40.63700
C  -6.53300 42.14700 41.10500
C  -4.04600 41.36500 41.41100
C  -6.23600 39.16000 39.21800
C  -5.39200 37.92200 38.82700
H  -4.32700 38.29200 37.76500
N  -8.69200 44.19600 41.72800
C  -7.47800 44.43800 41.12200
C  -7.35100 45.88700 40.93100
C  -8.56700 46.48400 41.32100
C  -9.41000 45.35100 41.81200
C  -6.21000 46.55500 40.21600
C  -8.86800 48.01500 41.28500
O  -7.98100 48.78000 40.90100
C  -10.23300 48.58600 41.57200
N  -11.44300 43.07900 42.77700
C  -11.71200 44.43800 42.73100
C  -13.05700 44.70800 43.54500
C  -13.57400 43.25000 43.98200
C  -12.46500 42.36100 43.37700
C  -12.78200 45.63900 44.80000
C  -15.04300 42.89400 43.55700
C  -16.07900 42.96000 44.68900
N  -10.26500 40.49200 42.72800
C  -11.51400 40.07900 43.07700
C  -11.59700 38.65000 42.99300
C  -10.41800 38.25000 42.44900
C  -9.60300 39.39800 42.25000
C  -12.79400 37.86000 43.31000
C  -9.69500 37.03500 42.03400
O  -10.00200 35.82500 42.09200
C  -8.30100 37.61200 41.56500
C  -7.27600 36.73300 42.21100
O  -6.91100 36.73200 43.40500
O  -6.62000 35.97500 41.23400
C  -5.74200 34.99900 41.82200
H  -5.52900 43.87000 40.62100
H  -11.09000 46.46500 42.42800
H  -13.38900 40.39600 43.86400
H  -5.37300 39.05600 41.14500
H  -5.18400 41.61800 39.62600
H  -3.42000 40.49000 41.23800
H  -4.43400 41.46700 42.42400
H  -3.66000 42.31500 41.03900
H  -5.95800 40.00600 38.58900
H  -7.29200 38.93700 39.06200
H  -6.06100 37.18900 38.37700
H  -4.88700 37.48500 39.68800
H  -5.69600 47.32900 40.78600
H  -6.67100 47.02400 39.34700
H  -5.52700 45.81400 39.80200
H  -10.28900 48.50400 42.65700
H  -10.93200 47.99000 40.98500
H  -10.42800 49.63500 41.34700
H  -13.83800 45.27500 43.03700
H  -13.49100 43.18000 45.06600
H  -11.85500 46.17200 44.59000
H  -12.70200 45.06000 45.72000
H  -13.54700 46.41500 44.78800
H  -15.08000 41.95000 43.01400
H  -15.35200 43.70600 42.89900
H  -16.70000 43.84400 44.54600
H  -15.61800 43.06500 45.67100
H  -16.81500 42.15600 44.67200
H  -12.42200 36.90000 43.66700
H  -13.41600 37.77400 42.41900
H  -13.27700 38.33400 44.16400
H  -8.27400 37.41900 40.49300
H  -4.96800 35.53800 42.36700
H  -5.21300 34.52500 40.99500
H  -6.27700 34.19400 42.32700

