158

Mg 16.27100 -2.59900 28.44200
C  15.36500 -0.15800 30.88400
C  17.99500 -4.16200 31.07500
C  17.69100 -4.66700 26.23800
C  15.27400 -0.37700 25.96100
N  16.72800 -2.05700 30.65800
C  16.06700 -1.16800 31.47900
C  16.39300 -1.41900 32.99700
C  17.46500 -2.57300 32.86200
C  17.40600 -2.97300 31.44000
C  18.83800 -2.11600 33.43200
C  15.11300 -1.88800 33.73700
C  14.94500 -1.22800 35.06200
H  16.17200 -0.69300 35.86200
N  17.48800 -4.27600 28.65600
C  18.01100 -4.78700 29.81500
C  18.72700 -6.00000 29.49800
C  18.67100 -6.22200 28.08800
C  17.92600 -5.03400 27.57000
C  19.27300 -6.90200 30.64400
C  19.16700 -7.43900 27.31500
O  18.85100 -7.61600 26.15800
C  20.07500 -8.43900 27.94400
N  16.24200 -2.62400 26.35400
C  17.02900 -3.54000 25.62900
C  16.91500 -3.18000 24.15100
C  16.03800 -1.89300 24.06600
C  15.81200 -1.61200 25.57200
C  18.21500 -3.22000 23.28800
C  14.73200 -2.00600 23.32500
C  14.33800 -0.84000 22.40100
N  15.34300 -0.78200 28.35300
C  15.02600 0.01500 27.34000
C  14.31700 1.19700 27.76700
C  14.44100 1.17800 29.17000
C  15.09500 -0.03200 29.47800
C  13.67000 2.28800 26.98600
C  14.09000 1.89000 30.36200
O  13.42900 2.88100 30.54600
C  14.62700 1.04900 31.60200
C  15.60300 1.85300 32.32100
O  16.58300 2.32700 31.83300
O  15.10300 2.28900 33.56800
C  15.88700 3.32000 34.26400
H  18.45000 -4.74000 31.88200
H  18.18700 -5.34600 25.54100
H  14.79400 0.21000 25.17500
H  16.77000 -0.49700 33.44000
H  17.17800 -3.46900 33.41200
H  18.79000 -2.47800 34.45900
H  18.86800 -1.02700 33.46800
H  19.67900 -2.49600 32.85200
H  15.04300 -2.96000 33.92300
H  14.28300 -1.54700 33.11800
H  14.36000 -1.88400 35.70700
H  14.25800 -0.38600 34.97600
H  19.16600 -7.96900 30.44400
H  18.81600 -6.72400 31.61800
H  20.30800 -6.57300 30.73200
H  19.59800 -9.17600 28.59000
H  20.73300 -7.95200 28.66400
H  20.77100 -8.78400 27.17900
H  16.24700 -3.93100 23.72900
H  16.66700 -1.04200 23.80500
H  18.94500 -3.58200 24.01200
H  18.56700 -2.27000 22.88700
H  18.06100 -3.80400 22.38000
H  13.90300 -2.15700 24.01600
H  14.66500 -2.92200 22.73700
H  13.72600 -1.07400 21.53100
H  15.18000 -0.34800 21.91400
H  13.82600 -0.05700 22.96100
H  13.39100 1.89600 26.00800
H  14.33200 3.14000 26.83100
H  12.74800 2.60900 27.47000
H  13.76300 0.79900 32.21700
H  16.71600 2.73600 34.66400
H  15.29800 3.81300 35.03700
H  16.17200 4.05400 33.51100
Mg 25.50100 -1.33600 29.27900
C  27.50000 -1.40400 32.30000
C  22.68400 -1.11700 31.35100
C  23.69400 -1.44300 26.55400
C  28.39500 -2.08200 27.44900
N  25.14600 -1.45500 31.62600
C  26.17000 -1.29600 32.57300
C  25.48300 -1.18200 33.95900
C  23.95200 -1.01900 33.62000
C  23.92700 -1.25500 32.10500
C  23.03900 -1.85800 34.45800
C  26.14500 -0.12800 34.90300
C  25.15500 0.50300 35.93800
H  25.87500 1.12400 37.15700
N  23.48800 -1.16900 28.95800
C  22.50800 -1.05100 29.95100
C  21.21600 -1.07000 29.22900
C  21.51500 -1.00600 27.80200
C  22.99100 -1.23200 27.70400
C  19.88200 -1.05400 29.95700
C  20.52100 -0.89100 26.66800
O  20.79100 -1.04200 25.48300
C  19.11000 -0.71700 26.96500
N  25.97500 -1.88500 27.32200
C  25.05800 -1.82600 26.34900
C  25.65600 -1.96600 24.94200
C  27.25700 -2.03700 25.23400
C  27.21400 -1.95800 26.76700
C  25.13200 -3.23300 24.20200
C  28.04600 -0.87000 24.66700
C  27.71600 0.51900 25.07300
N  27.52600 -1.75200 29.75600
C  28.55700 -1.94400 28.89400
C  29.78500 -2.05000 29.62900
C  29.39500 -1.86900 30.98100
C  28.05100 -1.62500 31.02300
C  31.13400 -2.28000 29.02000
C  29.93700 -1.73200 32.33200
O  31.06900 -1.88300 32.83400
C  28.70800 -1.34600 33.23800
C  28.67000 -2.32900 34.39800
O  28.44000 -3.55600 34.37400
O  29.20300 -1.63300 35.53400
C  29.41500 -2.45300 36.75000
H  21.84100 -0.85400 31.99500
H  23.13000 -1.45900 25.61900
H  29.21800 -2.28000 26.75800
H  25.79200 -2.14000 34.37900
H  23.66400 0.02100 33.77400
H  22.51400 -2.59000 33.84400
H  22.26800 -1.18400 34.83200
H  23.43600 -2.42700 35.29900
H  26.32300 0.74000 34.26700
H  27.04400 -0.46900 35.41600
H  24.47700 -0.32200 36.15300
H  24.49800 1.26700 35.52300
H  20.05500 -1.25500 31.01400
H  19.25400 -1.89200 29.65200
H  19.31000 -0.13400 29.84100
H  18.90800 0.16200 27.57700
H  18.84400 -1.67100 27.42200
H  18.51700 -0.60800 26.05700
H  25.49800 -1.08800 24.31500
H  27.64200 -2.97000 24.82300
H  24.81300 -2.92200 23.20700
H  24.30900 -3.66800 24.76900
H  25.90100 -3.98600 24.02600
H  27.80300 -0.96500 23.60900
H  29.11800 -1.05500 24.59000
H  27.18400 0.93700 24.21800
H  28.60700 1.13400 25.20400
H  27.04300 0.46500 25.92800
H  31.20500 -1.70200 28.09800
H  31.22300 -3.32500 28.72200
H  31.80900 -1.88800 29.78000
H  28.88900 -0.34700 33.63300
H  29.13300 -3.50100 36.64900
H  28.82500 -2.03300 37.56400
H  30.42500 -2.42100 37.15800

