158

Mg 47.78000 34.66800 27.12800
C  46.02300 33.30700 29.71200
C  48.26000 37.51300 29.21000
C  48.80300 36.57300 24.53200
C  46.62800 32.33100 24.92700
N  47.07600 35.34800 29.05100
C  46.70400 34.45200 30.02600
C  46.92900 34.91700 31.47600
C  47.20100 36.45400 31.22500
C  47.51600 36.47100 29.76400
C  45.95900 37.43400 31.55000
C  48.22500 34.23400 32.06200
C  48.41400 34.28100 33.61100
H  47.75800 35.41500 34.45500
N  48.49800 36.70100 26.96300
C  48.69500 37.62000 27.89800
C  49.37900 38.77800 27.38200
C  49.72300 38.47200 26.03100
C  49.00200 37.21300 25.74500
C  49.57300 40.01800 28.24400
C  50.53700 39.27200 24.99100
O  50.67400 38.94200 23.77000
C  51.34300 40.45300 25.52500
N  47.42300 34.64700 24.96200
C  48.13900 35.43200 24.16400
C  48.33500 34.79400 22.68200
C  47.70400 33.40200 22.90900
C  47.20200 33.42200 24.38700
C  47.64400 35.65600 21.61900
C  48.71700 32.17200 22.70600
C  49.72800 31.72500 23.86000
N  46.63200 33.07400 27.24900
C  46.25500 32.21000 26.25200
C  45.51300 31.11600 26.91600
C  45.26000 31.59400 28.21800
C  45.99700 32.73700 28.41500
C  45.01700 29.84900 26.37300
C  44.60900 31.27400 29.43600
O  43.95700 30.32900 29.76900
C  44.94300 32.47600 30.41100
C  45.26500 31.92500 31.81300
O  46.03100 31.03300 32.10700
O  44.39900 32.44800 32.70900
C  44.39200 32.11700 34.13700
H  48.56500 38.27100 29.93500
H  49.22900 36.98600 23.61500
H  46.32600 31.43900 24.37300
H  46.02800 34.76200 32.07000
H  48.06600 36.83400 31.76900
H  45.22700 37.46700 30.74300
H  46.22900 38.48600 31.64700
H  45.33100 37.06600 32.36200
H  49.14500 34.65400 31.65600
H  48.14400 33.19400 31.74400
H  49.48400 34.27500 33.82000
H  47.97800 33.38500 34.05300
H  48.90700 40.03600 29.10700
H  49.57100 40.99000 27.75000
H  50.44800 39.93200 28.88800
H  52.06200 40.70600 24.74500
H  51.82300 40.18100 26.46500
H  50.62100 41.25900 25.65500
H  49.41000 34.71700 22.51400
H  46.86000 33.15000 22.26700
H  47.10800 36.52200 22.00800
H  46.95800 35.05100 21.02500
H  48.38500 36.12400 20.97200
H  49.42300 32.41500 21.91200
H  48.01300 31.37900 22.45400
H  49.66800 30.63700 23.84300
H  49.54000 32.14300 24.85000
H  50.77400 31.96100 23.66600
H  44.85200 28.99700 27.03300
H  45.70200 29.59000 25.56600
H  44.05500 30.06800 25.91200
H  44.03900 33.08500 30.45500
H  45.39900 32.35000 34.48400
H  44.03700 31.11200 34.36600
H  43.76200 32.87500 34.60200
Mg -5.74500 25.35000 25.67600
C  -4.29700 26.70500 28.47800
C  -7.51500 23.21900 27.91700
C  -7.17000 24.02300 23.05000
C  -3.81900 27.45700 23.67600
N  -5.89700 25.03700 27.92200
C  -5.25300 25.78200 28.83000
C  -5.72200 25.50500 30.27200
C  -6.55500 24.22900 30.03000
C  -6.77500 24.15300 28.56400
C  -5.86600 22.97500 30.64300
C  -6.52800 26.65800 30.97600
C  -6.10900 26.90800 32.43300
H  -6.01000 25.70300 33.38700
N  -7.07800 23.75300 25.53300
C  -7.65800 23.00100 26.50800
C  -8.54200 22.04000 25.84700
C  -8.53900 22.32400 24.42600
C  -7.60400 23.41000 24.28800
C  -9.42900 21.07900 26.64500
C  -9.18500 21.51200 23.25400
O  -9.11400 21.83700 22.07600
C  -10.00900 20.27000 23.47000
N  -5.37800 25.56300 23.68800
C  -6.22400 24.99500 22.73600
C  -6.02600 25.53600 21.39900
C  -5.09300 26.76800 21.63300
C  -4.79300 26.65300 23.12600
C  -5.45900 24.45100 20.38100
C  -5.70300 28.13700 21.17200
C  -4.86400 28.88700 20.13600
N  -4.30900 26.77600 25.98000
C  -3.57100 27.57800 25.06800
C  -2.56500 28.39300 25.78500
C  -2.88300 28.08600 27.12700
C  -3.94000 27.10700 27.15000
C  -1.61400 29.41700 25.28500
C  -2.59500 28.49300 28.48500
O  -1.69100 29.20300 28.91400
C  -3.46700 27.58900 29.39100
C  -2.58400 26.87400 30.26600
O  -1.83600 25.94500 30.00800
O  -2.62700 27.45200 31.51300
C  -1.73900 26.79500 32.54500
H  -8.14000 22.56600 28.52900
H  -7.75900 23.71300 22.18400
H  -3.41900 28.22600 23.01200
H  -4.82400 25.23800 30.82900
H  -7.56500 24.27500 30.43600
H  -4.99600 23.28600 31.22200
H  -5.65500 22.31900 29.79800
H  -6.59100 22.52200 31.32000
H  -7.60900 26.52400 30.94100
H  -6.38000 27.61500 30.47600
H  -6.87900 27.63200 32.70000
H  -5.15700 27.43500 32.36300
H  -10.47800 21.34800 26.52300
H  -9.28300 21.20800 27.71800
H  -9.16500 20.06200 26.35800
H  -9.43800 19.39600 23.78400
H  -10.23500 20.03300 22.43100
H  -10.82000 20.36100 24.19200
H  -7.02600 25.81700 21.06800
H  -4.08100 26.67100 21.24100
H  -5.98100 24.47200 19.42400
H  -5.31300 23.43000 20.73200
H  -4.45600 24.78400 20.11400
H  -5.79900 28.72700 22.08300
H  -6.70400 28.04100 20.75300
H  -4.91000 29.97000 20.25400
H  -5.34300 28.68300 19.17800
H  -3.82700 28.56200 20.05700
H  -2.04000 30.41900 25.25100
H  -1.38900 29.04300 24.28500
H  -0.76500 29.38900 25.96800
H  -4.12400 28.22200 29.98700
H  -1.90600 27.32100 33.48500
H  -0.66500 26.89600 32.38300
H  -2.09500 25.76500 32.56200

