158

Mg 23.82600 -6.58600 47.46600
C  26.44900 -4.30800 46.39200
C  22.01200 -5.38500 44.95100
C  21.85500 -9.11600 48.12400
C  26.34500 -8.00600 49.56100
N  24.25600 -4.95900 45.92500
C  25.29200 -4.19900 45.63100
C  25.01300 -3.16900 44.48000
C  23.49600 -3.36600 44.19700
C  23.17300 -4.63700 45.09800
C  22.66600 -2.03700 44.57500
C  25.85100 -3.45000 43.17900
C  26.60300 -2.19800 42.57800
H  26.54300 -1.99600 41.05000
N  22.08700 -7.28200 46.60000
C  21.52000 -6.66500 45.56200
C  20.33000 -7.34300 45.26900
C  20.14500 -8.33900 46.30700
C  21.38200 -8.31600 47.07200
C  19.45500 -6.92600 44.07500
C  18.87700 -9.10800 46.47600
O  17.86000 -8.90600 45.83600
C  18.80400 -10.13400 47.49500
N  24.14000 -8.37700 48.56800
C  23.13400 -9.26700 48.73800
C  23.38100 -10.19600 50.04200
C  24.88500 -9.90900 50.28000
C  25.16600 -8.66500 49.44200
C  22.38000 -9.87000 51.17500
C  25.98200 -11.03200 49.90100
C  27.19000 -11.16700 50.81400
N  25.90000 -6.19000 48.07100
C  26.71400 -6.88500 48.88500
C  28.04800 -6.24600 48.92600
C  27.92600 -5.18900 47.99600
C  26.65100 -5.26500 47.43300
C  29.18000 -6.73800 49.72800
C  28.63300 -3.99000 47.49800
O  29.75000 -3.51500 47.72200
C  27.69900 -3.40700 46.36800
C  27.40100 -2.03800 46.87900
O  26.73900 -1.79500 47.86900
O  27.80400 -1.03800 45.91800
C  27.56600 0.33300 46.43400
H  21.35900 -4.91700 44.21100
H  21.18000 -9.89800 48.47900
H  27.03300 -8.49400 50.25500
H  25.24400 -2.16100 44.82700
H  23.29700 -3.67400 43.17100
H  23.30600 -1.34200 45.11900
H  21.71400 -2.20400 45.07700
H  22.49500 -1.52900 43.62500
H  25.31500 -3.94600 42.36900
H  26.73800 -4.03500 43.42000
H  27.67100 -2.25600 42.78600
H  26.17600 -1.31600 43.05600
H  19.85500 -7.41500 43.18700
H  19.53100 -5.85400 43.89100
H  18.40100 -7.17300 44.20500
H  18.63800 -9.67700 48.47000
H  19.69000 -10.74100 47.30600
H  17.98100 -10.79100 47.21200
H  23.32600 -11.22700 49.69300
H  25.08700 -9.53700 51.28400
H  21.77600 -10.72900 51.46600
H  21.64300 -9.14600 50.82700
H  22.97300 -9.38600 51.95200
H  26.41300 -10.83800 48.91900
H  25.57800 -12.04100 49.81900
H  27.16100 -12.17900 51.21800
H  27.04300 -10.36500 51.53800
H  28.12700 -10.96400 50.29700
H  29.11700 -7.79800 49.97300
H  29.27800 -6.05600 50.57300
H  30.05600 -6.55500 49.10700
H  28.21500 -3.29300 45.41400
H  27.75800 0.38700 47.50500
H  26.53200 0.57600 46.19000
H  28.24400 0.92900 45.82300
Mg 35.46700 48.84100 24.85700
C  35.57800 47.04200 27.80400
C  34.36000 51.45400 26.64700
C  35.16000 50.40900 21.99300
C  36.23600 45.89100 23.10000
N  35.14800 49.21900 26.94700
C  35.24200 48.41100 27.96200
C  34.91200 49.06000 29.31200
C  34.24400 50.39600 28.91600
C  34.62300 50.37800 27.40800
C  32.74900 50.67800 29.08800
C  36.28100 49.16900 30.09500
C  36.14200 48.96600 31.62600
H  34.71000 48.86100 32.19800
N  34.85000 50.67800 24.36400
C  34.36700 51.58700 25.29600
C  33.93100 52.76100 24.50900
C  34.19300 52.50400 23.15900
C  34.73000 51.15800 23.12100
C  33.32600 53.98600 25.11900
C  33.85300 53.34800 21.95000
O  34.13800 52.97200 20.83600
C  33.08600 54.72900 22.08500
N  35.64400 48.16100 22.80400
C  35.42600 49.07400 21.81200
C  35.43500 48.39500 20.43200
C  36.03800 46.99600 20.78500
C  35.95500 47.00500 22.36000
C  33.93000 48.38200 19.96900
C  37.42800 46.83900 20.16900
C  38.59100 47.58800 20.81800
N  35.85400 46.83200 25.32700
C  36.13000 45.76200 24.53400
C  36.33800 44.58600 25.36100
C  36.16500 45.04600 26.65100
C  35.89200 46.42800 26.56600
C  36.79200 43.29800 25.01400
C  36.26300 44.75000 28.06800
O  36.57800 43.69100 28.62900
C  35.77700 45.96100 28.90300
C  34.56500 45.55400 29.65200
O  33.40700 45.64000 29.25600
O  34.87800 45.12500 30.91600
C  33.69000 44.51200 31.56000
H  34.08500 52.38000 27.15700
H  34.99900 50.89500 21.02800
H  36.64800 45.07900 22.49700
H  34.13200 48.42800 29.73600
H  34.72000 51.16400 29.52700
H  32.24900 49.81100 29.52000
H  32.14300 50.82500 28.19400
H  32.57500 51.48400 29.80100
H  36.65600 50.17300 29.89600
H  37.02200 48.48100 29.68800
H  36.76700 49.77400 32.00600
H  36.68300 48.04200 31.83000
H  33.33900 53.86500 26.20200
H  32.30300 54.16600 24.79000
H  34.02500 54.79600 24.90700
H  32.06200 54.51400 22.39000
H  32.96100 55.16100 21.09300
H  33.70400 55.35700 22.72700
H  36.06900 48.94900 19.74000
H  35.44000 46.20700 20.33000
H  33.35300 47.49200 20.21900
H  33.88100 48.52700 18.89000
H  33.34000 49.09300 20.54700
H  37.35200 46.94100 19.08600
H  37.61600 45.76800 20.22900
H  38.26600 48.34200 21.53600
H  39.20200 48.13800 20.10200
H  39.26900 46.98500 21.42100
H  36.02200 42.65700 24.58500
H  37.19800 42.83900 25.91500
H  37.62600 43.56300 24.36400
H  36.60700 46.11600 29.59200
H  32.97400 43.93100 30.97800
H  33.06800 45.34000 31.89900
H  33.96100 44.13200 32.54500

