158

Mg 44.59900 5.33300 47.49200
C  42.46400 8.17200 47.28100
C  41.77800 3.40100 47.01600
C  46.51500 2.72100 47.07400
C  47.34800 7.47100 47.57700
N  42.30900 5.74900 47.27200
C  41.73900 6.95700 47.12600
C  40.19300 6.86900 47.03300
C  40.00500 5.32100 46.92100
C  41.42700 4.72400 47.12300
C  39.02300 4.68300 47.90500
C  39.57900 7.62700 45.84400
C  40.23200 7.19100 44.53400
H  40.65000 8.16900 43.33100
N  44.22600 3.25800 47.14100
C  42.99200 2.66500 47.00300
C  43.19100 1.23700 46.91200
C  44.58600 1.03600 46.85400
C  45.17900 2.35600 47.01700
C  42.04900 0.22900 46.73600
C  45.33500 -0.31300 46.75700
O  44.67900 -1.34200 46.73900
C  46.70700 -0.55700 46.95800
N  46.64200 5.13200 47.30800
C  47.20600 3.93300 47.19400
C  48.78500 4.01100 47.39300
C  48.92600 5.57000 47.59200
C  47.53600 6.12400 47.50800
C  49.29200 3.16300 48.57100
C  49.95200 6.23600 46.59400
C  50.99800 7.11700 47.23600
N  44.90100 7.38300 47.42900
C  46.07900 8.12100 47.45500
C  45.79900 9.45400 47.36500
C  44.37700 9.53700 47.42400
C  43.84100 8.27700 47.34600
C  46.84500 10.55500 47.19600
C  43.25900 10.45200 47.27100
O  43.22000 11.61700 47.00500
C  41.97300 9.62600 47.18600
C  41.11100 9.84200 48.31800
O  41.00900 9.08800 49.28300
O  40.28000 10.88200 48.04900
C  39.14700 11.07600 48.95000
H  40.87100 2.82300 46.82100
H  47.24800 1.93000 46.90400
H  48.07400 8.27400 47.72100
H  39.73300 7.21400 47.95900
H  39.66000 4.99400 45.94000
H  38.33100 5.37100 48.39100
H  39.55400 4.16900 48.70600
H  38.28800 4.08900 47.36200
H  39.58800 8.71300 45.94400
H  38.53500 7.33400 45.73700
H  39.43500 6.52000 44.21300
H  41.15900 6.62700 44.63100
H  41.23000 0.83200 46.34500
H  41.80500 -0.19100 47.71200
H  42.24900 -0.58300 46.03700
H  47.33800 -0.01700 46.25200
H  46.97700 -1.61100 46.88800
H  46.99800 -0.16200 47.93200
H  49.34600 3.70800 46.50900
H  49.26100 5.72800 48.61700
H  48.44000 2.52400 48.79800
H  49.56200 3.79900 49.41400
H  50.15500 2.62000 48.18500
H  49.40500 6.76000 45.81000
H  50.50000 5.51300 45.98800
H  51.59200 6.44100 47.85100
H  50.53600 7.92400 47.80500
H  51.52100 7.59600 46.40900
H  47.67800 10.51600 47.89800
H  46.36400 11.53300 47.18200
H  47.33400 10.37400 46.23900
H  41.48900 9.82300 46.23000
H  39.17000 12.07800 49.37800
H  39.19300 10.42800 49.82400
H  38.27700 10.95300 48.30500
Mg -12.03000 15.88000 42.70500
C  -8.84000 14.56000 41.76900
C  -11.08000 18.89300 41.49800
C  -15.35700 16.75800 42.75300
C  -12.97900 12.45200 43.53700
N  -10.19700 16.57900 41.78600
C  -8.94700 15.93600 41.72600
C  -7.77900 16.94200 41.39000
C  -8.55000 18.33700 41.62200
C  -10.03100 17.94500 41.49900
C  -8.26800 18.97800 43.01400
C  -7.16900 16.75300 39.98900
C  -5.65800 16.72800 39.71500
H  -5.33800 15.51800 38.76200
N  -13.07100 17.58900 42.23700
C  -12.44800 18.70900 41.68500
C  -13.41100 19.64300 41.36400
C  -14.73700 19.06800 41.69500
C  -14.43500 17.77300 42.25400
C  -13.15200 20.94900 40.72700
C  -16.13000 19.68500 41.53900
O  -16.20100 20.86200 41.13900
C  -17.36400 18.92800 41.84100
N  -13.83600 14.85500 43.35500
C  -15.10400 15.46800 43.23900
C  -16.17500 14.54200 43.67400
C  -15.43400 13.16000 43.91100
C  -13.96700 13.49300 43.62500
C  -17.19400 15.08000 44.77100
C  -16.04800 11.92500 43.20000
C  -15.65300 11.76500 41.74900
N  -11.13800 13.92000 42.74600
C  -11.69100 12.67200 43.06500
C  -10.69800 11.67900 42.94000
C  -9.54300 12.35000 42.46100
C  -9.89600 13.67900 42.27000
C  -10.92900 10.23900 43.33500
C  -8.14100 12.23400 42.10600
O  -7.40300 11.32300 42.12300
C  -7.65200 13.62400 41.65200
C  -6.56300 13.87000 42.56500
O  -6.66700 13.90500 43.79600
O  -5.33000 13.99800 41.92000
C  -4.16300 14.14900 42.85300
H  -10.85600 19.96100 41.45100
H  -16.37300 17.11200 42.94200
H  -13.29800 11.45600 43.85200
H  -7.05000 16.80700 42.18900
H  -8.22100 19.01100 40.83100
H  -7.29900 18.71100 43.43700
H  -9.02300 18.84700 43.78900
H  -8.21000 20.06100 42.91000
H  -7.58600 17.39600 39.21300
H  -7.48500 15.73600 39.75800
H  -5.08300 16.58600 40.63000
H  -5.33600 17.63400 39.20100
H  -13.93200 21.17800 40.00100
H  -12.29200 21.01800 40.06100
H  -13.17000 21.84800 41.34200
H  -17.32200 18.03800 41.21300
H  -18.07800 19.68900 41.52400
H  -17.41300 18.84700 42.92700
H  -16.73700 14.32500 42.76600
H  -15.40200 12.94400 44.97900
H  -18.16700 14.66500 44.50800
H  -17.35300 16.15300 44.87300
H  -16.98000 14.73100 45.78200
H  -17.11500 11.88800 43.42200
H  -15.59500 11.07400 43.70900
H  -15.22100 12.73300 41.49300
H  -16.46800 11.47400 41.08600
H  -14.83800 11.04900 41.65100
H  -10.06400 9.58100 43.25400
H  -11.77300 9.82900 42.78000
H  -11.28700 10.16000 44.36200
H  -7.28800 13.57500 40.62600
H  -4.36100 13.47100 43.68300
H  -4.13100 15.18200 43.19900
H  -3.25600 13.92900 42.28900

