158

Mg 41.03400 8.88600 29.02800
C  43.10700 9.91500 31.66200
C  38.96500 7.54500 31.29000
C  39.22400 7.70000 26.46000
C  43.62800 9.73200 26.89500
N  41.06000 8.84100 31.16500
C  41.94600 9.32900 32.05800
C  41.45500 9.24300 33.52700
C  40.11700 8.51100 33.36300
C  40.09600 8.19200 31.88100
C  39.92600 7.23100 34.20500
C  41.42800 10.67100 34.19300
C  40.24200 11.10500 35.14000
H  40.67700 11.68900 36.49900
N  39.27700 7.86400 28.86400
C  38.60600 7.32000 29.93800
C  37.39200 6.70600 29.43100
C  37.44100 6.66200 28.01700
C  38.67300 7.49300 27.71500
C  36.42500 5.98400 30.38500
C  36.47500 5.99700 26.96200
O  36.78800 5.86300 25.76300
C  35.10200 5.49300 27.39700
N  41.43100 8.67200 27.04700
C  40.49900 8.19400 26.13500
C  41.03100 8.27300 24.70100
C  42.45000 8.97000 24.84900
C  42.48800 9.23300 26.35800
C  41.05400 6.93400 24.01000
C  42.59700 10.14500 23.87600
C  42.24300 11.63400 24.30600
N  43.02000 9.68700 29.17900
C  43.98200 10.00400 28.24800
C  45.19500 10.63900 28.75700
C  44.86000 10.70100 30.18600
C  43.59700 10.03700 30.34500
C  46.52600 11.01900 28.00600
C  45.22200 11.14500 31.50100
O  46.19200 11.82000 31.81200
C  44.14600 10.64000 32.48100
C  44.70100 9.71500 33.44200
O  44.59700 8.50800 33.41800
O  45.20400 10.40000 34.47200
C  45.40700 9.50200 35.63500
H  38.11800 7.38100 31.95900
H  38.66700 7.30100 25.61000
H  44.37200 10.01800 26.14800
H  42.12800 8.51300 33.97600
H  39.23000 9.13000 33.49600
H  38.97600 6.93400 34.64900
H  40.62800 7.05500 35.02000
H  40.11900 6.34700 33.59800
H  41.38300 11.42300 33.40600
H  42.37000 10.74200 34.73700
H  39.56400 10.28300 35.36700
H  39.68200 11.84500 34.56800
H  35.48900 6.54100 30.33500
H  36.82800 5.85700 31.39000
H  36.11600 5.01500 29.99300
H  35.35500 4.57200 27.92300
H  34.53500 5.24700 26.49900
H  34.47000 6.05500 28.08400
H  40.24900 8.89700 24.26900
H  43.30600 8.31600 24.68000
H  42.11000 6.74100 23.82000
H  40.27000 6.96900 23.25400
H  40.80000 6.13100 24.70200
H  41.87300 9.91100 23.09600
H  43.56400 10.05300 23.38100
H  41.39200 11.98800 23.72400
H  43.07600 12.27700 24.02200
H  42.20700 11.54100 25.39100
H  46.32500 12.04100 27.68600
H  46.69700 10.36700 27.14900
H  47.39300 11.06400 28.66500
H  43.66600 11.56500 32.80200
H  45.99400 8.59900 35.47000
H  44.55700 9.19500 36.24500
H  45.87200 10.21400 36.31800
Mg -10.60600 16.59200 42.62300
C  -7.36500 17.61200 42.51600
C  -11.49400 19.91400 41.79700
C  -13.81300 15.64900 42.49900
C  -9.58400 13.23100 43.11800
N  -9.53400 18.51500 42.04500
C  -8.15600 18.68400 42.14700
C  -7.75900 20.04700 41.67500
C  -9.06100 20.85600 41.89200
C  -10.08800 19.74900 41.89500
C  -8.98600 21.75500 43.13100
C  -7.14200 19.94200 40.22200
C  -5.61400 20.31500 39.97400
H  -4.76700 19.36500 39.33000
N  -12.41600 17.65500 42.27000
C  -12.54700 18.95600 41.95900
C  -13.92200 19.20600 41.65400
C  -14.58000 17.96100 41.78100
C  -13.59500 17.00700 42.23000
C  -14.51100 20.54000 41.22200
C  -16.03600 17.72300 41.53400
O  -16.67500 18.74400 41.28800
C  -16.80000 16.43700 41.72200
N  -11.51300 14.70100 42.67000
C  -12.87400 14.62600 42.73200
C  -13.35500 13.21700 43.02500
C  -12.07300 12.38900 43.29400
C  -10.94800 13.46100 42.89000
C  -14.44300 13.07400 44.03700
C  -11.81800 11.08500 42.46700
C  -11.28600 9.98600 43.32300
N  -8.84900 15.60200 42.78500
C  -8.54600 14.26800 43.12200
C  -7.09100 14.17700 43.17800
C  -6.63000 15.48000 43.06200
C  -7.72700 16.28300 42.74300
C  -6.35300 12.90600 43.27000
C  -5.38500 16.28700 43.04500
O  -4.20000 15.95500 43.21500
C  -5.87100 17.78800 42.75700
C  -5.58000 18.47000 44.08100
O  -6.22500 18.20400 45.07300
O  -4.46000 19.25700 44.08600
C  -4.08900 19.98400 45.24400
H  -11.76700 20.92600 41.48900
H  -14.84100 15.28300 42.45400
H  -9.27500 12.23600 43.44500
H  -6.91200 20.27600 42.32200
H  -9.14500 21.57900 41.08100
H  -7.94200 21.85900 43.42600
H  -9.63300 21.25000 43.84900
H  -9.42800 22.67800 42.75600
H  -7.65900 20.62800 39.55100
H  -7.24100 18.92600 39.83800
H  -5.19100 20.50500 40.96100
H  -5.58500 21.22900 39.38100
H  -15.04100 20.51100 40.27000
H  -13.74600 21.31400 41.15700
H  -15.22800 20.83800 41.98700
H  -17.77200 16.60300 41.25900
H  -16.94300 16.04000 42.72700
H  -16.41500 15.64200 41.08300
H  -13.79300 12.86600 42.09000
H  -12.01300 12.24600 44.37300
H  -15.35400 12.72600 43.55000
H  -14.74300 13.94500 44.62000
H  -14.20100 12.20400 44.64700
H  -11.05100 11.21600 41.70400
H  -12.73500 10.79300 41.95300
H  -12.10000 9.28800 43.51800
H  -10.97700 10.46500 44.25200
H  -10.44900 9.43400 42.89500
H  -5.30300 13.00400 42.99500
H  -6.86400 12.21800 42.59600
H  -6.32800 12.51500 44.28700
H  -5.24500 18.33300 42.05000
H  -4.80400 20.20300 46.03700
H  -3.64400 20.91800 44.89900
H  -3.27600 19.39600 45.67000

