158

Mg 1.59400 -2.95900 45.00900
C  4.93300 -2.07600 44.32900
C  0.66800 -0.43000 42.97300
C  -1.49600 -4.37300 44.89100
C  2.75500 -5.82000 46.81200
N  2.79900 -1.46100 43.75800
C  4.12700 -1.34000 43.55800
C  4.34300 -0.19200 42.47800
C  2.90000 0.44100 42.30700
C  2.05200 -0.51900 43.17700
C  2.75900 1.88900 42.79600
C  4.83900 -0.69400 41.18300
C  5.98600 0.13300 40.49500
H  5.50400 0.85100 39.19800
N  -0.19900 -2.46500 44.09800
C  -0.34400 -1.34400 43.35800
C  -1.74800 -1.25800 42.92100
C  -2.40400 -2.39300 43.45500
C  -1.39200 -3.15700 44.20200
C  -2.37700 -0.14500 42.10200
C  -3.87500 -2.66000 43.31200
O  -4.57900 -1.88400 42.70700
C  -4.52700 -3.89500 44.02400
N  0.65500 -4.75200 45.79500
C  -0.62100 -5.13300 45.65600
C  -0.88700 -6.54800 46.00000
C  0.45400 -6.92600 46.89800
C  1.36700 -5.72800 46.54300
C  -2.14600 -6.85600 46.83800
C  1.10600 -8.30800 46.43000
C  1.48900 -9.21200 47.66300
N  3.40700 -3.82100 45.53300
C  3.74800 -4.92500 46.22300
C  5.19200 -4.99500 46.43700
C  5.67500 -3.87600 45.75300
C  4.54700 -3.22000 45.21200
C  5.99600 -6.07200 47.09500
C  6.93300 -3.16400 45.32200
O  8.07600 -3.43400 45.58500
C  6.47700 -2.12800 44.27100
C  6.99000 -0.85700 44.70600
O  6.95300 -0.48700 45.88100
O  7.70900 -0.26100 43.72900
C  8.45200 0.94400 44.02300
H  0.25600 0.37400 42.35800
H  -2.42300 -4.92800 44.73100
H  3.13100 -6.66800 47.38700
H  5.05500 0.51700 42.90000
H  2.63400 0.26700 41.26500
H  2.17500 2.16200 43.67500
H  2.38000 2.48300 41.96500
H  3.73200 2.21500 43.16200
H  4.06900 -0.80800 40.42100
H  5.28000 -1.66300 41.41400
H  6.81700 -0.52000 40.22700
H  6.38100 0.91700 41.14100
H  -3.12000 0.43900 42.64600
H  -2.86900 -0.61800 41.25200
H  -1.65200 0.51400 41.62500
H  -4.17700 -4.83000 43.58700
H  -5.61600 -3.91400 44.08200
H  -4.19300 -3.98100 45.05800
H  -0.74200 -7.10300 45.07300
H  0.25500 -6.87900 47.96900
H  -2.64500 -7.72700 46.41200
H  -2.76900 -5.96200 46.85300
H  -1.79000 -7.03200 47.85300
H  2.03300 -8.14800 45.87800
H  0.43300 -8.88700 45.79800
H  2.55900 -9.12100 47.84800
H  1.38300 -10.28600 47.50800
H  0.86900 -8.95400 48.52100
H  5.93300 -6.96700 46.47700
H  5.73400 -6.32700 48.12200
H  7.04400 -5.78200 47.17200
H  6.78600 -2.36000 43.25200
H  7.80400 1.80800 43.87900
H  9.28200 1.03300 43.32300
H  8.77000 0.97600 45.06600
Mg 49.19000 36.06300 27.59500
C  47.17500 34.59000 30.02400
C  49.63700 38.68800 29.61200
C  50.38000 37.81300 24.99200
C  48.52600 33.37100 25.52000
N  48.56700 36.55200 29.62800
C  47.84500 35.77600 30.45600
C  48.00200 36.26900 31.95200
C  48.48800 37.71500 31.74200
C  48.95500 37.66900 30.28800
C  47.39600 38.80200 31.82900
C  49.08800 35.42900 32.65800
C  49.03800 35.40100 34.21300
H  48.11700 36.42000 34.91800
N  49.93900 38.02700 27.34200
C  50.05400 38.93600 28.27500
C  50.63200 40.17900 27.70700
C  50.87700 39.92700 26.34600
C  50.33800 38.55100 26.18500
C  50.88800 41.34300 28.48100
C  51.47400 40.82300 25.25500
O  51.54400 40.49700 24.09400
C  52.18600 42.10400 25.63800
N  49.16100 35.68800 25.45800
C  49.94900 36.51200 24.74200
C  50.35100 35.87600 23.40100
C  49.72300 34.41100 23.54200
C  49.12900 34.45800 24.95700
C  50.14000 36.54400 21.97900
C  50.75900 33.24600 23.22400
C  50.53400 32.42300 21.91900
N  48.10400 34.30700 27.68600
C  48.05500 33.27200 26.84600
C  47.19900 32.21500 27.38600
C  46.72700 32.72800 28.58400
C  47.42200 33.94000 28.76500
C  46.86800 30.94500 26.87800
C  45.81700 32.59100 29.66800
O  45.09900 31.63600 29.88600
C  46.02900 33.80000 30.69900
C  46.23900 33.12700 32.04700
O  47.33400 32.59900 32.35600
O  45.15600 33.45200 32.91100
C  45.20300 33.01900 34.29200
H  49.98900 39.44800 30.31300
H  50.91200 38.26600 24.15300
H  48.51900 32.52200 24.83400
H  47.03800 36.07200 32.42100
H  49.30100 38.02900 32.39700
H  47.16300 38.60400 32.87500
H  46.59400 38.61900 31.11300
H  47.83000 39.80200 31.81600
H  50.05600 35.87500 32.42800
H  49.08000 34.40500 32.28500
H  50.04200 35.59900 34.58900
H  48.66400 34.39700 34.40800
H  50.80900 42.20900 27.82400
H  51.91000 41.24600 28.84900
H  50.15700 41.50200 29.27400
H  52.91100 41.96300 26.44000
H  51.56600 42.96700 25.88100
H  52.75400 42.35500 24.74200
H  51.43700 35.86400 23.49000
H  48.85900 34.34800 22.88100
H  49.48300 37.40000 22.13200
H  49.57900 35.87200 21.32900
H  51.06600 36.81800 21.47400
H  50.94700 32.69700 24.14600
H  51.66000 33.81500 22.99300
H  50.85000 33.01600 21.06000
H  49.44900 32.33100 21.87600
H  51.00100 31.43900 21.96000
H  47.81700 30.57000 26.49700
H  46.11100 30.97500 26.09400
H  46.57100 30.40400 27.77700
H  45.05700 34.28800 30.63000
H  44.17300 32.82500 34.58900
H  45.52200 33.83500 34.94000
H  45.79400 32.11300 34.42600

