158

Mg 41.31900 40.72000 26.47000
C  40.80100 43.14100 29.14000
C  42.75800 38.79100 28.95600
C  42.15800 38.69400 24.15400
C  40.57500 43.35000 24.24200
N  41.69600 41.00600 28.79900
C  41.27100 41.97000 29.65600
C  41.42900 41.59300 31.13000
C  42.30900 40.28700 30.93900
C  42.30400 39.97600 29.43900
C  43.73300 40.47000 31.42800
C  40.09300 41.63000 31.89500
C  40.19500 40.90700 33.28000
H  39.51000 41.51600 34.51300
N  42.05600 38.92400 26.58700
C  42.66000 38.26300 27.71500
C  43.13200 36.94300 27.33800
C  42.97700 36.85900 25.91600
C  42.39200 38.18200 25.45500
C  43.69400 35.94100 28.29700
C  43.41700 35.74300 24.98900
O  43.30100 35.87000 23.75200
C  44.04200 34.47100 25.52400
N  41.52500 41.02500 24.48500
C  41.78800 39.96600 23.65500
C  41.41200 40.31600 22.16400
C  40.87000 41.80300 22.25100
C  41.00600 42.08000 23.74600
C  42.61100 40.18500 21.19200
C  39.37600 41.85400 21.84900
C  38.37400 41.17400 22.86500
N  40.72500 42.81100 26.54200
C  40.60200 43.74200 25.57700
C  40.28400 45.05900 26.13700
C  40.36600 44.87300 27.51100
C  40.61000 43.42800 27.73400
C  39.98400 46.30000 25.31200
C  40.21900 45.52400 28.78400
O  39.78800 46.62200 29.01400
C  40.58500 44.49500 29.83600
C  41.78000 44.93500 30.57100
O  42.90800 44.96700 30.05100
O  41.53500 45.30600 31.83900
C  42.73800 45.59700 32.65400
H  43.22800 38.14100 29.69800
H  42.11600 37.82600 23.49300
H  40.21000 44.10900 23.54600
H  42.01600 42.38500 31.59400
H  41.82800 39.46000 31.46100
H  44.45500 40.31400 30.62600
H  43.81100 39.68900 32.18400
H  43.82900 41.45700 31.88000
H  39.41800 41.03100 31.28500
H  39.75700 42.66600 31.95200
H  41.25600 40.76800 33.48800
H  39.86900 39.88200 33.10100
H  43.29300 34.95300 28.07100
H  43.28600 36.11400 29.29300
H  44.77600 35.99500 28.18000
H  44.81800 34.59400 26.28000
H  44.42400 33.83500 24.72500
H  43.17800 33.89400 25.85400
H  40.68800 39.56100 21.85800
H  41.56500 42.38800 21.64800
H  43.45000 39.93000 21.83900
H  42.97400 41.08100 20.68900
H  42.49300 39.40400 20.44100
H  39.31600 41.60100 20.79100
H  39.09400 42.90700 21.83400
H  37.71800 41.96100 23.23600
H  38.77800 40.76900 23.79200
H  37.72500 40.41200 22.43200
H  40.37700 47.20700 25.77000
H  38.90400 46.44400 25.27100
H  40.38000 46.10300 24.31500
H  39.73100 44.49100 30.51400
H  43.19500 46.46300 32.17400
H  43.42600 44.75400 32.59300
H  42.44600 45.81200 33.68200
Mg 26.77500 50.78600 26.22000
C  24.94200 52.12000 28.78200
C  29.20100 49.81700 28.48300
C  28.56800 49.55700 23.69300
C  24.50900 52.19600 23.94200
N  26.97200 50.89500 28.33400
C  26.05100 51.40100 29.23600
C  26.44700 51.09000 30.70900
C  27.93500 50.61900 30.53200
C  28.05500 50.35300 29.05900
C  29.11400 51.67100 30.78800
C  25.50500 49.99900 31.42700
C  25.10800 50.27500 32.87600
H  26.14200 50.65200 33.94000
N  28.59600 49.86400 26.16000
C  29.53100 49.57100 27.15100
C  30.66900 49.00200 26.64100
C  30.33700 48.60100 25.35100
C  29.14100 49.36800 24.99000
C  31.84400 48.72300 27.51400
C  30.99800 47.71700 24.45400
O  30.53300 47.42100 23.36200
C  32.25600 46.97900 24.84900
N  26.66100 51.06900 24.20100
C  27.43900 50.30900 23.35200
C  27.01500 50.47700 21.84800
C  25.61100 51.10800 22.01000
C  25.58500 51.46800 23.54000
C  28.00100 51.24700 20.93200
C  24.40800 50.07800 21.82400
C  23.14100 50.64200 21.22300
N  25.12300 52.01400 26.30000
C  24.26700 52.50800 25.31600
C  23.08900 53.18100 25.91300
C  23.35100 53.05000 27.28000
C  24.59100 52.39300 27.43700
C  21.95400 53.69100 25.22000
C  22.82200 53.29200 28.61400
O  21.73600 53.82500 28.93000
C  23.85800 52.65600 29.58500
C  24.33200 53.64900 30.61200
O  25.06800 54.61400 30.39400
O  23.75900 53.43800 31.84500
C  24.27600 54.15400 33.03900
H  29.88300 49.39900 29.22700
H  29.08100 49.10200 22.84300
H  23.88000 52.67000 23.18600
H  26.31500 51.94200 31.37500
H  28.14800 49.78300 31.19900
H  29.61100 52.16900 29.95500
H  29.87500 51.27400 31.46000
H  28.65400 52.57100 31.19600
H  26.09100 49.08300 31.49300
H  24.66600 49.90100 30.73900
H  24.87500 49.28100 33.25600
H  24.17900 50.84500 32.87100
H  31.84700 47.67400 27.81100
H  31.88100 49.37700 28.38500
H  32.79700 49.00300 27.06400
H  31.98400 46.34800 25.69500
H  33.03100 47.71200 25.07500
H  32.58200 46.29700 24.06400
H  26.95700 49.46000 21.46000
H  25.55900 52.01700 21.41000
H  28.11500 50.72200 19.98400
H  28.90600 51.35800 21.53000
H  27.60200 52.25000 20.78000
H  24.02800 49.72500 22.78300
H  24.68600 49.21400 21.22100
H  22.84900 50.04300 20.35900
H  23.28000 51.70700 21.04000
H  22.24900 50.43000 21.81200
H  21.11700 53.82500 25.90500
H  21.63600 52.90800 24.53100
H  22.23400 54.59700 24.68300
H  23.33400 51.82500 30.05600
H  25.28900 54.54100 32.93400
H  24.18900 53.49300 33.90100
H  23.61200 54.98200 33.28900

