158

Mg 26.05400 50.13100 25.85600
C  24.46500 51.67300 28.55400
C  28.59000 49.39300 27.85400
C  27.59300 49.04100 23.15100
C  23.62200 51.70100 23.65600
N  26.39200 50.42500 27.95800
C  25.58300 51.03700 28.90300
C  26.09700 50.85000 30.34800
C  27.53700 50.23100 30.04100
C  27.51000 49.94600 28.55700
C  28.74700 51.11900 30.46100
C  25.26400 49.89600 31.20400
C  24.76200 50.32000 32.64000
H  25.67300 50.99000 33.73600
N  27.79400 49.27700 25.57600
C  28.71800 49.06200 26.50800
C  29.85300 48.35300 25.89900
C  29.54900 48.09800 24.53900
C  28.20200 48.74600 24.36500
C  31.11000 47.92900 26.57400
C  30.34800 47.36600 23.48300
O  29.91000 47.05400 22.40800
C  31.66900 46.74300 23.90100
N  25.51900 50.21900 23.73500
C  26.38500 49.59800 22.84000
C  26.02200 49.98500 21.38100
C  24.60600 50.63900 21.52500
C  24.54100 50.90300 23.06800
C  26.99800 50.95200 20.64200
C  23.52400 49.78100 21.00200
C  22.72600 50.30900 19.75600
N  24.35300 51.42200 25.96800
C  23.51500 51.94200 25.02100
C  22.49200 52.71100 25.70100
C  22.82100 52.61800 27.09200
C  23.94800 51.83500 27.20700
C  21.30200 53.45200 25.12400
C  22.39500 52.98900 28.47500
O  21.45700 53.73300 28.82000
C  23.45100 52.37300 29.47200
C  23.95100 53.42600 30.39400
O  24.86700 54.20000 30.31400
O  23.12900 53.40000 31.50100
C  23.59300 54.05900 32.71900
H  29.39300 49.09500 28.53200
H  28.18800 48.73600 22.28800
H  22.86900 51.99100 22.92000
H  26.12300 51.80800 30.86700
H  27.67600 49.30400 30.59600
H  28.50300 51.87600 31.20600
H  29.24800 51.59200 29.61600
H  29.50600 50.44000 30.85000
H  25.66900 48.89600 31.05100
H  24.34100 49.85400 30.62600
H  24.40600 49.39700 33.09700
H  23.99900 51.09500 32.57400
H  31.20300 48.22800 27.61800
H  31.92100 48.35700 25.98500
H  31.20300 46.84600 26.50100
H  32.01900 46.20800 23.01800
H  31.22200 46.00800 24.57000
H  32.36100 47.54700 24.15100
H  25.94700 49.07500 20.78700
H  24.55700 51.64800 21.11700
H  26.42700 51.65200 20.03200
H  27.61700 50.39200 19.94200
H  27.68900 51.34700 21.38600
H  22.72600 49.64700 21.73300
H  23.89900 48.78100 20.78600
H  22.80000 49.64700 18.89300
H  23.01200 51.30200 19.40900
H  21.71100 50.46700 20.12200
H  20.81200 53.91900 25.97800
H  20.62400 52.88300 24.48800
H  21.69400 54.24800 24.49000
H  22.97700 51.63500 30.11900
H  22.83300 54.13600 33.49500
H  24.03000 55.02900 32.48300
H  24.40700 53.45500 33.12100
Mg -10.38600 17.29100 41.17600
C  -6.92800 16.68300 41.10100
C  -9.63400 20.54900 40.69600
C  -13.53300 17.62200 40.08800
C  -10.90600 13.82500 41.22200
N  -8.43400 18.41400 41.05600
C  -7.18700 17.99500 41.00300
C  -6.16400 19.14100 40.67200
C  -7.09800 20.40400 40.96300
C  -8.47900 19.75900 40.88100
C  -7.01400 21.18600 42.29300
C  -5.67800 18.89600 39.18900
C  -4.24800 18.53800 38.87200
H  -3.98700 17.30500 37.98700
N  -11.56700 18.94400 40.76500
C  -11.03900 20.18900 40.50900
C  -12.11400 21.05100 40.20100
C  -13.30900 20.21800 40.04400
C  -12.82400 18.84100 40.25600
C  -11.99300 22.54700 40.04900
C  -14.69500 20.74000 39.75000
O  -14.99100 21.87600 39.47900
C  -15.84500 19.81300 39.79400
N  -11.98900 15.84700 40.73000
C  -13.13600 16.27600 40.30700
C  -14.14600 15.14600 39.95600
C  -13.42500 13.94600 40.64100
C  -12.07400 14.55300 40.95600
C  -15.58400 15.09200 40.52100
C  -13.52700 12.68200 39.77600
C  -14.12500 11.45600 40.51000
N  -9.24400 15.53500 41.26100
C  -9.58200 14.21000 41.40100
C  -8.41300 13.42500 41.38000
C  -7.30500 14.32800 41.27300
C  -7.87300 15.62300 41.25500
C  -8.34300 11.86500 41.44600
C  -5.93500 14.33700 41.16600
O  -5.20000 13.34500 41.08200
C  -5.58800 15.91800 41.17200
C  -4.79000 16.33100 42.31400
O  -3.99700 17.20000 42.29000
O  -5.01700 15.58800 43.48300
C  -4.00900 15.64500 44.59000
H  -9.35200 21.59900 40.59700
H  -14.53300 17.62100 39.65000
H  -11.06200 12.74800 41.31000
H  -5.35500 19.06900 41.40000
H  -6.83600 21.12400 40.18700
H  -7.99200 21.34900 42.74400
H  -6.45900 22.10900 42.12800
H  -6.44300 20.50400 42.92500
H  -5.91500 19.84900 38.71700
H  -6.22000 18.12200 38.64600
H  -3.77600 18.39200 39.84400
H  -3.75700 19.41000 38.44100
H  -12.94400 23.06900 40.16000
H  -11.62800 22.77200 39.04700
H  -11.20600 22.81600 40.75400
H  -15.69300 19.13900 38.95200
H  -16.80800 20.31500 39.70100
H  -15.68800 19.18500 40.67100
H  -14.16500 15.12500 38.86700
H  -13.86500 13.76900 41.62300
H  -15.63400 16.05700 41.02700
H  -15.81700 14.32700 41.26100
H  -16.39100 15.10600 39.78900
H  -12.47100 12.42700 39.69200
H  -13.87600 12.71000 38.74400
H  -14.98800 11.70500 41.12700
H  -13.34600 10.87300 41.00200
H  -14.52900 10.77100 39.76500
H  -7.53700 11.62900 40.75100
H  -9.26000 11.32900 41.20100
H  -8.04800 11.60200 42.46200
H  -5.13300 16.15300 40.20900
H  -4.10700 16.50800 45.24900
H  -2.97900 15.69900 44.23900
H  -4.08500 14.65900 45.04800

