158

Mg -1.85500 17.41700 26.03600
C  -2.60500 15.14300 28.73400
C  -2.63900 19.96800 28.15900
C  -1.64500 19.38100 23.34800
C  -1.40400 14.60400 23.99100
N  -2.50900 17.50600 28.25600
C  -2.77300 16.46700 29.06600
C  -2.91000 17.05000 30.50000
C  -3.39100 18.54800 30.23300
C  -2.85500 18.71200 28.79700
C  -4.93400 18.63900 30.41700
C  -1.56500 17.08200 31.31000
C  -1.73000 17.48500 32.78000
H  -1.81300 16.38500 33.81900
N  -2.01800 19.40500 25.82100
C  -2.25200 20.31000 26.83100
C  -2.14200 21.70100 26.22700
C  -1.73900 21.52700 24.85900
C  -1.84000 20.06900 24.60800
C  -2.35000 23.01000 27.06700
C  -1.24900 22.51400 23.83300
O  -1.06300 22.25900 22.65900
C  -0.76200 23.86700 24.18600
N  -1.72200 17.01500 23.81600
C  -1.51700 18.04800 22.98600
C  -1.23500 17.55000 21.56600
C  -1.05500 16.00700 21.85500
C  -1.41900 15.82100 23.28600
C  -2.34100 17.85300 20.59100
C  0.38400 15.40100 21.57300
C  1.47600 16.01500 22.47700
N  -1.95600 15.36800 26.27000
C  -1.67700 14.39400 25.35900
C  -1.75500 13.05700 25.96100
C  -2.03600 13.30300 27.30500
C  -2.18700 14.71900 27.48100
C  -1.57700 11.74600 25.18000
C  -2.29600 12.65700 28.52700
O  -2.31100 11.47100 28.87200
C  -2.66600 13.82200 29.55200
C  -1.70800 13.59000 30.67200
O  -0.50900 14.01200 30.65600
O  -2.20700 12.78500 31.66500
C  -1.19800 12.26100 32.58300
H  -2.81800 20.79500 28.85000
H  -1.39500 19.90800 22.42400
H  -1.18600 13.75000 23.34600
H  -3.56500 16.46500 31.14500
H  -2.95300 19.24700 30.94600
H  -5.14200 19.52700 31.01500
H  -5.41700 17.75700 30.83700
H  -5.33100 18.83600 29.42100
H  -1.07700 17.92900 30.82700
H  -0.93200 16.20300 31.19200
H  -2.58400 18.15300 32.89000
H  -0.80300 17.99900 33.03200
H  -2.73600 22.93000 28.08300
H  -2.99400 23.50500 26.34000
H  -1.50400 23.68700 27.19000
H  -1.29200 24.39900 24.97600
H  -0.76300 24.62300 23.40000
H  0.22900 23.65500 24.58800
H  -0.30200 17.99400 21.21900
H  -1.69000 15.50600 21.12400
H  -2.99100 17.01000 20.35600
H  -2.01400 18.18000 19.60400
H  -3.05800 18.59900 20.93400
H  0.74200 15.48400 20.54700
H  0.24400 14.34800 21.81800
H  1.01000 16.78600 23.09000
H  2.22100 16.52700 21.86800
H  1.97000 15.22900 23.04800
H  -1.41700 10.92100 25.87300
H  -0.83300 11.75100 24.38400
H  -2.57500 11.66600 24.74700
H  -3.67100 13.58000 29.89900
H  -0.47000 12.97400 32.96900
H  -0.63200 11.39800 32.22900
H  -1.83800 11.84200 33.36000
Mg 40.13700 8.82500 28.46500
C  42.02400 10.06300 31.03300
C  38.00900 7.44400 30.63200
C  38.21500 7.85800 25.79800
C  42.45900 9.97900 26.17800
N  40.10500 8.72600 30.57600
C  40.85400 9.44100 31.44700
C  40.29900 9.39300 32.86500
C  39.18400 8.31600 32.76600
C  39.10200 8.06300 31.19600
C  39.49600 7.03100 33.54300
C  39.75600 10.84000 33.33600
C  39.14500 11.04000 34.77600
H  39.39800 12.30600 35.49500
N  38.29200 7.79400 28.25500
C  37.59800 7.26100 29.30000
C  36.41000 6.68800 28.82300
C  36.36700 6.90000 27.43500
C  37.62600 7.57200 27.10700
C  35.29200 5.95400 29.70000
C  35.29900 6.55900 26.33700
O  35.42300 6.66100 25.13200
C  33.89900 6.16400 26.78400
N  40.33300 8.69800 26.29200
C  39.36800 8.45600 25.38800
C  39.82500 8.74000 24.00300
C  41.18200 9.41900 24.18900
C  41.35200 9.34200 25.70100
C  39.82500 7.47200 23.14700
C  41.14500 10.90600 23.60200
C  40.47900 12.03000 24.43500
N  41.90100 9.72700 28.61300
C  42.79100 10.15900 27.56100
C  43.95800 10.86200 28.18200
C  43.63300 10.84900 29.55700
C  42.47100 10.14700 29.64900
C  45.15700 11.39100 27.48100
C  44.05700 11.31000 30.88800
O  44.93900 12.07600 31.22900
C  43.00400 10.83300 31.88800
C  43.69400 9.99500 32.96700
O  44.28800 8.94600 32.76300
O  43.43500 10.53600 34.24200
C  43.70700 9.63100 35.30800
H  37.31200 7.24900 31.45000
H  37.66700 7.61600 24.88400
H  43.21200 10.33500 25.47200
H  41.18100 9.08300 33.42500
H  38.28000 8.76500 33.17600
H  40.50300 6.92100 33.94500
H  39.38500 6.14100 32.92300
H  38.80500 7.03800 34.38600
H  38.82800 11.03200 32.79800
H  40.52900 11.59400 33.18400
H  39.59900 10.21400 35.32300
H  38.07300 10.86000 34.68900
H  35.41900 6.04500 30.77800
H  35.42200 4.91100 29.41200
H  34.32400 6.42200 29.52200
H  33.49600 7.09100 27.19300
H  33.85600 5.42000 27.58000
H  33.40500 5.87200 25.85700
H  39.10800 9.46400 23.61700
H  41.94100 8.85200 23.65000
H  39.83500 6.58300 23.77900
H  40.71400 7.43600 22.51700
H  38.97100 7.44700 22.47000
H  40.73200 10.82500 22.59700
H  42.16500 11.25800 23.45000
H  40.24000 11.62200 25.41700
H  39.55600 12.36800 23.96600
H  41.19000 12.84500 24.56800
H  45.91200 11.30700 28.26300
H  44.91100 12.42900 27.25900
H  45.30100 10.69900 26.65100
H  42.56500 11.68300 32.41200
H  42.78500 9.59000 35.88800
H  44.59600 9.81400 35.91100
H  43.83100 8.62400 34.91000

