158

Mg 8.51600 3.76900 27.97000
C  9.53900 2.10100 30.87400
C  6.58100 5.83000 29.88000
C  7.04500 4.84200 25.19200
C  9.87100 1.04100 26.13500
N  8.03800 3.87700 30.11700
C  8.66600 3.12600 31.17200
C  8.32800 3.64500 32.56500
C  7.20500 4.67600 32.15400
C  7.18000 4.78500 30.62900
C  5.85000 4.26100 32.79200
C  9.56700 4.29300 33.38700
C  9.81500 3.61000 34.72700
H  9.94600 4.55800 35.92100
N  7.17700 5.28000 27.62000
C  6.53500 6.06900 28.52100
C  5.70700 7.03300 27.82100
C  5.87500 6.75800 26.42000
C  6.76300 5.56600 26.35300
C  4.95400 8.14200 28.54700
C  5.15200 7.44800 25.33100
O  5.29900 7.13500 24.15100
C  4.30900 8.57400 25.56800
N  8.40200 3.00000 26.01900
C  7.77200 3.71300 25.01900
C  8.06100 3.12100 23.65200
C  8.95400 1.91300 23.99400
C  9.05200 1.95300 25.50100
C  6.71000 2.90800 22.82200
C  10.36700 2.11900 23.27700
C  10.84900 0.80300 22.68100
N  9.64400 2.04900 28.31400
C  10.22500 1.06500 27.45800
C  11.13400 0.23500 28.20900
C  10.86700 0.60300 29.53600
C  9.94500 1.65200 29.58200
C  11.89400 -0.90500 27.69100
C  11.18600 0.27900 30.91500
O  11.96100 -0.54800 31.36400
C  10.32700 1.22700 31.79500
C  9.56300 0.35600 32.66900
O  8.54100 -0.22600 32.42700
O  10.11300 0.39500 33.99100
C  9.41300 -0.19300 35.15900
H  5.98400 6.45500 30.54800
H  6.70400 5.35700 24.29200
H  10.25300 0.27700 25.45400
H  7.86100 2.80700 33.08200
H  7.43900 5.67500 32.52300
H  6.15400 3.99000 33.80300
H  5.39000 3.38800 32.32900
H  5.12100 5.07100 32.79600
H  9.53300 5.38100 33.44900
H  10.38500 4.13200 32.68500
H  10.76700 3.07800 34.73300
H  9.00500 2.93200 34.99300
H  5.26800 8.19400 29.59000
H  3.88700 7.92900 28.48500
H  5.02100 9.11300 28.05600
H  3.98700 8.91100 24.58300
H  4.81400 9.40800 26.05600
H  3.44000 8.29300 26.16300
H  8.56200 3.89500 23.07000
H  8.53600 0.92700 23.79100
H  6.68400 3.65800 22.03100
H  5.85600 2.96600 23.49700
H  6.66900 1.88800 22.43900
H  11.12100 2.28200 24.04700
H  10.30600 2.84100 22.46200
H  11.92700 0.83500 22.52400
H  10.48000 0.72100 21.65800
H  10.50400 -0.07300 23.23000
H  11.89600 -1.10500 26.61900
H  11.50300 -1.85100 28.06600
H  12.93000 -0.79100 28.01000
H  11.14700 1.59000 32.41400
H  8.71700 -1.00600 34.95000
H  8.90300 0.68400 35.55800
H  10.06700 -0.47000 35.98500
Mg 10.25200 47.31000 25.85700
C  8.25100 47.50700 28.57500
C  12.81300 48.75500 27.88900
C  12.23900 47.69500 23.16700
C  7.49000 46.98100 23.80000
N  10.51200 48.06300 28.08500
C  9.54500 47.94400 29.00500
C  10.05800 48.27500 30.41700
C  11.34800 49.16100 30.05100
C  11.64900 48.44100 28.66600
C  11.09000 50.70400 30.10200
C  10.45600 46.97500 31.19500
C  10.03200 47.04000 32.64700
H  10.48000 45.96200 33.67700
N  12.31300 47.85400 25.59300
C  13.22400 48.31500 26.56200
C  14.52300 48.60500 25.94400
C  14.40200 48.14100 24.57000
C  12.95800 47.87700 24.36900
C  15.79700 49.10100 26.70800
C  15.46900 47.89900 23.49700
O  15.19600 47.49700 22.38600
C  16.94000 48.28700 23.73100
N  9.93500 47.49600 23.80400
C  10.88800 47.57200 22.91300
C  10.41800 47.29800 21.44500
C  8.89300 47.14800 21.64300
C  8.75800 47.11900 23.18200
C  10.73700 48.40100 20.43400
C  8.23800 45.93000 20.84800
C  7.07500 46.33600 19.93000
N  8.31500 47.19800 26.12100
C  7.24600 47.07500 25.19900
C  6.08300 46.78300 25.95700
C  6.39600 47.02700 27.28600
C  7.78300 47.27000 27.29500
C  4.81400 46.42100 25.37400
C  5.86700 46.96700 28.57900
O  4.72100 46.84800 28.89600
C  6.98900 47.29400 29.51400
C  7.14700 46.17900 30.49300
O  7.82700 45.19200 30.30300
O  6.18600 46.38900 31.45000
C  6.12900 45.30900 32.46300
H  13.61100 49.35500 28.33200
H  12.90000 47.66200 22.29800
H  6.59400 46.87400 23.18500
H  9.35900 48.82400 31.04700
H  12.24900 49.05600 30.65500
H  10.08800 51.03600 30.37300
H  11.42300 51.10400 29.14400
H  11.74600 51.17400 30.83400
H  11.53500 46.84100 31.27100
H  10.10000 46.14700 30.58200
H  8.97100 46.79100 32.64300
H  10.16700 48.01100 33.12300
H  15.68100 49.31900 27.77000
H  16.07300 50.06500 26.28000
H  16.51100 48.27900 26.65800
H  17.23700 47.65900 24.57100
H  17.02000 49.36300 23.88600
H  17.56800 48.09900 22.86000
H  10.94100 46.43100 21.04100
H  8.36700 48.02700 21.26900
H  10.48300 49.38300 20.83500
H  10.12300 48.14200 19.57200
H  11.80800 48.31700 20.25000
H  7.89500 45.23700 21.61600
H  9.00700 45.50600 20.20300
H  6.23800 45.68000 20.17000
H  7.29000 46.19800 18.87000
H  6.85700 47.40500 19.93400
H  4.20200 47.32200 25.36500
H  4.23100 45.87400 26.11500
H  4.79600 46.03300 24.35600
H  6.72900 48.21700 30.03100
H  5.88800 44.39100 31.92800
H  5.27900 45.57100 33.09400
H  7.01400 45.20700 33.09100

