158

Mg 48.27500 45.64500 43.48300
C  44.85600 45.63600 42.63300
C  48.51400 42.61400 42.13500
C  51.69900 46.13100 43.57800
C  47.92000 49.02700 44.13800
N  46.78500 44.23500 42.66600
C  45.44600 44.39700 42.42000
C  44.80000 43.10000 41.79400
C  46.02400 42.07700 41.93900
C  47.19800 42.99300 42.25000
C  45.73200 40.86500 42.86600
C  44.37600 43.41400 40.33900
C  43.04800 42.82600 39.79800
H  43.24300 41.96600 38.58100
N  49.83900 44.49700 43.05500
C  49.71800 43.26500 42.53800
C  51.08500 42.72100 42.40300
C  52.02300 43.60500 42.80000
C  51.24600 44.79800 43.25100
C  51.20600 41.35700 41.73900
C  53.50800 43.31900 42.81200
O  53.99200 42.27000 42.40800
C  54.49300 44.21300 43.43900
N  49.64100 47.40800 43.72800
C  50.95500 47.28800 43.76700
C  51.64400 48.60000 44.07000
C  50.43700 49.54800 44.30700
C  49.24900 48.69300 44.01800
C  52.79200 48.63100 45.02200
C  50.40400 50.80300 43.45100
C  50.20500 52.15200 44.23300
N  46.80400 47.11000 43.30600
C  46.74300 48.39800 43.78500
C  45.41700 48.94400 43.88000
C  44.64800 47.92900 43.27800
C  45.52300 46.81500 43.05500
C  44.99600 50.33000 44.40700
C  43.40100 47.58900 42.70200
O  42.40700 48.29300 42.50400
C  43.50100 46.09700 42.28000
C  42.34700 45.31000 42.79800
O  41.68900 44.60500 42.08700
O  42.22900 45.46300 44.20900
C  41.11700 44.78800 44.80700
H  48.66600 41.56100 41.88500
H  52.78300 46.11100 43.70800
H  47.70500 50.02400 44.53000
H  43.96800 42.83300 42.44600
H  46.19500 41.67800 40.94000
H  44.66300 40.70700 42.72400
H  45.88800 41.01000 43.93500
H  46.28200 39.98800 42.52700
H  45.12700 43.02100 39.65400
H  44.26600 44.45800 40.04700
H  42.30500 43.60300 39.61500
H  42.61400 42.26400 40.62500
H  50.43900 41.14100 40.99600
H  51.31000 40.57300 42.48800
H  52.18700 41.43800 41.27100
H  54.88400 44.93600 42.72400
H  55.32900 43.56900 43.71300
H  54.11500 44.60600 44.38300
H  52.03500 48.84400 43.08300
H  50.38000 49.77400 45.37200
H  52.92400 47.66300 45.50600
H  52.80400 49.47800 45.70800
H  53.68300 48.65300 44.39400
H  49.81200 50.59300 42.56100
H  51.35500 50.95800 42.94200
H  51.21400 52.56100 44.29000
H  49.83500 51.98500 45.24500
H  49.51900 52.82400 43.71900
H  43.98300 50.30200 44.00500
H  45.55700 51.20200 44.07200
H  45.10200 50.36100 45.49200
H  43.23700 46.10300 41.22200
H  41.00500 44.70900 45.88800
H  41.05900 43.71400 44.63000
H  40.20200 45.27200 44.46400
Mg 16.76900 52.79300 26.66200
C  18.53800 51.41700 29.27800
C  14.31300 53.67000 28.81100
C  15.00700 53.92500 24.02300
C  19.11600 51.40100 24.42800
N  16.36800 52.36900 28.77900
C  17.29900 51.96600 29.71600
C  16.85200 52.26000 31.15600
C  15.29600 52.47900 30.94500
C  15.30400 52.81200 29.42300
C  14.37800 51.24200 31.28200
C  17.65500 53.47200 31.76700
C  17.66400 53.44300 33.27100
H  16.65000 52.52300 34.05100
N  14.93500 53.76200 26.44000
C  14.08300 54.08700 27.50800
C  12.97200 54.85300 26.95600
C  13.02100 54.74400 25.53600
C  14.34000 54.07000 25.26300
C  11.90300 55.33400 27.87100
C  11.99200 55.21600 24.58400
O  12.12600 54.97600 23.35300
C  10.77400 55.77400 25.13500
N  17.04300 52.67100 24.55000
C  16.23200 53.32200 23.68100
C  16.72500 53.06600 22.22400
C  18.15000 52.55000 22.39500
C  18.10700 52.13900 23.81800
C  15.70200 52.26700 21.38000
C  19.38200 53.50700 22.05900
C  20.48100 52.83000 21.18200
N  18.46500 51.63900 26.77900
C  19.32500 51.10900 25.80600
C  20.39000 50.47700 26.42200
C  20.16200 50.60900 27.78800
C  18.95600 51.25900 27.98200
C  21.53300 49.83600 25.70400
C  20.68600 50.23200 29.08100
O  21.73500 49.70400 29.43600
C  19.63300 50.78800 30.11900
C  19.17700 49.70200 31.07200
O  18.74700 48.59300 30.78400
O  19.38800 50.08600 32.39800
C  19.20700 49.00700 33.33800
H  13.41400 53.97900 29.34800
H  14.36800 54.36100 23.25200
H  19.95000 51.03500 23.82500
H  16.89500 51.34500 31.74600
H  15.06500 53.33100 31.58400
H  13.92500 50.99800 30.32100
H  13.68800 51.44100 32.10100
H  14.92900 50.32600 31.49400
H  17.24100 54.38600 31.34100
H  18.71100 53.46800 31.49600
H  17.43500 54.43600 33.65700
H  18.61400 53.21000 33.75300
H  12.41400 55.66500 28.77400
H  11.21800 54.55000 28.19400
H  11.30800 56.15400 27.46800
H  10.08300 55.90500 24.30300
H  10.97300 56.75400 25.56900
H  10.27900 55.15100 25.87900
H  16.80200 54.04400 21.74900
H  18.23900 51.68600 21.73600
H  16.20400 51.31900 21.18900
H  15.47400 52.77000 20.44000
H  14.78200 52.17700 21.95900
H  19.85300 53.92300 22.94900
H  19.01100 54.28800 21.39300
H  20.72300 53.42400 20.30100
H  20.15800 51.84600 20.84200
H  21.32900 52.76200 21.86400
H  21.07700 49.14800 24.99200
H  22.05500 49.26500 26.47200
H  22.05400 50.63100 25.17100
H  20.12900 51.53100 30.74300
H  18.22200 48.56300 33.19000
H  19.17200 49.35400 34.37100
H  20.04100 48.31000 33.26200

