158

Mg 24.64400 -4.89700 45.68500
C  26.70100 -2.34400 44.62600
C  22.05900 -3.70900 43.92100
C  23.10700 -7.95700 46.11500
C  27.46600 -6.24200 47.53300
N  24.44700 -3.29500 44.22000
C  25.38200 -2.28400 44.13700
C  24.89800 -1.36600 43.00300
C  23.32200 -1.58500 43.08000
C  23.25200 -2.94900 43.73700
C  22.51200 -0.59000 43.94100
C  25.66000 -1.79500 41.71400
C  26.25000 -0.75300 40.73900
H  25.95800 -0.80700 39.23000
N  22.76400 -5.64600 45.21600
C  21.86000 -4.99500 44.48600
C  20.67900 -5.81500 44.32800
C  20.99700 -7.06400 44.92800
C  22.35100 -6.94700 45.47900
C  19.42500 -5.46000 43.58100
C  20.07200 -8.27800 45.00600
O  18.86300 -8.22300 44.61800
C  20.51900 -9.67600 45.47600
N  25.32700 -6.92400 46.39300
C  24.37300 -7.91900 46.62200
C  25.01500 -9.07400 47.49400
C  26.29400 -8.43300 48.00900
C  26.43900 -7.15700 47.26100
C  23.94500 -9.55100 48.52300
C  27.59100 -9.27300 47.74600
C  28.63400 -9.29800 48.89100
N  26.77300 -4.47800 45.97700
C  27.73200 -5.05900 46.85000
C  28.90100 -4.18500 46.85600
C  28.56400 -3.10200 45.94000
C  27.25500 -3.35800 45.40900
C  30.14700 -4.32400 47.60200
C  29.04300 -1.98200 45.33000
O  30.09800 -1.40000 45.45500
C  27.83400 -1.40500 44.35800
C  27.56000 0.01900 44.59100
O  26.93000 0.47400 45.52300
O  28.19600 0.74100 43.64900
C  27.99800 2.18000 43.83000
H  21.19100 -3.34500 43.36700
H  22.67700 -8.92500 46.38000
H  28.30500 -6.57800 48.14600
H  25.16400 -0.32500 43.18400
H  22.80900 -1.62900 42.11900
H  21.82100 -0.02000 43.32100
H  23.16000 0.08400 44.50200
H  21.92000 -1.08100 44.71300
H  24.83900 -2.13300 41.08100
H  26.37300 -2.59000 41.93200
H  27.33600 -0.84700 40.72600
H  25.93700 0.25100 41.02600
H  19.05900 -6.15500 42.82500
H  19.59600 -4.50900 43.07700
H  18.51000 -5.25000 44.13500
H  20.76800 -9.72800 46.53600
H  21.43500 -10.00000 44.98300
H  19.71800 -10.40000 45.32400
H  25.19100 -9.97000 46.89900
H  26.17100 -8.10200 49.04100
H  24.36300 -9.58200 49.53000
H  23.47300 -10.51700 48.34800
H  23.17700 -8.78000 48.57400
H  28.07700 -8.88900 46.84900
H  27.13400 -10.25400 47.62000
H  28.47900 -10.26000 49.37900
H  28.38700 -8.56200 49.65800
H  29.64200 -9.13000 48.51400
H  30.27400 -3.51600 48.32200
H  31.01100 -4.36900 46.93900
H  30.15400 -5.23600 48.19800
H  28.11300 -1.50600 43.30900
H  28.68500 2.93500 43.44600
H  28.04700 2.38800 44.89900
H  26.99600 2.47900 43.52500
Mg 25.31600 1.78000 30.04100
C  27.59200 1.63700 32.94400
C  22.71200 2.18700 32.36500
C  23.33200 1.36300 27.60300
C  28.13600 1.18000 28.07400
N  25.26100 2.00300 32.31900
C  26.25500 1.91900 33.20300
C  25.73800 2.35900 34.65700
C  24.16000 2.39800 34.57600
C  24.02000 2.22000 32.98600
C  23.41400 1.27100 35.40800
C  26.48400 3.71000 35.06000
C  27.02000 3.71300 36.50500
H  26.40700 4.65400 37.55500
N  23.26200 1.94300 29.98000
C  22.33500 2.10500 31.02800
C  21.05700 2.10100 30.54200
C  21.15400 1.80500 29.11900
C  22.59100 1.66200 28.80400
C  19.85900 2.37000 31.38700
C  20.07700 1.58500 28.09800
O  20.24500 1.28300 26.96500
C  18.69300 1.72100 28.46100
N  25.71600 1.50600 28.11800
C  24.66800 1.35800 27.26300
C  25.12400 1.41500 25.67900
C  26.70000 1.59700 25.90500
C  26.89000 1.49600 27.44500
C  24.71400 0.14100 24.90700
C  27.22500 2.98000 25.43700
C  26.66800 3.51800 24.12800
N  27.40600 1.41800 30.37800
C  28.41300 1.14400 29.47600
C  29.63000 0.87600 30.15500
C  29.38000 1.09100 31.50400
C  28.02000 1.41600 31.60000
C  30.92900 0.64500 29.43000
C  29.96600 1.18500 32.82700
O  31.12300 0.99800 33.21800
C  28.82600 1.64200 33.80400
C  28.73200 0.63900 34.88000
O  28.20200 -0.48000 34.92700
O  29.30500 1.18500 36.03700
C  29.15300 0.35700 37.18000
H  22.03300 2.39900 33.19400
H  22.64100 1.33800 26.75800
H  28.93600 1.08700 27.33700
H  25.99000 1.60100 35.39800
H  23.62200 3.30800 34.83800
H  24.14100 0.90100 36.13200
H  23.15700 0.46700 34.71800
H  22.49800 1.60000 35.89800
H  25.74800 4.51100 34.98100
H  27.25400 3.95200 34.32800
H  28.09500 3.88200 36.56500
H  26.81300 2.76600 37.00400
H  19.90600 2.47700 32.47100
H  19.18100 1.52100 31.30100
H  19.30200 3.24800 31.06100
H  18.54700 2.71400 28.88800
H  18.51800 0.92100 29.18000
H  18.11600 1.65100 27.53900
H  24.61500 2.22300 25.15400
H  27.28700 0.83200 25.39700
H  24.13600 0.28900 23.99500
H  23.97200 -0.32500 25.55500
H  25.50200 -0.60200 24.78300
H  28.29400 2.94300 25.23000
H  26.91800 3.63600 26.25100
H  27.36800 4.21900 23.67300
H  25.82500 4.14900 24.40800
H  26.42000 2.75300 23.39200
H  31.52900 0.00600 30.07800
H  31.47100 1.54200 29.13100
H  30.66100 0.04300 28.56200
H  28.90200 2.64300 34.22900
H  30.06800 0.60000 37.72000
H  29.18900 -0.69500 36.89500
H  28.25800 0.61100 37.74800

