158

Mg -2.54700 16.79300 27.36200
C  -3.37700 14.56900 29.83100
C  -3.01300 19.36700 29.63700
C  -2.04600 19.13000 24.91000
C  -2.76000 14.32100 24.96000
N  -3.26100 16.93000 29.38400
C  -3.43300 15.90100 30.20700
C  -3.74900 16.35800 31.66200
C  -3.63000 17.89600 31.56600
C  -3.27900 18.07600 30.09700
C  -4.84400 18.84800 32.02900
C  -2.83100 15.83300 32.85600
C  -2.74300 16.70200 34.18000
H  -2.79000 15.97400 35.46800
N  -2.55200 18.96900 27.28200
C  -2.69000 19.78300 28.37000
C  -2.44600 21.15200 27.94000
C  -2.22600 21.12500 26.48300
C  -2.25500 19.75400 26.16200
C  -2.42600 22.33700 28.84200
C  -1.91200 22.31100 25.57800
O  -1.70600 22.16100 24.37700
C  -1.80100 23.64800 26.15700
N  -2.49800 16.72300 25.29500
C  -2.19500 17.84100 24.56300
C  -2.34500 17.45700 23.11800
C  -2.31400 15.89800 23.07200
C  -2.56800 15.63300 24.50900
C  -3.67700 17.93800 22.46300
C  -0.99900 15.25000 22.57400
C  0.22300 15.64000 23.40200
N  -2.81600 14.78200 27.38000
C  -2.85200 13.88300 26.33800
C  -3.06900 12.59400 26.85400
C  -3.17100 12.72800 28.21100
C  -3.13300 14.09600 28.47500
C  -2.96700 11.37300 26.08000
C  -3.31400 12.09800 29.50000
O  -3.50700 10.92000 29.81200
C  -3.33800 13.25700 30.57100
C  -2.09800 13.26000 31.34600
O  -1.13500 13.95500 31.13500
O  -2.22500 12.26400 32.30600
C  -1.09400 12.18900 33.27600
H  -3.16000 20.19700 30.33200
H  -1.79800 19.86300 24.13900
H  -2.75000 13.54800 24.18800
H  -4.78400 16.08300 31.86700
H  -2.76500 18.31100 32.08400
H  -4.53200 19.75900 32.54200
H  -5.52100 18.31300 32.69500
H  -5.51900 19.10700 31.21400
H  -1.80800 15.87300 32.48300
H  -3.15600 14.83100 33.13500
H  -3.50400 17.47900 34.25500
H  -1.79300 17.23500 34.22300
H  -3.18100 23.06400 28.54100
H  -1.50400 22.91800 28.85600
H  -2.52400 22.18200 29.91700
H  -1.53300 24.36900 25.38500
H  -0.98400 23.65400 26.87800
H  -2.77000 23.93600 26.56400
H  -1.44400 17.83000 22.63100
H  -3.09000 15.42100 22.47100
H  -4.33500 18.59100 23.03500
H  -4.27900 17.13400 22.03800
H  -3.33100 18.45300 21.56700
H  -0.71000 15.59800 21.58300
H  -1.14800 14.18500 22.39800
H  0.01200 16.27700 24.26100
H  0.77900 16.25400 22.69400
H  0.85600 14.80600 23.70400
H  -2.36600 11.63500 25.20900
H  -3.96000 11.10100 25.72300
H  -2.53500 10.47600 26.52500
H  -4.13000 12.95800 31.25700
H  -0.76700 11.16800 33.47400
H  -1.50100 12.72200 34.13500
H  -0.12300 12.59800 33.00000
Mg 42.87000 41.93800 26.36800
C  42.04800 44.28500 28.82100
C  44.15500 39.93900 28.75400
C  44.09700 39.84400 23.98600
C  42.47900 44.39800 23.96600
N  43.13300 42.21900 28.61900
C  42.60600 43.15000 29.43400
C  42.61500 42.68600 30.87900
C  43.45200 41.35600 30.81200
C  43.64100 41.20900 29.28900
C  44.84000 41.42400 31.49600
C  41.24200 42.61700 31.65200
C  41.42900 41.81000 32.97200
H  40.59700 42.12800 34.15100
N  43.92500 40.16500 26.41400
C  44.36000 39.53500 27.47800
C  44.99600 38.31000 27.07900
C  44.80500 38.14200 25.67600
C  44.23100 39.41400 25.26800
C  45.58700 37.32200 28.09100
C  45.11200 36.97300 24.77400
O  45.01400 37.07900 23.54600
C  45.62500 35.68100 25.30800
N  43.12900 42.05700 24.31400
C  43.62900 41.07600 23.52400
C  43.62700 41.48900 22.05400
C  42.96700 42.82600 22.11100
C  42.79800 43.11300 23.52000
C  45.00400 41.35700 21.34300
C  41.66200 42.89300 21.31800
C  40.37600 42.32700 22.04100
N  42.21200 43.85500 26.32200
C  42.11700 44.73500 25.24900
C  41.55000 45.98200 25.75900
C  41.45500 45.78700 27.16200
C  41.93600 44.55800 27.43800
C  41.28500 47.20400 24.84600
C  41.02000 46.35200 28.44800
O  40.51100 47.41700 28.67300
C  41.40600 45.47400 29.55700
C  42.32400 46.21900 30.34800
O  43.50000 46.54600 30.05400
O  41.82400 46.18700 31.63800
C  42.77800 46.16900 32.77600
H  44.36300 39.14500 29.47300
H  44.39100 39.20900 23.14800
H  42.13800 45.09400 23.19600
H  43.12600 43.49800 31.39500
H  43.02600 40.41900 31.17000
H  45.58800 41.10800 30.76900
H  44.85100 40.79800 32.38900
H  45.05200 42.38600 31.96200
H  40.52600 42.11000 31.00400
H  40.96600 43.62400 31.96200
H  42.40800 41.90900 33.44200
H  41.27200 40.74700 32.79000
H  45.02900 36.39300 28.21100
H  45.79700 37.73600 29.07800
H  46.50900 36.95300 27.64300
H  45.77700 35.02400 24.45100
H  44.95700 35.41900 26.12800
H  46.62900 35.97700 25.61200
H  42.96700 40.79400 21.53500
H  43.60500 43.57100 21.63600
H  45.08900 40.60000 20.56300
H  45.80900 41.26400 22.07200
H  45.21500 42.27900 20.80100
H  41.79600 42.37800 20.36700
H  41.50300 43.93600 21.04500
H  40.49700 41.70100 22.92500
H  39.88600 41.56100 21.43900
H  39.67000 43.11500 22.30500
H  41.32200 48.10500 25.45900
H  40.37100 47.02100 24.28100
H  42.08300 47.08100 24.11400
H  40.50500 45.24000 30.12600
H  43.75000 45.79300 32.45800
H  42.51600 45.45000 33.55200
H  42.80600 47.11500 33.31800

