158

Mg 24.45200 2.95100 29.38500
C  26.90000 2.74900 32.02900
C  22.01900 3.18100 31.62300
C  22.40500 2.82000 26.78000
C  27.19300 2.36800 27.05700
N  24.50500 2.93200 31.59300
C  25.55300 2.97700 32.41900
C  25.09500 3.06600 33.92000
C  23.52300 3.25200 33.77700
C  23.29700 3.12300 32.20400
C  22.72600 2.30600 34.61500
C  25.78500 4.25200 34.67800
C  26.19400 3.92500 36.12000
H  25.26500 4.71000 37.08700
N  22.52300 2.85800 29.21100
C  21.65300 3.00600 30.26500
C  20.26400 3.02700 29.82400
C  20.38500 2.83400 28.41600
C  21.82700 2.81300 28.08800
C  18.97300 3.22700 30.67700
C  19.27800 2.82800 27.43400
O  19.39700 2.82700 26.21200
C  17.94900 2.53700 28.02500
N  24.75500 2.67400 27.07800
C  23.72600 2.87900 26.25000
C  24.25300 3.15900 24.83400
C  25.82500 3.05200 25.02800
C  25.94800 2.72900 26.46700
C  23.72800 2.25800 23.64900
C  26.67700 4.23800 24.67400
C  26.60000 5.52200 25.68400
N  26.55500 2.63500 29.48500
C  27.47700 2.23500 28.46700
C  28.78600 2.03700 29.07800
C  28.58300 2.20500 30.47000
C  27.29500 2.60100 30.69800
C  30.06900 1.55400 28.45600
C  29.24500 2.19900 31.72400
O  30.39900 1.99900 32.08400
C  28.10800 2.52700 32.80600
C  28.02500 1.36300 33.83000
O  27.39100 0.30500 33.83100
O  28.72800 1.80300 34.99600
C  28.89600 0.79200 36.10100
H  21.19200 3.49700 32.26300
H  21.59300 2.97400 26.06600
H  28.11800 2.44500 26.48100
H  25.29300 2.06500 34.30400
H  23.21300 4.25800 34.05700
H  22.61500 1.37900 34.05100
H  21.81400 2.78200 34.97600
H  23.16700 1.97600 35.55600
H  25.14200 5.13100 34.63500
H  26.67400 4.53800 34.11500
H  27.19900 4.26500 36.37200
H  26.01200 2.86800 36.31000
H  18.32500 4.02800 30.32100
H  19.19200 3.53900 31.69800
H  18.41200 2.29200 30.65800
H  17.93400 1.63000 28.63000
H  17.31200 2.32500 27.16600
H  17.38300 3.39200 28.39500
H  24.12100 4.17400 24.45900
H  26.18700 2.18700 24.47200
H  24.33300 1.35300 23.58900
H  23.73900 2.87400 22.75000
H  22.71300 1.92200 23.86400
H  26.47400 4.48900 23.63200
H  27.71300 3.90100 24.69000
H  26.33900 5.19700 26.69100
H  25.88000 6.15400 25.16300
H  27.56300 6.01800 25.80800
H  30.81600 1.74300 29.22700
H  30.36800 2.19200 27.62400
H  30.11500 0.49900 28.18600
H  28.39900 3.47100 33.26600
H  29.25800 -0.16400 35.72200
H  28.04400 0.47600 36.70300
H  29.53800 1.23500 36.86200
Mg 47.39200 16.76500 29.56900
C  45.33200 15.94200 32.36800
C  49.57700 18.23800 31.87300
C  49.12300 17.72500 26.99400
C  44.75100 15.69400 27.46900
N  47.40500 16.98000 31.87300
C  46.53200 16.55200 32.79300
C  46.90800 16.94000 34.20600
C  48.13900 17.86700 33.97000
C  48.42900 17.71500 32.44600
C  47.93300 19.31400 34.26400
C  47.25400 15.71000 35.05600
C  47.20300 15.80900 36.50300
H  47.14700 17.20900 37.18400
N  49.11900 17.82000 29.49600
C  49.93700 18.29500 30.52200
C  51.16000 18.83100 29.93400
C  51.03800 18.75400 28.50100
C  49.68000 18.14600 28.25100
C  52.31400 19.34600 30.83400
C  51.96600 19.17100 27.38200
O  51.60000 19.17400 26.22400
C  53.34700 19.90100 27.76700
N  46.91100 16.84300 27.49000
C  47.92400 17.14300 26.66000
C  47.48800 16.93700 25.17700
C  46.23800 16.02700 25.35400
C  45.89300 16.21900 26.83200
C  47.28500 18.25600 24.32700
C  46.41200 14.59900 24.84300
C  46.73300 13.50200 25.89800
N  45.49800 15.94200 29.80200
C  44.58400 15.53400 28.87600
C  43.33600 15.05700 29.53900
C  43.58700 15.24000 30.88900
C  44.94800 15.74300 31.03900
C  42.13000 14.47500 28.90600
C  42.97000 15.07700 32.23500
O  41.89400 14.69000 32.54500
C  44.12200 15.52600 33.27800
C  43.48200 16.69900 34.01700
O  43.05100 17.73700 33.45700
O  43.53000 16.39500 35.37900
C  43.05500 17.45800 36.26200
H  50.20400 18.59300 32.69400
H  49.78900 17.80600 26.13300
H  43.94500 15.33800 26.82400
H  46.14600 17.55200 34.68800
H  48.99100 17.48600 34.53300
H  46.99300 19.57000 34.75300
H  47.87200 19.82600 33.30300
H  48.79000 19.77000 34.76000
H  48.22400 15.34200 34.72200
H  46.50400 14.92900 34.92900
H  48.07800 15.35000 36.96300
H  46.38600 15.20700 36.90100
H  51.85500 19.50900 31.80900
H  52.72000 20.32000 30.55900
H  53.11000 18.60200 30.85300
H  53.92100 20.09400 26.86100
H  53.89000 19.36500 28.54500
H  52.92800 20.81600 28.18600
H  48.35100 16.38100 24.81100
H  45.37700 16.47300 24.85700
H  46.42400 17.97600 23.72000
H  48.11700 18.41400 23.64100
H  47.04700 19.16800 24.87400
H  47.29900 14.70400 24.21700
H  45.63900 14.19300 24.19000
H  46.63300 13.91200 26.90300
H  47.74300 13.16300 25.66800
H  46.13200 12.59500 25.95500
H  42.44400 13.88600 28.04400
H  41.40100 15.19900 28.54300
H  41.63700 13.94500 29.72100
H  44.25300 14.74200 34.02400
H  43.08400 17.06400 37.27800
H  42.01300 17.68100 36.03100
H  43.70100 18.32400 36.12000

