158

Mg 35.48600 47.99500 25.99500
C  35.86200 46.05200 28.84600
C  34.26300 50.46200 27.83700
C  34.91600 49.73400 23.10500
C  36.59700 45.35000 24.07300
N  35.01200 48.15000 28.14300
C  35.24300 47.30300 29.10100
C  34.93800 47.91200 30.48800
C  34.18600 49.21600 30.07900
C  34.39500 49.29200 28.60000
C  32.67600 49.24400 30.46900
C  36.18500 48.09600 31.45400
C  36.02500 47.81400 32.89600
H  35.94800 49.03700 33.90000
N  34.70200 49.83600 25.53400
C  34.34400 50.76800 26.44400
C  33.84000 51.99500 25.73300
C  34.10000 51.81300 24.35300
C  34.60600 50.39900 24.28500
C  33.24700 53.17000 26.49600
C  33.83200 52.71400 23.16700
O  34.02900 52.38400 21.96800
C  33.31400 54.08100 23.58700
N  35.35600 47.47400 23.84700
C  35.12500 48.37600 22.86300
C  35.38100 47.78300 21.48000
C  36.09000 46.35500 21.76300
C  36.01600 46.41600 23.30500
C  34.05900 47.60400 20.74100
C  37.56800 46.24000 21.22400
C  37.95700 44.99900 20.47700
N  36.11200 46.06200 26.33300
C  36.56300 45.12100 25.43700
C  37.01100 43.90100 26.24300
C  36.79700 44.30100 27.57400
C  36.20500 45.53600 27.54700
C  37.60500 42.53100 25.78400
C  36.87700 43.86100 28.98200
O  37.26200 42.77400 29.43200
C  36.41800 44.99400 29.77900
C  35.36100 44.60800 30.68800
O  34.36000 44.04000 30.38300
O  35.73300 44.76800 32.00200
C  34.86800 44.31800 33.09500
H  33.85700 51.23800 28.48900
H  34.97300 50.30500 22.17600
H  37.13800 44.59200 23.50300
H  34.27200 47.23400 31.02100
H  34.64100 50.11300 30.49900
H  32.60200 49.34500 31.55200
H  32.15300 48.37000 30.08200
H  32.25400 50.09500 29.93500
H  36.36900 49.17000 31.46500
H  36.95800 47.49800 30.97100
H  36.73100 47.09200 33.30600
H  35.02000 47.39000 32.89100
H  33.80000 54.10400 26.59600
H  33.07500 52.93000 27.54500
H  32.22600 53.37700 26.17400
H  32.39100 54.05000 24.16600
H  33.16400 54.52200 22.60200
H  34.06800 54.59900 24.18000
H  35.97100 48.43700 20.83900
H  35.50200 45.49100 21.45500
H  33.84900 48.38900 20.01500
H  33.13400 47.43800 21.29300
H  34.16400 46.75200 20.07000
H  38.17900 46.44800 22.10200
H  37.78400 47.16800 20.69400
H  37.13100 44.29100 20.53500
H  38.82000 44.53100 20.95100
H  38.21900 45.21400 19.44100
H  38.13500 42.82100 24.87700
H  36.78800 41.84500 25.55600
H  38.29600 42.09900 26.50800
H  37.23700 45.37800 30.38800
H  33.82900 44.50300 32.82100
H  35.05000 44.78200 34.06500
H  35.17700 43.29300 33.30200
Mg 16.55500 51.21500 25.16700
C  18.45200 50.17300 27.87300
C  14.26100 52.37200 27.39200
C  15.09400 52.71700 22.61700
C  19.07900 49.96800 23.01400
N  16.30000 51.13600 27.35600
C  17.23200 50.74500 28.28800
C  16.85300 51.16800 29.68200
C  15.37400 51.50200 29.54900
C  15.21100 51.60100 28.03000
C  14.36800 50.54600 30.25100
C  17.76000 52.14900 30.41800
C  17.90800 51.88400 31.86400
H  17.01500 52.64300 32.83500
N  14.86300 52.29400 25.02000
C  14.11600 52.73600 26.03700
C  13.23000 53.77900 25.54800
C  13.33700 53.81600 24.12400
C  14.50800 52.97500 23.84300
C  12.17100 54.42900 26.41100
C  12.51600 54.55300 23.16000
O  12.71700 54.40500 21.96700
C  11.26500 55.36800 23.50600
N  16.94600 51.24600 23.09800
C  16.19500 51.98800 22.24400
C  16.80000 51.97400 20.76100
C  18.17800 51.19400 21.02000
C  18.04800 50.73500 22.48200
C  15.92000 51.06700 19.77600
C  19.31800 52.15600 20.62700
C  20.49800 51.52000 19.82400
N  18.36100 50.10200 25.31000
C  19.23800 49.68100 24.35900
C  20.45600 49.10900 25.05400
C  20.16700 49.32700 26.41800
C  18.88200 49.93200 26.54000
C  21.50300 48.52300 24.35000
C  20.65500 49.02300 27.77500
O  21.65900 48.47400 28.21600
C  19.63400 49.70500 28.70400
C  19.23900 48.78200 29.89000
O  18.84700 47.63000 29.81300
O  19.52600 49.37100 31.03600
C  19.58400 48.49000 32.19700
H  13.53600 52.71100 28.13600
H  14.66200 53.20700 21.74200
H  19.95000 49.71600 22.40600
H  16.99200 50.16900 30.09500
H  15.18500 52.51400 29.90700
H  14.77300 50.11500 31.16600
H  14.05900 49.78400 29.53600
H  13.47800 51.14000 30.45900
H  17.26200 53.11200 30.29900
H  18.75500 52.16200 29.97400
H  18.95600 51.83800 32.16300
H  17.60800 50.84200 31.97700
H  12.05600 55.49500 26.20900
H  12.36200 54.29600 27.47500
H  11.22300 53.94600 26.17300
H  10.54500 54.75000 24.04200
H  11.09200 55.72000 22.48900
H  11.39900 56.21800 24.17400
H  16.81700 53.01200 20.43100
H  18.21800 50.21600 20.54000
H  16.52400 50.76700 18.92000
H  15.11500 51.73700 19.47500
H  15.48100 50.15100 20.17100
H  19.75300 52.51800 21.55900
H  19.02300 53.08400 20.13800
H  21.42100 51.79500 20.33400
H  20.45100 52.02400 18.85900
H  20.49100 50.46100 19.56600
H  22.28300 49.28300 24.31700
H  21.11700 48.22900 23.37500
H  21.84400 47.59800 24.81500
H  20.06500 50.58900 29.17400
H  19.97500 48.89200 33.13200
H  20.23200 47.62800 32.04100
H  18.56800 48.13400 32.37000

