158

Mg 25.38000 1.91800 29.45400
C  27.16800 1.38500 32.42900
C  22.48400 1.93700 31.36300
C  23.58400 1.97900 26.60400
C  28.24000 1.07300 27.64200
N  24.91300 1.64600 31.69600
C  25.78600 1.68600 32.75000
C  25.11100 1.98500 34.11300
C  23.62900 2.10900 33.68500
C  23.67200 1.96700 32.13000
C  22.64300 1.08100 34.32700
C  25.73900 3.21200 34.85600
C  25.99400 3.03400 36.44900
H  25.48700 4.00000 37.48300
N  23.38300 1.85700 29.08300
C  22.27600 1.85700 30.01000
C  21.06300 1.82300 29.25000
C  21.39300 1.68400 27.84700
C  22.85100 1.79800 27.79500
C  19.75600 1.70100 30.04000
C  20.42200 1.46800 26.69100
O  20.84100 1.39800 25.54000
C  18.92800 1.37000 26.85700
N  25.89300 1.58100 27.39600
C  24.96400 1.82400 26.45100
C  25.67200 1.82100 25.05800
C  27.18100 1.56100 25.43400
C  27.11900 1.48100 26.93300
C  25.11400 0.87500 24.00300
C  28.20200 2.78700 25.06000
C  29.64700 2.39000 24.44700
N  27.34500 1.42900 29.88400
C  28.38200 1.12100 29.06600
C  29.57800 0.81400 29.83200
C  29.17000 0.93600 31.16300
C  27.79600 1.30200 31.18000
C  30.85300 0.42600 29.20200
C  29.57100 0.69900 32.59900
O  30.60200 0.19500 33.04900
C  28.32000 1.16200 33.46900
C  27.96900 0.12500 34.46900
O  27.15200 -0.76400 34.35200
O  28.77400 0.30100 35.57400
C  28.38900 -0.60900 36.69500
H  21.59100 2.19100 31.93800
H  23.08500 2.13700 25.64500
H  29.12100 0.74800 27.08500
H  25.26000 1.17900 34.83100
H  23.14300 3.06000 33.90400
H  23.02300 0.44700 35.12900
H  22.38300 0.39200 33.52400
H  21.66900 1.50400 34.57300
H  25.04500 4.01900 34.61800
H  26.70600 3.42500 34.40100
H  27.07500 2.89500 36.43100
H  25.59700 2.04800 36.69000
H  18.92200 2.25900 29.61300
H  19.88300 2.05700 31.06200
H  19.38300 0.67900 30.10700
H  18.42700 1.04300 25.94600
H  18.52700 2.34200 27.14300
H  18.85100 0.59700 27.62100
H  25.50000 2.84900 24.73900
H  27.50800 0.61100 25.01200
H  24.24400 0.32700 24.36600
H  25.87500 0.12200 23.79900
H  24.80300 1.48800 23.15800
H  28.21800 3.41000 25.95400
H  27.80000 3.40900 24.26100
H  29.76900 1.31400 24.57300
H  30.45500 2.83100 25.03000
H  29.73500 2.68500 23.40100
H  31.21400 -0.48500 29.68100
H  31.49000 1.25600 29.50900
H  30.76200 0.25100 28.13000
H  28.48300 2.09000 34.01600
H  28.85000 -1.59100 36.59000
H  27.33300 -0.81100 36.87800
H  28.71500 -0.19200 37.64800
Mg -12.66400 17.00000 40.84200
C  -9.59600 15.20700 40.72400
C  -11.19400 19.73600 39.31600
C  -15.72900 18.57900 40.94400
C  -14.07700 14.05000 41.85500
N  -10.66900 17.40900 40.14200
C  -9.56000 16.55700 40.14300
C  -8.35900 17.32000 39.53500
C  -8.84800 18.73800 39.19100
C  -10.33800 18.68700 39.58400
C  -8.03700 19.86200 39.95800
C  -7.74500 16.64700 38.37800
C  -6.34600 17.07600 38.05300
H  -6.09700 17.73500 36.70600
N  -13.35800 18.86600 40.28600
C  -12.55700 19.89100 39.71100
C  -13.34900 21.06800 39.54700
C  -14.64900 20.82100 40.00000
C  -14.64000 19.35900 40.42500
C  -12.78800 22.35600 39.00600
C  -15.78800 21.85200 40.09300
O  -15.75200 22.99900 39.62100
C  -17.06600 21.36200 40.80700
N  -14.61200 16.42300 41.24100
C  -15.65200 17.27600 41.33500
C  -16.93700 16.51800 41.74400
C  -16.44600 15.12400 42.08700
C  -14.94500 15.16400 41.68800
C  -17.68600 17.35600 42.88300
C  -17.27500 14.01800 41.41100
C  -17.66500 12.94100 42.42800
N  -12.07600 14.98100 41.14800
C  -12.69000 13.92700 41.70300
C  -11.86200 12.76300 41.90900
C  -10.58600 13.17700 41.50100
C  -10.77300 14.54500 41.10800
C  -12.34600 11.42900 42.28400
C  -9.19800 12.79100 41.27100
O  -8.64600 11.68000 41.34900
C  -8.50500 14.08900 40.70500
C  -7.32600 14.37400 41.53500
O  -7.28700 14.64200 42.77000
O  -6.19300 14.36500 40.68900
C  -4.85800 14.69200 41.29000
H  -10.78900 20.55600 38.72000
H  -16.74800 18.96100 41.03300
H  -14.70000 13.20500 42.15400
H  -7.64000 17.30800 40.35400
H  -8.80300 18.93800 38.12000
H  -7.66700 20.57600 39.22100
H  -7.14800 19.41800 40.40500
H  -8.78000 20.25100 40.65400
H  -8.47700 16.89200 37.60900
H  -7.83800 15.56300 38.44700
H  -5.82700 16.12500 38.16900
H  -5.77100 17.67600 38.75800
H  -13.32100 23.20200 39.44100
H  -12.80500 22.37400 37.91600
H  -11.74900 22.49200 39.30500
H  -17.59300 20.72600 40.09500
H  -17.66500 22.23500 41.06600
H  -16.78400 20.85400 41.72900
H  -17.51600 16.43300 40.82500
H  -16.71200 14.97300 43.13300
H  -18.64800 17.80300 42.63100
H  -17.03300 18.20300 43.09100
H  -17.89100 16.78800 43.79100
H  -16.60500 13.52400 40.70800
H  -18.14900 14.40700 40.88900
H  -18.73100 13.01200 42.64300
H  -17.17900 12.99500 43.40200
H  -17.56100 11.95200 41.98200
H  -11.62700 10.64300 42.05300
H  -13.33200 11.19600 41.88100
H  -12.47800 11.31300 43.36000
H  -8.11400 13.88800 39.70700
H  -4.50300 15.70600 41.10600
H  -4.12400 14.04000 40.81700
H  -4.75300 14.57600 42.36800

