158

Mg 40.30800 9.78700 29.98300
C  42.18400 10.61600 32.90300
C  37.96200 8.34400 32.02000
C  38.55100 8.89100 27.25200
C  42.84200 11.00200 28.02500
N  40.19000 9.36500 32.20100
C  40.92100 9.93100 33.22900
C  40.35100 9.72800 34.59700
C  39.19200 8.73100 34.28200
C  39.05600 8.81300 32.75100
C  39.21000 7.27200 34.83300
C  39.85500 10.99100 35.49500
C  39.84500 10.87200 36.97200
H  40.74700 11.78900 37.81400
N  38.54700 8.63000 29.66500
C  37.64300 8.19400 30.59600
C  36.49800 7.61200 29.98900
C  36.64300 7.86100 28.58100
C  37.96600 8.49300 28.44400
C  35.34000 6.93800 30.71600
C  35.73000 7.43500 27.39300
O  36.00100 7.69700 26.22700
C  34.54500 6.53900 27.67400
N  40.64000 9.90700 27.97700
C  39.79700 9.45300 26.99900
C  40.25000 9.97700 25.64800
C  41.53100 10.74900 25.87500
C  41.76600 10.54000 27.34300
C  40.25900 9.00400 24.45400
C  41.52200 12.24100 25.41400
C  40.42400 13.09700 25.99200
N  42.17100 10.61000 30.35000
C  43.08600 11.12600 29.41900
C  44.24400 11.74300 30.15700
C  43.94600 11.51900 31.57400
C  42.69600 10.85100 31.57300
C  45.53400 12.27200 29.58200
C  44.43800 11.61100 32.93900
O  45.36300 12.15400 33.46400
C  43.23100 11.17000 33.84300
C  43.81500 10.24500 34.78700
O  43.92800 9.04800 34.63300
O  44.05400 10.88000 36.00200
C  44.18800 10.16700 37.26600
H  37.16700 8.02000 32.69500
H  38.04600 8.58100 26.33500
H  43.62200 11.40600 27.37600
H  41.09400 9.17200 35.16900
H  38.29400 9.17900 34.70700
H  38.32700 6.97500 35.39800
H  40.06500 7.22200 35.50800
H  39.33900 6.49600 34.07900
H  38.83600 11.22400 35.18600
H  40.57900 11.71400 35.11700
H  40.09300 9.85500 37.27500
H  38.81300 10.92300 37.31900
H  34.39600 7.48000 30.77900
H  35.61400 6.67900 31.73900
H  35.09600 5.95800 30.30300
H  33.85700 6.46200 26.83300
H  34.00600 7.07500 28.45600
H  34.85100 5.55100 28.02000
H  39.54100 10.79400 25.51800
H  42.42700 10.44200 25.33600
H  39.67900 8.11700 24.70800
H  41.29400 8.76300 24.21400
H  39.74900 9.54200 23.65400
H  41.49000 12.33000 24.32800
H  42.45000 12.65800 25.80400
H  39.88700 13.52700 25.14700
H  40.92500 13.94700 26.45400
H  39.84400 12.52800 26.71900
H  45.76400 11.76100 28.64700
H  46.27600 12.04200 30.34600
H  45.49300 13.34700 29.40500
H  42.76100 12.01100 34.35200
H  44.39300 10.83900 38.09900
H  44.98500 9.43600 37.13600
H  43.23100 9.66300 37.40200
Mg 30.31600 57.41900 39.52000
C  27.81500 55.36000 38.40800
C  32.70100 55.08200 38.78800
C  32.67300 59.84700 39.89700
C  27.80700 60.11200 39.84400
N  30.23700 55.58000 38.47800
C  29.09400 54.78700 38.31500
C  29.42900 53.29500 38.09800
C  30.86900 53.24400 38.59000
C  31.32100 54.72000 38.62400
C  31.15600 52.38000 39.85800
C  29.04100 52.74500 36.73100
C  29.40300 53.59500 35.51600
H  28.17800 54.01300 34.52800
N  32.44400 57.43700 39.38700
C  33.22000 56.37100 39.05400
C  34.58300 56.85900 39.05900
C  34.64400 58.21900 39.32400
C  33.16900 58.52500 39.56800
C  35.73500 56.07700 38.57700
C  35.90900 59.06000 39.29900
O  36.97600 58.59600 38.98000
C  35.89600 60.46100 39.59700
N  30.23800 59.64500 39.77900
C  31.37400 60.33100 40.02100
C  31.06300 61.80800 40.35400
C  29.47800 61.93500 40.15000
C  29.13700 60.45600 39.93500
C  31.41700 62.22500 41.77900
C  28.92700 62.71100 38.93700
C  27.93800 63.85500 39.16600
N  28.19100 57.72700 39.30200
C  27.34900 58.81100 39.44900
C  25.99000 58.37300 39.02900
C  26.12800 57.00800 38.74200
C  27.48300 56.74800 38.86100
C  24.77800 59.23600 38.78900
C  25.40300 55.82500 38.38700
O  24.20800 55.69500 38.10500
C  26.49700 54.66000 38.30200
C  26.22500 53.70800 39.45300
O  26.82300 53.54900 40.53400
O  25.16500 52.94900 39.00500
C  24.68800 51.97600 39.97500
H  33.39300 54.24900 38.92900
H  33.35000 60.67200 40.12800
H  27.06400 60.90700 39.93500
H  28.76600 52.72500 38.74700
H  31.50100 52.87300 37.78300
H  30.61500 51.44700 39.69800
H  30.73800 52.93600 40.69800
H  32.21800 52.14100 39.90000
H  27.95200 52.72000 36.75700
H  29.52900 51.77400 36.64600
H  30.17700 53.05700 34.96900
H  29.85200 54.53200 35.84300
H  36.49800 56.60500 38.00600
H  35.31600 55.27700 37.96700
H  36.16700 55.55100 39.42900
H  35.26600 61.01600 38.90200
H  36.91700 60.83800 39.53100
H  35.58700 60.61100 40.63100
H  31.63700 62.43200 39.66800
H  29.07400 62.24800 41.11200
H  32.41300 61.86400 42.03600
H  30.70800 61.91000 42.54500
H  31.53800 63.30500 41.86900
H  28.54100 62.03500 38.17400
H  29.81300 63.13800 38.46900
H  27.06200 63.61600 38.56400
H  28.30100 64.87900 39.07200
H  27.54500 63.76200 40.17900
H  24.58800 59.68600 39.76400
H  23.85400 58.67000 38.66700
H  24.81200 60.00800 38.02100
H  26.30100 54.13700 37.36700
H  25.53400 51.44500 40.41100
H  24.17500 51.15100 39.48000
H  24.04000 52.41500 40.73300

