158

Mg 48.47600 34.95200 27.22800
C  46.78500 33.47400 29.91500
C  49.36700 37.61100 29.24100
C  49.72900 36.46400 24.46700
C  47.34200 32.28700 25.20500
N  48.11800 35.44300 29.33800
C  47.60600 34.57300 30.28300
C  47.79800 35.13200 31.67900
C  48.19800 36.60600 31.37700
C  48.63900 36.56700 29.90100
C  47.18300 37.71600 31.67800
C  48.95800 34.37500 32.44600
C  48.85000 34.25400 33.93600
H  47.90800 35.16000 34.78400
N  49.53300 36.76400 26.93800
C  49.79900 37.69900 27.88400
C  50.54900 38.68700 27.28400
C  50.81800 38.33100 25.98700
C  49.92900 37.23900 25.70700
C  51.12900 39.76200 28.06200
C  51.77700 38.96600 24.90100
O  51.93800 38.45100 23.81000
C  52.55100 40.15900 25.37400
N  48.34600 34.52300 25.06300
C  48.95000 35.32600 24.17500
C  48.89600 34.74200 22.74600
C  48.30100 33.32700 22.94000
C  48.03200 33.34200 24.55200
C  48.24000 35.66900 21.70200
C  49.10100 32.10300 22.42300
C  50.01300 31.43100 23.41100
N  47.14000 33.29100 27.47500
C  46.91100 32.23900 26.57600
C  46.08900 31.29000 27.25800
C  45.95300 31.77600 28.53400
C  46.64700 32.97600 28.61200
C  45.62600 29.97900 26.62000
C  45.34900 31.52100 29.75900
O  44.68200 30.54800 30.13600
C  45.80300 32.61900 30.72200
C  46.40000 31.90000 31.94600
O  47.46800 31.37200 32.02200
O  45.45300 31.81300 32.93200
C  45.87100 30.97600 34.18100
H  49.62800 38.42600 29.91900
H  50.03600 36.96000 23.54300
H  47.04400 31.40200 24.63800
H  46.87300 35.02400 32.24600
H  49.18700 36.79700 31.79300
H  46.42200 37.38300 32.38500
H  46.61500 37.90500 30.76700
H  47.71200 38.52200 32.18800
H  49.90500 34.78900 32.09900
H  48.94000 33.33100 32.13200
H  49.80300 34.19100 34.46300
H  48.41600 33.26000 34.03600
H  50.65800 40.67600 27.70300
H  52.21000 39.83200 27.94100
H  50.99400 39.78600 29.14400
H  53.18600 40.51300 24.56300
H  53.22500 40.05500 26.22500
H  51.77500 40.89800 25.57400
H  49.95400 34.59100 22.53100
H  47.29100 33.36100 22.53000
H  47.41300 35.17400 21.19200
H  49.00000 36.09600 21.04700
H  47.65600 36.49100 22.11600
H  49.68400 32.57500 21.63200
H  48.34700 31.37200 22.13100
H  50.99000 31.48000 22.93000
H  49.63200 30.42800 23.59900
H  50.12900 32.05700 24.29600
H  46.14800 29.08500 26.95900
H  45.83800 29.92100 25.55200
H  44.55500 29.81200 26.73900
H  44.95200 33.19200 31.09000
H  46.85200 31.27000 34.55400
H  45.88500 29.93300 33.86400
H  45.21700 30.85600 35.04400
Mg -1.87900 34.65100 27.41700
C  -3.81300 33.00100 29.76200
C  -0.51900 36.53900 29.57500
C  -0.50100 36.45400 24.81500
C  -3.48200 32.74300 24.80100
N  -2.14900 34.62600 29.43600
C  -3.02500 34.00900 30.26000
C  -2.89400 34.39100 31.69500
C  -2.00800 35.70700 31.58000
C  -1.52000 35.62700 30.09700
C  -2.76400 37.02100 31.93000
C  -2.31100 33.23500 32.62200
C  -3.03800 32.76000 33.84500
H  -2.27300 32.62900 35.12300
N  -0.61600 36.25800 27.23900
C  -0.05600 36.82500 28.33200
C  0.97300 37.77000 27.92800
C  0.94100 37.81900 26.49700
C  -0.05800 36.77700 26.09500
C  1.82000 38.60900 28.91500
C  1.75900 38.64200 25.54100
O  1.38200 38.87200 24.43700
C  2.85100 39.52400 25.96900
N  -2.05400 34.72900 25.14100
C  -1.42600 35.60200 24.36200
C  -1.88800 35.44800 22.86600
C  -2.57600 33.96600 22.80500
C  -2.70100 33.80400 24.36600
C  -2.78200 36.67700 22.52000
C  -1.95800 32.92200 22.01500
C  -1.00400 33.26900 20.87000
N  -3.26200 33.12100 27.22800
C  -3.73600 32.39200 26.14900
C  -4.69500 31.37600 26.57200
C  -4.69100 31.51700 27.93700
C  -3.84000 32.61000 28.38000
C  -5.62900 30.50000 25.81100
C  -5.40100 31.12400 29.17600
O  -6.29900 30.29000 29.32400
C  -4.69600 32.02300 30.41500
C  -5.75300 32.60200 31.30500
O  -6.45700 33.59400 31.07600
O  -5.89400 31.83500 32.50400
C  -6.89400 32.35200 33.48500
H  0.01400 37.00700 30.40400
H  -0.03300 37.06800 24.04300
H  -4.08900 32.30400 24.00700
H  -3.89600 34.54100 32.09900
H  -1.15500 35.71600 32.25800
H  -3.22200 36.95200 32.91700
H  -3.51600 37.19500 31.16000
H  -1.99000 37.78700 31.96600
H  -1.28700 33.51400 32.87000
H  -2.14400 32.29500 32.09500
H  -3.68500 31.89200 33.71500
H  -3.85300 33.47900 33.92600
H  1.59400 38.46700 29.97200
H  1.61800 39.63100 28.59400
H  2.88500 38.44000 28.75900
H  3.36700 39.08000 26.82000
H  2.25700 40.34100 26.37700
H  3.53400 39.83800 25.17900
H  -0.97500 35.50000 22.27300
H  -3.60500 34.06600 22.46100
H  -3.12000 37.25000 23.38300
H  -3.74900 36.39400 22.10200
H  -2.25900 37.39000 21.88300
H  -2.78600 32.38100 21.55700
H  -1.42800 32.19900 22.63300
H  -1.16300 32.58000 20.04000
H  0.03600 33.06800 21.12800
H  -1.10700 34.27000 20.45200
H  -5.64100 29.48700 26.21200
H  -5.31600 30.48500 24.76700
H  -6.63100 30.92900 25.84000
H  -4.09300 31.35000 31.02400
H  -7.39500 31.42500 33.76600
H  -7.61900 33.05100 33.06800
H  -6.36900 32.79600 34.33100

