158

Mg 30.56400 58.23800 40.60000
C  27.93700 56.07400 39.61800
C  32.76100 55.87400 39.32100
C  32.98400 60.58500 40.64800
C  28.21200 60.83400 40.69800
N  30.32900 56.14300 39.61700
C  29.23600 55.47300 39.30900
C  29.55700 54.13900 38.56500
C  31.04500 53.97200 38.96500
C  31.40100 55.39900 39.37300
C  31.31800 53.07000 40.24400
C  29.35000 54.29400 37.04800
C  28.25700 53.32200 36.46700
H  27.33200 53.92400 35.40700
N  32.64900 58.22300 40.02500
C  33.31800 57.18500 39.44900
C  34.65900 57.61700 39.21400
C  34.76400 58.99800 39.55200
C  33.38700 59.32900 40.10300
C  35.69500 56.79700 38.58300
C  36.01700 59.87200 39.34400
O  37.07000 59.31200 38.95400
C  36.07500 61.40700 39.52800
N  30.53200 60.50900 40.63600
C  31.68800 61.11400 40.88400
C  31.49700 62.55100 41.39800
C  29.93900 62.69400 41.28100
C  29.50800 61.24000 40.88200
C  32.15700 62.80200 42.80700
C  29.42500 63.81700 40.32200
C  28.76200 64.94800 41.13300
N  28.48400 58.44600 40.43800
C  27.66400 59.56100 40.47100
C  26.29900 59.18200 40.38400
C  26.28400 57.77400 40.05000
C  27.69700 57.39300 40.05000
C  25.19500 60.15400 40.42600
C  25.53800 56.61100 39.63900
O  24.33400 56.38400 39.45800
C  26.55100 55.39900 39.52800
C  26.28200 54.43600 40.59500
O  26.11500 54.74300 41.77000
O  26.11200 53.19800 40.09200
C  25.65900 52.15900 40.96400
H  33.40000 55.11900 38.85800
H  33.85900 61.16100 40.95800
H  27.41100 61.56100 40.84000
H  29.06600 53.25700 38.97600
H  31.67400 53.71400 38.11300
H  30.41100 53.14000 40.84500
H  32.21300 53.39300 40.77600
H  31.62500 52.04400 40.04500
H  30.21400 54.12000 36.40700
H  29.00500 55.31000 36.85600
H  27.60600 53.03500 37.29200
H  28.81300 52.54900 35.93800
H  36.72700 57.07700 38.79400
H  35.49200 56.84900 37.51300
H  35.63800 55.73600 38.82300
H  36.28900 61.63900 40.57200
H  35.05700 61.77700 39.40600
H  36.85400 61.98900 39.03600
H  32.15300 63.17900 40.79500
H  29.44200 62.84000 42.24000
H  32.73400 61.91100 43.05500
H  31.28900 62.94700 43.45100
H  32.70800 63.74000 42.74200
H  28.65500 63.46600 39.63500
H  30.27200 64.20400 39.75700
H  28.64100 65.79500 40.45800
H  29.35900 65.21000 42.00700
H  27.74600 64.65000 41.39200
H  25.12900 60.50700 41.45500
H  24.34700 59.51400 40.18500
H  25.22800 61.02200 39.76700
H  26.55200 54.84800 38.58700
H  25.49600 51.31700 40.29100
H  24.80200 52.58400 41.48600
H  26.43300 51.81900 41.65100
Mg -11.31300 38.60500 42.24600
C  -9.61400 35.70800 41.56200
C  -8.93000 40.49200 40.96100
C  -13.36000 41.30900 42.89000
C  -14.30000 36.51500 43.03300
N  -9.61500 38.09700 41.29400
C  -9.00600 36.85200 41.18500
C  -7.65700 36.94200 40.44000
C  -7.37700 38.46800 40.46500
C  -8.74300 39.07000 40.94800
C  -6.27800 38.96700 41.47400
C  -7.65000 36.34000 39.00700
C  -6.35800 35.59100 38.52500
H  -5.58100 36.16800 37.28800
N  -11.16500 40.64500 41.95200
C  -10.04600 41.18900 41.41200
C  -10.24800 42.64400 41.47100
C  -11.48600 42.92400 42.09500
C  -12.10700 41.60400 42.39300
C  -9.25600 43.55100 40.77900
C  -12.11000 44.34700 42.37500
O  -11.64700 45.33200 41.77000
C  -13.31100 44.55300 43.40800
N  -13.55700 38.82600 42.60300
C  -14.03000 40.08100 42.96700
C  -15.49400 39.99300 43.46500
C  -15.83100 38.50300 43.46200
C  -14.50000 37.85700 42.98900
C  -15.79900 40.72300 44.76800
C  -17.10400 38.14100 42.71800
C  -17.84300 36.88900 43.35500
N  -11.82200 36.50100 42.36200
C  -13.04500 35.88600 42.58800
C  -12.78000 34.40800 42.51400
C  -11.42400 34.28100 42.15600
C  -10.92100 35.61600 42.06500
C  -13.85300 33.39300 42.81500
C  -10.32300 33.37400 41.82200
O  -10.21500 32.16400 41.70200
C  -9.08000 34.34700 41.70000
C  -8.26100 34.12400 42.89700
O  -8.08200 34.93800 43.81000
O  -7.61300 32.89500 42.73900
C  -6.62000 32.53800 43.77100
H  -8.14000 41.08900 40.50000
H  -14.04800 42.14600 43.02900
H  -15.10800 35.81300 43.25300
H  -6.93700 36.39100 41.04500
H  -7.26000 38.94600 39.49200
H  -5.56000 39.62700 40.98800
H  -5.71400 38.12200 41.87000
H  -6.72700 39.57500 42.25900
H  -7.89000 37.09600 38.25900
H  -8.58200 35.80300 38.83100
H  -6.60200 34.54600 38.33300
H  -5.65100 35.74600 39.34000
H  -9.50900 43.55200 39.71900
H  -8.23400 43.19500 40.90900
H  -9.32400 44.57700 41.14000
H  -13.21100 45.47200 43.98500
H  -13.30800 43.74800 44.14200
H  -14.28600 44.68300 42.93900
H  -16.14700 40.37100 42.67800
H  -15.74600 38.24000 44.51600
H  -16.83100 40.65000 45.11100
H  -15.56100 41.78100 44.66400
H  -15.01000 40.46600 45.47400
H  -16.85700 37.86700 41.69200
H  -17.92200 38.85800 42.78200
H  -18.21400 36.15100 42.64500
H  -18.70000 37.18400 43.96000
H  -17.18200 36.42600 44.08800
H  -14.89000 33.72200 42.75900
H  -13.69600 33.01300 43.82500
H  -13.64100 32.52200 42.19400
H  -8.52900 34.07100 40.80100
H  -5.87200 31.93600 43.25600
H  -7.12400 32.03600 44.59800
H  -6.02600 33.34900 44.19300

