158

Mg 9.25500 2.65800 27.54500
C  10.44800 1.12800 30.45200
C  7.73000 4.93800 29.58700
C  7.78300 4.01500 24.80000
C  10.65500 0.14900 25.64800
N  9.16300 3.04600 29.83400
C  9.69500 2.25600 30.76500
C  9.42300 2.86100 32.15900
C  8.28000 3.85700 31.88400
C  8.37900 3.96300 30.33600
C  6.92800 3.43900 32.47200
C  10.73600 3.46700 32.75900
C  10.63700 4.22400 34.15000
H  10.94100 3.36000 35.34300
N  8.03000 4.34700 27.24900
C  7.55400 5.17200 28.21600
C  6.72800 6.24100 27.55400
C  6.71900 5.92100 26.15700
C  7.49500 4.73700 26.00900
C  6.15900 7.34700 28.34300
C  6.01300 6.71300 25.04900
O  6.04600 6.28000 23.89500
C  5.19000 7.86500 25.21900
N  9.15900 2.17400 25.58700
C  8.58900 2.91200 24.59700
C  8.83500 2.28600 23.20300
C  9.86500 1.19900 23.52300
C  9.89900 1.14000 25.02400
C  7.53500 1.60700 22.62900
C  11.33600 1.57700 23.07800
C  11.78900 0.79300 21.86100
N  10.38300 0.96400 27.90200
C  10.84600 0.00200 27.02600
C  11.51100 -1.04900 27.77100
C  11.39200 -0.62600 29.13400
C  10.69400 0.56300 29.16600
C  12.13500 -2.27200 27.17200
C  11.73200 -1.04200 30.47300
O  12.36900 -1.99500 30.92700
C  11.15300 0.06800 31.39000
C  10.13200 -0.49000 32.37800
O  9.09300 -1.04200 32.10500
O  10.48700 -0.11300 33.64800
C  9.66900 -0.42500 34.82200
H  7.04600 5.58700 30.13900
H  7.56300 4.39700 23.80100
H  11.12400 -0.59200 24.99700
H  9.16600 2.05300 32.84400
H  8.51400 4.86900 32.21300
H  6.59900 4.29800 33.05700
H  7.05700 2.52200 33.04700
H  6.20100 3.28800 31.67500
H  11.15400 4.10800 31.98300
H  11.42500 2.65700 32.99800
H  9.63100 4.62300 34.27900
H  11.26200 5.11000 34.25800
H  5.07500 7.27600 28.25500
H  6.42600 8.34800 28.00600
H  6.54300 7.37700 29.36300
H  5.87200 8.56700 25.69800
H  4.38500 7.59000 25.90100
H  4.81800 8.20100 24.25100
H  9.21900 3.01400 22.48900
H  9.52800 0.25500 23.09400
H  7.48500 0.52100 22.71300
H  7.54800 1.70500 21.54400
H  6.64900 2.11000 23.01700
H  12.01300 1.42500 23.91900
H  11.42000 2.65100 22.91200
H  10.92600 0.53100 21.25000
H  12.32300 -0.15100 21.96700
H  12.27900 1.51500 21.20800
H  11.84400 -2.37100 26.12600
H  11.77600 -3.07200 27.81900
H  13.21200 -2.11200 27.12800
H  12.08700 0.45500 31.79800
H  10.33200 -1.02600 35.44500
H  8.81900 -1.08400 34.64900
H  9.33300 0.46200 35.36000
Mg 46.95100 34.75300 26.71600
C  45.20900 33.27700 29.47800
C  47.28300 37.57700 28.69900
C  48.07500 36.37000 24.05600
C  46.45800 31.90200 24.81200
N  46.42500 35.29900 29.05600
C  45.64200 34.58600 29.89500
C  45.29800 35.38700 31.13500
C  45.94600 36.84600 30.80400
C  46.52400 36.60300 29.40800
C  44.95700 38.10600 30.85900
C  45.91700 34.80100 32.43200
C  45.84400 35.71000 33.66200
H  47.07000 36.28800 34.20900
N  47.59300 36.69200 26.47800
C  47.77700 37.65500 27.41800
C  48.51900 38.77200 26.82100
C  48.80300 38.32700 25.51200
C  48.11400 37.11900 25.25800
C  48.82500 39.99100 27.62800
C  49.79300 39.02800 24.53600
O  49.99100 38.57700 23.34900
C  50.53900 40.16900 25.04100
N  47.16900 34.23200 24.69400
C  47.66400 35.09000 23.78100
C  47.70200 34.35800 22.34200
C  47.51200 32.79300 22.67100
C  47.03200 32.93200 24.17900
C  46.60800 35.00300 21.43800
C  48.67700 31.82400 22.49100
C  49.86600 31.84400 23.45100
N  46.08300 32.96900 26.97100
C  46.02800 31.87400 26.18200
C  45.32300 30.75700 26.90400
C  44.91700 31.31100 28.09000
C  45.46700 32.62000 28.16900
C  44.86400 29.46100 26.27700
C  44.23200 31.03400 29.30900
O  43.58500 29.99600 29.66700
C  44.32700 32.31600 30.21600
C  44.75700 31.90900 31.51700
O  45.91800 31.73200 31.82500
O  43.69900 31.73100 32.32600
C  44.02900 31.12200 33.64400
H  47.46600 38.41800 29.37100
H  48.49500 36.92400 23.21400
H  46.45700 30.85500 24.49900
H  44.22000 35.35000 31.29100
H  46.69900 37.07700 31.55700
H  45.44700 38.88200 31.44700
H  44.02800 37.80100 31.34100
H  44.64500 38.40900 29.85900
H  46.91700 34.42300 32.21900
H  45.28800 33.97600 32.76700
H  45.53000 35.09600 34.50600
H  45.10700 36.49200 33.47600
H  48.39500 40.86200 27.13400
H  49.90300 40.12800 27.70100
H  48.34100 39.97700 28.60500
H  49.84500 40.84900 25.53500
H  51.15500 40.60300 24.25400
H  51.19400 39.60400 25.70400
H  48.67100 34.50200 21.86400
H  46.78500 32.30000 22.02600
H  46.08000 35.83400 21.90700
H  45.85500 34.27000 21.15000
H  47.12200 35.27900 20.51800
H  49.16900 32.12500 21.56600
H  48.30000 30.82700 22.26600
H  50.81600 31.52400 23.02300
H  49.55200 31.24500 24.30700
H  49.97900 32.87500 23.78700
H  43.84800 29.34100 26.65400
H  45.49800 28.66600 26.66900
H  44.77300 29.55400 25.19500
H  43.31400 32.71800 30.22900
H  43.20600 30.62900 34.16200
H  44.18300 31.99900 34.27300
H  44.88500 30.44900 33.70400

