158

Mg 25.05200 1.87300 29.34800
C  27.18300 1.45700 32.09900
C  22.42400 1.72000 31.56800
C  22.95600 1.95700 26.67700
C  27.75900 1.10400 27.27600
N  24.86300 1.92400 31.56900
C  25.89300 1.75200 32.52600
C  25.36400 1.81900 33.97900
C  23.81800 1.71100 33.78500
C  23.67900 1.66600 32.17000
C  23.08500 0.59000 34.50500
C  25.79700 3.13900 34.72400
C  26.44100 2.96400 36.00700
H  26.04200 3.93800 37.12800
N  22.90900 1.90500 29.12300
C  22.03900 1.76100 30.18500
C  20.65800 1.84000 29.55000
C  20.74500 1.86300 28.14800
C  22.25300 2.00000 27.90400
C  19.39600 1.97400 30.43400
C  19.63900 1.79700 27.07600
O  19.84300 1.89200 25.86800
C  18.28300 1.45800 27.53800
N  25.34800 1.75700 27.31800
C  24.32600 1.88100 26.37600
C  24.89800 1.64800 24.96000
C  26.48600 1.54400 25.17300
C  26.54100 1.41000 26.66300
C  24.32800 0.51900 24.13400
C  27.20200 2.82200 24.64600
C  26.69700 4.23600 25.28600
N  27.05400 1.45200 29.60900
C  28.04700 1.14600 28.68000
C  29.27400 0.76700 29.29800
C  29.01600 0.94000 30.65400
C  27.64300 1.32900 30.77000
C  30.50000 0.13200 28.63500
C  29.59300 0.78500 31.93400
O  30.69500 0.31500 32.31000
C  28.49400 1.24800 32.93700
C  28.34400 0.15700 34.00200
O  27.67900 -0.83100 33.86900
O  28.99800 0.51200 35.15600
C  28.65900 -0.27500 36.38700
H  21.61900 1.89100 32.28500
H  22.30500 2.13100 25.81800
H  28.56000 0.95500 26.54900
H  25.74200 0.90500 34.43700
H  23.29800 2.63000 34.05700
H  23.11500 -0.15300 33.70800
H  22.11600 1.03900 34.72200
H  23.51200 0.21600 35.43600
H  24.90500 3.71600 34.96500
H  26.42400 3.79400 34.11900
H  27.50500 3.16400 35.88300
H  26.28200 1.99200 36.47300
H  18.77600 2.77500 30.03200
H  19.58200 2.14700 31.49400
H  18.79900 1.06400 30.38200
H  18.35500 0.63100 28.24300
H  17.71600 1.04600 26.70300
H  17.73500 2.33000 27.89700
H  24.63500 2.58500 24.47100
H  26.98500 0.73600 24.63900
H  25.07100 0.15400 23.42500
H  23.51500 0.84700 23.48600
H  23.87200 -0.27800 24.72100
H  26.96900 2.83800 23.58100
H  28.27400 2.70000 24.80300
H  26.36000 4.85600 24.45600
H  27.54700 4.65100 25.82900
H  25.87900 4.17000 26.00400
H  31.35100 0.15000 29.31700
H  30.85600 0.66100 27.75100
H  30.18900 -0.89600 28.44700
H  28.75000 2.19100 33.41800
H  29.23600 0.06800 37.24500
H  28.95500 -1.31900 36.29100
H  27.57900 -0.15400 36.47900
Mg 6.27300 54.43700 40.21100
C  5.44800 51.00600 39.94200
C  9.42200 53.68300 39.11000
C  7.00400 57.72200 39.75100
C  2.89200 55.14400 40.74800
N  7.32700 52.56200 39.39300
C  6.85600 51.26300 39.45400
C  7.77800 50.28400 38.75200
C  9.11800 51.04600 38.94500
C  8.62100 52.52900 39.12500
C  10.01500 50.70200 40.08900
C  7.30400 50.09500 37.23400
C  7.56200 48.71400 36.57000
H  6.51600 48.10500 35.67000
N  8.05600 55.53800 39.68100
C  9.30500 55.01800 39.40400
C  10.29900 56.10400 39.36800
C  9.58500 57.31800 39.52400
C  8.13800 56.86600 39.61600
C  11.81000 55.90100 39.25100
C  10.20200 58.76200 39.45600
O  11.42900 58.92500 39.28900
C  9.42200 60.00500 39.86300
N  5.07000 56.14100 40.20000
C  5.63900 57.40200 40.05200
C  4.54100 58.48500 40.23900
C  3.24000 57.63700 40.44600
C  3.70400 56.21300 40.50000
C  4.83000 59.60500 41.32300
C  2.10200 57.81500 39.30500
C  0.71600 57.93200 39.89800
N  4.57500 53.38700 40.37800
C  3.28800 53.73100 40.75500
C  2.46200 52.56000 40.99300
C  3.24100 51.45800 40.73000
C  4.51700 52.02800 40.37200
C  1.02900 52.64900 41.32300
C  3.26100 50.06100 40.58300
O  2.32400 49.24700 40.63800
C  4.76800 49.66200 40.14500
C  4.66200 48.70700 39.03600
O  4.16600 48.83100 37.91600
O  5.02400 47.47500 39.57800
C  4.85200 46.24000 38.80900
H  10.46200 53.47800 38.84600
H  7.21700 58.79300 39.77300
H  1.82200 55.28200 40.91700
H  7.84100 49.34100 39.29500
H  9.69200 50.92700 38.02600
H  9.49200 50.25000 40.93200
H  10.48600 51.61000 40.46500
H  10.84800 50.09600 39.73300
H  7.88700 50.69900 36.54000
H  6.31000 50.44900 36.96200
H  7.78000 48.04700 37.40400
H  8.52800 48.90200 36.10200
H  12.01800 54.98900 38.69200
H  12.31500 55.67500 40.19000
H  12.35600 56.73900 38.81900
H  8.63600 60.41900 39.23100
H  10.15700 60.80600 39.93200
H  9.11800 59.86100 40.90000
H  4.52500 59.00600 39.28100
H  2.78900 57.84000 41.41700
H  4.08200 59.63200 42.11500
H  4.86400 60.54800 40.77800
H  5.84000 59.41800 41.68700
H  2.15700 56.96400 38.62700
H  2.30100 58.65500 38.63900
H  0.07800 57.19200 39.41400
H  0.36700 58.96000 39.99300
H  0.81000 57.65300 40.94700
H  0.57500 53.03700 40.41100
H  0.78700 53.20700 42.22800
H  0.58500 51.67000 41.50500
H  5.08600 49.04200 40.98300
H  3.89200 45.74600 38.95800
H  5.65300 45.50800 38.92200
H  4.83300 46.47300 37.74400

