158

Mg 43.89700 5.43800 47.25800
C  41.87300 8.26000 46.69500
C  41.20300 3.42400 46.47800
C  46.05300 2.79200 47.12500
C  46.66000 7.50000 46.86500
N  41.71900 5.80400 46.57100
C  41.12700 7.03300 46.68300
C  39.68700 6.87700 46.47800
C  39.41400 5.34800 46.47700
C  40.86000 4.77400 46.55500
C  38.48300 4.75400 47.60100
C  39.04700 7.63900 45.31200
C  39.82800 7.70500 44.00700
H  39.24800 7.00500 42.74000
N  43.59000 3.36900 47.08100
C  42.46000 2.71900 46.71900
C  42.68800 1.33600 46.52100
C  44.01900 1.12400 46.92700
C  44.64700 2.45200 47.06100
C  41.68600 0.34900 46.11700
C  44.69200 -0.26300 47.09100
O  44.07400 -1.26200 46.96600
C  46.21300 -0.44600 47.41900
N  46.03400 5.21700 47.06500
C  46.66500 4.00800 47.14900
C  48.19400 4.11300 47.44000
C  48.37400 5.61900 47.04500
C  46.92200 6.16300 46.96300
C  48.61700 3.58000 48.86200
C  49.21300 5.89200 45.77900
C  48.98500 4.96100 44.54400
N  44.25500 7.42600 47.04300
C  45.40800 8.12700 46.81300
C  45.15400 9.57200 46.72200
C  43.74000 9.63700 46.78600
C  43.29000 8.32400 46.87900
C  46.16100 10.74100 46.66900
C  42.64200 10.58600 46.78500
O  42.63700 11.78700 46.62400
C  41.39900 9.65400 46.75600
C  40.62000 9.91900 47.92000
O  40.41200 9.25500 48.88400
O  40.07700 11.15500 47.70300
C  38.94600 11.41000 48.66100
H  40.36800 2.80800 46.13700
H  46.71300 1.92500 47.20400
H  47.56900 8.10500 46.83500
H  39.22100 7.27600 47.38000
H  38.96300 5.01300 45.54300
H  37.85200 3.95700 47.20800
H  37.96400 5.62700 47.99800
H  39.06100 4.34400 48.43000
H  38.91200 8.69600 45.53900
H  38.03800 7.23500 45.23300
H  40.86500 7.41400 44.17400
H  39.92000 8.77000 43.79300
H  42.10300 -0.27100 45.32400
H  40.72300 0.76100 45.81500
H  41.51900 -0.36800 46.92100
H  46.87600 -0.02900 46.66100
H  46.49400 -1.49900 47.40500
H  46.37800 0.00800 48.39600
H  48.77000 3.46100 46.78400
H  48.80100 6.16500 47.88600
H  47.84000 3.03100 49.39400
H  48.88200 4.49300 49.39500
H  49.54200 3.01600 48.75000
H  50.24200 5.83500 46.13300
H  49.04500 6.90800 45.42200
H  48.66900 5.51500 43.66000
H  48.20400 4.22300 44.72900
H  49.92900 4.44100 44.38300
H  46.63400 11.10100 47.58200
H  45.55300 11.56600 46.29900
H  46.90900 10.44700 45.93300
H  40.80600 9.91500 45.87900
H  38.29000 10.54000 48.66700
H  38.32700 12.18500 48.20900
H  39.16600 11.82700 49.64400
Mg 47.46300 16.36800 28.66800
C  45.47000 16.55600 31.44100
C  49.94700 17.70100 30.31600
C  49.13100 16.40900 25.71900
C  44.50900 15.51900 26.79600
N  47.57100 17.20900 30.49200
C  46.72700 17.15100 31.62300
C  47.28800 17.68400 32.99300
C  48.51000 18.43200 32.35600
C  48.71800 17.67000 30.99400
C  48.42100 19.95200 32.10800
C  47.82900 16.49300 33.90100
C  48.43900 16.80500 35.27400
H  48.25700 18.27700 35.73400
N  49.35100 16.93000 28.14100
C  50.25600 17.35600 28.94200
C  51.48400 17.58500 28.25100
C  51.31400 17.03100 26.97500
C  49.90700 16.71600 26.90800
C  52.67900 18.15100 28.99600
C  52.26300 16.96900 25.83100
O  51.89700 16.63500 24.70900
C  53.75000 17.24900 26.02600
N  46.88800 16.08500 26.45500
C  47.76300 16.29900 25.51400
C  47.09000 16.09700 24.14100
C  45.54600 15.71500 24.47400
C  45.62500 15.73800 25.99500
C  47.24600 17.30600 23.29600
C  45.20900 14.19200 24.04500
C  44.06800 14.11200 22.92700
N  45.40700 15.98700 29.00700
C  44.37700 15.67800 28.17700
C  43.21900 15.33200 28.99000
C  43.50800 15.73700 30.30500
C  44.89100 16.12800 30.19200
C  41.95800 14.68800 28.47100
C  43.11800 15.87300 31.64400
O  42.03500 15.71400 32.16200
C  44.29600 16.46900 32.42800
C  43.87100 17.74400 32.84400
O  43.92500 18.75400 32.12300
O  43.40400 17.64900 34.12800
C  42.92200 18.95100 34.60900
H  50.73500 18.12600 30.94100
H  49.52900 16.30500 24.70700
H  43.59100 15.21500 26.29000
H  46.59500 18.24800 33.61700
H  49.38500 18.29900 32.99200
H  47.39200 20.16500 32.39500
H  48.54300 20.20900 31.05600
H  49.12600 20.45500 32.77100
H  48.51900 15.90900 33.29200
H  46.96100 15.88300 34.15200
H  49.51400 16.65700 35.17600
H  48.03900 16.10000 36.00300
H  52.70500 17.95100 30.06700
H  52.71000 19.22600 28.81400
H  53.59100 17.76700 28.54000
H  54.19100 16.88500 25.09800
H  54.25900 16.62700 26.76200
H  54.04300 18.29800 26.09100
H  47.61500 15.25400 23.69200
H  44.75900 16.31700 24.01900
H  46.23200 17.66200 23.11900
H  47.74700 16.92100 22.40800
H  47.83800 18.10700 23.73700
H  44.93400 13.64800 24.94900
H  46.04700 13.67300 23.57900
H  43.53300 15.04100 22.72600
H  43.39600 13.36200 23.34600
H  44.38600 13.55200 22.04800
H  41.14900 14.73800 29.20100
H  42.12000 13.66100 28.14600
H  41.71400 15.36600 27.65300
H  44.51500 15.83000 33.28300
H  43.86200 19.50200 34.65500
H  42.46100 18.81900 35.58800
H  42.25300 19.46900 33.92100

