158

Mg 50.50600 46.12900 41.68500
C  47.42400 47.57700 40.79200
C  49.24500 42.99200 40.46300
C  53.63000 44.69500 41.99600
C  51.72000 49.22600 42.44900
N  48.54700 45.36400 40.79800
C  47.45500 46.18100 40.49500
C  46.32800 45.36700 39.81500
C  46.85800 43.90200 40.12300
C  48.34800 44.07300 40.53000
C  46.13500 43.17500 41.31300
C  46.20800 45.72600 38.33000
C  44.87800 45.69200 37.69800
H  44.86000 44.61100 36.54900
N  51.28400 44.16900 41.15100
C  50.58600 43.06500 40.72300
C  51.54400 41.93300 40.56600
C  52.83800 42.45200 40.87200
C  52.61600 43.82100 41.39900
C  51.11000 40.52600 40.09300
C  54.15200 41.77700 40.76300
O  54.22100 40.61200 40.52400
C  55.39400 42.48100 40.88400
N  52.41900 46.84600 42.03000
C  53.47600 46.07100 42.29300
C  54.69200 47.00800 42.68500
C  54.05200 48.36400 43.10400
C  52.66000 48.16300 42.43000
C  55.68800 46.28000 43.68500
C  54.88300 49.56600 42.62900
C  54.94100 50.69000 43.69600
N  49.80000 48.06400 41.73000
C  50.38400 49.24800 41.98200
C  49.50600 50.35800 41.86300
C  48.29300 49.73000 41.42200
C  48.51800 48.33500 41.29900
C  49.72000 51.77900 42.12500
C  46.95000 49.98000 40.87200
O  46.37500 51.03800 40.68700
C  46.39100 48.63300 40.34500
C  44.99400 48.37400 40.87400
O  44.66300 47.78600 41.91000
O  44.07900 48.80400 39.91100
C  42.74000 48.21600 40.00100
H  48.73800 42.10800 40.07100
H  54.60800 44.29300 42.26900
H  52.01800 50.20400 42.83300
H  45.36400 45.51400 40.30400
H  46.76900 43.25900 39.24700
H  45.36300 42.47300 40.99700
H  45.63800 44.00000 41.82300
H  46.88100 42.67500 41.93000
H  46.83000 44.95500 37.87300
H  46.64200 46.66200 37.97900
H  44.64000 46.66400 37.26600
H  44.04700 45.56600 38.39300
H  51.70600 39.66400 40.39200
H  51.04500 40.46300 39.00700
H  50.18400 40.24800 40.59600
H  55.64200 42.52000 41.94400
H  55.32400 43.50300 40.51200
H  56.05000 41.92000 40.21800
H  55.33700 47.08700 41.81000
H  54.02500 48.36200 44.19300
H  55.99400 46.88100 44.54200
H  56.62600 46.10500 43.15900
H  55.26600 45.33700 44.03100
H  54.63000 49.90900 41.62500
H  55.90900 49.20500 42.57000
H  55.96600 51.00400 43.89200
H  54.67100 50.25300 44.65700
H  54.23700 51.50200 43.51400
H  49.86200 51.87800 43.20100
H  48.80100 52.32600 41.91100
H  50.63300 52.08400 41.61500
H  46.27900 48.67800 39.26100
H  42.12700 49.09900 39.81900
H  42.42400 47.78400 40.95000
H  42.46900 47.51100 39.21400
Mg -10.27100 37.87300 41.12600
C  -8.15500 35.34100 40.12600
C  -8.22100 40.17500 39.51700
C  -12.64400 40.37600 41.71900
C  -12.69600 35.49000 41.87800
N  -8.43000 37.76900 39.89500
C  -7.68300 36.62400 39.68100
C  -6.40900 36.90900 38.91300
C  -6.37100 38.49200 38.74400
C  -7.71300 38.87200 39.55500
C  -5.04900 39.22500 39.25000
C  -6.21700 36.08400 37.62000
C  -7.47100 36.05800 36.68200
H  -7.20600 35.97900 35.17000
N  -10.41600 40.00400 40.77000
C  -9.45800 40.68000 40.07300
C  -9.84300 42.07500 39.92500
C  -11.07500 42.17800 40.65000
C  -11.44800 40.81300 41.06700
C  -9.06100 43.12400 39.16600
C  -11.89200 43.46900 40.84100
O  -11.36400 44.56800 40.59600
C  -13.27300 43.55000 41.42400
N  -12.40900 37.89500 41.58700
C  -13.04100 39.03800 41.96400
C  -14.46800 38.76700 42.51300
C  -14.54500 37.18400 42.42100
C  -13.05200 36.85000 42.02200
C  -14.83400 39.39000 43.90100
C  -15.52900 36.52200 41.41500
C  -16.13600 35.13300 41.84700
N  -10.38700 35.77400 41.17400
C  -11.46800 34.97500 41.44600
C  -11.04200 33.57700 41.41500
C  -9.71800 33.69500 40.91200
C  -9.36400 35.09800 40.72400
C  -11.77400 32.35900 41.95900
C  -8.48800 32.98300 40.47900
O  -8.19700 31.80400 40.30400
C  -7.47600 34.01500 39.96800
C  -6.11900 33.97200 40.55400
O  -5.60800 34.84500 41.28300
O  -5.57200 32.71200 40.36400
C  -4.37600 32.32700 41.12700
H  -7.60100 40.94100 39.04700
H  -13.44400 41.08300 41.94800
H  -13.35800 34.68100 42.19600
H  -5.61400 36.63300 39.60600
H  -6.45000 38.82700 37.71000
H  -5.31100 40.16000 39.74400
H  -4.37000 39.36200 38.40900
H  -4.60200 38.59800 40.02100
H  -5.85000 35.08800 37.87100
H  -5.50100 36.52000 36.92400
H  -8.01900 36.98400 36.85800
H  -8.21800 35.35300 37.04700
H  -9.41700 44.13700 38.97800
H  -9.02400 42.64400 38.18800
H  -8.01900 43.03100 39.47200
H  -13.17800 43.37300 42.49500
H  -13.82100 42.78700 40.87200
H  -13.77600 44.51500 41.35000
H  -15.18200 39.03900 41.73500
H  -14.72600 36.87700 43.45100
H  -15.09300 38.64800 44.65700
H  -15.79100 39.87800 43.71600
H  -14.16100 40.06000 44.43700
H  -15.15300 36.47000 40.39400
H  -16.43700 37.11500 41.30300
H  -17.22000 35.23200 41.79400
H  -15.77900 34.76300 42.80800
H  -15.87200 34.33500 41.15300
H  -11.32600 31.40900 41.66900
H  -12.82100 32.42300 41.66400
H  -11.82500 32.30600 43.04600
H  -7.30200 33.87500 38.90200
H  -3.93000 31.48200 40.60400
H  -4.57000 32.16300 42.18700
H  -3.65400 33.12800 40.96600

