158

Mg 2.23000 -1.86900 44.29000
C  5.67100 -1.35800 43.96500
C  1.62900 0.72600 42.15800
C  -1.03200 -2.70400 44.36300
C  3.04200 -5.02300 45.73200
N  3.55400 -0.52600 43.09400
C  4.98600 -0.45800 43.17400
C  5.41900 0.68400 42.21200
C  4.10400 1.41100 41.71100
C  3.02500 0.49900 42.40300
C  3.89500 2.86300 41.98400
C  6.28500 0.15000 41.03800
C  7.62800 0.90600 40.90400
H  7.99300 1.24100 39.45600
N  0.53800 -1.09800 43.32000
C  0.53500 -0.01100 42.49600
C  -0.81400 0.22100 42.13400
C  -1.59100 -0.77300 42.79100
C  -0.72800 -1.58100 43.54800
C  -1.20800 1.35100 41.27100
C  -3.06600 -0.96500 42.44000
O  -3.54100 -0.29800 41.55200
C  -3.95400 -1.86100 43.19500
N  1.18700 -3.67000 44.85300
C  -0.17000 -3.67000 44.88200
C  -0.75300 -4.89900 45.56200
C  0.61200 -5.76100 45.56500
C  1.70400 -4.80600 45.33200
C  -1.43100 -4.71600 46.91200
C  0.74200 -7.09600 44.67400
C  0.23300 -8.36900 45.35100
N  3.93700 -3.00500 44.82100
C  4.12600 -4.21000 45.40300
C  5.56800 -4.43300 45.70100
C  6.18400 -3.24400 45.24600
C  5.17500 -2.49100 44.61700
C  6.17500 -5.61800 46.41900
C  7.39600 -2.46000 45.13500
O  8.52100 -2.79600 45.53300
C  7.14200 -1.32100 44.27000
C  7.35100 -0.01600 44.87800
O  6.89100 0.42100 45.93800
O  8.16400 0.77600 44.09000
C  8.21400 2.18000 44.40100
H  1.50500 1.56300 41.46700
H  -2.09300 -2.94600 44.44400
H  3.35400 -5.95600 46.20600
H  5.99200 1.42500 42.76900
H  4.01900 1.31500 40.62900
H  4.09900 3.42900 41.07500
H  4.59300 3.31100 42.69100
H  2.85300 3.06200 42.23500
H  5.74200 0.03200 40.10000
H  6.57800 -0.89600 41.12300
H  8.40900 0.20800 41.20400
H  7.61900 1.83000 41.48100
H  -2.18500 1.74100 41.55600
H  -1.35700 0.99700 40.25100
H  -0.59700 2.25300 41.26400
H  -4.98400 -1.67300 42.88900
H  -3.79200 -1.55300 44.22700
H  -3.65900 -2.88900 42.98400
H  -1.51300 -5.38800 44.95200
H  0.70000 -6.10300 46.59600
H  -2.32300 -4.09900 46.79600
H  -0.61500 -4.29000 47.49600
H  -1.67000 -5.62000 47.47200
H  1.78900 -7.20400 44.38900
H  0.09900 -6.97300 43.80300
H  1.05300 -8.71600 45.98000
H  0.15600 -9.22500 44.68000
H  -0.63500 -8.25300 46.00000
H  6.25000 -6.47200 45.74700
H  5.46300 -6.01700 47.14100
H  7.11600 -5.27800 46.85100
H  7.85100 -1.33800 43.44200
H  8.66500 2.37900 45.37300
H  7.25500 2.68800 44.29700
H  8.87000 2.74800 43.74100
Mg 54.96200 23.91500 44.64700
C  52.35000 26.10300 43.32000
C  53.51800 21.40000 42.84200
C  57.63900 22.15400 45.36300
C  56.47000 26.81600 46.01500
N  53.19000 23.86700 43.10700
C  52.27500 24.81000 42.76500
C  51.24000 24.32400 41.74500
C  51.53900 22.75300 41.80800
C  52.80400 22.62500 42.65200
C  50.33200 21.91200 42.34800
C  51.45400 24.92000 40.31900
C  50.24600 25.15400 39.37200
H  50.53800 25.85300 38.05700
N  55.47200 21.99300 44.24400
C  54.70200 21.10100 43.53300
C  55.43300 19.87800 43.47400
C  56.58600 19.99300 44.28000
C  56.61500 21.42400 44.74100
C  54.94800 18.60000 42.74200
C  57.57300 18.85800 44.65000
O  57.51900 17.85800 43.97900
C  58.75500 19.01900 45.69400
N  56.78200 24.47600 45.43800
C  57.75100 23.46900 45.68700
C  59.01400 24.13200 46.37100
C  58.67800 25.67900 46.38800
C  57.25700 25.70600 45.87500
C  59.19000 23.66500 47.83200
C  59.57300 26.58500 45.47600
C  61.11600 26.37800 45.50800
N  54.44300 26.00700 44.79200
C  55.10400 27.01000 45.51100
C  54.28800 28.19700 45.64000
C  53.16900 27.90500 44.76900
C  53.33700 26.55300 44.22000
C  54.61600 29.42600 46.48600
C  51.93900 28.42600 44.25000
O  51.45000 29.51900 44.46600
C  51.32000 27.27300 43.34000
C  50.99300 27.84900 42.02400
O  51.69900 28.63900 41.38000
O  49.67900 27.61800 41.80500
C  48.83600 28.45300 40.94700
H  53.06600 20.51200 42.39600
H  58.50700 21.58500 45.70200
H  57.03400 27.62300 46.48800
H  50.21400 24.57400 42.01400
H  51.77600 22.32400 40.83400
H  49.98900 21.32000 41.49900
H  49.43600 22.43500 42.68100
H  50.68900 21.35900 43.21700
H  52.16000 24.30700 39.75900
H  51.89200 25.91800 40.32500
H  49.47300 25.62000 39.98300
H  49.85700 24.15000 39.20000
H  55.64700 17.87300 42.32900
H  54.34700 18.94200 41.89900
H  54.17100 18.15000 43.36100
H  58.52900 19.43100 46.67800
H  59.52800 19.58600 45.17700
H  58.92900 17.94600 45.77600
H  59.84400 23.93100 45.69400
H  58.69100 26.17600 47.35800
H  60.06200 23.01400 47.89700
H  58.29900 23.14500 48.18300
H  59.39700 24.47400 48.53200
H  59.34600 27.61800 45.74000
H  59.19800 26.44800 44.46200
H  61.66800 27.20600 45.95300
H  61.55700 26.15500 44.53600
H  61.34400 25.55200 46.18200
H  55.00800 29.15400 47.46600
H  53.69300 29.95600 46.72100
H  55.25200 30.08600 45.89600
H  50.46100 26.77500 43.79000
H  49.16200 29.48000 41.11300
H  47.79200 28.29500 41.22000
H  48.86700 28.23200 39.88000

