158

Mg 36.59900 48.50500 25.83900
C  36.04700 46.50200 28.72300
C  35.97300 51.32100 27.63000
C  36.34100 50.32000 22.98300
C  36.62100 45.59400 23.98600
N  36.04100 48.81200 27.91800
C  35.95400 47.89300 28.96200
C  35.86500 48.65000 30.32100
C  35.48500 50.09000 29.85600
C  35.83500 50.12700 28.39300
C  34.06800 50.65900 30.08700
C  37.29300 48.57500 31.08400
C  37.22700 48.01100 32.49500
H  35.85300 48.27900 33.20400
N  36.44400 50.56100 25.38700
C  36.17000 51.59100 26.25900
C  36.19600 52.88500 25.63400
C  36.43700 52.58700 24.22600
C  36.47200 51.10100 24.12200
C  35.95100 54.15500 26.42900
C  36.63700 53.58000 23.09200
O  36.94400 53.24500 21.96000
C  36.45300 55.09300 23.33500
N  36.36700 48.04100 23.77300
C  36.40700 48.96400 22.78000
C  36.31900 48.27400 21.37400
C  36.73600 46.81500 21.76900
C  36.57400 46.78000 23.25200
C  34.91400 48.23900 20.66600
C  38.19700 46.65400 21.40700
C  38.67700 46.16500 20.01600
N  36.37100 46.39900 26.20900
C  36.57100 45.40400 25.33700
C  36.64700 44.15900 26.12100
C  36.46800 44.58000 27.43800
C  36.24300 45.92800 27.42700
C  36.91500 42.75100 25.60800
C  36.47600 44.04100 28.80900
O  36.67000 42.89100 29.24400
C  36.34200 45.32100 29.74500
C  35.23100 45.19400 30.65900
O  34.09200 45.55400 30.40600
O  35.63600 44.60000 31.77300
C  34.61400 44.41300 32.81600
H  35.88000 52.25600 28.18600
H  36.26700 50.84000 22.02500
H  36.82800 44.70400 23.38800
H  35.01300 48.15900 30.79300
H  36.06200 50.86300 30.36200
H  34.05500 51.57200 30.68200
H  33.49700 49.88400 30.60000
H  33.43900 50.87000 29.22300
H  37.78400 49.54400 31.17700
H  37.95000 47.98600 30.44500
H  37.99900 48.29900 33.20900
H  37.44100 46.96800 32.26400
H  35.43400 54.05500 27.38300
H  35.26900 54.77400 25.84700
H  36.93200 54.58900 26.62200
H  36.74800 55.55800 22.39500
H  37.23500 55.42200 24.02100
H  35.43000 55.37300 23.58500
H  36.97800 48.77100 20.66200
H  36.10100 46.07600 21.28200
H  34.69400 47.17400 20.59900
H  35.05000 48.73300 19.70300
H  34.02400 48.64200 21.14900
H  38.65200 46.00200 22.15300
H  38.69600 47.61800 21.49800
H  39.29100 46.95600 19.58600
H  37.85800 45.83200 19.37800
H  39.31000 45.29400 20.18400
H  37.99300 42.62200 25.51100
H  36.25900 42.48800 24.77800
H  36.55500 42.09000 26.39600
H  37.28900 45.57300 30.22300
H  34.08300 45.33100 33.07000
H  35.11200 43.96400 33.67500
H  33.86400 43.63900 32.64800
Mg 5.35700 54.96200 40.63600
C  4.87800 51.45500 40.78000
C  8.41200 54.63100 39.68300
C  5.26700 58.31400 39.92400
C  1.87000 55.28700 41.49000
N  6.38800 53.24900 40.09900
C  6.10900 51.90100 40.18100
C  7.32200 51.05000 39.71400
C  8.49900 52.12500 39.75900
C  7.67500 53.40900 39.81800
C  9.60700 52.00100 40.87900
C  7.03100 50.41600 38.31800
C  5.99200 51.14200 37.37700
H  6.69800 51.93300 36.28100
N  6.81200 56.44200 40.07000
C  8.03500 56.04500 39.58000
C  8.76900 57.23900 39.20600
C  7.84600 58.39600 39.37100
C  6.56000 57.78700 39.80600
C  10.14800 57.33400 38.64100
C  8.08100 59.84100 39.12600
O  9.10600 60.19200 38.54300
C  7.01200 60.90400 39.40000
N  3.73900 56.59800 40.71200
C  4.02200 57.87200 40.33700
C  2.74800 58.78400 40.36200
C  1.63100 57.74000 40.70300
C  2.43900 56.51600 41.00400
C  2.74500 60.03200 41.24800
C  0.48500 57.46300 39.69900
C  -0.09400 58.67600 38.98800
N  3.64100 53.68600 41.02200
C  2.36300 53.96500 41.45800
C  1.72200 52.71400 41.88700
C  2.62600 51.66700 41.71200
C  3.73700 52.33100 41.13000
C  0.45500 52.51900 42.59100
C  3.01100 50.30000 41.94000
O  2.48700 49.41900 42.61300
C  4.40000 50.04600 41.20400
C  4.28600 49.02500 40.04900
O  3.81000 49.23800 38.97300
O  4.63800 47.83200 40.48100
C  4.31500 46.59900 39.76600
H  9.48300 54.45100 39.57000
H  5.01900 59.35800 39.72400
H  0.84800 55.25900 41.87100
H  7.46200 50.29200 40.48500
H  8.92500 52.11900 38.75600
H  10.58200 51.87300 40.40800
H  9.43500 51.07800 41.43200
H  9.56800 52.86700 41.54000
H  6.68000 49.40000 38.49900
H  7.94900 50.31900 37.73800
H  5.29700 51.78000 37.92400
H  5.39200 50.37800 36.88300
H  10.82500 57.52500 39.47300
H  10.38000 57.91100 37.74500
H  10.43100 56.28400 38.56000
H  6.22700 60.92800 38.64500
H  7.49700 61.87200 39.53200
H  6.48900 60.64900 40.32200
H  2.61800 59.16300 39.34900
H  1.20200 58.05200 41.65500
H  1.78900 60.14900 41.75900
H  2.91900 60.94000 40.67200
H  3.60700 59.97600 41.91300
H  -0.31400 56.96100 40.24500
H  0.91600 56.77500 38.97200
H  0.50300 58.89300 38.10300
H  -0.09800 59.46500 39.74000
H  -1.12800 58.47200 38.71100
H  0.59200 52.13300 43.60100
H  -0.12100 51.77800 42.03600
H  -0.10600 53.44600 42.71500
H  5.06500 49.58600 41.93500
H  4.71400 46.68200 38.75500
H  3.24900 46.45200 39.59500
H  4.69500 45.71400 40.27700

