158

Mg 35.95800 49.26600 26.07400
C  36.19100 47.30500 29.12900
C  34.92500 51.94500 27.98800
C  35.62300 50.93800 23.34500
C  37.27400 46.42600 24.34500
N  35.56200 49.53000 28.25200
C  35.71200 48.62400 29.28200
C  35.49200 49.34500 30.60200
C  34.94700 50.75000 30.19100
C  35.11200 50.74800 28.68200
C  33.44700 51.22200 30.70300
C  36.87700 49.36600 31.34000
C  36.80700 49.27200 32.91200
H  35.48700 49.10500 33.63200
N  35.28700 51.17000 25.71700
C  34.95700 52.15200 26.61400
C  34.78600 53.41900 25.88700
C  34.94100 53.12900 24.53300
C  35.24500 51.68800 24.44900
C  34.61800 54.79700 26.60100
C  35.01500 54.04500 23.29400
O  35.41900 53.68200 22.16300
C  34.62600 55.50600 23.49500
N  36.31500 48.65700 24.15700
C  36.17600 49.64000 23.18300
C  36.80400 49.15800 21.83800
C  37.34100 47.70000 22.21800
C  36.99100 47.59800 23.64900
C  35.79800 49.27800 20.69800
C  38.83400 47.46500 21.95300
C  39.39100 47.92500 20.60400
N  36.58900 47.29300 26.62100
C  37.00900 46.28600 25.76900
C  37.45100 45.14100 26.54800
C  37.13300 45.48600 27.89400
C  36.62900 46.80200 27.87300
C  38.07000 43.86600 26.08000
C  37.14100 45.03100 29.31500
O  37.49400 43.96100 29.83600
C  36.50700 46.20200 30.19900
C  35.30700 45.52100 30.88500
O  34.19300 45.35800 30.48300
O  35.77600 45.02800 32.09900
C  34.93100 44.27900 32.99400
H  34.66800 52.85400 28.53600
H  35.59900 51.50500 22.41200
H  37.75100 45.67100 23.71600
H  34.72400 48.84900 31.19500
H  35.64700 51.47600 30.60600
H  33.07000 50.55500 31.47800
H  32.72200 51.10900 29.89700
H  33.52200 52.22200 31.13000
H  37.30600 50.35300 31.16600
H  37.61600 48.67800 30.93100
H  37.19300 50.24700 33.21200
H  37.43700 48.45700 33.26900
H  34.87200 54.88300 27.65700
H  33.54800 54.99100 26.51800
H  35.03700 55.68800 26.13200
H  35.48000 56.03900 23.91100
H  33.74400 55.59700 24.12900
H  34.33500 55.92100 22.53000
H  37.66800 49.76300 21.56200
H  36.86500 46.95400 21.58100
H  35.16400 48.39200 20.71100
H  36.36100 49.34000 19.76700
H  35.22600 50.19600 20.84000
H  39.12200 46.41900 22.04900
H  39.31100 48.00000 22.77400
H  38.58300 48.04400 19.88200
H  40.01000 47.22300 20.04400
H  40.02400 48.81200 20.62500
H  37.35600 43.04300 26.06200
H  38.82600 43.43500 26.73800
H  38.50100 43.98100 25.08600
H  37.15500 46.65900 30.94700
H  34.30300 44.97400 33.55200
H  35.35600 43.56200 33.69600
H  34.22400 43.66800 32.43200
Mg -2.40600 34.60300 26.74400
C  -4.02900 32.68700 29.21600
C  -1.04100 36.52000 29.22100
C  -1.18700 36.62900 24.43600
C  -4.34700 32.98900 24.30600
N  -2.46900 34.48900 28.95300
C  -3.19000 33.70500 29.73100
C  -2.85300 34.00100 31.21600
C  -1.88600 35.28800 31.12700
C  -1.79600 35.42500 29.65700
C  -2.51400 36.46500 31.95700
C  -2.21300 32.77900 31.91700
C  -3.01100 32.19600 33.16600
H  -2.32200 32.07100 34.54100
N  -1.15700 36.29600 26.81800
C  -0.65900 36.90900 27.90800
C  0.22700 38.01600 27.50500
C  0.27600 37.91800 26.08400
C  -0.80500 36.98100 25.71800
C  0.87500 38.84100 28.54400
C  1.20100 38.69000 25.11300
O  1.15100 38.45100 23.94000
C  2.10000 39.71700 25.64000
N  -3.01100 34.95700 24.66300
C  -2.24000 35.80300 24.01700
C  -2.72900 35.84700 22.55900
C  -3.54700 34.56800 22.40300
C  -3.65000 34.11200 23.86100
C  -3.54800 37.22100 22.23200
C  -2.75900 33.55400 21.50600
C  -1.67900 32.70400 22.21700
N  -3.91300 33.16100 26.72400
C  -4.47400 32.48100 25.64100
C  -5.21200 31.32100 26.15200
C  -5.04600 31.44400 27.57300
C  -4.25800 32.53700 27.85000
C  -6.00900 30.25900 25.34400
C  -5.46600 30.78500 28.83600
O  -6.10700 29.67700 28.95500
C  -4.93800 31.67300 29.94800
C  -6.04400 32.29700 30.69400
O  -6.72900 33.14400 30.16800
O  -6.10800 31.89700 32.07800
C  -6.99500 32.69500 32.97400
H  -0.59400 37.11500 30.02100
H  -0.89100 37.29900 23.62600
H  -4.82800 32.33700 23.57300
H  -3.73100 34.33700 31.76900
H  -0.90100 35.20100 31.58500
H  -2.74400 37.24400 31.23100
H  -1.82400 36.97700 32.62800
H  -3.43100 36.25400 32.50800
H  -1.23400 33.07400 32.29500
H  -1.99000 31.94700 31.24900
H  -3.25200 31.13800 33.06400
H  -3.94800 32.75300 33.16900
H  1.93200 38.96200 28.30600
H  0.86300 38.51900 29.58500
H  0.45600 39.84500 28.49100
H  2.70600 39.23900 26.41000
H  1.52200 40.54800 26.04500
H  2.80400 40.03600 24.87100
H  -1.86100 35.87200 21.90000
H  -4.52500 34.82000 21.99400
H  -3.84800 37.12800 21.18800
H  -2.89600 38.06000 22.47700
H  -4.48500 37.30200 22.78300
H  -2.12000 34.10000 20.81200
H  -3.44400 32.88300 20.98700
H  -0.86200 32.66300 21.49600
H  -2.09300 31.69500 22.20700
H  -1.32900 32.98000 23.21100
H  -5.54600 30.20300 24.35900
H  -7.08700 30.42000 25.34600
H  -5.78500 29.32800 25.86400
H  -4.31000 31.04000 30.57300
H  -6.31800 33.38800 33.47300
H  -7.59200 32.07900 33.64700
H  -7.73400 33.31300 32.46400

