158

Mg 47.66200 44.95400 42.94700
C  44.44300 43.98600 43.05300
C  48.48800 41.57100 42.21700
C  50.68000 45.83800 42.10900
C  46.66300 48.23600 42.96100
N  46.50600 43.09500 42.45600
C  45.22100 42.92600 42.72000
C  44.82800 41.46400 42.62300
C  46.14100 40.74600 42.37100
C  47.12800 41.85700 42.31500
C  46.49300 39.65800 43.44400
C  43.74900 41.18600 41.52100
C  43.50300 42.10900 40.31600
H  43.29500 41.56200 38.88800
N  49.37200 43.85700 42.39400
C  49.58300 42.49600 42.15900
C  50.94200 42.18700 41.86500
C  51.58800 43.41700 41.71700
C  50.56000 44.43700 42.10600
C  51.52700 40.77600 41.60700
C  53.03900 43.61900 41.17700
O  53.73600 42.69900 40.80500
C  53.58700 44.99800 40.96500
N  48.51800 46.70000 42.54700
C  49.83700 46.87700 42.37800
C  50.28400 48.30700 42.52200
C  48.94900 49.09500 42.52100
C  47.97500 47.90900 42.69500
C  51.13600 48.59600 43.75800
C  48.58400 49.84900 41.20900
C  48.71300 51.40100 41.20100
N  45.91800 45.97000 43.02300
C  45.64700 47.28500 43.07100
C  44.20700 47.48800 43.30000
C  43.76600 46.14400 43.39400
C  44.81800 45.30400 43.16900
C  43.41500 48.72700 43.49800
C  42.53900 45.39200 43.67900
O  41.42400 45.80600 44.05800
C  42.90000 43.92500 43.45300
C  42.69100 43.16400 44.72900
O  43.40800 43.24700 45.66100
O  41.58200 42.43800 44.68400
C  41.20900 41.77300 45.89700
H  48.59700 40.49000 42.11200
H  51.70600 46.19900 42.00900
H  46.50800 49.31600 42.94000
H  44.45700 41.12900 43.59100
H  46.30700 40.23300 41.42400
H  45.58500 39.07000 43.57500
H  46.69400 40.18400 44.37800
H  47.39000 39.05400 43.30700
H  42.80500 41.03800 42.04600
H  44.08000 40.23700 41.10100
H  44.11000 43.00400 40.18100
H  42.47400 42.41500 40.50600
H  52.06400 40.42700 42.49000
H  52.15900 40.69400 40.72300
H  50.73200 40.03200 41.57200
H  52.91400 45.57200 40.32700
H  54.61300 45.06300 40.60400
H  53.61900 45.46600 41.94900
H  50.89800 48.58400 41.66500
H  48.80900 49.75200 43.38000
H  51.31600 47.65000 44.26900
H  50.54700 49.09000 44.53000
H  52.10800 49.03300 43.53000
H  47.52000 49.72400 41.00700
H  49.04500 49.46900 40.29700
H  49.46300 51.73800 40.48400
H  48.96700 51.77900 42.19200
H  47.73500 51.82400 40.97000
H  43.33500 49.20900 42.52300
H  43.89500 49.35800 44.24600
H  42.41800 48.45700 43.84600
H  42.20200 43.43400 42.77600
H  40.53800 40.93600 45.70300
H  40.71500 42.49500 46.54700
H  42.07000 41.32500 46.39300
Mg 47.10700 34.58100 28.05800
C  45.57000 32.82900 30.58500
C  47.33500 37.39500 30.35500
C  48.33300 36.57400 25.76200
C  46.27400 32.13700 25.83100
N  46.49300 35.00900 30.23900
C  45.96500 34.07400 31.03700
C  46.04800 34.65300 32.54100
C  46.23000 36.16700 32.38500
C  46.73800 36.17800 30.89200
C  44.91400 36.83300 32.42400
C  47.32400 34.03900 33.23600
C  47.24200 33.62000 34.75500
H  46.51200 34.66800 35.63600
N  47.80400 36.62700 28.12100
C  47.89100 37.56100 29.12700
C  48.57300 38.71700 28.72700
C  48.88300 38.54200 27.39000
C  48.24800 37.23200 27.00000
C  48.97300 39.85800 29.65000
C  49.72600 39.36000 26.53000
O  49.81100 39.10500 25.31200
C  50.42800 40.59400 27.07700
N  47.03400 34.49900 25.98200
C  47.80000 35.36000 25.29900
C  47.85600 34.77200 23.85800
C  47.58800 33.31200 24.04600
C  46.92900 33.30000 25.40700
C  46.83200 35.50700 22.84300
C  48.70400 32.25400 23.90900
C  48.58400 31.27000 22.66200
N  46.23400 32.77600 28.11800
C  45.89000 31.89400 27.14900
C  45.29000 30.63700 27.67200
C  45.09900 31.00400 29.06000
C  45.68100 32.25600 29.21700
C  44.98700 29.36600 26.93800
C  44.61300 30.58900 30.37100
O  44.20700 29.45900 30.73000
C  44.72700 31.80500 31.30100
C  45.30800 31.33800 32.59500
O  46.23100 30.51100 32.72400
O  44.63700 31.87300 33.62900
C  44.68800 31.14200 34.90000
H  47.53100 38.12300 31.14400
H  48.74300 37.03700 24.86200
H  46.15300 31.25700 25.19600
H  45.15800 34.32200 33.07600
H  46.90800 36.56300 33.14200
H  45.00800 37.90800 32.26600
H  44.41100 36.57300 33.35500
H  44.32600 36.46800 31.58200
H  48.18000 34.71100 33.18900
H  47.47400 33.09300 32.71500
H  48.25100 33.65300 35.16500
H  46.93100 32.58900 34.92100
H  49.77300 39.49300 30.29400
H  48.11100 39.99800 30.30200
H  49.22500 40.84000 29.24900
H  49.74000 41.43900 27.04100
H  51.19800 40.90300 26.37000
H  50.92800 40.37300 28.02000
H  48.89700 34.89700 23.56000
H  46.86800 33.02200 23.28200
H  47.40200 36.05600 22.09400
H  46.19200 36.21300 23.37200
H  46.22600 34.71600 22.40200
H  48.68900 31.58700 24.77100
H  49.67900 32.72900 23.79800
H  49.49900 31.47900 22.10800
H  47.74400 31.57000 22.03500
H  48.39200 30.24000 22.96100
H  44.01800 29.28400 26.44700
H  45.29900 28.47700 27.48600
H  45.67100 29.39500 26.09000
H  43.70400 32.13600 31.47600
H  43.80600 30.53600 35.10800
H  44.76100 31.91600 35.66500
H  45.53300 30.46100 35.00900

