158

Mg 47.36100 16.86100 27.83000
C  45.43000 16.83000 30.80400
C  49.85300 18.58400 29.61600
C  48.98800 17.20300 25.08100
C  44.57300 15.54900 26.12700
N  47.55900 17.67300 29.95100
C  46.62700 17.54500 30.95700
C  47.22100 18.14800 32.26700
C  48.46100 18.93700 31.71100
C  48.62500 18.35000 30.33400
C  48.29400 20.47800 31.75300
C  47.58200 16.94200 33.21200
C  47.16800 17.14400 34.65900
H  46.69900 18.54600 35.08000
N  49.16000 17.65100 27.39500
C  50.04700 18.22700 28.27200
C  51.25000 18.51200 27.55100
C  51.02700 18.24400 26.18500
C  49.73400 17.62100 26.17200
C  52.53200 19.04400 28.19500
C  51.93300 18.43100 24.96400
O  51.53000 18.10000 23.84900
C  53.30100 19.15800 24.99300
N  46.85200 16.34200 25.92800
C  47.75200 16.56000 24.94800
C  47.16000 16.21300 23.57600
C  45.78200 15.53400 24.02000
C  45.75100 15.74400 25.47100
C  47.04700 17.40000 22.53300
C  45.76800 13.96400 23.64200
C  44.79000 13.66200 22.47500
N  45.46600 16.22700 28.31200
C  44.41800 15.75100 27.50700
C  43.20100 15.60000 28.30600
C  43.58100 15.94800 29.59900
C  44.89900 16.34900 29.55900
C  41.79400 15.21900 27.79800
C  43.04900 16.14200 30.91400
O  41.91500 15.94200 31.29500
C  44.22100 16.75600 31.72200
C  43.80600 18.12100 32.21300
O  44.01000 19.17500 31.66900
O  43.19700 17.97900 33.37700
C  42.48600 19.13100 33.95300
H  50.62400 19.13600 30.15700
H  49.38900 17.20900 24.06600
H  43.75600 14.97600 25.68300
H  46.39100 18.73200 32.66300
H  49.33600 18.69600 32.31400
H  47.45300 20.78600 32.37400
H  48.26700 20.75600 30.70000
H  49.10400 21.08400 32.15900
H  48.65900 16.79300 33.13000
H  46.94600 16.14200 32.83300
H  47.90300 16.76500 35.36900
H  46.27200 16.56500 34.88500
H  53.44000 18.51900 27.89800
H  52.50100 18.89600 29.27400
H  52.62100 20.10400 27.95600
H  53.54400 19.16800 23.93100
H  54.04000 18.67500 25.63400
H  53.17500 20.16400 25.39200
H  47.86500 15.44400 23.26300
H  44.90000 16.03800 23.62600
H  46.03300 17.35500 22.13600
H  47.74300 17.11000 21.74600
H  47.37500 18.32500 23.00700
H  45.49400 13.36600 24.51100
H  46.77600 13.56000 23.53900
H  45.08500 14.18800 21.56700
H  43.81800 14.01100 22.82300
H  44.62300 12.58600 22.42100
H  41.63500 15.56200 26.77500
H  41.10500 15.77600 28.43300
H  41.48200 14.17700 27.85800
H  44.45900 16.10800 32.56600
H  42.25400 19.76300 33.09600
H  43.11400 19.53200 34.74800
H  41.53700 18.84400 34.40800
Mg 1.65300 41.02100 25.74500
C  2.74400 41.37600 28.99800
C  -1.30700 39.86700 26.78600
C  1.23200 40.28300 22.47600
C  4.94100 42.23500 24.70800
N  0.70000 40.97400 27.67100
C  1.40900 41.00800 28.88600
C  0.35500 40.86200 30.00800
C  -0.80600 40.09000 29.33900
C  -0.45800 40.27000 27.83000
C  -0.92200 38.60600 29.63500
C  -0.04700 42.24200 30.64900
C  -0.08900 42.33800 32.17400
H  -0.87900 41.18800 32.84200
N  0.19100 40.19800 24.77000
C  -1.03400 39.83800 25.37500
C  -1.94800 39.41700 24.28700
C  -1.20900 39.37100 23.06300
C  0.13500 39.94300 23.39400
C  -3.38400 38.98800 24.66500
C  -1.60900 39.04300 21.62700
O  -0.86700 39.05000 20.68900
C  -3.05100 38.71000 21.36300
N  2.86400 41.38800 23.81500
C  2.44300 40.90600 22.69100
C  3.48300 41.16700 21.55100
C  4.46700 42.06600 22.19200
C  4.08200 41.87300 23.70300
C  4.19600 39.92700 20.85300
C  4.49000 43.56200 21.69700
C  3.16900 44.33100 21.98200
N  3.48500 41.72200 26.65700
C  4.71200 42.06200 26.08900
C  5.62300 42.42400 27.13800
C  4.95600 42.20300 28.37600
C  3.65700 41.77000 27.99400
C  7.05400 42.80000 26.87700
C  4.99900 42.10100 29.77300
O  5.89600 42.32600 30.56100
C  3.53800 41.62200 30.25200
C  3.63000 40.40400 31.13700
O  4.28200 39.32900 30.93700
O  2.91200 40.66100 32.26100
C  2.71800 39.50100 33.06600
H  -2.22600 39.39800 27.14400
H  1.27100 40.00100 21.42200
H  5.88700 42.69500 24.41500
H  0.77900 40.24900 30.80300
H  -1.73000 40.58800 29.63600
H  -0.10100 38.23500 30.24800
H  -0.87800 38.07600 28.68300
H  -1.85000 38.27300 30.10000
H  -0.98600 42.65100 30.27500
H  0.69200 42.98000 30.33800
H  -0.48200 43.32500 32.41500
H  0.93500 42.34500 32.54700
H  -4.08700 38.99000 23.83200
H  -3.81200 39.60600 25.45500
H  -3.45700 37.98900 25.09400
H  -3.66800 39.59900 21.49600
H  -3.46100 37.83800 21.87200
H  -3.19700 38.51100 20.30100
H  2.84400 41.68500 20.83500
H  5.51400 41.76400 22.15500
H  4.27800 39.15200 21.61500
H  5.21100 40.26200 20.63800
H  3.64500 39.53600 19.99700
H  4.51400 43.44700 20.61400
H  5.35400 44.08800 22.10300
H  3.15800 45.10600 21.21500
H  3.31700 44.72400 22.98800
H  2.24300 43.75900 22.02300
H  7.28800 43.56200 27.62000
H  7.28000 43.24300 25.90700
H  7.65400 41.89100 26.84700
H  2.96900 42.37400 30.79900
H  2.47900 38.55500 32.58000
H  1.78600 39.83300 33.52200
H  3.45900 39.38600 33.85700

