158

Mg -10.96700 39.60900 40.82500
C  -9.82400 36.44500 39.65300
C  -7.95600 40.96800 39.85700
C  -12.42000 42.55200 41.14500
C  -14.00000 38.02000 41.88700
N  -9.17900 38.76700 39.63200
C  -8.91900 37.46700 39.46200
C  -7.44200 37.25900 39.07100
C  -6.79600 38.66000 39.48100
C  -8.03800 39.50400 39.63800
C  -5.89900 38.67500 40.74800
C  -7.08800 36.80400 37.61600
C  -8.09100 37.23200 36.54200
H  -8.66600 36.12900 35.70200
N  -10.25800 41.54600 40.71000
C  -9.04700 41.85200 40.15600
C  -8.96300 43.32400 40.06500
C  -10.29300 43.83000 40.31500
C  -11.07600 42.63000 40.74500
C  -7.68400 43.96200 39.80000
C  -10.74500 45.23200 40.05700
O  -9.88900 46.03900 39.65500
C  -12.21600 45.62000 40.07400
N  -12.86500 40.21100 41.56400
C  -13.22500 41.52000 41.57500
C  -14.68100 41.60600 42.05400
C  -15.08800 40.24100 42.53700
C  -13.91700 39.40300 41.89000
C  -15.00300 42.82800 43.02500
C  -16.48600 39.88000 41.93100
C  -17.58200 39.61900 42.98800
N  -11.77400 37.63100 40.83700
C  -13.00200 37.14100 41.33700
C  -12.97100 35.64300 41.11100
C  -11.76500 35.36300 40.40800
C  -11.08100 36.60000 40.29300
C  -14.06000 34.75900 41.59000
C  -10.93700 34.31700 39.85500
O  -11.10300 33.09400 39.82500
C  -9.57500 34.98400 39.47400
C  -8.59500 34.52500 40.44100
O  -8.49700 34.76800 41.68400
O  -7.72000 33.65900 39.76700
C  -6.80200 32.85500 40.64500
H  -6.97400 41.29900 39.51500
H  -13.02800 43.44400 41.30900
H  -14.92800 37.50700 42.14900
H  -7.01900 36.52000 39.75200
H  -6.05900 38.98400 38.74600
H  -5.65400 37.63200 40.95000
H  -6.49400 39.13200 41.53900
H  -5.02600 39.31800 40.63300
H  -6.82000 35.74800 37.59000
H  -6.09600 37.12800 37.30100
H  -7.49400 37.79100 35.82200
H  -8.96100 37.76100 36.92900
H  -7.77000 45.04200 39.91100
H  -7.25900 43.77000 38.81500
H  -7.02100 43.57000 40.57100
H  -12.70600 45.79400 41.03200
H  -12.71500 44.85700 39.47600
H  -12.25500 46.60200 39.60100
H  -15.13600 41.79000 41.08100
H  -14.92200 40.21400 43.61400
H  -15.10500 43.73400 42.42700
H  -14.13600 42.99300 43.66500
H  -15.85300 42.59000 43.66500
H  -16.36700 38.93100 41.41000
H  -16.76500 40.61300 41.17300
H  -17.14200 39.73300 43.97900
H  -18.04500 38.63300 43.02300
H  -18.41100 40.31300 42.85400
H  -14.74300 35.20900 42.31100
H  -13.68700 33.86100 42.08200
H  -14.84100 34.45700 40.89100
H  -9.34200 34.68800 38.45200
H  -5.77000 32.99000 40.32300
H  -6.95100 31.77600 40.59200
H  -6.65300 33.32700 41.61600
Mg -5.97700 25.19400 26.01900
C  -4.63000 26.51100 29.16400
C  -7.65500 22.83800 27.97100
C  -6.48700 23.60000 23.38400
C  -3.81300 27.48700 24.50100
N  -6.10600 24.73600 28.30300
C  -5.47600 25.38400 29.34700
C  -5.92500 24.83100 30.79300
C  -6.64400 23.44300 30.29300
C  -6.88000 23.65400 28.76000
C  -5.86500 22.18000 30.64600
C  -6.74500 25.96000 31.47600
C  -6.65100 26.15500 32.99400
H  -6.07800 24.98400 33.77600
N  -7.15300 23.56300 25.64300
C  -7.80700 22.70800 26.54400
C  -8.51800 21.76600 25.85000
C  -8.23800 21.90300 24.43500
C  -7.26500 23.02800 24.43200
C  -9.44000 20.78000 26.57700
C  -8.75000 21.14100 23.27900
O  -8.30300 21.43300 22.14000
C  -9.86900 20.16300 23.42200
N  -5.33200 25.57700 24.24500
C  -5.63300 24.71100 23.25000
C  -4.91700 25.03600 21.89100
C  -4.22500 26.40200 22.33800
C  -4.51000 26.55700 23.81100
C  -3.92900 23.92700 21.47000
C  -4.74600 27.54000 21.41700
C  -3.73400 28.56000 20.93400
N  -4.66500 26.81900 26.67900
C  -3.95300 27.68700 25.88600
C  -3.24700 28.64500 26.71200
C  -3.42400 28.22300 27.99500
C  -4.30200 27.08000 27.92200
C  -2.42300 29.75900 26.09200
C  -3.09200 28.48200 29.35900
O  -2.44000 29.33400 29.89400
C  -3.93300 27.41300 30.17100
C  -2.99300 26.65500 31.07400
O  -2.19300 25.82400 30.70800
O  -3.16700 26.94100 32.37200
C  -2.34200 26.39500 33.38300
H  -8.14800 22.14200 28.65300
H  -6.56100 23.03500 22.45300
H  -3.27500 28.23300 23.91300
H  -4.99900 24.58100 31.31000
H  -7.58200 23.35000 30.84000
H  -4.88800 22.38500 31.08300
H  -5.74000 21.60400 29.72800
H  -6.47000 21.55800 31.30500
H  -7.80600 25.78100 31.30300
H  -6.45100 26.95600 31.14600
H  -7.67200 26.30200 33.34500
H  -5.98400 26.98600 33.22100
H  -10.50400 20.86600 26.35600
H  -9.38900 20.73900 27.66500
H  -9.03900 19.79800 26.32700
H  -9.59800 19.36900 24.11700
H  -9.99900 19.68300 22.45200
H  -10.77200 20.66300 23.77000
H  -5.72000 25.17500 21.16700
H  -3.15600 26.33900 22.13200
H  -4.09500 23.74500 20.40800
H  -4.10100 22.99500 22.00900
H  -2.91600 24.30300 21.61700
H  -5.41400 28.17100 22.00400
H  -5.22100 27.24400 20.48200
H  -4.15800 29.56300 20.98600
H  -3.41300 28.23300 19.94500
H  -2.95300 28.53700 21.69300
H  -2.99200 30.33200 25.36000
H  -1.56400 29.31900 25.58500
H  -2.09200 30.39000 26.91800
H  -4.59200 28.02400 30.78900
H  -1.96900 25.41700 33.07900
H  -2.78700 26.11100 34.33700
H  -1.50000 27.04900 33.60900

