158

Mg -1.66300 16.68400 27.16500
C  -2.00200 14.39900 29.78600
C  -2.70200 19.13800 29.27900
C  -1.81900 18.74100 24.53000
C  -1.44200 14.01300 25.04500
N  -2.08600 16.74700 29.32000
C  -2.00600 15.75800 30.24300
C  -2.06200 16.28700 31.71900
C  -2.40300 17.83800 31.50700
C  -2.43900 17.87200 29.92400
C  -3.71800 18.38000 32.13300
C  -0.77700 15.97600 32.54700
C  -0.44900 17.01300 33.65900
H  0.26700 16.48000 34.96700
N  -2.01800 18.72700 26.95800
C  -2.44500 19.59400 27.96200
C  -2.55200 20.94400 27.41000
C  -2.10000 20.82300 26.05400
C  -1.97000 19.37900 25.77500
C  -2.93500 22.16600 28.31600
C  -1.91100 21.86600 24.92200
O  -1.43100 21.57200 23.83600
C  -2.36700 23.31000 25.07400
N  -1.74800 16.40900 25.05800
C  -1.69400 17.39000 24.17400
C  -1.60400 16.93000 22.72600
C  -1.53900 15.42700 22.86700
C  -1.49100 15.26100 24.41300
C  -2.75500 17.44100 21.73500
C  -0.54500 14.61200 22.04300
C  0.88000 14.65300 22.68300
N  -1.71700 14.60200 27.30300
C  -1.53500 13.63600 26.34900
C  -1.57800 12.35300 26.87600
C  -1.80200 12.59000 28.25200
C  -1.90200 13.94300 28.48700
C  -1.50700 11.03100 26.17900
C  -1.98700 11.96000 29.52100
O  -2.00000 10.76300 29.91200
C  -2.22600 13.12600 30.54600
C  -1.49400 12.89900 31.79100
O  -0.32700 12.57000 31.74300
O  -2.22900 13.02800 32.96800
C  -1.48500 12.67700 34.22400
H  -2.74800 19.91700 30.04200
H  -1.91500 19.38400 23.65400
H  -1.12200 13.13200 24.48400
H  -2.82200 15.79500 32.32600
H  -1.54700 18.41800 31.85300
H  -4.30100 18.85400 31.34400
H  -3.42700 19.17500 32.81900
H  -4.37800 17.65700 32.61200
H  -0.00200 15.89000 31.78400
H  -0.97500 15.10400 33.17000
H  -1.45700 17.35000 33.90200
H  0.04300 17.83500 33.14000
H  -3.97700 22.18500 28.63900
H  -2.64300 23.05200 27.75200
H  -2.31000 22.12600 29.20800
H  -1.74800 23.74200 25.86100
H  -3.35900 23.17900 25.50700
H  -2.37200 23.73900 24.07200
H  -0.68200 17.38600 22.36500
H  -2.57600 15.14300 22.68300
H  -3.51400 16.70300 21.47400
H  -2.29800 17.60600 20.76000
H  -3.21500 18.32600 22.17400
H  -0.58500 15.10500 21.07100
H  -0.87600 13.57800 21.94800
H  1.60800 15.02000 21.95900
H  1.14000 13.62800 22.94800
H  0.96600 15.28600 23.56600
H  -1.84400 11.01900 25.14300
H  -2.07300 10.28200 26.73300
H  -0.44900 10.76800 26.16000
H  -3.27400 13.25700 30.81400
H  -2.26200 12.33900 34.91000
H  -0.97400 13.52100 34.68800
H  -0.85900 11.82200 33.97200
Mg 9.16200 3.33100 27.97200
C  10.60700 1.71600 30.79200
C  7.70300 5.51700 30.05600
C  7.67100 4.50800 25.38200
C  10.41400 0.61500 25.91800
N  9.04800 3.43300 30.20100
C  9.87200 2.83400 31.13500
C  9.76000 3.59800 32.52200
C  8.73100 4.69200 32.24700
C  8.48700 4.54500 30.75100
C  7.35100 4.50800 32.97100
C  11.19100 4.09300 33.11100
C  11.59000 3.68400 34.58800
H  10.51500 3.88500 35.66700
N  7.88500 4.83300 27.76300
C  7.39400 5.63900 28.70000
C  6.61500 6.63400 28.09100
C  6.56500 6.41900 26.63200
C  7.42600 5.24200 26.49500
C  5.98300 7.75100 28.95400
C  6.00200 7.26100 25.57300
O  5.94400 6.93000 24.38200
C  5.41100 8.62700 25.93800
N  9.10300 2.65900 25.89600
C  8.37900 3.36700 25.07700
C  8.39500 2.71200 23.64500
C  9.36800 1.51700 23.82000
C  9.67100 1.57100 25.29000
C  6.98700 2.35000 23.09700
C  10.62000 1.78100 22.92600
C  11.08800 0.43000 22.31600
N  10.23000 1.52800 28.22200
C  10.70800 0.60500 27.30100
C  11.51700 -0.37800 28.04000
C  11.49100 0.08600 29.35400
C  10.68800 1.19600 29.46500
C  12.17200 -1.54300 27.47900
C  12.00500 -0.21800 30.67100
O  12.75300 -1.10800 30.94600
C  11.46500 0.88300 31.73500
C  10.58700 0.17300 32.73700
O  9.60600 -0.45100 32.41200
O  10.87700 0.55300 34.07700
C  10.05100 -0.14900 35.11400
H  7.22400 6.21400 30.74800
H  7.22000 4.94000 24.48600
H  10.89400 -0.16200 25.32000
H  9.41000 2.88900 33.27200
H  9.21100 5.66200 32.36900
H  7.40800 4.02100 33.94400
H  6.77800 3.85800 32.31000
H  6.87700 5.49000 32.99400
H  11.37600 5.16200 33.00700
H  11.91900 3.62000 32.45100
H  12.28300 4.47500 34.87700
H  11.97800 2.67500 34.73000
H  6.47000 8.68300 28.66600
H  6.16500 7.64700 30.02400
H  4.91300 7.91400 28.82500
H  6.31500 9.08800 26.33700
H  4.60700 8.44800 26.65100
H  4.97500 9.19100 25.11300
H  8.67800 3.45500 22.90000
H  8.82600 0.61500 23.53600
H  6.68200 1.30300 23.10000
H  6.97000 2.59100 22.03500
H  6.16000 2.92500 23.51500
H  11.51200 2.05700 23.48900
H  10.51200 2.50500 22.11900
H  10.80800 0.44000 21.26200
H  10.65100 -0.46900 22.75100
H  12.17200 0.35000 22.39200
H  13.03400 -1.85500 28.06700
H  12.53600 -1.24100 26.49700
H  11.36000 -2.26000 27.35300
H  12.30900 1.43600 32.14800
H  9.31600 0.52200 35.55900
H  10.80900 -0.43200 35.84400
H  9.62100 -1.05000 34.67600

