158

Mg 1.06800 8.16200 27.24800
C  1.20200 10.58200 29.83400
C  1.45100 5.74100 29.76200
C  1.36200 5.66700 24.94200
C  1.28000 10.52800 24.92100
N  1.27700 8.18200 29.52500
C  1.10200 9.26000 30.35000
C  1.10900 8.89000 31.84300
C  1.30300 7.37300 31.79300
C  1.31200 7.04200 30.28500
C  2.62700 6.86100 32.56000
C  -0.14600 9.46800 32.56400
C  -0.02200 9.89000 34.08400
H  -0.66900 8.86800 35.03500
N  1.18000 5.99100 27.27100
C  1.33900 5.26300 28.42900
C  1.35400 3.85700 28.06800
C  1.17600 3.80200 26.65700
C  1.19700 5.18300 26.21000
C  1.53700 2.65700 28.99800
C  1.06600 2.58900 25.76800
O  0.84400 2.65800 24.55300
C  1.02900 1.23100 26.37200
N  1.26500 8.12200 25.26400
C  1.38500 7.00900 24.48300
C  1.43700 7.35300 22.98400
C  1.48000 8.91000 22.96700
C  1.28800 9.19900 24.47300
C  2.53800 6.70200 22.06900
C  0.31100 9.64300 22.18000
C  0.76100 10.56300 21.02300
N  1.18500 10.20500 27.30200
C  1.25100 11.04700 26.25200
C  1.41200 12.39500 26.79200
C  1.48600 12.30000 28.18400
C  1.27800 10.92400 28.43300
C  1.71600 13.59600 25.98200
C  1.70400 13.04800 29.44900
O  1.96300 14.23800 29.64700
C  1.42900 11.91000 30.58800
C  2.65800 11.84300 31.49900
O  3.71500 11.30000 31.28800
O  2.17100 12.42100 32.61700
C  3.11400 12.30800 33.75600
H  1.59300 4.96400 30.51700
H  1.23400 4.84300 24.23700
H  1.27500 11.41200 24.28000
H  1.98800 9.25000 32.37700
H  0.45000 6.88600 32.26500
H  3.19200 7.60700 33.11800
H  3.32500 6.37200 31.88100
H  2.29900 6.02100 33.17300
H  -0.97300 8.75800 32.56700
H  -0.59100 10.26700 31.97100
H  -0.39400 10.87000 34.38200
H  1.04400 9.93700 34.30900
H  2.23900 1.92500 28.59800
H  0.52700 2.32300 29.23600
H  2.04900 2.95000 29.91500
H  0.41000 1.06500 27.25400
H  2.05600 1.06400 26.69600
H  0.91100 0.41000 25.66500
H  0.49900 7.02900 22.53100
H  2.40800 9.30300 22.55100
H  3.39800 6.24400 22.55700
H  2.95300 7.43500 21.37700
H  2.04100 5.93600 21.47300
H  -0.35000 10.09200 22.92100
H  -0.39800 8.91200 21.79100
H  1.81400 10.84100 20.98000
H  0.14700 11.46200 20.97400
H  0.68100 10.10900 20.03500
H  2.53500 13.30200 25.32600
H  1.94700 14.46400 26.59900
H  0.80900 13.79900 25.41300
H  0.53600 12.15700 31.16300
H  3.98000 11.66300 33.61200
H  2.54200 11.85600 34.56600
H  3.19300 13.34300 34.08800
Mg 50.31500 46.63600 41.67400
C  47.10200 46.98700 40.26600
C  50.08700 43.38000 40.78500
C  53.65800 46.45300 41.74000
C  50.47200 50.01600 42.05200
N  48.69900 45.39700 40.79600
C  47.48900 45.66300 40.32600
C  46.66900 44.47500 39.86900
C  47.57000 43.30200 40.40500
C  48.88800 44.05800 40.73400
C  47.02700 42.48800 41.60700
C  46.34100 44.49300 38.31900
C  44.96700 44.10400 37.85600
H  44.78200 43.21700 36.59800
N  51.72300 45.11000 41.47500
C  51.39000 43.83400 41.07100
C  52.55400 43.02200 41.05500
C  53.71300 43.80400 41.42100
C  53.09700 45.17900 41.61100
C  52.42900 41.62000 40.70700
C  55.19600 43.38800 41.58200
O  55.48800 42.21800 41.57100
C  56.27900 44.36700 42.05600
N  51.91600 48.07300 41.76500
C  53.17000 47.72600 41.91800
C  54.12300 48.95000 42.06500
C  53.01900 50.15400 42.29500
C  51.71800 49.42600 41.96100
C  55.26400 48.91100 43.11600
C  53.33600 51.45300 41.39200
C  53.35700 52.84700 42.18600
N  48.97300 48.29000 41.37400
C  49.22100 49.62900 41.60500
C  48.08600 50.38100 41.11000
C  47.17800 49.38300 40.54500
C  47.84200 48.17200 40.68600
C  47.88200 51.87900 41.36500
C  45.94500 49.11000 39.95800
O  44.98500 49.87900 39.58000
C  45.79800 47.53700 39.76000
C  44.68000 47.32900 40.69700
O  44.81700 47.28700 41.94100
O  43.58000 47.08700 39.89400
C  42.41400 46.70200 40.75900
H  50.12200 42.29100 40.70200
H  54.74800 46.38300 41.74400
H  50.57600 51.07500 42.29800
H  45.75600 44.56300 40.45800
H  47.96300 42.59800 39.67200
H  45.96300 42.68500 41.74600
H  47.55900 42.78800 42.50900
H  47.15800 41.42500 41.40700
H  46.95500 43.67700 37.93800
H  46.68600 45.44600 37.91800
H  44.53600 45.05300 37.53500
H  44.41100 43.73800 38.71900
H  52.08000 41.56500 39.67600
H  51.77100 41.00700 41.32200
H  53.36100 41.05500 40.69300
H  55.86100 44.98800 42.84800
H  56.61200 44.97900 41.21800
H  57.01200 43.76900 42.59800
H  54.69900 49.01100 41.14100
H  53.06300 50.46800 43.33800
H  56.06100 48.63300 42.42500
H  55.14700 48.11200 43.84800
H  55.44900 49.88500 43.56900
H  52.53400 51.51800 40.65700
H  54.29100 51.36500 40.87500
H  54.19400 53.44200 41.82100
H  53.43700 52.63700 43.25300
H  52.41500 53.31600 41.90200
H  47.98700 52.45700 40.44700
H  48.52300 52.25300 42.16300
H  46.82100 52.05400 41.54000
H  45.51500 47.34800 38.72400
H  41.69400 47.49100 40.97600
H  42.60700 46.04300 41.60600
H  41.89700 46.02800 40.07700

