158

Mg -2.52400 17.12600 27.79000
C  -2.93400 15.02800 30.55800
C  -3.14300 19.95500 30.01100
C  -2.35400 19.15800 25.23800
C  -2.63600 14.38400 25.60900
N  -2.97200 17.41200 30.02300
C  -3.00500 16.38700 30.90000
C  -3.27700 16.93300 32.30800
C  -3.30700 18.52900 32.13800
C  -3.17300 18.66900 30.69300
C  -4.38300 19.31000 32.88800
C  -2.24500 16.53400 33.44200
C  -2.21300 17.25900 34.79800
H  -1.92600 16.40700 36.04600
N  -2.64400 19.26000 27.59700
C  -2.88100 20.20600 28.59900
C  -2.83200 21.56900 28.05100
C  -2.57000 21.43200 26.65400
C  -2.53500 19.92200 26.40200
C  -2.86700 22.84200 28.88500
C  -2.29300 22.46100 25.62300
O  -2.23000 22.16900 24.44100
C  -1.94400 23.84700 26.04400
N  -2.57400 16.85400 25.71400
C  -2.36200 17.88500 24.86900
C  -2.23800 17.35900 23.41100
C  -2.37800 15.79500 23.57300
C  -2.56400 15.66400 25.04400
C  -3.33800 17.97700 22.40300
C  -1.19400 15.06000 22.90600
C  0.22400 14.95000 23.55600
N  -2.59700 15.19500 27.94300
C  -2.69700 14.17800 26.99000
C  -2.85300 12.83700 27.63300
C  -2.88600 13.18200 29.00900
C  -2.78600 14.67200 29.16600
C  -3.09900 11.53200 27.05700
C  -3.09400 12.58200 30.35800
O  -3.27800 11.43700 30.70500
C  -3.13200 13.75600 31.43100
C  -2.00200 13.44300 32.34100
O  -0.85700 13.75900 32.15500
O  -2.46300 12.70100 33.38600
C  -1.45300 12.26800 34.35000
H  -3.14900 20.73200 30.77800
H  -2.21300 19.79700 24.36300
H  -2.61600 13.54000 24.91700
H  -4.24500 16.60500 32.68600
H  -2.36600 18.97500 32.46200
H  -5.19400 19.73500 32.29700
H  -3.87400 20.07900 33.46800
H  -4.85200 18.65200 33.62000
H  -1.22900 16.54400 33.04800
H  -2.51900 15.52500 33.75100
H  -3.16900 17.75400 34.97100
H  -1.50800 18.06400 34.58700
H  -1.89600 23.29900 29.07700
H  -3.33100 22.73700 29.86600
H  -3.45800 23.53800 28.28900
H  -1.51100 24.40700 25.21500
H  -1.10500 23.85400 26.74100
H  -2.78900 24.36100 26.50100
H  -1.34500 17.69300 22.88200
H  -3.35500 15.45900 23.22600
H  -3.89200 18.68300 23.02100
H  -3.92100 17.11500 22.07800
H  -2.87200 18.36800 21.49900
H  -1.03100 15.59400 21.96900
H  -1.52700 14.03600 22.73800
H  0.68200 15.92100 23.74300
H  0.88500 14.26100 23.02900
H  -0.02100 14.40600 24.46900
H  -3.70000 11.73500 26.17000
H  -3.55700 11.02400 27.90500
H  -2.12000 11.08000 26.89500
H  -4.09500 13.77800 31.94100
H  -0.63200 11.69000 33.92600
H  -1.89300 11.55000 35.04200
H  -1.04500 13.09800 34.92700
Mg 47.26800 25.43700 27.93700
C  48.75500 27.37100 30.46000
C  45.84700 23.53600 30.26000
C  46.68500 23.24800 25.49600
C  49.36200 27.29100 25.63800
N  47.37700 25.53500 30.17900
C  47.81800 26.44900 30.98000
C  47.25400 26.40100 32.37900
C  46.44000 25.07500 32.36900
C  46.53700 24.69700 30.84000
C  46.93700 24.03800 33.43000
C  46.41800 27.65700 32.89700
C  46.94100 28.30300 34.21200
H  45.90200 28.49300 35.30600
N  46.25900 23.73600 27.88500
C  45.78200 23.04500 29.00900
C  45.12700 21.86800 28.57800
C  45.39900 21.74000 27.20600
C  46.21900 22.91900 26.81800
C  44.53600 20.92300 29.55700
C  45.03200 20.54000 26.30100
O  45.43300 20.47000 25.07900
C  44.15100 19.52100 26.80800
N  48.16200 25.13600 25.88700
C  47.56200 24.25000 25.05300
C  47.86200 24.53400 23.58100
C  48.26500 26.02000 23.69400
C  48.64900 26.19000 25.11400
C  48.97500 23.63300 22.98700
C  47.16500 27.01500 23.30700
C  47.37900 28.57200 23.30200
N  48.68800 26.99000 27.93200
C  49.37200 27.67500 26.96300
C  50.17100 28.77500 27.54700
C  49.91900 28.64300 28.93600
C  49.02200 27.59000 29.13700
C  51.03900 29.73700 26.83100
C  50.12100 29.34600 30.10800
O  50.74000 30.39200 30.31400
C  49.42900 28.49000 31.23100
C  50.42300 28.13400 32.24700
O  51.48600 27.60100 32.10500
O  49.93900 28.55300 33.45900
C  50.88500 28.54700 34.65100
H  45.29900 23.04500 31.06600
H  46.51600 22.57300 24.65400
H  49.88200 27.95400 24.94300
H  48.13500 26.18600 32.98300
H  45.41400 25.30800 32.65400
H  47.30700 24.49900 34.34600
H  47.59400 23.32100 32.93600
H  46.01700 23.52400 33.70800
H  45.38200 27.33900 33.01300
H  46.44700 28.43000 32.12800
H  47.27300 29.30300 33.93300
H  47.78100 27.72200 34.59200
H  43.69200 20.34000 29.18700
H  44.21700 21.33500 30.51500
H  45.42400 20.31200 29.71800
H  44.63000 18.97300 27.61900
H  43.96700 18.79400 26.01700
H  43.15600 19.90300 27.03500
H  46.90600 24.57800 23.05900
H  49.09300 26.17000 23.00200
H  49.00000 22.85400 23.74900
H  49.95000 24.12000 22.98800
H  48.76500 23.24800 21.98900
H  46.27300 26.91700 23.92600
H  46.74500 26.72700 22.34300
H  48.45100 28.67100 23.46900
H  47.03000 28.97000 24.25500
H  47.04300 29.10000 22.41000
H  51.77400 29.12400 26.31000
H  51.62000 30.39100 27.48200
H  50.53200 30.35000 26.08500
H  48.61500 29.04500 31.69800
H  51.48900 27.64000 34.63900
H  50.48200 28.47900 35.66200
H  51.53900 29.37600 34.38000

