158

Mg 49.39000 44.55500 42.95700
C  45.99100 45.16300 42.40000
C  48.72900 41.21600 42.29500
C  52.70900 43.97300 42.77200
C  49.94100 47.94500 43.04400
N  47.59300 43.34200 42.29500
C  46.32800 43.80100 42.06600
C  45.44700 42.62400 41.58700
C  46.28000 41.38000 42.16000
C  47.64600 42.04500 42.15100
C  45.86500 40.88500 43.58900
C  45.28800 42.55000 40.03400
C  43.85400 42.27900 39.51100
H  43.44000 42.91700 38.28700
N  50.56800 42.81500 42.73400
C  50.12900 41.52900 42.50700
C  51.19000 40.68800 42.50200
C  52.36200 41.38400 42.72200
C  51.93200 42.74800 42.81600
C  51.03300 39.23500 42.27900
C  53.77100 40.83500 42.66900
O  53.95800 39.64100 42.37000
C  54.97500 41.68600 42.90900
N  51.09400 45.73900 42.75200
C  52.33800 45.28100 42.81800
C  53.37700 46.49200 42.93600
C  52.47300 47.74000 43.03100
C  51.07100 47.13700 42.80800
C  54.34500 46.37700 44.13600
C  52.74900 48.88200 42.09800
C  52.75500 50.34100 42.78800
N  48.23200 46.27800 42.93200
C  48.57200 47.56200 43.00600
C  47.34000 48.33600 43.14700
C  46.27900 47.44900 42.95200
C  46.91200 46.20300 42.76400
C  47.26600 49.89000 43.29000
C  44.91500 47.35600 42.80500
O  44.09900 48.21200 42.97600
C  44.62900 45.81400 42.48900
C  43.88600 45.06800 43.50000
O  44.27800 44.63700 44.54900
O  42.62800 44.67700 43.01500
C  41.70300 43.98700 43.92300
H  48.53200 40.18400 42.00100
H  53.79900 44.01200 42.84000
H  50.13400 48.98200 43.32800
H  44.49500 42.66500 42.11500
H  46.30100 40.50200 41.51500
H  44.77800 40.86200 43.66300
H  46.26400 41.60300 44.30500
H  46.20300 39.87100 43.80500
H  46.03300 41.86400 39.63000
H  45.54500 43.55400 39.69700
H  43.16800 42.55600 40.31100
H  43.86600 41.19500 39.39800
H  51.70300 38.58500 42.84100
H  51.19500 39.04000 41.21900
H  50.02000 38.87200 42.45300
H  55.19400 42.22000 41.98500
H  55.76600 40.93600 42.91700
H  54.83000 42.24500 43.83400
H  53.95700 46.54600 42.01500
H  52.44800 48.14500 44.04300
H  54.18700 47.12600 44.91200
H  55.31300 46.60200 43.68900
H  54.28400 45.37100 44.55000
H  51.96100 48.87700 41.34500
H  53.71600 48.78900 41.60400
H  53.72500 50.82600 42.89800
H  52.26800 50.25700 43.76000
H  52.11000 51.03800 42.25200
H  48.24100 50.33200 43.49300
H  46.61300 50.17100 44.11700
H  46.76700 50.31300 42.41700
H  44.18200 45.65700 41.50700
H  41.86800 44.38100 44.92600
H  41.98200 42.93400 43.88900
H  40.65700 44.14000 43.66000
Mg 31.12600 58.45200 40.29600
C  28.18800 56.88500 39.44400
C  32.84500 55.58600 39.40200
C  33.96800 60.20100 39.86700
C  29.26600 61.38600 40.54300
N  30.60600 56.46300 39.47400
C  29.32100 56.03900 39.24800
C  29.37300 54.55100 38.83800
C  30.76000 54.13900 39.28000
C  31.48500 55.49500 39.37600
C  30.73900 53.45600 40.66100
C  29.07300 54.37600 37.31800
C  27.78000 53.77500 36.80000
H  27.04600 54.59100 35.74900
N  33.15400 57.94100 39.74300
C  33.64500 56.70600 39.43100
C  35.07500 56.78100 39.17300
C  35.40000 58.14400 39.28600
C  34.16300 58.80600 39.69000
C  35.89100 55.54000 38.81000
C  36.76000 58.75100 39.11800
O  37.72000 58.05300 38.81500
C  37.00800 60.16300 39.51800
N  31.56400 60.46800 40.27500
C  32.82000 60.96500 40.12600
C  32.77800 62.53600 40.03200
C  31.24600 62.88100 40.08300
C  30.61600 61.53500 40.44000
C  33.70600 63.36900 40.94200
C  30.60800 63.54300 38.75900
C  29.84800 64.87600 38.93800
N  29.05300 59.05800 40.22400
C  28.43700 60.25000 40.45600
C  27.03300 60.07600 40.34400
C  26.88200 58.75700 39.96000
C  28.15300 58.16600 39.95600
C  26.04900 61.18700 40.49700
C  25.94700 57.78300 39.47300
O  24.75700 57.97400 39.21200
C  26.72900 56.45000 39.26800
C  26.05600 55.45700 40.18900
O  26.13200 55.41500 41.37900
O  25.35900 54.55200 39.47200
C  24.57800 53.53900 40.18200
H  33.35500 54.63800 39.21900
H  34.74800 60.92500 39.62000
H  28.71800 62.28900 40.81800
H  28.64200 53.98400 39.41400
H  31.16800 53.51400 38.48600
H  30.01400 52.64500 40.72900
H  30.52900 54.15800 41.46700
H  31.72300 53.01000 40.81000
H  29.86000 53.77200 36.86600
H  29.26800 55.28800 36.75200
H  27.15600 53.75200 37.69300
H  28.04600 52.77900 36.44600
H  36.25400 55.79400 37.81500
H  35.36000 54.59200 38.73500
H  36.69400 55.44700 39.54200
H  36.67800 60.81900 38.71300
H  38.08800 60.30800 39.53500
H  36.69700 60.44000 40.52600
H  33.04000 62.71100 38.98800
H  31.00000 63.54100 40.91500
H  33.97300 62.70000 41.76000
H  33.18900 64.12800 41.52900
H  34.45600 63.98200 40.44200
H  29.91600 62.87800 38.24200
H  31.39400 63.78200 38.04300
H  29.94400 65.20800 39.97200
H  28.85500 64.81500 38.49300
H  30.38100 65.64100 38.37300
H  25.04700 60.84900 40.76100
H  26.04700 61.74000 39.55800
H  26.33500 61.73400 41.39500
H  26.66900 56.06700 38.24900
H  23.82200 53.83800 40.90900
H  25.29900 52.93200 40.72900
H  24.14600 52.87800 39.43100

