158

Mg 54.17700 24.28100 45.32000
C  51.55700 26.55700 44.27900
C  52.22100 21.73600 43.85800
C  56.80300 22.39900 45.10200
C  55.98700 27.13200 45.96500
N  52.22800 24.18400 44.13300
C  51.37900 25.24100 43.82600
C  50.29800 24.77600 42.81600
C  50.23800 23.28500 43.08600
C  51.62300 22.98400 43.77000
C  49.15700 22.84900 44.15200
C  50.61600 25.24300 41.34300
C  50.79900 24.19200 40.21200
H  51.85600 23.13500 40.36500
N  54.38600 22.22200 44.78900
C  53.48900 21.35800 44.22000
C  54.12700 20.13700 44.07900
C  55.46800 20.30800 44.35500
C  55.64100 21.67600 44.83900
C  53.43900 18.88500 43.42400
C  56.58400 19.20500 44.26800
O  56.29500 17.99800 44.01500
C  58.04800 19.46500 44.37500
N  56.13000 24.66100 45.40200
C  57.05900 23.76200 45.36200
C  58.42100 24.26800 45.79000
C  58.17200 25.79000 45.91800
C  56.66600 25.88300 45.80300
C  59.04300 23.63600 47.03500
C  58.83100 26.55500 44.78000
C  58.10500 26.56300 43.48800
N  53.75900 26.43300 45.51200
C  54.59100 27.41000 45.82600
C  53.82900 28.64600 45.95600
C  52.67500 28.40100 45.28500
C  52.64700 27.01200 45.03000
C  54.32700 29.96800 46.33500
C  51.43000 28.90300 44.73600
O  51.02400 30.07300 44.73100
C  50.68400 27.77600 44.03600
C  50.45200 28.27700 42.63000
O  51.28200 28.86000 41.95200
O  49.20800 28.00300 42.22400
C  48.73000 28.35300 40.87500
H  51.66700 20.93200 43.36800
H  57.80000 22.00100 44.90500
H  56.57300 28.05000 46.05100
H  49.41800 25.34600 43.11200
H  50.16300 22.57800 42.25900
H  49.69200 22.39200 44.98400
H  48.38200 22.24800 43.67600
H  48.60200 23.72900 44.47900
H  51.48600 25.87800 41.17400
H  49.75200 25.84100 41.05400
H  51.10000 24.67900 39.28500
H  49.80100 23.76800 40.09600
H  53.86200 17.98200 43.86300
H  53.40300 18.88700 42.33400
H  52.41800 18.91300 43.80600
H  58.43800 20.05700 43.54600
H  58.53400 18.49600 44.48000
H  58.27000 19.93900 45.33100
H  58.93100 23.93900 44.88500
H  58.51900 26.02600 46.92400
H  60.03600 23.25200 46.80200
H  58.31600 22.88400 47.34000
H  59.26600 24.37700 47.80300
H  59.83500 26.17900 44.58700
H  58.91200 27.57800 45.14800
H  57.67200 27.55200 43.33500
H  57.30200 25.83600 43.36900
H  58.85000 26.52700 42.69300
H  55.16700 30.21100 45.68500
H  54.75900 29.86600 47.33100
H  53.48400 30.64600 46.46600
H  49.67700 27.83000 44.44900
H  49.40600 28.89300 40.21300
H  47.79300 28.91000 40.89700
H  48.42700 27.38500 40.47800
Mg 36.69400 49.86400 24.79500
C  36.90700 47.80300 27.63600
C  35.60600 52.35800 26.86900
C  36.13800 51.73900 22.09100
C  37.82100 47.33800 22.81900
N  36.06000 49.98600 27.02000
C  36.34600 49.07300 27.98500
C  35.99300 49.66300 29.42200
C  35.72300 51.13800 29.07300
C  35.75600 51.16200 27.59300
C  34.33600 51.60700 29.61600
C  37.04800 49.45800 30.51700
C  37.04400 50.42200 31.71200
H  35.67500 50.46500 32.49400
N  36.05100 51.82700 24.51600
C  35.65200 52.65600 25.52000
C  35.24200 53.91000 24.86500
C  35.46600 53.81000 23.47700
C  35.92900 52.43200 23.33000
C  34.73300 55.03400 25.77800
C  35.18800 54.85600 22.35900
O  35.20100 54.51700 21.16800
C  34.94300 56.28300 22.75300
N  37.01000 49.61100 22.71200
C  36.63100 50.50500 21.77300
C  36.96000 50.03700 20.35600
C  37.57000 48.62500 20.62900
C  37.53400 48.52000 22.15800
C  35.68100 50.07700 19.51400
C  38.92500 48.28100 19.90400
C  40.20700 48.12900 20.80900
N  37.28500 47.93000 25.11800
C  37.71500 46.97300 24.19100
C  38.07500 45.72100 24.93400
C  37.76900 46.03700 26.26100
C  37.26600 47.38400 26.31500
C  38.36500 44.50400 24.31600
C  37.65100 45.38400 27.54400
O  37.89200 44.30900 27.99000
C  37.07500 46.53600 28.47100
C  35.77600 46.17000 29.05200
O  34.69900 46.20500 28.48300
O  36.04100 45.88900 30.36800
C  34.86100 45.80200 31.29300
H  35.21400 53.16600 27.49100
H  35.87700 52.33100 21.21200
H  38.30100 46.64600 22.12300
H  35.04500 49.16600 29.62800
H  36.45100 51.85800 29.44900
H  34.53000 52.35200 30.38800
H  33.87400 50.82600 30.22100
H  33.68200 51.94700 28.81400
H  37.96400 49.52400 29.92900
H  37.03000 48.45800 30.95100
H  37.12800 51.45800 31.38500
H  37.83800 50.19500 32.42300
H  33.97800 54.66700 26.47300
H  34.26000 55.86400 25.25200
H  35.49900 55.59300 26.31400
H  33.90800 56.38400 23.07900
H  35.17100 57.02700 21.99100
H  35.61000 56.51300 23.58400
H  37.72700 50.68700 19.93600
H  36.89100 47.83400 20.31300
H  36.02400 49.99300 18.48300
H  34.94500 50.82300 19.81300
H  35.15800 49.12400 19.59800
H  39.20400 49.03200 19.16500
H  38.75800 47.29300 19.47300
H  40.76700 47.25800 20.46700
H  39.97400 48.10900 21.87400
H  40.83700 48.99500 20.60700
H  37.71100 43.73200 24.72200
H  39.41900 44.22400 24.30700
H  38.21400 44.55600 23.23800
H  37.77500 46.75500 29.27800
H  33.86100 45.63300 30.89300
H  34.69200 46.71800 31.85900
H  35.14400 45.04500 32.02400

