158

Mg 36.00800 49.67200 25.27800
C  36.27100 47.55300 28.06000
C  34.66200 51.96700 27.32900
C  35.00300 51.36900 22.59300
C  36.98300 46.93500 23.33700
N  35.42900 49.72700 27.41500
C  35.70500 48.78900 28.32700
C  35.34900 49.23500 29.76700
C  34.66900 50.59800 29.55900
C  34.94600 50.80000 28.03500
C  33.12500 50.66400 29.86300
C  36.60700 49.46400 30.72800
C  36.35700 49.15600 32.20200
H  34.90000 48.96900 32.68500
N  35.19300 51.58900 24.98700
C  34.71900 52.34600 25.99600
C  34.33600 53.60000 25.40100
C  34.32600 53.39600 23.95500
C  34.80700 52.06700 23.81000
C  33.92000 54.78100 26.21600
C  33.71100 54.24600 22.84200
O  33.50600 53.90100 21.67500
C  33.44400 55.72300 23.14300
N  35.84700 49.17000 23.27500
C  35.46500 50.06700 22.32500
C  35.83400 49.58500 20.91900
C  36.38500 48.19400 21.19600
C  36.45000 48.06500 22.66800
C  34.71600 49.74700 19.81800
C  37.72200 47.79100 20.30200
C  39.00600 48.46800 20.63800
N  36.48800 47.55900 25.58600
C  36.94200 46.62800 24.65800
C  37.35000 45.44500 25.33000
C  37.07500 45.72600 26.70000
C  36.56700 47.00900 26.76300
C  37.99500 44.25200 24.70700
C  37.09500 45.25500 28.08100
O  37.59400 44.16600 28.52400
C  36.64100 46.45800 28.98900
C  35.44000 45.88500 29.64500
O  34.32300 45.98500 29.21900
O  35.76700 45.22300 30.83000
C  34.69800 44.79900 31.75600
H  34.30600 52.76700 27.98200
H  34.95000 52.06500 21.75400
H  37.26200 46.09800 22.69200
H  34.66800 48.52600 30.24000
H  35.21300 51.37200 30.10000
H  32.50700 50.67500 28.96500
H  32.70400 51.52600 30.38000
H  32.89300 49.76300 30.43000
H  37.01400 50.47400 30.67100
H  37.45100 48.84200 30.43000
H  36.70300 50.00700 32.78900
H  36.96500 48.28100 32.43200
H  32.87300 55.06600 26.12000
H  34.44000 55.67100 25.86100
H  34.20400 54.69100 27.26500
H  32.48600 55.85800 23.64500
H  33.56900 56.19100 22.16700
H  34.24300 56.14800 23.75200
H  36.66900 50.15500 20.51100
H  35.71600 47.38200 20.91200
H  34.22900 50.67100 20.13100
H  34.04000 48.90100 19.69200
H  35.28700 50.01200 18.92800
H  37.61600 48.16200 19.28300
H  37.74700 46.70300 20.36500
H  39.82100 47.74800 20.70000
H  38.90500 48.83400 21.66000
H  39.18000 49.38600 20.07600
H  38.35500 43.60000 25.50200
H  38.86500 44.38500 24.06500
H  37.20000 43.68900 24.21700
H  37.40000 46.65000 29.74800
H  34.34400 43.81000 31.46600
H  33.86000 45.49500 31.77900
H  35.13900 44.73600 32.75100
Mg 6.16900 53.42300 40.64600
C  5.43900 49.92600 40.40700
C  9.33800 52.64600 39.48500
C  6.69200 56.61100 40.09500
C  2.73300 53.96500 41.10700
N  7.22000 51.49200 40.18900
C  6.70200 50.23100 39.98100
C  7.81700 49.21900 39.55300
C  9.15900 50.12600 39.82400
C  8.55200 51.52300 39.75400
C  9.88200 49.83900 41.20700
C  7.66800 48.73400 37.97600
C  6.93300 49.73600 37.01700
H  6.16600 49.24800 35.63900
N  7.83700 54.51000 39.95300
C  9.08400 53.99200 39.54900
C  9.99400 55.02500 39.44800
C  9.21500 56.23200 39.65000
C  7.86600 55.86100 39.91400
C  11.42400 54.83400 39.11100
C  9.88000 57.58000 39.73700
O  11.06000 57.66400 39.63300
C  9.20400 58.80500 39.98600
N  4.85600 55.08800 40.58400
C  5.32400 56.34600 40.37800
C  4.17600 57.41300 40.52700
C  2.96700 56.55000 40.86000
C  3.50500 55.12900 40.86600
C  4.52100 58.52100 41.56500
C  1.70500 56.54500 39.90900
C  0.27400 56.45700 40.51300
N  4.42200 52.24900 40.83400
C  3.09000 52.59400 41.10300
C  2.31000 51.44900 41.36400
C  3.21100 50.40200 41.07800
C  4.45600 50.90400 40.79100
C  0.91400 51.39100 41.80300
C  3.31000 48.94000 40.97600
O  2.49300 48.05700 41.20000
C  4.71800 48.59800 40.43700
C  4.60100 48.01700 39.09700
O  4.24800 48.53500 38.05300
O  4.80100 46.68400 39.29900
C  4.66800 45.77400 38.13600
H  10.39400 52.46500 39.27400
H  6.81400 57.66600 39.84000
H  1.71500 54.27900 41.34700
H  7.66900 48.35900 40.20600
H  9.87100 50.05500 39.00200
H  9.32000 49.19000 41.87800
H  9.99300 50.76300 41.77500
H  10.83700 49.39900 40.92000
H  7.22200 47.74100 37.91500
H  8.71300 48.67400 37.67300
H  7.72900 50.36000 36.61000
H  6.21500 50.35000 37.56100
H  11.77800 53.84300 39.39600
H  12.00000 55.47300 39.78000
H  11.56600 54.98400 38.04100
H  8.51200 58.74200 40.82600
H  8.55000 59.00600 39.13700
H  9.90500 59.63000 40.11600
H  3.87200 57.91800 39.61000
H  2.63700 56.66700 41.89200
H  5.34800 58.18800 42.19200
H  3.68700 58.71200 42.24000
H  4.71500 59.44900 41.02700
H  1.79700 55.73900 39.18100
H  1.66200 57.48400 39.35700
H  0.29600 56.04000 41.52000
H  -0.49600 55.97400 39.91200
H  -0.14100 57.46400 40.55300
H  0.52100 52.38400 42.02300
H  0.94000 50.85800 42.75300
H  0.29300 50.99600 40.99900
H  5.33300 47.99000 41.10000
H  5.47000 45.03600 38.14600
H  4.52100 46.22100 37.15300
H  3.76600 45.20700 38.36600

