158

Mg 26.89700 49.71400 26.34600
C  24.69300 51.06100 28.96500
C  28.77600 48.38900 28.61000
C  28.81300 48.71900 23.76400
C  24.97200 51.62000 24.17000
N  26.68400 49.70600 28.51400
C  25.73900 50.24900 29.40600
C  26.09400 49.88600 30.93300
C  27.46700 49.16600 30.69800
C  27.65900 49.03100 29.20900
C  28.67900 49.87300 31.49100
C  25.03600 48.87700 31.46700
C  24.37800 49.35300 32.82400
H  24.74300 48.61500 34.18000
N  28.51600 48.55600 26.15900
C  29.20800 48.12400 27.24200
C  30.35000 47.35100 26.83100
C  30.52200 47.63200 25.44600
C  29.31200 48.36400 25.03300
C  31.31500 46.62300 27.81000
C  31.65700 47.29200 24.57800
O  31.59800 47.62400 23.39200
C  32.84800 46.52400 25.11900
N  26.87500 50.03700 24.23500
C  27.71700 49.53500 23.31400
C  27.37700 49.83000 21.84400
C  26.10700 50.61600 22.11300
C  25.95900 50.77500 23.59500
C  28.47900 50.69200 21.24900
C  24.78900 50.12200 21.46000
C  24.50400 48.67800 21.69700
N  25.09600 50.97600 26.49200
C  24.54500 51.68200 25.50100
C  23.43200 52.44200 26.01500
C  23.49200 52.24400 27.36400
C  24.52500 51.39500 27.62500
C  22.30600 53.23400 25.26800
C  22.81600 52.51200 28.67600
O  21.87800 53.22300 28.93800
C  23.67300 51.84600 29.77200
C  24.22500 52.80500 30.71200
O  25.09800 53.66200 30.55900
O  23.38300 52.74300 31.84900
C  23.71600 53.70100 32.94200
H  29.34600 47.97900 29.44600
H  29.47600 48.56600 22.91000
H  24.41100 52.26000 23.48600
H  26.16800 50.78200 31.54900
H  27.52400 48.17000 31.13800
H  28.26600 50.67000 32.10800
H  29.40400 50.37800 30.85300
H  29.18700 49.21000 32.19200
H  25.48400 47.93700 31.78800
H  24.29400 48.67300 30.69400
H  23.30600 49.48000 32.67100
H  24.81200 50.35300 32.85300
H  32.34600 46.96400 27.72000
H  31.33000 45.57600 27.50700
H  30.88400 46.73500 28.80500
H  33.47600 47.25800 25.62400
H  33.34700 46.14300 24.22800
H  32.55100 45.65000 25.69800
H  27.20700 49.03100 21.12300
H  26.31500 51.66100 21.88400
H  29.24700 50.95000 21.97800
H  28.13300 51.64400 20.84700
H  29.01300 50.20100 20.43600
H  24.79700 50.31700 20.38800
H  23.90200 50.73900 21.60100
H  23.47200 48.58600 22.03500
H  25.20600 48.25800 22.41700
H  24.57700 48.16000 20.74100
H  21.40300 53.23000 25.87900
H  22.04000 52.67700 24.36900
H  22.65400 54.22800 24.98700
H  23.24100 51.08000 30.41700
H  22.83900 53.77200 33.58500
H  23.92000 54.71800 32.60900
H  24.57000 53.43600 33.56600
Mg -5.53800 25.59800 26.32100
C  -4.22300 27.05100 29.23000
C  -7.31000 23.43700 28.27800
C  -6.22300 24.05600 23.46900
C  -3.13900 27.69000 24.52600
N  -5.58600 25.25800 28.49200
C  -5.07600 26.00300 29.53500
C  -5.66700 25.52300 30.94400
C  -6.45900 24.26700 30.56800
C  -6.40800 24.24100 29.00900
C  -5.92600 22.96900 31.20100
C  -6.37600 26.64800 31.61100
C  -6.27700 26.84900 33.16300
H  -5.61500 25.71500 33.97900
N  -6.72200 23.94500 25.93700
C  -7.41900 23.25400 26.87200
C  -8.14700 22.22500 26.12300
C  -7.92900 22.45000 24.68800
C  -6.88900 23.49800 24.62500
C  -9.05800 21.24100 26.85600
C  -8.53300 21.87700 23.48500
O  -8.31300 22.19800 22.36900
C  -9.62700 20.80500 23.60300
N  -4.80500 25.92500 24.31300
C  -5.22700 25.04100 23.35600
C  -4.46000 25.32900 21.94500
C  -3.84000 26.76300 22.28400
C  -3.87200 26.82500 23.81300
C  -3.37700 24.26600 21.49100
C  -4.45400 27.96000 21.48900
C  -5.37000 29.00200 22.19100
N  -3.98200 27.08200 26.77800
C  -3.15200 27.79600 25.95400
C  -2.32800 28.69400 26.74600
C  -2.76700 28.52800 28.06000
C  -3.72800 27.45100 27.98800
C  -1.30900 29.75700 26.26900
C  -2.64900 28.93200 29.43400
O  -2.07800 29.83400 30.03900
C  -3.58500 27.94800 30.23300
C  -2.82800 27.21300 31.24700
O  -2.14500 26.18600 31.00800
O  -2.93600 27.77900 32.48200
C  -2.02200 27.14200 33.44900
H  -7.71200 22.67400 28.94700
H  -6.32100 23.59100 22.48600
H  -2.43600 28.31300 23.96900
H  -4.88700 25.16300 31.61400
H  -7.53100 24.43700 30.66200
H  -5.50700 22.22700 30.52100
H  -6.79600 22.52300 31.68200
H  -5.18900 23.09500 31.99500
H  -7.43900 26.58300 31.38100
H  -6.15000 27.59200 31.11600
H  -7.29800 26.89000 33.54300
H  -5.76900 27.81000 33.24200
H  -8.75300 21.09200 27.89200
H  -9.04300 20.26700 26.36600
H  -10.10600 21.53900 26.89700
H  -9.32700 19.77800 23.81100
H  -10.11100 20.76100 22.62800
H  -10.41600 21.18000 24.25600
H  -5.30200 25.50900 21.27800
H  -2.79900 26.74900 21.96100
H  -2.41100 24.76000 21.39000
H  -3.81900 23.86100 20.58000
H  -3.28900 23.41000 22.16000
H  -5.03200 27.59700 20.63900
H  -3.59900 28.48400 21.06200
H  -5.60400 28.70100 23.21200
H  -6.27700 29.00400 21.58600
H  -4.81600 29.94100 22.22300
H  -1.39100 30.65000 26.88800
H  -1.56800 30.00200 25.23900
H  -0.33700 29.26400 26.24100
H  -4.35600 28.62800 30.59500
H  -1.03000 27.58500 33.36300
H  -1.90800 26.08000 33.22900
H  -2.43400 27.14900 34.45800

