158

Mg 47.80600 16.60300 27.74600
C  45.97900 16.26600 30.75400
C  50.20100 18.29300 29.45500
C  49.41300 17.05600 24.81900
C  45.10200 15.12900 25.98600
N  48.11400 17.05700 29.89700
C  47.26800 16.70200 30.95300
C  47.90000 17.10800 32.30100
C  49.22200 17.95300 31.85200
C  49.21200 17.72300 30.33500
C  49.21500 19.46200 32.29500
C  48.30800 15.96700 33.16800
C  47.52700 15.89100 34.59200
H  47.40400 17.22700 35.34800
N  49.64500 17.41800 27.26700
C  50.43400 18.11200 28.09000
C  51.70600 18.31300 27.38200
C  51.49500 17.96900 25.96700
C  50.11100 17.43000 25.98100
C  52.87700 18.93100 28.01500
C  52.48200 18.18200 24.82900
O  52.21300 17.96600 23.68000
C  53.83100 18.84400 25.04400
N  47.37200 16.14500 25.69500
C  48.16400 16.50500 24.64000
C  47.70400 15.88200 23.33600
C  46.24500 15.30200 23.69000
C  46.23500 15.48000 25.20500
C  47.66300 16.87100 22.12100
C  46.12700 13.81900 23.25000
C  44.95200 13.39300 22.41700
N  45.82000 16.06300 28.18600
C  44.90000 15.34200 27.39500
C  43.83300 14.89300 28.35000
C  44.18000 15.29600 29.62800
C  45.45400 15.89500 29.49700
C  42.66500 14.07700 27.98400
C  43.75300 15.29000 30.96700
O  42.73000 14.82600 31.45400
C  44.94500 15.72900 31.79900
C  44.38900 16.77000 32.68500
O  44.05500 17.87100 32.29800
O  44.06800 16.22000 33.87700
C  43.24100 17.08000 34.78400
H  50.88800 18.92700 30.02100
H  50.03700 16.97600 23.92700
H  44.33600 14.60600 25.41000
H  47.16600 17.75700 32.77900
H  50.13500 17.49900 32.23700
H  50.18600 19.68000 32.74100
H  48.47200 19.55100 33.08700
H  48.94100 20.07800 31.43900
H  49.37600 16.02700 33.37800
H  48.04900 15.12700 32.52400
H  48.05700 15.18800 35.23500
H  46.55100 15.42300 34.46500
H  52.82700 18.95900 29.10400
H  53.23500 19.90800 27.69100
H  53.77200 18.31900 27.89800
H  53.82900 19.89000 25.35100
H  54.40200 18.80200 24.11600
H  54.32000 18.25500 25.81900
H  48.42400 15.08600 23.15100
H  45.43300 15.92300 23.31200
H  47.91100 16.33300 21.20600
H  48.38300 17.68600 22.19100
H  46.68800 17.31400 21.91300
H  46.16600 13.25900 24.18400
H  47.08300 13.61100 22.77000
H  44.20300 14.16800 22.57700
H  44.57500 12.49700 22.91000
H  45.27000 13.25600 21.38300
H  42.55000 14.22700 26.91100
H  41.84400 14.56700 28.50700
H  42.87100 13.03700 28.23800
H  45.37100 14.91800 32.39000
H  42.37500 17.34800 34.17900
H  43.80800 17.98400 35.00800
H  43.15300 16.56300 35.74000
Mg -1.76200 34.85500 25.73500
C  -3.77000 33.33900 28.31800
C  -1.10000 37.47800 27.99900
C  0.04700 36.40900 23.37700
C  -2.82100 32.44100 23.66600
N  -2.67600 35.54700 27.79500
C  -3.20600 34.59100 28.70000
C  -3.17300 35.17700 30.19200
C  -2.47200 36.54900 30.01300
C  -2.08500 36.54500 28.50600
C  -3.41500 37.80600 30.24700
C  -2.49900 34.23300 31.22300
C  -3.19600 34.07900 32.64400
H  -2.52400 34.82300 33.74600
N  -0.66400 36.73700 25.66400
C  -0.50400 37.61200 26.73900
C  0.35300 38.69900 26.29900
C  0.76300 38.33600 25.03200
C  0.05900 37.13500 24.63300
C  0.66200 39.94300 27.09100
C  1.78100 38.93600 24.17300
O  2.13200 38.47700 23.10500
C  2.59500 40.10100 24.71800
N  -1.61700 34.58400 23.72100
C  -0.71300 35.30500 22.97100
C  -0.44500 34.45500 21.60900
C  -1.19400 33.12900 21.88900
C  -1.93300 33.39200 23.15400
C  -1.12600 35.18400 20.38500
C  -0.30400 31.80100 21.98800
C  0.97900 31.82900 22.87500
N  -3.10000 33.27600 25.86600
C  -3.33900 32.32900 24.92000
C  -4.24800 31.32200 25.49300
C  -4.45700 31.64000 26.87600
C  -3.76200 32.84000 27.03600
C  -4.80800 30.15700 24.69900
C  -5.05800 31.24600 28.07900
O  -5.82600 30.35900 28.36800
C  -4.55200 32.33400 29.15900
C  -5.67800 32.87100 29.91800
O  -6.30800 33.90100 29.72700
O  -5.89300 32.12000 31.03600
C  -6.95200 32.53200 31.98800
H  -0.75200 38.17200 28.76700
H  0.70300 36.56200 22.51700
H  -3.04000 31.61700 22.98300
H  -4.20600 35.36400 30.48600
H  -1.64100 36.65300 30.71100
H  -4.34200 37.45000 30.69700
H  -3.60000 38.42300 29.36800
H  -2.83800 38.41500 30.94300
H  -1.49200 34.59800 31.42100
H  -2.46000 33.20000 30.87900
H  -3.26500 33.01700 32.87900
H  -4.19000 34.49100 32.47000
H  1.71400 40.14900 27.28600
H  0.01200 39.90700 27.96500
H  0.21900 40.80500 26.59400
H  2.07300 41.05200 24.82500
H  3.38800 40.31300 24.00100
H  3.21500 39.76000 25.54700
H  0.63900 34.46400 21.50000
H  -1.96000 32.85200 21.16500
H  -1.73800 35.97400 20.81900
H  -1.80700 34.52300 19.84800
H  -0.39700 35.65600 19.72700
H  0.13300 31.50900 21.03300
H  -0.96500 31.05800 22.43400
H  0.88300 31.12600 23.70300
H  1.09400 32.86500 23.19100
H  1.87000 31.58900 22.29500
H  -3.93400 29.76400 24.17800
H  -5.50000 30.53200 23.94500
H  -5.34000 29.42600 25.30800
H  -3.89900 31.88200 29.90500
H  -6.51600 33.45100 32.38000
H  -6.97100 31.76000 32.75700
H  -7.91700 32.71500 31.51600

