158

Mg 55.67600 24.11700 43.92700
C  53.11800 26.50400 43.09700
C  53.69600 21.81500 42.27700
C  58.42100 22.34700 43.62700
C  57.45300 26.79500 45.35500
N  53.61700 24.17600 42.82500
C  52.78500 25.21000 42.56700
C  51.61400 24.67700 41.66700
C  51.65100 23.12600 42.03300
C  53.05300 23.01900 42.47000
C  50.68600 22.64900 43.15900
C  51.92800 25.00600 40.21600
C  50.69900 25.04800 39.28000
H  50.84000 25.75800 37.91700
N  56.02900 22.28800 43.08200
C  55.09900 21.46700 42.54700
C  55.68800 20.16000 42.43000
C  57.01300 20.24800 42.88000
C  57.23600 21.67900 43.18700
C  54.92800 18.91200 41.91900
C  57.97200 19.14300 42.90300
O  57.69000 18.07800 42.39200
C  59.29300 19.30100 43.44000
N  57.66800 24.59600 44.26200
C  58.65500 23.66500 44.19900
C  60.01100 24.19700 44.69500
C  59.63800 25.49200 45.37100
C  58.15600 25.65800 44.95600
C  60.74800 23.14300 45.58700
C  60.55400 26.73700 45.05300
C  60.15100 27.67100 43.89000
N  55.34800 26.17700 44.35600
C  56.16200 27.12000 44.97000
C  55.49800 28.35800 44.96100
C  54.37000 28.16300 44.26600
C  54.25800 26.85800 43.87900
C  55.94500 29.67800 45.48600
C  53.10000 28.82600 43.79200
O  52.73100 30.00000 43.89400
C  52.23700 27.64000 43.19100
C  51.58500 28.20100 42.00200
O  52.11800 28.40900 40.94300
O  50.30700 28.54800 42.28300
C  49.42600 28.53100 41.09900
H  53.12800 21.03300 41.76900
H  59.32500 21.74600 43.74400
H  57.96900 27.62300 45.84600
H  50.66000 25.05800 42.03000
H  51.52000 22.48700 41.15900
H  51.33100 22.34800 43.98500
H  50.05300 21.84300 42.78800
H  50.02600 23.39600 43.59900
H  52.66100 24.35600 39.73800
H  52.22900 26.05300 40.17300
H  49.89800 25.57400 39.79800
H  50.43000 24.00400 39.11900
H  54.09500 19.40000 41.41100
H  54.50600 18.23400 42.66100
H  55.47600 18.47500 41.08600
H  59.15800 19.60700 44.47700
H  59.81900 20.02000 42.81200
H  59.98500 18.46900 43.31100
H  60.56000 24.32800 43.76200
H  59.47400 25.38800 46.44300
H  61.66900 22.78700 45.12600
H  60.26100 22.19200 45.80500
H  61.11700 23.57400 46.51800
H  61.50400 26.33200 44.70300
H  60.70900 27.36000 45.93400
H  61.06400 27.86600 43.32700
H  59.70700 28.61800 44.19800
H  59.51200 27.11000 43.20900
H  55.19200 30.44800 45.65400
H  56.80900 29.99600 44.90300
H  56.32000 29.48800 46.49200
H  51.47200 27.40300 43.93100
H  49.54600 29.45100 40.52700
H  48.37600 28.37900 41.34600
H  49.73100 27.70300 40.45900
Mg 48.46100 45.37100 42.29900
C  45.14300 45.73900 41.01700
C  48.37900 42.06200 41.29200
C  51.79800 45.48300 42.25200
C  48.39300 48.81500 43.04400
N  46.82900 44.05400 41.42300
C  45.61100 44.44400 40.97400
C  44.94800 43.30500 40.28100
C  45.87500 42.04000 40.70600
C  47.11300 42.71600 41.12600
C  45.34500 41.05600 41.75500
C  44.79300 43.50500 38.73100
C  43.67300 42.69800 38.01200
H  44.11000 41.45900 37.21700
N  49.91900 43.95800 41.88700
C  49.67900 42.69000 41.56000
C  50.93700 41.92500 41.45300
C  51.97900 42.90200 41.74900
C  51.27800 44.15600 42.02300
C  51.09900 40.47700 41.21300
C  53.42700 42.55900 41.87500
O  53.84700 41.41800 41.72600
C  54.42800 43.64900 42.16100
N  49.92500 46.96300 42.52700
C  51.26200 46.71100 42.47300
C  52.06800 47.96700 42.71900
C  50.96700 49.01400 43.20000
C  49.68300 48.22800 42.87800
C  53.26200 47.79400 43.79800
C  51.27400 50.45900 42.71800
C  51.23400 51.50500 43.76600
N  47.04000 46.96300 42.18000
C  47.18300 48.25500 42.51700
C  45.92000 48.91700 42.27500
C  45.05200 47.97100 41.67000
C  45.79300 46.82000 41.65900
C  45.51800 50.31300 42.55700
C  43.81200 47.73400 41.06200
O  42.91600 48.52100 40.77400
C  43.83000 46.28800 40.42000
C  42.48600 45.63300 40.84500
O  41.61500 45.23100 40.11400
O  42.55400 45.35900 42.13000
C  41.30600 44.95900 42.75500
H  48.33600 41.07700 40.82300
H  52.88800 45.52000 42.20900
H  48.39400 49.85800 43.36800
H  43.99300 43.22800 40.80200
H  45.94300 41.46100 39.78500
H  44.49000 41.55700 42.20900
H  46.08300 40.93100 42.54700
H  45.04100 40.09800 41.33200
H  45.72600 43.16900 38.27900
H  44.77600 44.57400 38.52000
H  43.08100 43.31900 37.33900
H  43.02500 42.30100 38.79300
H  51.65100 40.31500 40.28700
H  50.11800 40.00300 41.24700
H  51.67200 39.93200 41.96200
H  54.49100 44.44600 41.42000
H  55.43600 43.29200 42.36900
H  54.07700 44.00600 43.13000
H  52.44900 48.29800 41.75200
H  51.00200 49.01900 44.28900
H  53.40900 46.75200 44.08000
H  53.06300 48.34100 44.72000
H  54.10500 48.14700 43.20400
H  50.67900 50.71300 41.84100
H  52.21500 50.58400 42.18200
H  51.69900 51.16300 44.69100
H  50.22000 51.86300 43.94400
H  51.84900 52.37500 43.53700
H  46.27000 51.02900 42.22300
H  45.50000 50.32900 43.64700
H  44.50600 50.62600 42.30200
H  43.74300 46.35500 39.33600
H  40.41400 45.02900 42.13200
H  41.22400 45.40700 43.74600
H  41.53200 43.90300 42.90600

