158

Mg 49.42300 47.34400 43.05700
C  46.01400 47.53600 42.08800
C  49.44200 44.13000 41.64100
C  52.70700 47.33500 43.19000
C  49.29100 50.75400 43.60200
N  47.89000 46.06400 41.94400
C  46.57500 46.34600 41.63600
C  45.86000 45.16400 41.00300
C  46.81500 43.97700 41.28200
C  48.15500 44.77800 41.60400
C  46.42200 43.00400 42.46700
C  45.48300 45.27100 39.46400
C  43.99600 45.45200 39.14000
H  43.52200 45.19300 37.69200
N  50.82700 45.90700 42.55500
C  50.66300 44.68000 42.05700
C  51.90100 44.00000 41.96400
C  52.93500 44.91000 42.30500
C  52.19500 46.10700 42.68900
C  51.99300 42.54700 41.45000
C  54.44000 44.60500 42.29000
O  54.86200 43.49900 41.93200
C  55.38900 45.65500 42.77500
N  50.81700 48.82600 43.29900
C  52.09500 48.55700 43.50000
C  52.90000 49.73900 43.98600
C  51.83500 50.87700 44.05900
C  50.56700 50.15000 43.63000
C  53.84100 49.60900 45.19000
C  52.08600 52.21000 43.35300
C  51.79300 53.48300 44.18900
N  47.83900 48.82000 43.17800
C  48.05600 50.18400 43.32000
C  46.75600 50.86000 43.24300
C  45.89800 49.80400 42.74900
C  46.68100 48.56900 42.64600
C  46.48300 52.26000 43.62700
C  44.52100 49.46100 42.37900
O  43.55100 50.22400 42.36100
C  44.52300 47.89200 42.01800
C  43.64000 47.28100 42.98900
O  43.87000 47.34900 44.20500
O  42.65300 46.53600 42.43700
C  41.57300 46.03100 43.32100
H  49.28400 43.14300 41.20200
H  53.77800 47.41100 43.39300
H  49.26800 51.83900 43.72000
H  44.94700 44.98700 41.57100
H  46.84600 43.21500 40.50400
H  46.42000 41.95800 42.16000
H  45.39800 43.13100 42.81800
H  47.10000 43.05100 43.31900
H  45.85000 44.43000 38.87700
H  46.03500 46.15500 39.14400
H  43.68700 46.49300 39.22900
H  43.38300 44.79600 39.75900
H  52.98100 42.30500 41.05700
H  51.17200 42.31000 40.77400
H  51.90100 41.90400 42.32500
H  55.13400 46.50500 42.14100
H  56.34100 45.25900 42.42300
H  55.04600 45.59600 43.80800
H  53.51100 49.97900 43.11600
H  51.59000 51.08000 45.10200
H  54.88900 49.76200 44.93400
H  53.80100 48.63500 45.67800
H  53.56100 50.45800 45.81400
H  51.56200 52.34400 42.40700
H  53.15100 52.12000 43.13900
H  52.74800 53.98000 44.35700
H  51.28800 53.19800 45.11200
H  51.11900 54.11200 43.60700
H  47.22000 52.90900 43.15200
H  46.57700 52.33300 44.71100
H  45.55200 52.71000 43.28300
H  44.03500 47.79400 41.04800
H  41.82500 44.99100 43.53200
H  40.65300 46.05600 42.73700
H  41.59200 46.67600 44.19900
Mg 27.20900 50.51800 26.41900
C  25.09800 51.82500 29.13400
C  29.39900 49.33400 28.87900
C  29.38000 49.81900 23.95300
C  25.21400 52.40500 24.27900
N  27.27300 50.68900 28.69500
C  26.24200 51.05200 29.54600
C  26.54100 50.71300 31.02500
C  28.03700 50.02900 30.87800
C  28.25700 49.94500 29.38300
C  29.21500 50.71000 31.71800
C  25.49300 49.87800 31.77000
C  24.99000 50.55600 33.09000
H  26.07800 50.85600 34.17300
N  29.05300 49.50000 26.36800
C  29.82900 49.17200 27.47000
C  31.03600 48.60300 27.03800
C  31.01100 48.71400 25.56800
C  29.77000 49.36400 25.25900
C  31.88600 47.82200 27.92400
C  32.06500 48.27800 24.56900
O  32.00700 48.45800 23.37500
C  33.34700 47.64700 25.14400
N  27.31500 51.06300 24.50600
C  28.26500 50.65100 23.61500
C  27.97700 51.05300 22.17500
C  26.54200 51.58600 22.28400
C  26.33500 51.68800 23.78000
C  29.08100 51.92200 21.50200
C  25.38100 50.64400 21.75300
C  24.16300 51.34900 21.01400
N  25.44700 51.81900 26.59800
C  24.76500 52.50400 25.63400
C  23.57500 53.12600 26.17700
C  23.67500 52.89200 27.55900
C  24.85800 52.13700 27.77400
C  22.56600 53.82700 25.41900
C  23.00100 53.03000 28.79300
O  21.96400 53.62500 29.02000
C  23.97200 52.47700 29.86900
C  24.46700 53.60400 30.65500
O  25.48400 54.24200 30.53100
O  23.59100 53.62800 31.72900
C  24.10800 54.67200 32.67400
H  30.06800 48.99800 29.67400
H  30.03900 49.69700 23.09100
H  24.50500 52.87500 23.59500
H  26.54200 51.62000 31.62900
H  27.90800 48.98100 31.14900
H  29.63000 49.83100 32.21200
H  28.90400 51.49900 32.40200
H  29.86300 51.08200 30.92500
H  25.89600 48.92700 32.11800
H  24.62800 49.72300 31.12600
H  24.31700 49.79500 33.48600
H  24.37600 51.41200 32.81000
H  32.95800 48.00100 27.84600
H  31.83800 46.74300 27.77300
H  31.63900 47.94500 28.97800
H  33.03000 46.70700 25.59700
H  33.85100 48.25500 25.89500
H  33.96700 47.51900 24.25700
H  27.94900 50.15000 21.56500
H  26.42700 52.54500 21.77800
H  30.04500 51.88200 22.00900
H  28.60600 52.90100 21.44800
H  29.12900 51.59900 20.46200
H  24.94600 49.98900 22.50800
H  25.84900 49.96500 21.04000
H  24.29200 51.20900 19.94100
H  24.10700 52.42100 21.20000
H  23.18300 50.95200 21.27800
H  21.82400 54.34900 26.02300
H  22.12300 53.24100 24.61300
H  23.14800 54.65600 25.01700
H  23.37400 51.80600 30.48500
H  25.06700 54.42300 33.12600
H  23.60100 54.75400 33.63600
H  24.09400 55.67000 32.23700

