158

Mg 1.57100 7.95000 25.13700
C  2.76100 9.86600 27.89400
C  1.70100 5.16300 27.13500
C  1.13000 6.05100 22.35700
C  1.97600 10.79400 23.11100
N  2.52600 7.58600 27.24800
C  2.54200 8.55500 28.26500
C  2.31400 7.87000 29.70100
C  2.14100 6.34300 29.31300
C  2.13900 6.36800 27.76100
C  3.33100 5.42100 29.88600
C  1.21600 8.48500 30.55200
C  1.60700 8.94600 32.00400
H  2.65300 8.23900 32.80300
N  1.43300 5.95300 24.76000
C  1.51100 4.95000 25.73300
C  1.20300 3.69200 25.16800
C  0.98200 3.94100 23.78000
C  1.23000 5.38000 23.52800
C  1.05100 2.38400 25.95800
C  0.74200 2.89800 22.67800
O  0.90200 3.26200 21.52000
C  0.56300 1.41900 22.93500
N  1.80800 8.31700 22.98900
C  1.36000 7.40600 22.11100
C  1.26000 7.97500 20.72000
C  1.37300 9.48000 20.94100
C  1.73900 9.58000 22.43000
C  2.27800 7.26900 19.76200
C  0.15700 10.34400 20.58900
C  -1.04000 10.10900 21.51400
N  2.18600 9.95500 25.40000
C  2.20600 11.01000 24.47200
C  2.72900 12.21000 25.12300
C  2.84300 11.90100 26.51100
C  2.53000 10.47500 26.59200
C  2.92200 13.52300 24.46900
C  3.10800 12.31000 27.95400
O  3.33400 13.42900 28.38700
C  2.89900 11.05200 28.89400
C  4.04000 10.96200 29.89100
O  5.14100 10.54200 29.70300
O  3.56500 11.53400 31.13000
C  4.53200 11.66400 32.18200
H  1.39600 4.41000 27.86500
H  0.73800 5.55400 21.46700
H  2.06900 11.60900 22.39000
H  3.27500 7.97500 30.20300
H  1.17600 6.02500 29.70700
H  2.82900 4.57200 30.35100
H  3.99800 5.84800 30.63500
H  4.00800 5.06200 29.11100
H  0.34200 7.86900 30.76400
H  0.92100 9.35600 29.96700
H  0.70200 8.90500 32.61000
H  1.87100 10.00200 32.05600
H  0.09700 1.89600 25.75700
H  0.95500 2.69600 26.99800
H  1.87000 1.66900 25.89600
H  1.42700 0.86200 23.29700
H  0.08700 0.97800 22.05900
H  -0.25800 1.41000 23.65100
H  0.29300 7.78400 20.25500
H  2.17700 9.94300 20.36900
H  3.08500 7.97900 19.58000
H  1.84000 7.06500 18.78500
H  2.56900 6.29100 20.14500
H  0.03000 10.09200 19.53600
H  0.47300 11.38700 20.60300
H  -1.82600 9.57400 20.98100
H  -1.42900 11.08500 21.80200
H  -0.65600 9.56200 22.37500
H  3.60200 13.44200 23.62100
H  3.33800 14.25000 25.16600
H  2.02300 13.92400 24.00000
H  1.92900 11.30500 29.32000
H  4.25600 11.00700 33.00600
H  4.45000 12.66400 32.60900
H  5.50300 11.37300 31.78200
Mg 8.74900 47.59700 29.13600
C  7.09600 46.56300 32.07300
C  11.71700 47.66800 30.95400
C  10.44100 48.66800 26.41600
C  5.70600 48.19400 27.60500
N  9.33200 47.05400 31.30600
C  8.47000 46.75200 32.32400
C  9.16900 46.70900 33.65200
C  10.62300 47.21000 33.27500
C  10.63100 47.32200 31.75400
C  11.11000 48.49300 34.03700
C  9.19100 45.38300 34.40600
C  8.60600 45.57800 35.81800
H  9.02300 44.58700 36.90400
N  10.83500 47.82400 28.65500
C  11.85300 47.82900 29.55700
C  13.12900 48.01800 28.85800
C  12.76800 48.15900 27.41600
C  11.28300 48.16600 27.42700
C  14.49700 48.19300 29.50500
C  13.68100 48.31400 26.21800
O  13.31200 48.41700 25.02000
C  15.24800 48.38900 26.42800
N  8.21800 48.36400 27.39600
C  9.05200 48.82300 26.35800
C  8.26100 49.61300 25.27400
C  6.76700 49.04500 25.52600
C  6.90400 48.42600 26.91400
C  8.29700 51.15100 25.46300
C  6.26500 47.96500 24.60900
C  7.35400 47.06000 24.05600
N  6.72000 47.51600 29.62100
C  5.58200 47.65800 28.89900
C  4.41900 47.20600 29.73200
C  5.00000 46.71700 30.94700
C  6.39200 46.94800 30.85300
C  2.96500 47.33200 29.21000
C  4.70900 46.18300 32.27100
O  3.66800 45.98400 32.81000
C  6.04400 46.11300 33.04100
C  6.01200 44.71700 33.57300
O  6.49800 43.68700 33.10400
O  5.40000 44.77600 34.82900
C  5.48600 43.50700 35.66000
H  12.61900 47.84600 31.54300
H  11.07000 49.07400 25.62000
H  4.75900 48.27700 27.06900
H  8.67300 47.49600 34.22000
H  11.34300 46.41300 33.46000
H  12.16500 48.44700 34.30900
H  10.48200 48.64800 34.91400
H  11.11000 49.36500 33.38300
H  10.16000 44.88500 34.44700
H  8.61400 44.72000 33.76100
H  7.51900 45.61600 35.74600
H  8.86600 46.58200 36.15300
H  14.42700 48.14200 30.59100
H  15.02800 49.10100 29.21700
H  15.06400 47.29000 29.28000
H  15.38100 49.41000 26.78400
H  15.63500 48.10900 25.44800
H  15.61600 47.75500 27.23500
H  8.56500 49.33700 24.26400
H  6.06800 49.88000 25.58100
H  9.07300 51.23400 26.22400
H  7.44500 51.69300 25.87300
H  8.64600 51.58800 24.52700
H  5.86800 48.49600 23.74300
H  5.54400 47.30500 25.09000
H  8.34400 47.09700 24.50900
H  7.56700 47.19400 22.99600
H  6.92800 46.07000 24.22200
H  2.33100 47.19700 30.08600
H  2.84000 46.46700 28.55800
H  2.81600 48.31600 28.76500
H  6.12100 46.80800 33.87700
H  4.96300 42.70300 35.14100
H  4.91100 43.64500 36.57600
H  6.48900 43.17000 35.92400

