158

Mg 47.75600 25.08100 28.20300
C  48.96700 27.28600 30.74600
C  46.79800 22.96100 30.62600
C  47.27000 22.86300 25.71600
C  49.17800 27.30200 25.80300
N  47.93400 25.07800 30.45800
C  48.25600 26.19800 31.27600
C  47.97600 25.91200 32.69400
C  47.43800 24.48200 32.73600
C  47.30200 24.18000 31.23800
C  48.28200 23.36800 33.41400
C  47.00300 27.06300 33.26500
C  46.15100 26.76900 34.48400
H  45.95400 27.80800 35.59000
N  47.19800 23.22200 28.17500
C  46.85300 22.47200 29.29500
C  46.39800 21.15700 28.92200
C  46.60200 21.08300 27.49700
C  47.08000 22.44300 27.04600
C  45.73600 20.15100 29.88300
C  46.18300 19.96600 26.54100
O  46.57000 19.92900 25.40200
C  45.28400 18.87200 27.01400
N  48.16900 25.08700 26.06900
C  47.88800 24.05000 25.28900
C  48.26200 24.26600 23.80000
C  48.67900 25.79600 23.80200
C  48.72200 26.10100 25.30300
C  49.32100 23.29200 23.17000
C  47.78200 26.76600 23.04700
C  48.33200 28.00900 22.41400
N  48.81800 26.90600 28.19100
C  49.35300 27.64000 27.17900
C  49.98200 28.76200 27.73900
C  49.90800 28.70600 29.13700
C  49.18000 27.50600 29.35000
C  50.58800 29.84700 26.94400
C  50.23300 29.36100 30.38700
O  50.83300 30.44700 30.52400
C  49.60900 28.45100 31.47600
C  50.63600 28.16100 32.48300
O  51.29900 27.17300 32.39100
O  50.72000 29.11600 33.38700
C  51.84100 28.83000 34.31000
H  46.37600 22.42000 31.47500
H  47.10400 22.18300 24.87800
H  49.72100 28.05000 25.22100
H  48.94700 25.95400 33.18800
H  46.43400 24.37500 33.14800
H  47.69900 22.70100 34.04900
H  48.99000 23.84700 34.09000
H  48.68900 22.72600 32.63300
H  46.29600 27.39100 32.50300
H  47.78500 27.77800 33.52200
H  46.44900 25.86200 35.01000
H  45.17500 26.57600 34.04000
H  46.41500 19.31300 30.03800
H  44.80600 19.72800 29.50300
H  45.58100 20.60900 30.86000
H  45.73500 18.24300 27.78100
H  45.05300 18.22200 26.17000
H  44.30600 19.20900 27.35600
H  47.34500 24.31400 23.21300
H  49.68800 25.89400 23.40200
H  49.82600 22.68900 23.92400
H  50.08600 23.76800 22.55600
H  48.73500 22.63400 22.52900
H  47.04000 27.12200 23.76300
H  47.32000 26.14400 22.28000
H  47.76700 28.15900 21.49400
H  49.40100 27.95800 22.20900
H  48.19200 28.86100 23.07900
H  49.86700 30.13700 26.17900
H  51.45400 29.38800 26.46800
H  50.83900 30.64900 27.63700
H  49.00700 29.12600 32.08400
H  52.78400 28.84600 33.76300
H  51.77100 27.97900 34.98700
H  51.88800 29.74700 34.89700
Mg -6.47500 25.53200 26.02400
C  -4.64900 26.34600 28.83700
C  -8.32900 23.41900 27.86400
C  -7.34900 23.89600 23.09400
C  -4.01700 27.30100 24.11700
N  -6.40900 24.97800 28.06600
C  -5.78000 25.52300 29.04300
C  -6.24600 25.03900 30.39900
C  -7.31200 23.91800 30.12300
C  -7.35200 24.07400 28.58800
C  -6.78200 22.53000 30.38200
C  -6.89600 26.22200 31.16600
C  -6.96200 26.21500 32.65700
H  -6.35500 25.12300 33.49000
N  -7.72300 23.92000 25.56500
C  -8.43800 23.22000 26.49900
C  -9.25100 22.23800 25.75000
C  -9.03600 22.40300 24.38800
C  -7.94000 23.44000 24.32800
C  -10.00800 21.16000 26.46500
C  -9.54800 21.59700 23.14100
O  -9.06000 21.86600 22.03100
C  -10.50700 20.39900 23.25300
N  -5.64700 25.44400 23.92000
C  -6.30200 24.80300 22.93100
C  -5.74600 25.23100 21.60100
C  -4.71600 26.28500 21.92400
C  -4.76200 26.42400 23.42800
C  -5.12500 23.89300 20.92200
C  -4.85700 27.76100 21.22100
C  -3.69100 28.26600 20.30100
N  -4.78700 26.82200 26.37500
C  -3.96300 27.48100 25.53300
C  -3.04800 28.23000 26.32700
C  -3.18300 27.80600 27.65100
C  -4.25100 26.94700 27.58500
C  -1.94800 29.16300 25.74700
C  -2.69300 27.87400 29.03200
O  -1.71500 28.45900 29.58500
C  -3.67100 26.98400 29.86000
C  -2.84100 26.08100 30.72500
O  -2.33800 24.98800 30.41300
O  -2.75900 26.63200 31.94900
C  -1.93800 26.00000 32.97600
H  -9.06300 22.85500 28.44300
H  -7.73300 23.67100 22.09700
H  -3.41200 28.02200 23.56400
H  -5.43300 24.71400 31.04900
H  -8.30100 24.11700 30.53700
H  -5.88600 22.53700 31.00300
H  -6.49200 22.18800 29.38800
H  -7.44600 21.88600 30.95900
H  -7.94900 26.09500 30.91300
H  -6.59400 27.18100 30.74600
H  -8.02600 26.12700 32.87600
H  -6.59100 27.16400 33.04300
H  -10.92500 21.13100 25.87700
H  -10.27800 21.36200 27.50100
H  -9.53600 20.19400 26.28400
H  -10.10500 19.46000 23.63300
H  -10.75500 20.09200 22.23700
H  -11.31600 20.82700 23.84500
H  -6.54200 25.55100 20.92900
H  -3.76300 25.84500 21.63100
H  -5.73100 23.64300 20.05100
H  -5.27500 23.05700 21.60600
H  -4.09400 23.97800 20.57900
H  -5.01400 28.48200 22.02300
H  -5.79800 27.76800 20.67100
H  -4.17500 28.33900 19.32700
H  -3.01600 27.46600 19.99800
H  -3.16800 29.17800 20.59100
H  -2.26900 29.59900 24.80100
H  -1.03700 28.60700 25.52400
H  -1.77600 29.96600 26.46400
H  -4.18700 27.66900 30.53200
H  -0.92400 26.36800 32.82000
H  -1.95700 24.91300 32.90200
H  -2.21900 26.25800 33.99700

