158

Mg 17.26400 -2.35900 27.76700
C  15.94900 -0.29100 30.54700
C  19.05100 -4.03000 30.23400
C  18.79100 -3.76400 25.32200
C  15.85000 0.03200 25.60500
N  17.34500 -2.20900 30.10000
C  16.71500 -1.39000 30.96300
C  17.12800 -1.64500 32.42600
C  18.17700 -2.76600 32.31500
C  18.28500 -2.98600 30.77300
C  19.52700 -2.57500 32.98900
C  15.87200 -2.11100 33.26500
C  15.92400 -1.84900 34.79900
H  17.13300 -1.22700 35.56200
N  18.52700 -3.86200 27.74100
C  19.14600 -4.47200 28.84200
C  19.89300 -5.62400 28.33300
C  19.83800 -5.56400 26.91600
C  18.97600 -4.40100 26.57900
C  20.56200 -6.70700 29.17800
C  20.58900 -6.43100 25.92600
O  20.39800 -6.10000 24.77900
C  21.42300 -7.64300 26.26000
N  17.20500 -1.95700 25.70800
C  18.05100 -2.66600 24.92700
C  17.98700 -2.07700 23.37500
C  17.07500 -0.82800 23.53100
C  16.68200 -0.93900 24.98900
C  19.47000 -1.65800 22.85400
C  15.81200 -0.72800 22.50400
C  16.27400 -0.42000 21.11000
N  16.02500 -0.61800 27.93300
C  15.48600 0.24300 27.01700
C  14.64200 1.21200 27.58900
C  14.83800 1.07300 29.00100
C  15.65400 -0.08500 29.19300
C  13.88900 2.25200 26.92100
C  14.56300 1.69400 30.29700
O  13.89900 2.62800 30.52900
C  15.30300 0.77900 31.38800
C  16.19600 1.63300 32.15800
O  17.43600 1.65000 32.08500
O  15.48700 2.30100 33.15900
C  16.26400 2.94500 34.16900
H  19.71100 -4.60900 30.88300
H  19.20600 -4.19900 24.41000
H  15.42300 0.77400 24.92600
H  17.40900 -0.67400 32.83300
H  17.82100 -3.72500 32.69000
H  20.29100 -2.78900 32.24000
H  19.65100 -3.19900 33.87400
H  19.46400 -1.56500 33.39100
H  15.67100 -3.15100 33.00800
H  14.96800 -1.62300 32.90100
H  15.68300 -2.84600 35.16800
H  15.04500 -1.23800 35.00400
H  21.63300 -6.72000 28.97600
H  19.96400 -7.55200 28.83600
H  20.28500 -6.52200 30.21600
H  21.67400 -8.15600 25.33200
H  20.97200 -8.28500 27.01600
H  22.32400 -7.27000 26.74700
H  17.54300 -2.81700 22.70900
H  17.59200 0.12400 23.41100
H  20.21000 -1.89900 23.61700
H  19.55100 -0.63200 22.49600
H  19.69300 -2.28200 21.98800
H  15.13200 0.08800 22.74800
H  15.27100 -1.67300 22.56500
H  17.26900 0.01300 21.21800
H  15.59100 0.12600 20.45900
H  16.50100 -1.38400 20.65600
H  12.82700 2.00500 26.89400
H  14.15600 2.64400 25.93900
H  14.04700 3.07800 27.61300
H  14.42700 0.45800 31.95100
H  16.40200 3.98100 33.86000
H  17.22700 2.50800 34.43200
H  15.60000 2.98400 35.03300
Mg -0.18500 44.04000 25.93700
C  2.04200 43.83400 28.72400
C  -2.57200 42.72800 27.96200
C  -2.18000 44.24600 23.30000
C  2.52800 45.04200 23.97700
N  -0.23100 43.41600 28.15400
C  0.76100 43.46900 29.13300
C  0.34000 42.85600 30.49700
C  -1.17700 42.47200 30.17600
C  -1.36700 42.83500 28.71100
C  -1.68600 41.00400 30.62300
C  0.41800 43.79300 31.66600
C  0.95200 43.20700 33.00100
H  0.23500 41.93700 33.34200
N  -2.11700 43.54600 25.67700
C  -2.96900 43.08300 26.64900
C  -4.28000 42.96600 26.00500
C  -4.14300 43.24700 24.63300
C  -2.75500 43.73800 24.50500
C  -5.49000 42.38700 26.78000
C  -5.18600 43.04800 23.51000
O  -4.92900 43.32700 22.33400
C  -6.55200 42.43600 23.79500
N  0.04800 44.85200 24.04100
C  -0.90400 44.71700 23.07900
C  -0.43700 45.14800 21.71000
C  1.09000 45.50000 21.95800
C  1.24600 45.06100 23.39500
C  -0.57300 44.03900 20.63500
C  1.34200 47.04500 21.84600
C  0.95900 47.79400 20.57000
N  1.87900 44.30600 26.16700
C  2.85500 44.71100 25.28900
C  4.11800 44.63400 25.91000
C  3.87800 44.36400 27.21900
C  2.45600 44.21500 27.36900
C  5.38400 44.93500 25.29400
C  4.51300 44.08000 28.46800
O  5.69300 43.99700 28.76600
C  3.32600 43.85900 29.55400
C  3.64500 42.42900 29.93600
O  3.56900 41.41800 29.25500
O  3.95700 42.32600 31.24800
C  3.96500 40.93300 31.86200
H  -3.31300 42.23500 28.59600
H  -2.74500 44.46200 22.39100
H  3.38600 45.10500 23.30400
H  0.86800 41.92000 30.68100
H  -1.89200 43.14000 30.65600
H  -2.06900 40.53200 29.71900
H  -2.59700 41.11700 31.21000
H  -0.96300 40.33600 31.09200
H  -0.51600 44.30200 31.90600
H  1.06000 44.60500 31.32500
H  0.75400 43.87100 33.84300
H  2.03900 43.12100 33.01300
H  -5.54700 41.32600 26.53900
H  -6.41100 42.84600 26.42100
H  -5.53000 42.56900 27.85400
H  -7.07000 42.45700 22.83600
H  -6.99300 43.22900 24.40000
H  -6.56000 41.48800 24.33200
H  -1.02800 46.01400 21.41200
H  1.86500 45.07900 21.31700
H  0.29400 43.84700 20.00200
H  -1.45500 44.27500 20.04000
H  -0.72200 43.11100 21.18700
H  2.42900 47.09700 21.90800
H  0.86300 47.59000 22.66000
H  0.25500 48.59100 20.80500
H  0.46700 47.13400 19.85600
H  1.92300 48.23900 20.32200
H  6.04000 45.43900 26.00300
H  5.39600 45.54200 24.38900
H  5.84200 43.98600 25.01400
H  3.40200 44.55200 30.39200
H  4.41900 40.19000 31.20700
H  2.96700 40.53900 32.05000
H  4.75100 40.73900 32.59200

