158

Mg 1.70900 -1.40900 44.45400
C  5.07200 -0.53300 43.83500
C  0.89700 1.76000 42.95500
C  -1.51400 -2.36200 43.96400
C  2.74300 -4.47000 45.38700
N  2.87100 0.42200 43.41900
C  4.25000 0.46400 43.36900
C  4.75300 1.82400 42.79200
C  3.39400 2.65800 42.73900
C  2.31300 1.59000 42.98600
C  3.16900 3.72800 43.76600
C  5.47100 1.63600 41.45900
C  6.67700 2.58800 41.09900
H  6.92900 2.86000 39.63800
N  -0.10400 -0.40500 43.62800
C  -0.17200 0.83300 43.11200
C  -1.57200 1.14900 42.80500
C  -2.36900 -0.00000 43.12600
C  -1.35200 -1.01800 43.59900
C  -2.10500 2.47200 42.27800
C  -3.90300 -0.15700 43.04100
O  -4.59800 0.73200 42.59400
C  -4.57700 -1.40200 43.43200
N  0.77500 -3.11600 44.56500
C  -0.57000 -3.31400 44.46200
C  -0.94700 -4.81500 44.79300
C  0.43200 -5.42400 45.22000
C  1.41600 -4.29700 45.02300
C  -2.17500 -5.09000 45.65700
C  0.81300 -6.85500 44.54400
C  1.61900 -7.87600 45.46200
N  3.55200 -2.36800 44.56700
C  3.80000 -3.61600 45.05200
C  5.25400 -3.78300 45.12800
C  5.83800 -2.59200 44.69700
C  4.72800 -1.78500 44.30300
C  5.94600 -4.95600 45.58300
C  7.06700 -1.87000 44.50200
O  8.24100 -2.17700 44.72200
C  6.60300 -0.52900 43.90800
C  7.09600 0.63200 44.71300
O  6.55500 0.96900 45.74900
O  8.22500 1.23100 44.16900
C  8.48400 2.52100 44.70100
H  0.53700 2.72400 42.59100
H  -2.44100 -2.91800 43.81200
H  3.07600 -5.39700 45.85700
H  5.53300 2.32600 43.36300
H  3.15100 3.13900 41.79200
H  2.33400 3.49300 44.42700
H  2.91500 4.64400 43.23200
H  4.09900 3.99900 44.26500
H  4.81900 1.84500 40.61100
H  5.76900 0.59300 41.35900
H  7.59500 2.17300 41.51600
H  6.52100 3.53800 41.61000
H  -3.11500 2.53700 41.87500
H  -1.47100 2.66700 41.41200
H  -1.76000 3.32000 42.87000
H  -5.64700 -1.33400 43.23100
H  -4.45200 -1.52500 44.50800
H  -4.11500 -2.28700 42.99500
H  -1.24800 -5.18600 43.81300
H  0.44800 -5.54000 46.30400
H  -2.62100 -4.12700 45.90600
H  -2.00400 -5.48200 46.66000
H  -2.86000 -5.78500 45.17100
H  1.52600 -6.53500 43.78400
H  0.00400 -7.34900 44.00600
H  0.77300 -8.26100 46.03200
H  2.48800 -7.39600 45.91100
H  2.02800 -8.70900 44.89100
H  7.00500 -4.71200 45.49600
H  5.74400 -5.85300 44.99700
H  5.51200 -5.14600 46.56400
H  7.05700 -0.51300 42.91700
H  7.66400 3.09500 45.13300
H  8.82500 3.27900 43.99600
H  9.35600 2.43500 45.35000
Mg 49.23200 44.58200 42.47400
C  45.86200 44.78600 41.64500
C  49.02300 41.21400 41.81800
C  52.65100 44.33500 42.75600
C  49.38800 48.03000 42.99200
N  47.71100 43.28400 41.56500
C  46.47900 43.58400 41.27400
C  45.72600 42.38800 40.82700
C  46.52900 41.24800 41.45400
C  47.87800 41.92000 41.59700
C  45.98400 40.85300 42.89600
C  45.54200 42.34300 39.31400
C  44.10900 42.71700 38.76700
H  44.17600 43.79000 37.68100
N  50.64500 42.99700 42.44700
C  50.33200 41.69300 42.16300
C  51.49700 40.91300 42.10900
C  52.64500 41.72900 42.47600
C  52.04900 43.09600 42.58700
C  51.57900 39.43900 41.75900
C  54.04600 41.32600 42.70300
O  54.34700 40.14200 42.88500
C  55.11800 42.26000 42.83400
N  50.79500 46.02000 42.54400
C  52.10200 45.66100 42.75800
C  53.04600 46.91100 42.89200
C  51.93200 48.01700 42.89800
C  50.60200 47.30300 42.88500
C  53.91400 47.06700 44.15900
C  52.14500 49.11800 41.77800
C  51.67900 50.52700 42.05200
N  47.99300 46.16000 42.38500
C  48.10300 47.46700 42.69800
C  46.83700 48.08800 42.57800
C  45.92500 47.04800 42.14500
C  46.67100 45.88300 42.06400
C  46.47600 49.50400 42.75200
C  44.56000 46.77500 41.96300
O  43.62500 47.60200 42.01700
C  44.48600 45.34600 41.60500
C  43.62200 44.61500 42.51900
O  42.42000 44.57200 42.35100
O  44.26400 44.08200 43.63600
C  43.33200 43.61000 44.72600
H  48.83700 40.14500 41.70000
H  53.73800 44.43700 42.75900
H  49.39300 49.08100 43.28700
H  44.72200 42.48100 41.24100
H  46.60500 40.45700 40.70800
H  45.05600 41.37000 43.14100
H  46.70200 41.12200 43.67100
H  45.89000 39.77000 42.82400
H  45.70600 41.37400 38.84100
H  46.27900 43.03200 38.90200
H  43.43600 43.07500 39.54600
H  43.69500 41.86300 38.23000
H  52.23400 39.28200 40.90300
H  50.56400 39.06200 41.63600
H  52.03100 38.92600 42.60800
H  55.20900 42.85300 41.92400
H  56.02700 41.65900 42.85800
H  55.04700 42.80300 43.77700
H  53.54800 46.85300 41.92600
H  51.91900 48.62700 43.80100
H  53.76600 46.26600 44.88300
H  53.62400 48.01800 44.60500
H  54.96400 47.05100 43.86800
H  51.79200 48.70100 40.83500
H  53.23000 49.20800 41.73700
H  51.69700 50.93100 43.06500
H  50.63600 50.59800 41.74400
H  52.24300 51.24200 41.45400
H  47.11500 50.05900 42.06600
H  46.79700 49.86000 43.73100
H  45.42700 49.65600 42.49600
H  44.00700 45.28700 40.62800
H  43.94400 43.41200 45.60600
H  42.88400 42.70000 44.32700
H  42.56200 44.33800 44.97900

