158

Mg 23.55400 -4.87400 46.15600
C  25.35100 -2.22500 44.73500
C  20.84000 -3.82700 44.32900
C  22.03500 -7.74700 47.18400
C  26.42800 -5.84000 47.94800
N  23.20900 -3.29700 44.61800
C  24.08900 -2.32600 44.17200
C  23.50600 -1.40300 43.07100
C  21.97700 -1.74500 43.30500
C  21.99600 -3.04400 44.11400
C  21.19800 -0.63400 44.01800
C  24.16700 -1.72100 41.69900
C  24.82600 -0.59900 40.91000
H  24.77100 -0.69200 39.43500
N  21.77100 -5.72900 45.68800
C  20.78500 -5.13200 44.96500
C  19.63800 -6.02000 44.89500
C  19.89700 -7.14500 45.76100
C  21.33700 -6.91500 46.23800
C  18.36400 -5.55100 44.18600
C  18.85300 -8.11500 46.18200
O  17.73400 -7.92500 45.78000
C  19.13300 -9.41600 46.96900
N  24.22800 -6.50400 47.34400
C  23.35000 -7.52400 47.72000
C  24.01300 -8.68000 48.46200
C  25.43700 -8.21000 48.60800
C  25.36900 -6.75500 48.02400
C  23.28600 -8.90000 49.82600
C  26.51900 -9.08500 47.90200
C  27.70700 -9.31700 48.82200
N  25.48400 -4.07300 46.49300
C  26.53100 -4.57200 47.28200
C  27.61200 -3.69100 47.16500
C  27.17300 -2.76400 46.22000
C  25.88500 -3.02300 45.77500
C  28.99100 -3.72400 47.78900
C  27.64300 -1.62600 45.51600
O  28.74400 -1.08700 45.51500
C  26.50600 -1.24800 44.39800
C  26.25100 0.19300 44.58500
O  25.72800 0.65000 45.60700
O  26.60000 0.94700 43.42500
C  26.19600 2.35000 43.53100
H  20.00400 -3.38100 43.78600
H  21.63600 -8.67000 47.61000
H  27.31900 -5.98700 48.56100
H  23.75700 -0.37600 43.33500
H  21.54500 -1.89700 42.31600
H  21.86300 0.20000 44.24000
H  21.02900 -1.02400 45.02100
H  20.20800 -0.34400 43.66600
H  23.34600 -2.20600 41.17000
H  24.85000 -2.55700 41.84700
H  25.86200 -0.72900 41.22300
H  24.51700 0.38300 41.26800
H  18.56000 -4.98000 43.27800
H  17.82500 -4.94900 44.91800
H  17.71400 -6.35400 43.84100
H  18.23600 -10.02600 47.07400
H  19.19600 -9.17300 48.02900
H  19.99700 -9.98800 46.63100
H  23.83000 -9.53700 47.81500
H  25.68100 -8.28800 49.66700
H  23.82300 -8.73300 50.76000
H  22.92900 -9.92400 49.92500
H  22.43100 -8.23600 49.95400
H  26.84500 -8.56000 47.00400
H  26.24700 -10.09500 47.59500
H  28.56600 -9.43000 48.16100
H  27.68500 -10.26800 49.35500
H  28.01500 -8.61300 49.59500
H  29.69000 -4.22400 47.11900
H  28.91700 -4.28500 48.72100
H  29.48000 -2.76500 47.95900
H  26.90900 -1.39100 43.39600
H  26.66300 2.98200 42.77500
H  26.25900 2.83100 44.50700
H  25.14100 2.35100 43.25400
Mg 1.46300 42.44700 25.92400
C  3.77900 42.76900 28.57400
C  -0.95300 41.74700 28.33400
C  -0.63300 41.40900 23.44400
C  3.95500 43.02800 23.62500
N  1.46600 42.29800 28.12900
C  2.44400 42.62400 29.04300
C  2.02400 42.56900 30.45200
C  0.54700 42.19700 30.29300
C  0.32500 42.05300 28.77100
C  0.00300 40.93300 31.01100
C  2.08400 43.94800 31.12700
C  2.52000 43.85600 32.61200
H  2.22200 42.56700 33.36200
N  -0.51800 41.68700 25.93700
C  -1.40000 41.50400 26.97500
C  -2.69000 40.94500 26.54600
C  -2.56200 40.82200 25.13400
C  -1.19900 41.35000 24.73600
C  -3.74600 40.57200 27.50000
C  -3.59200 40.24600 24.24700
O  -3.59500 40.30800 23.01300
C  -4.88200 39.63500 24.82300
N  1.61500 42.10600 23.91800
C  0.63700 41.78000 23.05500
C  1.00500 41.99000 21.55100
C  2.35700 42.71200 21.63300
C  2.71000 42.61600 23.15900
C  0.97300 40.56800 20.84400
C  2.50900 44.17100 21.10100
C  3.76800 44.54700 20.30200
N  3.51900 42.87500 26.02400
C  4.40600 43.09800 24.97000
C  5.70000 43.30200 25.55500
C  5.55200 43.22900 26.89800
C  4.18700 42.89800 27.16700
C  6.94500 43.48300 24.75300
C  6.20700 43.14200 28.25300
O  7.40800 43.24600 28.46500
C  5.04700 42.98500 29.38800
C  5.50300 41.82300 30.24400
O  5.90400 40.76200 29.77700
O  5.71600 42.16500 31.54800
C  6.27700 41.15900 32.45500
H  -1.79800 41.60600 29.01200
H  -1.26300 41.21200 22.57400
H  4.72200 43.28900 22.89200
H  2.65100 41.90800 31.05100
H  -0.13800 42.98800 30.59700
H  -0.47800 40.24000 30.32000
H  -0.83100 41.23900 31.64200
H  0.75500 40.40700 31.59900
H  1.15300 44.51000 31.20700
H  2.81100 44.56300 30.59800
H  2.06500 44.68000 33.16200
H  3.58600 43.96800 32.81000
H  -4.21400 39.63100 27.21100
H  -4.63800 41.19500 27.57400
H  -3.33100 40.20800 28.44000
H  -5.32000 40.21900 25.63200
H  -4.54400 38.65500 25.15900
H  -5.56600 39.58800 23.97600
H  0.42000 42.69900 20.96500
H  3.05400 42.08300 21.08000
H  1.98300 40.17200 20.74200
H  0.48400 40.60800 19.87000
H  0.36900 39.88600 21.44100
H  2.54000 44.74500 22.02700
H  1.62100 44.51800 20.57200
H  4.29200 45.24600 20.95500
H  3.57000 45.01900 19.33900
H  4.26900 43.59300 20.14000
H  7.00900 42.52800 24.23100
H  7.88900 43.47100 25.29800
H  6.72500 44.32900 24.10200
H  5.01000 43.84100 30.06200
H  5.48000 40.44800 32.67500
H  6.63500 41.69700 33.33200
H  7.13800 40.57200 32.13600

