158

Mg 25.68200 0.53400 29.67500
C  27.85900 0.25800 32.30900
C  23.06600 0.84500 31.91100
C  23.61900 0.66900 27.05000
C  28.29500 -0.49700 27.40100
N  25.53100 0.53700 31.86800
C  26.55400 0.53500 32.75100
C  26.02500 0.76100 34.17800
C  24.51100 0.91400 33.99200
C  24.36800 0.81500 32.48500
C  23.72800 -0.14700 34.87100
C  26.66000 1.99300 34.88000
C  27.07200 1.85200 36.32700
H  26.61100 2.96500 37.24600
N  23.63300 0.60500 29.53400
C  22.72100 0.78500 30.55600
C  21.39400 0.79600 30.00400
C  21.51200 0.76000 28.53700
C  23.00600 0.67500 28.36400
C  20.17900 0.80100 30.86000
C  20.38800 0.63700 27.40800
O  20.75800 0.54600 26.24100
C  18.97500 0.74100 27.74600
N  25.92300 0.19200 27.51400
C  24.93300 0.45600 26.64400
C  25.40800 0.21800 25.23800
C  26.88700 -0.12200 25.37800
C  27.00100 -0.23000 26.88600
C  24.56000 -0.82000 24.43000
C  27.78900 0.91000 24.71700
C  28.77900 0.35300 23.67500
N  27.62700 0.05000 29.70300
C  28.54500 -0.40900 28.76800
C  29.86300 -0.55800 29.37600
C  29.64800 -0.25600 30.78200
C  28.22500 -0.00400 30.93800
C  31.13700 -0.86000 28.68200
C  30.30500 -0.14800 32.07100
O  31.46400 -0.12800 32.41900
C  29.18900 0.21300 33.11800
C  29.13200 -0.88900 34.15100
O  28.93500 -2.05900 33.88100
O  29.52200 -0.32800 35.41600
C  29.33800 -1.19500 36.57500
H  22.19800 0.99300 32.55700
H  23.04100 0.87500 26.14700
H  29.06600 -0.81900 26.69800
H  26.33700 -0.14500 34.69600
H  24.23700 1.90600 34.35100
H  22.87000 0.36100 35.31100
H  24.41100 -0.58300 35.59900
H  23.52300 -1.00000 34.22400
H  26.08100 2.90900 34.76600
H  27.52800 2.31500 34.30500
H  28.15600 1.96200 36.37200
H  26.76800 0.85900 36.66000
H  19.85900 1.83600 30.97900
H  20.11300 0.40300 31.87200
H  19.29200 0.34000 30.42400
H  18.52200 -0.24600 27.82800
H  18.43500 1.36500 27.03400
H  18.75000 1.27900 28.66700
H  25.22100 1.24900 24.93700
H  27.02800 -1.14700 25.03400
H  25.18400 -1.64000 24.07500
H  24.16700 -0.31000 23.55100
H  23.70900 -1.13400 25.03400
H  28.32700 1.58700 25.38100
H  27.16900 1.54300 24.08400
H  28.43100 0.53200 22.65800
H  28.90800 -0.71600 23.84800
H  29.72200 0.89900 23.66600
H  31.06300 -0.82700 27.59500
H  31.24100 -1.90100 28.98600
H  31.97400 -0.27200 29.05900
H  29.31100 1.21300 33.53300
H  28.78700 -2.09300 36.29400
H  28.95300 -0.61800 37.41600
H  30.34300 -1.53600 36.82400
Mg 26.89000 50.68200 26.60800
C  24.92900 51.77900 29.23300
C  29.21500 49.56500 28.87000
C  29.08000 50.17600 24.09200
C  24.54600 51.93800 24.24200
N  26.98700 50.64200 28.83300
C  26.06800 51.11800 29.69700
C  26.44300 50.83600 31.17500
C  27.88200 50.23600 31.06600
C  28.01300 50.09700 29.49400
C  29.01400 51.26100 31.64500
C  25.43400 49.86500 31.89000
C  24.51200 50.55900 32.88200
H  24.52000 49.95200 34.25600
N  28.85700 50.03900 26.53500
C  29.58300 49.57300 27.54300
C  30.86300 49.10200 27.14000
C  30.96500 49.37200 25.74000
C  29.61100 49.89900 25.31800
C  31.92700 48.60200 28.11300
C  32.09200 49.14800 24.80800
O  31.98400 49.35800 23.59900
C  33.32600 48.58300 25.26000
N  26.79300 51.06000 24.43000
C  27.82400 50.57700 23.68000
C  27.43100 50.61000 22.12600
C  25.91300 51.15100 22.20100
C  25.69100 51.33900 23.74700
C  28.23300 51.45400 21.18100
C  24.77100 50.29600 21.60500
C  24.08200 50.91800 20.39600
N  25.10800 51.63900 26.65300
C  24.22800 52.05400 25.65700
C  23.07100 52.64700 26.28800
C  23.32500 52.62000 27.66000
C  24.52200 51.93900 27.85900
C  21.91300 53.24800 25.51900
C  22.80700 53.01400 29.00000
O  21.82500 53.53900 29.29600
C  23.90700 52.53500 29.98200
C  24.45600 53.72200 30.65000
O  25.19200 54.54700 30.16500
O  23.87800 53.81500 31.89100
C  23.92400 55.19700 32.55200
H  29.92200 49.31300 29.66300
H  29.86100 50.15200 23.32900
H  23.85200 52.12300 23.41900
H  26.40400 51.82300 31.63700
H  28.02000 49.26700 31.54600
H  28.63800 52.02300 32.32800
H  29.59500 51.68500 30.82600
H  29.68900 50.75300 32.33300
H  26.05100 49.07300 32.31400
H  24.75200 49.53300 31.10700
H  23.49800 50.45700 32.49600
H  24.75600 51.61500 33.00200
H  31.92500 49.07500 29.09500
H  32.93600 48.84000 27.77700
H  31.86900 47.51300 28.10600
H  33.95400 49.25600 25.84300
H  33.83500 48.18900 24.38100
H  33.04200 47.71900 25.86200
H  27.40800 49.59600 21.72700
H  25.72300 52.14300 21.79000
H  29.28200 51.40700 21.47400
H  27.97800 52.51200 21.12000
H  28.10100 50.92900 20.23500
H  24.02300 50.18600 22.39100
H  25.22800 49.33000 21.39000
H  22.99500 50.95700 20.47000
H  24.40100 50.27600 19.57500
H  24.35600 51.96100 20.23800
H  21.47000 52.61000 24.75400
H  22.13000 54.09700 24.87100
H  21.14000 53.44300 26.26200
H  23.54100 51.87800 30.77100
H  23.84500 55.86800 31.69700
H  24.84700 55.37400 33.10500
H  23.03700 55.20500 33.18600

