158

Mg 30.26200 57.52300 40.21200
C  27.44000 55.73000 39.26400
C  32.14000 54.67000 39.41900
C  33.05300 59.26300 40.35600
C  28.36900 60.39800 40.27100
N  29.82700 55.34900 39.53300
C  28.57800 54.89100 39.26900
C  28.62100 53.38500 38.83500
C  30.14800 53.00100 38.93100
C  30.78000 54.36700 39.34200
C  30.50300 51.88200 39.91800
C  28.05300 52.99800 37.44900
C  28.57900 53.80200 36.29900
H  27.64300 54.11800 35.12200
N  32.33300 57.01300 40.03900
C  32.91400 55.75900 39.75500
C  34.40000 55.88800 39.80000
C  34.64700 57.27600 40.09800
C  33.30600 57.93400 40.24700
C  35.29300 54.75100 39.56900
C  36.03700 57.96500 40.27800
O  36.97500 57.17400 40.05800
C  36.29700 59.41800 40.59200
N  30.59900 59.55400 40.25600
C  31.93700 60.04500 40.33700
C  31.88400 61.61000 40.35900
C  30.35300 62.00300 40.38700
C  29.72500 60.61600 40.33800
C  32.75700 62.18400 41.47000
C  29.94900 62.96800 39.28600
C  29.75400 64.39600 39.68600
N  28.31300 58.02200 39.82000
C  27.64300 59.24900 40.08900
C  26.21200 59.02300 39.84600
C  26.12100 57.63500 39.54500
C  27.44400 57.08500 39.53700
C  25.09900 60.02700 39.94200
C  25.14900 56.62700 39.16500
O  23.96200 56.77500 39.01800
C  25.96600 55.34000 38.85000
C  25.36200 54.32300 39.76100
O  25.48200 54.29200 40.99500
O  24.62400 53.45000 38.94700
C  23.84900 52.35700 39.57300
H  32.66700 53.74400 39.17600
H  33.90400 59.93800 40.46800
H  27.72100 61.27200 40.36700
H  27.96600 52.87300 39.54100
H  30.50200 52.73700 37.93400
H  31.06600 52.25300 40.77500
H  31.17000 51.19200 39.40100
H  29.55900 51.43900 40.23400
H  26.97300 53.11900 37.53000
H  28.14500 51.96000 37.13000
H  29.40000 53.18300 35.93600
H  29.01200 54.73200 36.66700
H  35.73300 54.76100 38.57200
H  34.63700 53.88100 39.59300
H  35.97800 54.57000 40.39700
H  35.92400 60.05000 39.78600
H  37.37400 59.52700 40.46400
H  35.99800 59.67600 41.60800
H  32.34700 61.90200 39.41700
H  30.06300 62.45300 41.33700
H  33.42600 62.96400 41.10500
H  33.37800 61.46200 42.00000
H  32.21700 62.63500 42.30300
H  29.01800 62.58600 38.86600
H  30.68700 63.08600 38.49300
H  29.77400 64.47300 40.77300
H  28.78300 64.77600 39.36600
H  30.42400 65.05700 39.13600
H  25.10700 60.53600 40.90600
H  24.16000 59.50600 39.75900
H  25.14800 60.72000 39.10200
H  25.81400 55.01800 37.82000
H  23.03800 52.68400 40.22500
H  24.44400 51.66900 40.17300
H  23.47800 51.69800 38.78800
Mg -2.94200 35.78500 26.59700
C  -4.48900 33.94900 29.14700
C  -1.44000 37.82700 28.98800
C  -1.77100 37.76000 24.05600
C  -4.76400 33.98900 24.34900
N  -3.12800 35.90300 28.81200
C  -3.65600 34.95800 29.66600
C  -3.49900 35.38700 31.14800
C  -2.38800 36.47700 30.97300
C  -2.32500 36.78400 29.49300
C  -2.39100 37.80100 31.79300
C  -3.18000 34.22700 32.12700
C  -2.01900 34.32100 33.11600
H  -2.07400 33.48200 34.38700
N  -1.72200 37.46200 26.53900
C  -1.14400 38.12100 27.60300
C  -0.13500 39.06100 27.10100
C  -0.25200 39.11800 25.68800
C  -1.31900 38.12500 25.37200
C  0.66200 39.97500 28.05500
C  0.46600 39.93500 24.70800
O  0.26500 39.91000 23.49100
C  1.53900 40.80500 25.18300
N  -3.45500 36.08100 24.53500
C  -2.70400 36.77800 23.65600
C  -3.15000 36.55100 22.28000
C  -3.88600 35.21000 22.39400
C  -3.97200 35.06500 23.90300
C  -3.96500 37.73500 21.84400
C  -3.21900 34.03100 21.58000
C  -2.12200 33.22500 22.28000
N  -4.51800 34.37300 26.66600
C  -5.08900 33.68300 25.63800
C  -5.96400 32.67600 26.13700
C  -5.68400 32.72700 27.49000
C  -4.91500 33.80000 27.80700
C  -6.84200 31.58200 25.42900
C  -6.02100 32.06000 28.75300
O  -6.67200 31.02100 28.91200
C  -5.29900 32.83300 29.91800
C  -6.37200 33.35300 30.71400
O  -7.22000 34.10900 30.32000
O  -6.29600 32.81700 31.95900
C  -7.32500 33.24600 32.86100
H  -0.85100 38.38100 29.72300
H  -1.42000 38.39500 23.24000
H  -5.09800 33.25100 23.61600
H  -4.38500 35.97400 31.39000
H  -1.45200 35.97900 31.22700
H  -2.55700 38.71000 31.21400
H  -1.42000 37.80500 32.28900
H  -3.08600 37.64200 32.61700
H  -3.06800 33.33400 31.51200
H  -3.89500 34.10400 32.94100
H  -1.87000 35.37200 33.36100
H  -1.08500 34.04800 32.62500
H  1.71700 39.83600 27.82000
H  0.56300 39.73300 29.11300
H  0.49300 41.05100 28.02700
H  1.90700 41.24500 24.25600
H  2.33300 40.22500 25.65300
H  1.03700 41.58500 25.75500
H  -2.24600 36.35900 21.70200
H  -4.87600 35.42700 21.99200
H  -4.75700 37.57500 21.11300
H  -3.21200 38.28900 21.28300
H  -4.34900 38.27300 22.71100
H  -2.67800 34.36200 20.69400
H  -3.97900 33.37200 21.15900
H  -1.37700 32.91000 21.54900
H  -2.54200 32.30800 22.69500
H  -1.64300 33.78100 23.08600
H  -6.32300 30.63800 25.59300
H  -7.08900 31.88500 24.41100
H  -7.80800 31.53300 25.93200
H  -4.69200 32.04300 30.36000
H  -8.23200 33.12500 32.26900
H  -7.19400 34.26600 33.22100
H  -7.30100 32.58600 33.72800

