158

Mg 35.88900 2.43900 30.48700
C  33.42200 3.33200 32.75400
C  38.27200 2.24700 33.08000
C  38.31200 1.79800 28.21200
C  33.61900 3.16100 27.90500
N  35.81900 2.87100 32.63200
C  34.67200 2.98900 33.40200
C  34.91200 2.99600 34.85700
C  36.55700 2.83200 34.88100
C  36.98900 2.62000 33.42400
C  37.32300 4.01500 35.55400
C  34.04900 1.95300 35.65500
C  33.97700 2.10000 37.21000
H  34.79300 3.16500 37.98600
N  37.97600 2.08700 30.63000
C  38.72100 1.89000 31.76800
C  40.05100 1.42000 31.40400
C  40.12600 1.45900 30.00300
C  38.79600 1.71700 29.52900
C  41.11600 1.01900 32.37400
C  41.42400 1.26500 29.12900
O  41.34700 1.48900 27.92200
C  42.71900 0.72900 29.70600
N  35.92200 2.54400 28.38100
C  37.08700 2.14500 27.73100
C  36.85400 2.37200 26.22600
C  35.31300 2.47300 26.13400
C  34.89000 2.69600 27.51100
C  37.75600 3.49800 25.60000
C  34.47500 1.35600 25.37500
C  34.03100 0.15700 26.18100
N  33.89000 3.04800 30.31300
C  33.13000 3.34100 29.21600
C  31.78200 3.67400 29.64500
C  31.84700 3.74100 31.05300
C  33.12000 3.24500 31.37700
C  30.60100 4.02300 28.78100
C  31.11700 3.99800 32.25800
O  29.99100 4.50200 32.42200
C  32.11500 3.65200 33.42700
C  32.23900 4.81200 34.35300
O  32.80200 5.87800 34.02200
O  31.62700 4.46800 35.54700
C  31.55000 5.45100 36.57200
H  38.88300 2.24400 33.98600
H  39.01600 1.61600 27.39800
H  32.90700 3.33600 27.09600
H  34.68900 4.01300 35.17700
H  36.88800 1.95700 35.44000
H  36.95100 4.01700 36.57900
H  36.94600 4.93100 35.10100
H  38.40700 4.02900 35.44200
H  34.49800 0.96800 35.52800
H  33.07300 1.95100 35.17100
H  34.29000 1.16300 37.67200
H  32.92200 2.11800 37.48300
H  41.93100 1.74200 32.41500
H  41.57600 0.04200 32.22700
H  40.83000 0.93100 33.42300
H  43.36000 0.52500 28.84900
H  42.53600 -0.17800 30.28300
H  43.28600 1.36400 30.38700
H  37.13100 1.43700 25.73800
H  35.01600 3.45100 25.75600
H  37.07000 4.13500 25.04200
H  38.49700 3.13000 24.89100
H  38.18800 4.27900 26.22600
H  35.16500 1.01200 24.60500
H  33.64200 1.86400 24.88900
H  34.41200 -0.70100 25.62800
H  32.94200 0.10000 26.20800
H  34.52300 0.09200 27.15100
H  29.73300 4.10200 29.43500
H  30.42300 3.39600 27.90700
H  30.81400 4.96400 28.27400
H  31.62700 2.85700 33.99200
H  31.85900 6.44300 36.24500
H  31.90000 5.12400 37.55200
H  30.50500 5.65100 36.81100
Mg 48.40900 46.43200 42.50700
C  45.22700 46.79000 41.06900
C  48.56700 43.23600 40.94300
C  51.88100 46.30000 43.03500
C  48.35700 49.78900 43.35800
N  47.05600 45.10000 41.30300
C  45.81700 45.51200 40.79000
C  45.29600 44.42700 39.84600
C  46.10400 43.16800 40.29400
C  47.31300 43.81100 40.87800
C  45.40600 42.22200 41.29600
C  45.34400 44.76700 38.34100
C  43.96400 44.70900 37.60900
H  44.01200 43.92300 36.25800
N  50.03200 44.90000 42.13000
C  49.79000 43.69100 41.51400
C  51.06200 42.95600 41.50100
C  52.06500 43.78200 42.11500
C  51.31700 45.07100 42.48700
C  51.16900 41.61300 41.02200
C  53.50800 43.43600 42.47800
O  53.95500 42.29300 42.22300
C  54.51300 44.41200 43.05400
N  49.92800 47.76500 43.16500
C  51.25500 47.47700 43.39600
C  52.06500 48.72600 43.88400
C  50.87000 49.81400 43.87100
C  49.60000 49.06600 43.50400
C  52.53100 48.45900 45.39500
C  51.16300 51.00800 42.88200
C  51.14100 52.47600 43.43400
N  47.07100 47.95200 42.45400
C  47.15100 49.24700 42.85200
C  45.91900 49.86200 42.62200
C  45.08400 48.96200 41.96000
C  45.85100 47.78200 41.81700
C  45.45600 51.25500 43.03500
C  43.75700 48.75100 41.30800
O  42.76300 49.44100 41.21600
C  43.88200 47.28400 40.67400
C  42.69500 46.44900 41.08400
O  41.84400 46.03200 40.36100
O  42.79000 46.20200 42.39900
C  41.95200 45.19200 43.03500
H  48.76400 42.25000 40.51600
H  52.95100 46.27100 43.24800
H  48.54100 50.83400 43.61300
H  44.27000 44.33800 40.20400
H  46.32100 42.58300 39.40100
H  44.46500 42.61800 41.67800
H  45.96700 42.08500 42.22100
H  45.23600 41.27600 40.78100
H  46.00200 44.09800 37.78700
H  45.65300 45.81300 38.34600
H  43.61900 45.70200 37.32200
H  43.20300 44.22900 38.22400
H  52.21800 41.34900 40.88800
H  50.81700 41.46600 40.00100
H  50.69800 40.87900 41.67500
H  54.14600 44.54400 44.07100
H  54.62600 45.38000 42.56500
H  55.43100 43.82500 43.08500
H  52.86400 48.96700 43.18300
H  50.72800 50.19400 44.88300
H  52.40200 49.37700 45.96900
H  53.58300 48.17600 45.41900
H  51.93300 47.68600 45.87700
H  50.50500 50.82600 42.03200
H  52.15800 50.83300 42.47300
H  50.70200 52.43600 44.43100
H  50.40800 53.09000 42.91100
H  52.11500 52.96400 43.47600
H  45.95100 51.38200 43.99800
H  44.37000 51.19400 43.10800
H  45.82400 52.09600 42.44800
H  43.81300 47.42800 39.59600
H  42.53100 44.29600 43.25700
H  41.07300 44.85900 42.48300
H  41.61400 45.51300 44.02000

