158

Mg 40.70500 9.89400 30.04500
C  42.56300 11.10300 32.68300
C  38.23200 8.79300 32.12300
C  39.12200 8.54200 27.49700
C  43.36300 10.82900 27.83400
N  40.49100 9.84500 32.19200
C  41.33700 10.48800 33.04400
C  40.65000 10.55900 34.49500
C  39.34100 9.73700 34.26000
C  39.35300 9.41700 32.83500
C  39.20900 8.42500 35.06400
C  40.28400 11.96700 34.94200
C  39.95200 12.06600 36.42400
H  40.91500 12.90000 37.34500
N  38.96000 8.64400 29.85600
C  38.04100 8.41000 30.83800
C  36.86000 7.87200 30.31500
C  37.13400 7.67600 28.90000
C  38.46900 8.24700 28.68900
C  35.69300 7.29700 31.20100
C  36.29500 7.07800 27.76700
O  36.72900 6.90000 26.58500
C  34.92000 6.60100 28.17500
N  41.20400 9.79600 27.93700
C  40.32800 9.11900 27.16500
C  40.81500 9.14000 25.70600
C  42.15300 10.00900 25.74500
C  42.31000 10.13100 27.24500
C  41.11500 7.66000 25.16000
C  41.89100 11.46700 25.23400
C  40.60200 12.25400 25.60500
N  42.60200 10.78500 30.20100
C  43.48500 11.15400 29.25700
C  44.59200 11.79800 29.84100
C  44.21200 11.95000 31.21100
C  43.03600 11.19300 31.35600
C  45.93300 12.21000 29.20800
C  44.66900 12.49100 32.46000
O  45.63000 13.12700 32.76900
C  43.45900 12.03400 33.48500
C  44.11200 11.33100 34.54200
O  44.86300 10.36700 34.46500
O  43.71100 11.83500 35.72500
C  44.06400 11.13900 36.92300
H  37.33600 8.54800 32.69700
H  38.67800 8.27300 26.53600
H  44.26000 11.06900 27.26000
H  41.27800 10.08600 35.25000
H  38.40000 10.28700 34.27400
H  38.14200 8.20500 35.08700
H  39.66300 8.64600 36.02900
H  39.80800 7.67000 34.55600
H  39.51000 12.29900 34.25100
H  41.15000 12.61900 34.83200
H  39.99500 11.07900 36.88600
H  38.93500 12.45600 36.43200
H  34.68900 7.37900 30.78400
H  35.69700 7.54500 32.26200
H  35.73600 6.20800 31.21700
H  35.08800 5.84700 28.94400
H  34.43200 6.13800 27.31700
H  34.39600 7.51600 28.45200
H  40.10200 9.59600 25.02000
H  42.96900 9.40900 25.34200
H  41.67200 7.03100 25.85400
H  41.61500 7.61900 24.19200
H  40.16800 7.13300 25.04400
H  42.04200 11.49500 24.15500
H  42.65300 12.19500 25.51300
H  40.18600 12.56400 24.64700
H  40.77000 13.11100 26.25600
H  39.89000 11.59100 26.09700
H  46.69300 12.43800 29.95600
H  45.79100 13.06700 28.54900
H  46.38500 11.43800 28.58500
H  43.15900 13.00000 33.89200
H  45.15300 11.13300 36.97000
H  43.70400 10.11800 36.79400
H  43.59400 11.50800 37.83400
Mg -10.83300 38.07700 41.51200
C  -8.40000 35.55600 41.24100
C  -8.88200 40.08800 39.60300
C  -13.18100 40.34200 41.65300
C  -12.92900 35.61400 42.82200
N  -8.86500 37.78500 40.44700
C  -8.06600 36.70300 40.53100
C  -6.81300 36.94900 39.67800
C  -6.97700 38.39300 39.13900
C  -8.23600 38.83600 39.80800
C  -5.71700 39.30200 39.19400
C  -6.61000 35.73200 38.69400
C  -5.23800 35.01300 38.69100
H  -4.14300 35.48400 37.71900
N  -10.96600 39.98300 40.76800
C  -10.07700 40.62700 39.93900
C  -10.53700 41.97900 39.71800
C  -11.76400 42.13500 40.36500
C  -12.03000 40.80000 40.99400
C  -9.86000 42.99200 38.79700
C  -12.65800 43.40400 40.40000
O  -12.42100 44.46900 39.77900
C  -13.94800 43.49500 41.28400
N  -12.91500 37.86100 41.90100
C  -13.61800 39.02600 42.08500
C  -14.96400 38.74100 42.74400
C  -15.00800 37.17900 42.91600
C  -13.50300 36.82600 42.55800
C  -15.21400 39.57200 44.05200
C  -15.99600 36.32100 42.10700
C  -16.89400 35.42100 42.87400
N  -10.72300 35.96700 41.95900
C  -11.64100 35.16300 42.58300
C  -11.09200 33.76900 42.80600
C  -9.76400 33.94900 42.31200
C  -9.61600 35.22800 41.84900
C  -11.74400 32.54200 43.38000
C  -8.49500 33.30400 42.22400
O  -8.23200 32.14900 42.55400
C  -7.49100 34.32300 41.53000
C  -6.19200 34.52800 42.27500
O  -5.28200 33.76000 42.27100
O  -6.10000 35.76400 42.87600
C  -4.80000 36.18600 43.46700
H  -8.17400 40.68000 39.01900
H  -13.92400 41.08400 41.95200
H  -13.61500 34.96600 43.37100
H  -5.85900 36.90200 40.20300
H  -7.26700 38.23700 38.10000
H  -5.57300 39.56700 38.14700
H  -4.79800 38.87000 39.59200
H  -5.92500 40.17000 39.82000
H  -6.70200 36.24000 37.73300
H  -7.37100 34.95400 38.63000
H  -5.44200 33.95600 38.51800
H  -4.87000 35.08100 39.71400
H  -9.08300 43.56800 39.30000
H  -10.61300 43.72600 38.50700
H  -9.45900 42.45700 37.93700
H  -13.71000 43.19300 42.30400
H  -14.77300 42.97100 40.80100
H  -14.17000 44.54900 41.44700
H  -15.69500 38.99200 41.97500
H  -15.08500 36.85400 43.95400
H  -16.05900 39.26500 44.66800
H  -15.46100 40.55500 43.64900
H  -14.32600 39.63900 44.68000
H  -15.34100 35.87600 41.35800
H  -16.67700 36.94700 41.53000
H  -16.28300 34.65400 43.35000
H  -17.63700 34.99000 42.20300
H  -17.43800 36.09900 43.53100
H  -11.87800 31.68700 42.71800
H  -12.72600 32.84100 43.74600
H  -11.22900 32.30700 44.31100
H  -7.20900 33.99600 40.52900
H  -4.47600 36.98900 42.80500
H  -4.06600 35.39400 43.61700
H  -5.03100 36.79200 44.34400

