158

Mg 53.66900 23.74800 44.79800
C  51.19300 26.26800 44.14900
C  51.53800 21.52800 43.18500
C  56.02700 21.70000 45.19200
C  55.53900 26.26100 46.27100
N  51.69300 23.99800 43.64300
C  50.93900 25.12400 43.41900
C  49.82500 24.71900 42.42800
C  49.76000 23.23400 42.58400
C  51.10300 22.88000 43.08600
C  48.49500 22.60400 43.36200
C  50.23200 25.17900 41.02600
C  49.09100 25.41500 40.08000
H  49.41900 25.86900 38.67100
N  53.75900 21.81500 44.31000
C  52.79100 21.03400 43.78100
C  53.21700 19.66600 43.87400
C  54.49500 19.65700 44.49900
C  54.84900 21.12100 44.74100
C  52.39600 18.56100 43.35300
C  55.33700 18.35500 44.79500
O  54.91000 17.21900 44.51500
C  56.62700 18.35300 45.39600
N  55.62600 24.05200 45.27500
C  56.44700 22.97400 45.41900
C  57.88500 23.37100 45.81600
C  57.65500 24.87600 46.21900
C  56.16900 25.06500 45.91400
C  58.64000 22.58400 46.94000
C  58.62500 25.75600 45.38100
C  59.66300 26.67200 46.17300
N  53.47000 25.90600 45.15200
C  54.29200 26.70300 45.88500
C  53.71000 28.07300 45.94400
C  52.46600 27.92000 45.27200
C  52.35300 26.55100 44.90600
C  54.32600 29.20200 46.73300
C  51.29400 28.64200 44.92200
O  50.97600 29.79700 45.05100
C  50.39800 27.57900 44.22200
C  49.95900 28.12400 42.95900
O  50.68600 28.67300 42.12300
O  48.58600 27.96200 42.80700
C  48.07700 28.80300 41.70600
H  50.86700 20.84500 42.66100
H  56.74000 20.88100 45.30400
H  56.15000 27.08300 46.64900
H  48.87500 25.09800 42.80400
H  49.64900 22.79000 41.59400
H  47.72200 23.36900 43.43700
H  48.80900 22.26400 44.34900
H  48.05400 21.73400 42.87600
H  51.02200 24.55600 40.60700
H  50.77800 26.11900 41.11800
H  48.50100 26.20300 40.54900
H  48.49700 24.50800 39.96800
H  52.38800 18.52800 42.26400
H  51.35400 18.76200 43.60400
H  52.57700 17.62000 43.87300
H  56.46500 18.74600 46.40000
H  57.11700 19.01300 44.68100
H  57.01500 17.34000 45.50100
H  58.47300 23.18100 44.91800
H  57.80400 24.99800 47.29100
H  58.71200 23.08700 47.90400
H  59.61700 22.33100 46.52700
H  58.09300 21.65300 47.08700
H  58.04600 26.52600 44.87100
H  59.07600 25.15600 44.59100
H  60.69500 26.37400 45.99200
H  59.44500 26.88800 47.21900
H  59.57800 27.63800 45.67500
H  54.96900 29.83500 46.12100
H  54.78900 28.76400 47.61700
H  53.41100 29.66500 47.10300
H  49.50600 27.40200 44.82300
H  48.15400 28.34700 40.71900
H  48.50000 29.80600 41.63800
H  47.01700 29.05200 41.75700
Mg 27.12200 50.06900 26.83100
C  24.86900 51.15100 29.32900
C  29.29600 49.12000 29.13500
C  29.15000 49.55700 24.29300
C  24.68100 51.44200 24.52200
N  27.17400 50.19400 28.99700
C  26.07900 50.54400 29.79500
C  26.38900 50.20900 31.34200
C  27.88000 49.82000 31.24500
C  28.13900 49.59800 29.70800
C  28.82400 50.95400 31.77700
C  25.40200 49.05100 31.89700
C  24.68500 49.34300 33.27200
H  25.40200 50.36800 34.25300
N  29.01400 49.47200 26.67600
C  29.75200 49.08300 27.75900
C  31.03900 48.60200 27.23900
C  31.01800 48.82300 25.88600
C  29.71400 49.30300 25.56100
C  32.23300 48.20600 28.15500
C  32.18200 48.57100 24.78200
O  32.03100 48.82900 23.59600
C  33.48600 48.10500 25.23600
N  26.90200 50.49100 24.69700
C  27.90700 50.05200 23.90600
C  27.49300 50.19700 22.44700
C  26.15200 50.95400 22.53100
C  25.87000 50.87900 24.01600
C  28.45200 50.82800 21.45500
C  24.93600 50.48900 21.57600
C  24.92200 51.19600 20.20100
N  25.24800 51.24100 26.85500
C  24.40600 51.64200 25.84300
C  23.28800 52.30800 26.37700
C  23.38800 52.07800 27.77900
C  24.62800 51.42000 27.94600
C  22.11500 52.91500 25.61000
C  22.73900 52.30600 29.16000
O  21.75300 52.85000 29.45400
C  23.63700 51.52400 30.14000
C  23.92300 52.51800 31.26400
O  24.88100 53.24300 31.36300
O  22.86500 52.53500 32.19300
C  22.96500 53.56700 33.22300
H  30.09200 48.79000 29.80600
H  29.77500 49.34900 23.42200
H  24.12000 52.11900 23.87500
H  26.30500 51.11900 31.93700
H  28.10300 48.93000 31.83400
H  29.56800 51.30100 31.06000
H  29.32900 50.55500 32.65700
H  28.24400 51.80100 32.14200
H  25.98300 48.13000 31.94600
H  24.56300 48.95700 31.20700
H  24.54700 48.45200 33.88600
H  23.73700 49.73500 32.90500
H  32.24200 48.40600 29.22600
H  33.06300 48.86200 27.89400
H  32.51500 47.16600 27.98800
H  34.05700 47.78400 24.36500
H  33.53200 47.22600 25.88000
H  33.97000 48.93800 25.74700
H  27.29900 49.18800 22.08300
H  26.29700 52.00600 22.28600
H  29.50000 50.83000 21.75500
H  28.12800 51.84600 21.23600
H  28.52000 50.29200 20.50800
H  23.97600 50.76900 22.00800
H  24.92700 49.41100 21.41600
H  25.71900 51.92700 20.07100
H  23.92300 51.59700 20.03000
H  25.04300 50.51900 19.35600
H  21.55900 52.34400 24.86700
H  22.52000 53.73900 25.02300
H  21.31600 53.11600 26.32300
H  23.10700 50.63700 30.48900
H  21.99200 53.62100 33.71100
H  23.13600 54.58400 32.87100
H  23.65600 53.35200 34.03800

