158

Mg 6.74900 53.04300 41.60800
C  6.30900 49.47300 41.22200
C  9.92900 52.58700 40.19600
C  6.90700 56.19100 41.32700
C  3.35800 53.09900 42.43000
N  7.83300 51.23400 40.64800
C  7.51700 49.95200 40.71800
C  8.69800 49.05700 40.24800
C  9.93300 49.99200 40.14700
C  9.21800 51.34300 40.41200
C  11.16500 49.66900 41.08900
C  8.52400 48.40400 38.80800
C  8.42800 49.34400 37.56500
H  7.31400 49.07400 36.61900
N  8.23100 54.33900 40.82600
C  9.48200 53.91500 40.40000
C  10.23800 55.15700 40.18200
C  9.37900 56.29600 40.52300
C  8.16600 55.60800 40.98200
C  11.60900 55.31300 39.51200
C  9.59900 57.74900 40.22700
O  10.57900 58.05300 39.54300
C  8.67100 58.87300 40.68500
N  5.27700 54.44400 41.76400
C  5.62100 55.73200 41.66400
C  4.51400 56.64700 42.00900
C  3.32600 55.63700 42.13900
C  4.00100 54.29800 42.14500
C  4.70200 57.52400 43.27200
C  2.30200 55.65200 40.91000
C  0.79100 55.67200 41.34800
N  5.15900 51.63700 41.91800
C  3.90100 51.83700 42.29600
C  3.25000 50.55600 42.59800
C  4.16400 49.62600 42.16000
C  5.29500 50.33400 41.73700
C  1.84100 50.40000 43.03400
C  4.36100 48.26500 41.92700
O  3.62500 47.24700 42.11400
C  5.78100 48.04100 41.41500
C  5.55400 47.35600 40.11100
O  4.91600 47.76700 39.16000
O  6.32100 46.16900 40.14100
C  6.05900 45.17900 39.07700
H  10.98700 52.46500 39.95200
H  6.89200 57.28300 41.32300
H  2.30400 53.03800 42.70900
H  8.88200 48.15600 40.83300
H  10.39600 49.89600 39.16500
H  12.09400 49.65700 40.52000
H  11.07300 48.64400 41.44900
H  11.18500 50.38300 41.91200
H  7.57200 47.87200 38.80700
H  9.29500 47.64200 38.69300
H  9.33600 49.18100 36.98300
H  8.27300 50.40600 37.75900
H  11.58900 55.95000 38.62800
H  12.07200 54.33600 39.37000
H  12.16300 55.80700 40.31000
H  8.52100 58.87600 41.76500
H  7.71600 58.79900 40.16400
H  9.10200 59.85300 40.48000
H  4.18700 57.38100 41.27300
H  2.80100 55.83000 43.07500
H  4.10500 57.24000 44.13900
H  4.35000 58.53800 43.08000
H  5.76000 57.49100 43.53300
H  2.43200 54.85100 40.18200
H  2.27600 56.60400 40.37900
H  0.46500 56.71200 41.31000
H  0.69000 55.26700 42.35500
H  0.10100 55.09400 40.73400
H  1.69900 50.19300 44.09500
H  1.41100 49.53400 42.53000
H  1.19500 51.16300 42.60100
H  6.43200 47.56200 42.14600
H  5.10400 44.72300 39.34000
H  6.76400 44.35600 39.19000
H  6.08600 45.67700 38.10800
Mg -11.91900 38.05700 42.33500
C  -9.85700 35.47400 41.05200
C  -9.90300 40.28400 40.48600
C  -14.34800 40.48500 42.50900
C  -14.06500 35.78300 43.57000
N  -10.09300 37.90700 40.92700
C  -9.48400 36.71500 40.56400
C  -8.27500 36.97400 39.63700
C  -8.07900 38.48300 39.87600
C  -9.41000 38.95000 40.39300
C  -6.78900 38.91500 40.78900
C  -8.49100 36.52600 38.19600
C  -7.50600 35.57600 37.46100
H  -6.64000 36.06600 36.28000
N  -12.05900 40.11400 41.77100
C  -11.12800 40.82800 41.02500
C  -11.47600 42.24400 41.00100
C  -12.74600 42.34500 41.57200
C  -13.17500 40.94900 41.96900
C  -10.64300 43.43600 40.38600
C  -13.57900 43.58800 41.68200
O  -13.14800 44.63900 41.19900
C  -14.93000 43.55700 42.26300
N  -13.91000 38.11300 42.81100
C  -14.74000 39.20200 42.93100
C  -16.04400 39.02900 43.57800
C  -15.84900 37.51900 43.95300
C  -14.48400 37.08600 43.39000
C  -16.34100 39.96900 44.78500
C  -17.09800 36.63700 43.41000
C  -17.61600 35.82500 44.59200
N  -12.02500 36.02600 42.31600
C  -12.92200 35.19100 42.92700
C  -12.48600 33.87200 42.88700
C  -11.34000 33.95000 42.06300
C  -11.04300 35.28100 41.74800
C  -13.17000 32.67200 43.67800
C  -10.29800 33.12900 41.41400
O  -10.13000 31.91800 41.38800
C  -9.30900 34.11800 40.73900
C  -7.96600 33.77500 41.21800
O  -7.16800 33.09200 40.56300
O  -7.70700 34.33500 42.49300
C  -6.42200 34.12400 43.15300
H  -9.29100 40.99100 39.92200
H  -15.18100 41.18900 42.57600
H  -14.75600 35.12300 44.09700
H  -7.38700 36.44800 39.98800
H  -7.86800 38.93900 38.90900
H  -6.18100 38.01300 40.73100
H  -7.10200 39.19600 41.79500
H  -6.19600 39.73600 40.38600
H  -8.60700 37.41800 37.58000
H  -9.46900 36.04400 38.18100
H  -8.00400 34.62600 37.26600
H  -6.68900 35.47800 38.17600
H  -11.16000 43.77100 39.48700
H  -9.64100 43.06300 40.17000
H  -10.51000 44.23200 41.11800
H  -15.35200 44.54900 42.42400
H  -14.93500 42.95600 43.17300
H  -15.53900 42.97300 41.57400
H  -16.75200 39.18600 42.76400
H  -15.65600 37.51600 45.02600
H  -16.74500 39.38000 45.60900
H  -16.96900 40.83100 44.56200
H  -15.42600 40.39600 45.19600
H  -16.76600 35.92600 42.65300
H  -17.90100 37.16900 42.90100
H  -18.56900 36.19100 44.97400
H  -16.90400 35.79600 45.41700
H  -17.76100 34.79200 44.27700
H  -14.18000 32.88200 44.03000
H  -12.48100 32.34100 44.45500
H  -13.40600 31.80400 43.06300
H  -9.38200 33.77700 39.70600
H  -6.04100 33.10300 43.14800
H  -6.45000 34.32800 44.22400
H  -5.82700 34.87100 42.62800

