158

Mg 42.30500 41.74000 26.55000
C  41.31600 44.26000 28.78900
C  43.41600 39.93200 29.06000
C  43.51400 39.59500 24.31600
C  41.48200 44.08200 23.92800
N  42.28600 42.12100 28.62600
C  41.81100 43.14800 29.38200
C  41.89500 42.86900 30.87700
C  42.39600 41.38400 30.93600
C  42.70800 41.06900 29.44700
C  43.54400 41.08200 31.93600
C  40.56500 43.17400 31.69400
C  40.06800 42.31800 32.84900
H  39.41500 43.15800 33.98500
N  43.35200 39.98800 26.64100
C  43.60600 39.31700 27.78300
C  44.16500 37.98800 27.54200
C  44.17800 37.86700 26.07300
C  43.69200 39.16300 25.61600
C  44.52600 36.95700 28.66300
C  44.60900 36.74300 25.18600
O  44.50000 36.70900 23.93600
C  45.14500 35.57200 25.84100
N  42.69500 41.96700 24.44900
C  43.07200 40.78900 23.75100
C  42.75800 41.03200 22.24600
C  41.98300 42.35600 22.19600
C  42.09400 42.86600 23.63700
C  44.05200 40.98900 21.41400
C  40.53500 42.23700 21.78000
C  39.58900 41.45200 22.67700
N  41.56200 43.78400 26.35700
C  41.31500 44.57300 25.25600
C  40.77600 45.81100 25.70500
C  40.76300 45.77200 27.09000
C  41.22600 44.50400 27.44600
C  40.47900 46.95300 24.83500
C  40.53400 46.56100 28.23900
O  40.19100 47.73800 28.36300
C  40.87700 45.55700 29.47900
C  41.98200 46.13300 30.24100
O  43.15400 46.18000 29.91500
O  41.46000 46.76200 31.39400
C  42.45500 47.23700 32.35800
H  43.66700 39.31000 29.92100
H  43.81100 38.81700 23.60900
H  40.90300 44.71100 23.24900
H  42.69600 43.53600 31.19400
H  41.63600 40.66100 31.23300
H  43.49000 41.66100 32.85800
H  44.44900 41.24900 31.35200
H  43.40300 40.01900 32.13300
H  39.74100 43.20300 30.98100
H  40.66600 44.20200 32.04200
H  40.87300 41.74500 33.31000
H  39.29100 41.66000 32.46100
H  45.54500 36.61400 28.48500
H  43.84200 36.10900 28.61800
H  44.73700 37.39600 29.63900
H  44.36700 35.19200 26.50300
H  46.05300 35.83600 26.38300
H  45.36600 34.71900 25.19900
H  42.09700 40.21000 21.97000
H  42.37400 43.12600 21.53100
H  44.88200 41.22700 22.07900
H  44.05600 41.76000 20.64300
H  44.33900 40.07600 20.89100
H  40.67800 41.80400 20.79000
H  40.22000 43.27500 21.66500
H  39.03700 42.11500 23.34400
H  40.03500 40.68000 23.30400
H  38.86900 41.06100 21.95900
H  39.65800 46.62100 24.19900
H  41.43700 47.27900 24.43200
H  40.04500 47.81400 25.34400
H  40.05500 45.42500 30.18200
H  42.00500 48.04200 32.93800
H  43.40400 47.69900 32.08500
H  42.50300 46.36400 33.00900
Mg 1.88600 41.97100 25.44300
C  2.85400 42.23300 28.81400
C  -1.21600 40.95600 26.55400
C  1.17400 41.17000 22.32000
C  5.17700 42.86800 24.52700
N  0.97600 41.62400 27.52600
C  1.51800 41.99500 28.69700
C  0.36200 41.95700 29.77000
C  -0.82500 41.32800 29.07200
C  -0.36300 41.30200 27.61200
C  -1.09100 39.89700 29.58500
C  0.01900 43.26500 30.42300
C  -1.09300 43.22800 31.48300
H  -1.10400 42.11600 32.46700
N  0.12900 41.28500 24.55200
C  -0.99700 40.83300 25.18100
C  -1.94100 40.35700 24.19200
C  -1.26900 40.51100 22.89500
C  0.10500 40.98100 23.20700
C  -3.33300 39.77000 24.50900
C  -1.83700 40.18200 21.43100
O  -1.18200 40.32300 20.40200
C  -3.23900 39.72300 21.27900
N  3.07200 41.97300 23.67600
C  2.47400 41.66600 22.49900
C  3.39800 41.99600 21.29700
C  4.60400 42.77700 21.92500
C  4.30200 42.54400 23.46600
C  3.76100 40.72600 20.45900
C  4.60500 44.30000 21.53200
C  5.18200 44.82500 20.27000
N  3.73800 42.43400 26.40700
C  5.00700 42.70700 25.93100
C  5.86000 43.07600 27.08300
C  5.05700 42.87800 28.23500
C  3.78700 42.49900 27.76300
C  7.29600 43.43600 27.03300
C  5.08800 42.84800 29.61600
O  6.02400 43.08400 30.40500
C  3.64900 42.50100 30.12200
C  3.97700 41.25500 30.87900
O  4.20600 40.12100 30.44900
O  3.98300 41.66600 32.18600
C  4.14600 40.60800 33.11200
H  -2.20900 40.65300 26.89400
H  0.77600 41.03600 21.31200
H  6.18300 43.20100 24.26400
H  0.90000 41.34400 30.49400
H  -1.72700 41.94100 29.07200
H  -0.50500 39.78200 30.49700
H  -0.79800 39.18800 28.81000
H  -2.10500 39.73500 29.95100
H  -0.24500 43.99900 29.66100
H  0.95800 43.54100 30.90300
H  -2.05600 43.20700 30.97100
H  -0.95800 44.20000 31.95700
H  -3.55800 38.83800 23.99000
H  -4.21600 40.30900 24.16400
H  -3.39100 39.57200 25.57900
H  -3.43400 38.78100 21.79100
H  -3.57700 39.54200 20.25800
H  -3.76300 40.53600 21.78100
H  2.77600 42.60700 20.64400
H  5.54900 42.27200 21.72500
H  4.03600 39.93400 21.15600
H  4.68600 40.99400 19.94900
H  3.02700 40.41500 19.71700
H  4.88800 44.82200 22.44600
H  3.52700 44.45700 21.56900
H  4.35800 44.93000 19.56400
H  5.93200 44.17000 19.82600
H  5.64700 45.80100 20.41100
H  7.37600 44.52000 26.94700
H  7.85000 42.97500 26.21600
H  7.63300 43.06400 28.00000
H  3.13200 43.25900 30.71000
H  4.50600 41.02600 34.05200
H  4.80200 39.75800 32.92500
H  3.20000 40.12200 33.35000

