158

Mg 35.96900 2.01900 29.30200
C  33.71300 3.13300 31.82400
C  38.44300 1.92200 31.56600
C  38.04500 1.27900 26.79800
C  33.48200 2.52500 26.99400
N  36.07600 2.62200 31.46000
C  35.03600 2.86600 32.30300
C  35.55000 2.92500 33.68500
C  37.06800 2.59000 33.62300
C  37.19100 2.26900 32.14600
C  38.04100 3.79700 34.01100
C  34.87000 1.75900 34.54100
C  34.71800 1.95600 36.01500
H  35.13400 3.32100 36.61100
N  37.98200 1.56200 29.24600
C  38.81400 1.53300 30.28300
C  40.07600 1.02300 29.77200
C  40.00000 0.84200 28.34100
C  38.64300 1.22000 28.06300
C  41.31200 0.74600 30.66400
C  41.09400 0.43200 27.30000
O  40.78000 0.27000 26.13100
C  42.50000 0.19800 27.71700
N  35.79700 2.17700 27.19100
C  36.83600 1.70500 26.42300
C  36.36300 1.59900 24.97300
C  34.78300 1.53100 25.10000
C  34.67200 2.11400 26.52100
C  36.96400 2.74100 24.10200
C  34.15300 0.07700 25.00900
C  33.43500 -0.25400 23.68300
N  34.01900 2.70700 29.34600
C  33.12000 2.85700 28.32500
C  31.81800 3.32700 28.86600
C  32.04300 3.51600 30.23500
C  33.31600 3.05300 30.49600
C  30.63700 3.70700 28.11700
C  31.42200 3.85700 31.38500
O  30.29900 4.33200 31.50900
C  32.52300 3.70700 32.53500
C  32.81500 5.05300 33.10700
O  33.76800 5.77400 32.80500
O  31.95400 5.30100 34.18100
C  32.14700 6.52600 34.91400
H  39.33900 1.85100 32.18600
H  38.64900 1.11700 25.90200
H  32.66600 2.65700 26.28100
H  35.37100 3.93000 34.06600
H  37.35600 1.74400 34.24600
H  38.23700 4.28100 33.05500
H  38.92600 3.36000 34.47400
H  37.57600 4.59200 34.59400
H  35.37400 0.80400 34.39100
H  33.85400 1.72800 34.14700
H  35.34000 1.14000 36.38400
H  33.70500 1.64800 36.27400
H  42.04900 1.54100 30.55200
H  41.83000 -0.19600 30.48000
H  40.99500 0.67300 31.70500
H  42.78000 0.97900 28.42400
H  43.20200 0.06800 26.89300
H  42.51700 -0.78800 28.18100
H  36.72300 0.69900 24.47400
H  34.38900 2.17500 24.31400
H  37.34700 3.58900 24.66900
H  36.38000 3.04300 23.23200
H  37.86400 2.28400 23.69100
H  33.33800 0.11400 25.73300
H  34.86200 -0.71900 25.23600
H  33.43300 0.65500 23.08000
H  32.43500 -0.68400 23.73500
H  34.08900 -0.95400 23.16400
H  30.99800 4.21500 27.22200
H  30.15800 4.51800 28.66600
H  29.89500 2.92900 27.93900
H  32.16600 2.97800 33.26200
H  33.10200 6.47900 35.43800
H  31.42300 6.63100 35.72200
H  31.98000 7.40700 34.29400
Mg 26.31500 50.36000 27.19700
C  24.10200 51.65600 29.61800
C  28.29600 49.12400 29.53200
C  28.34300 49.19500 24.62500
C  24.10500 51.35900 24.78100
N  26.15900 50.27700 29.33500
C  25.26700 50.91700 30.11600
C  25.51700 50.71800 31.58200
C  27.02100 50.03200 31.55800
C  27.19600 49.81900 30.04900
C  28.20200 50.87600 32.06700
C  24.44100 49.83500 32.23400
C  23.94300 50.25400 33.64500
H  24.96900 50.63600 34.65800
N  28.15200 49.43300 27.08900
C  28.73700 48.86100 28.19000
C  29.91100 48.00500 27.83900
C  30.04400 48.13600 26.40600
C  28.80500 48.94900 25.98200
C  30.73100 47.26600 28.85000
C  31.03900 47.42000 25.41800
O  31.05100 47.60600 24.21300
C  32.03400 46.49200 25.97000
N  26.27700 50.35600 25.00600
C  27.22000 49.84400 24.18000
C  26.86000 50.02300 22.71200
C  25.40000 50.44200 22.79500
C  25.15500 50.66700 24.26500
C  27.77400 51.08700 22.02600
C  24.41600 49.31800 22.25700
C  23.78600 49.53300 20.91800
N  24.59000 51.42100 27.14700
C  23.81600 51.81800 26.05900
C  22.58900 52.48600 26.48800
C  22.71800 52.47100 27.86400
C  23.86500 51.74400 28.23100
C  21.52300 52.97800 25.60600
C  21.96700 52.78500 29.05500
O  20.85500 53.28200 29.19500
C  22.85000 52.26300 30.25200
C  23.30100 53.35900 31.18500
O  24.40600 53.95700 31.15100
O  22.32700 53.55000 32.15300
C  22.50000 54.49200 33.27200
H  28.89400 48.77300 30.37500
H  29.04900 48.88100 23.85300
H  23.31700 51.52200 24.04200
H  25.56700 51.72700 31.99000
H  26.95100 49.08500 32.09400
H  28.89500 51.13700 31.26700
H  28.71200 50.22300 32.77500
H  27.77400 51.79900 32.45700
H  24.71800 48.79100 32.38200
H  23.54700 49.63200 31.64400
H  23.37600 49.38200 33.97000
H  23.24900 51.07900 33.47900
H  30.61500 46.20100 28.64500
H  30.48500 47.53300 29.87700
H  31.76600 47.60400 28.89300
H  32.51600 47.02400 26.79000
H  32.78800 46.42600 25.18500
H  31.53400 45.53700 26.12700
H  27.05500 49.04000 22.28400
H  25.16300 51.40100 22.33500
H  28.33100 51.63000 22.79000
H  27.14800 51.62000 21.31100
H  28.49900 50.54600 21.41800
H  23.54700 49.15600 22.89500
H  24.89500 48.34600 22.13200
H  22.81800 49.05200 21.05900
H  24.28200 49.10200 20.04700
H  23.75300 50.58300 20.62700
H  21.91900 53.17200 24.60900
H  21.05300 53.84700 26.06500
H  20.69600 52.29600 25.40800
H  22.20700 51.59500 30.82500
H  23.14900 54.04200 34.02300
H  21.53000 54.75900 33.69100
H  23.01500 55.34500 32.83000

