158

Mg 42.46000 41.90600 26.85000
C  41.32600 44.09300 29.33700
C  43.15400 39.66300 29.25300
C  43.74400 39.92300 24.48600
C  42.09900 44.43000 24.47200
N  42.20000 41.83200 29.04400
C  41.63800 42.82900 29.81300
C  41.57400 42.38000 31.24500
C  42.22300 40.92400 31.22800
C  42.56400 40.81500 29.77900
C  43.37200 40.65200 32.28500
C  40.15100 42.39400 31.84900
C  39.80200 43.15800 33.07600
H  39.33700 42.27400 34.24800
N  43.33700 40.06600 26.85800
C  43.44200 39.20700 27.95000
C  44.10400 37.99400 27.63600
C  44.34900 38.14000 26.25700
C  43.85800 39.43900 25.79800
C  44.52700 36.92200 28.60800
C  44.95200 37.10600 25.27300
O  45.22400 37.24600 24.05700
C  45.30200 35.84700 25.79900
N  42.71100 42.07000 24.72400
C  43.21600 41.10300 23.96200
C  43.20400 41.54700 22.44100
C  42.58200 42.98100 22.51300
C  42.44600 43.15900 23.99300
C  44.56600 41.35800 21.66900
C  41.23100 43.06100 21.74700
C  41.22800 43.60700 20.25800
N  41.81400 43.84300 26.82700
C  41.79400 44.73100 25.79400
C  41.37600 45.98400 26.37900
C  41.12100 45.76500 27.70000
C  41.39500 44.45300 27.99700
C  41.23500 47.24700 25.70400
C  40.66400 46.36800 29.03800
O  40.30300 47.50500 29.34100
C  40.78800 45.31200 30.11900
C  41.82500 45.88600 31.05200
O  43.00600 46.11700 30.67300
O  41.21300 46.33400 32.18700
C  42.17100 46.83600 33.17700
H  43.19100 38.86400 29.99700
H  43.95600 39.21900 23.67700
H  42.08400 45.30900 23.82500
H  42.27500 42.97200 31.83400
H  41.45900 40.14900 31.28300
H  43.51700 41.43900 33.02500
H  44.28800 40.70700 31.69700
H  43.41000 39.67700 32.77000
H  39.76100 41.40000 32.06800
H  39.66400 42.99000 31.07700
H  39.02500 43.87400 32.80700
H  40.72600 43.57200 33.48000
H  43.97800 35.98800 28.48800
H  44.47800 37.33000 29.61700
H  45.57700 36.68300 28.43900
H  45.41100 35.09400 25.01900
H  44.56900 35.33200 26.42000
H  46.23200 35.98300 26.35100
H  42.48300 40.86500 21.98900
H  43.33700 43.67000 22.13400
H  45.14300 42.27500 21.78300
H  44.35400 41.35700 20.60000
H  45.24400 40.56800 21.99100
H  40.54500 43.64700 22.36000
H  40.76600 42.07600 21.74300
H  42.08100 44.25000 20.04100
H  40.28600 44.14500 20.15300
H  41.25700 42.72700 19.61600
H  41.77300 47.34200 24.76100
H  41.35400 48.10500 26.36600
H  40.16900 47.22500 25.47500
H  39.78700 45.28800 30.54900
H  42.89100 47.58500 32.84800
H  42.68400 45.95200 33.55600
H  41.82100 47.38000 34.05400
Mg -2.00500 33.50300 27.37400
C  -3.74800 31.49800 29.48000
C  -0.79400 35.29300 30.15900
C  -0.29800 35.77300 25.34500
C  -3.32900 32.16500 24.63700
N  -2.45000 33.56600 29.59600
C  -3.09800 32.54600 30.20000
C  -2.93400 32.65800 31.75200
C  -1.83500 33.72200 31.98600
C  -1.76300 34.32800 30.54600
C  -2.18000 35.02000 32.87900
C  -2.64900 31.27800 32.50900
C  -3.41000 30.96200 33.75500
H  -2.58300 30.76100 35.02500
N  -0.78400 35.34700 27.75600
C  -0.37300 35.84500 28.91500
C  0.52800 36.93400 28.70600
C  0.74600 37.10400 27.30700
C  -0.12400 36.07900 26.73100
C  1.05700 37.83400 29.82500
C  1.70400 38.13300 26.60700
O  1.84000 38.14700 25.41000
C  2.56300 39.01800 27.37400
N  -1.93500 33.99800 25.34000
C  -1.16300 34.89200 24.69900
C  -1.16600 34.77800 23.16100
C  -1.97000 33.42600 22.96100
C  -2.44700 33.21000 24.39200
C  -1.83700 35.96000 22.47700
C  -1.11800 32.24400 22.43200
C  -1.46100 31.77800 21.05300
N  -3.39600 32.15500 27.07100
C  -3.81400 31.60100 25.89900
C  -4.78700 30.55900 26.15900
C  -4.78700 30.40500 27.58300
C  -3.90000 31.40500 28.09500
C  -5.44200 29.76300 25.13700
C  -5.26300 29.68400 28.70600
O  -6.05200 28.71100 28.70500
C  -4.66400 30.35200 29.94400
C  -5.74800 30.78300 30.90700
O  -6.51400 31.79200 30.87500
O  -5.81100 29.73000 31.81200
C  -6.94300 29.62400 32.73200
H  -0.26700 35.70100 31.02300
H  0.17200 36.51500 24.69600
H  -3.51800 31.52900 23.76900
H  -3.87500 33.07000 32.11800
H  -0.94500 33.23200 32.37800
H  -2.61200 35.83700 32.30200
H  -1.29100 35.37700 33.39700
H  -2.84000 34.60400 33.64100
H  -1.57700 31.24700 32.69900
H  -2.79200 30.45300 31.81100
H  -3.86700 30.00100 33.51600
H  -4.32400 31.55300 33.81700
H  2.09800 37.58100 30.02800
H  0.42900 37.55400 30.67100
H  1.03500 38.89900 29.59200
H  2.04100 39.74900 27.99100
H  3.21000 39.51000 26.64700
H  3.21100 38.35800 27.95000
H  -0.12600 34.68700 22.84800
H  -2.89800 33.68000 22.44800
H  -2.59100 36.32700 23.17400
H  -2.44600 35.73500 21.60200
H  -1.09000 36.73200 22.29000
H  -1.13200 31.41000 23.13400
H  -0.09300 32.61100 22.37600
H  -1.87800 30.77900 20.93400
H  -0.55600 31.74600 20.44600
H  -2.11500 32.47500 20.52900
H  -6.29700 30.34900 24.79700
H  -5.76600 28.79100 25.50800
H  -4.72600 29.64700 24.32300
H  -4.03200 29.59600 30.41100
H  -6.50200 29.65000 33.72800
H  -7.40100 28.63800 32.65900
H  -7.71500 30.38200 32.59400

