158

Mg 29.01800 56.96000 40.27600
C  26.80300 54.17000 39.68000
C  31.67700 54.89900 39.43400
C  30.89000 59.68200 39.86100
C  26.12000 58.96500 40.37000
N  29.19300 54.82800 39.30100
C  28.13900 53.89300 39.38600
C  28.79000 52.48000 39.07900
C  30.33000 52.66700 39.26700
C  30.41200 54.23000 39.35600
C  30.89300 51.98300 40.53900
C  28.46300 52.06900 37.62300
C  29.09100 52.74400 36.37000
H  28.13800 53.30600 35.27100
N  31.02400 57.28600 39.90400
C  31.94800 56.31100 39.71400
C  33.22600 56.87000 39.72600
C  33.06700 58.29300 39.73800
C  31.63100 58.53400 39.89500
C  34.46900 56.03700 39.51800
C  34.12300 59.30800 39.50200
O  35.29700 58.97100 39.26500
C  33.83600 60.74900 39.48600
N  28.60200 59.08200 40.36000
C  29.54400 59.97400 40.02400
C  28.83700 61.39700 40.06500
C  27.36000 61.11400 39.99200
C  27.33800 59.61400 40.32600
C  29.19300 62.16000 41.34900
C  26.71600 61.19800 38.55600
C  25.94600 62.49000 38.49900
N  26.82900 56.67000 40.18500
C  25.82800 57.58400 40.40400
C  24.60300 56.88700 40.54700
C  24.91500 55.54700 40.24000
C  26.29800 55.50600 40.02200
C  23.17500 57.44600 40.77000
C  24.38900 54.24400 39.96600
O  23.25200 53.80600 39.90200
C  25.53700 53.25700 39.69500
C  25.55300 52.34700 40.82600
O  25.89300 52.68200 41.92200
O  25.12800 51.02600 40.54400
C  24.93200 50.20600 41.71800
H  32.48500 54.16600 39.38800
H  31.49700 60.56100 39.63200
H  25.23500 59.60000 40.44500
H  28.42400 51.77300 39.82300
H  30.82000 52.38900 38.33300
H  31.87300 51.57300 40.29600
H  30.32000 51.15400 40.95500
H  31.21200 52.66800 41.32400
H  27.37700 52.11400 37.55200
H  28.75900 51.02000 37.67200
H  29.66400 51.91700 35.95100
H  29.79200 53.47100 36.78000
H  34.50600 55.54500 38.54600
H  34.50400 55.24800 40.27000
H  35.24400 56.74600 39.80600
H  33.31100 61.08900 38.59300
H  34.84600 61.13100 39.63700
H  33.42400 61.05700 40.44600
H  29.07800 61.95100 39.15800
H  26.67100 61.57400 40.70000
H  30.26200 62.37000 41.36100
H  29.06200 61.51600 42.21900
H  28.77000 63.15800 41.46500
H  26.15800 60.33800 38.18400
H  27.50700 61.39200 37.83100
H  26.62900 63.28300 38.80400
H  24.96600 62.38000 38.96300
H  25.82300 62.57200 37.41900
H  22.80400 57.84300 39.82500
H  23.29600 58.26100 41.48400
H  22.48700 56.70400 41.17600
H  25.32800 52.75600 38.74900
H  23.99800 49.66100 41.58000
H  24.67300 50.66100 42.67400
H  25.73900 49.48600 41.85500
Mg 10.38500 46.85900 25.58100
C  8.49800 47.06600 28.42700
C  13.05600 48.00300 27.19800
C  12.14000 46.71200 22.57400
C  7.37400 45.90600 23.72300
N  10.65400 47.72700 27.54300
C  9.75000 47.69400 28.60800
C  10.35600 48.32600 29.86300
C  11.68700 48.96300 29.22500
C  11.82700 48.12300 27.99900
C  11.54700 50.46600 28.85700
C  10.71900 47.35200 31.13300
C  10.11700 47.82000 32.47500
H  9.88900 46.69300 33.50600
N  12.33500 47.10900 25.02700
C  13.30800 47.58100 25.88700
C  14.58300 47.36000 25.26500
C  14.34300 46.98800 23.87600
C  12.88400 46.93200 23.77300
C  15.86400 47.75100 25.90300
C  15.35800 46.76300 22.74900
O  15.05900 46.49500 21.62400
C  16.84900 46.94900 23.00400
N  9.84200 46.54200 23.50000
C  10.75700 46.50100 22.43500
C  10.08400 46.04600 21.17400
C  8.66200 45.57800 21.62300
C  8.60200 46.11900 23.02900
C  10.16400 47.05400 20.04300
C  8.37300 44.03100 21.45200
C  9.07800 43.12000 22.46800
N  8.31800 46.56700 25.89100
C  7.26300 46.11700 25.11900
C  6.10300 45.98500 26.03100
C  6.62100 46.25700 27.34200
C  7.91100 46.68100 27.21700
C  4.58500 45.68600 25.70300
C  6.16800 46.34300 28.62800
O  5.04800 46.14700 29.11100
C  7.45100 46.71800 29.44900
C  7.73600 45.56000 30.30500
O  8.25700 44.45500 30.02400
O  7.27800 45.76900 31.57700
C  7.41000 44.57400 32.51700
H  14.00500 48.22200 27.69100
H  12.66900 46.66700 21.62000
H  6.62200 45.55100 23.01600
H  9.73600 49.17700 30.14700
H  12.60400 48.76500 29.77900
H  11.51700 50.59500 27.77500
H  12.47200 50.93000 29.19900
H  10.67600 50.98200 29.26000
H  11.80400 47.26300 31.17700
H  10.46900 46.31800 30.89600
H  9.20100 48.36400 32.24500
H  10.83000 48.61000 32.71100
H  16.57900 46.93600 25.78900
H  15.74900 48.03800 26.94800
H  16.19300 48.65800 25.39600
H  17.14500 46.16800 23.70400
H  17.02800 47.95900 23.37300
H  17.45800 46.85200 22.10600
H  10.62900 45.19400 20.76700
H  7.88300 46.08800 21.05600
H  10.79000 46.76300 19.20000
H  10.45400 48.07100 20.30800
H  9.14800 47.11600 19.65300
H  8.60300 43.78500 20.41500
H  7.34000 43.83300 21.73800
H  9.82000 43.78100 22.91500
H  9.51600 42.25500 21.97100
H  8.35600 42.88500 23.25000
H  4.24700 44.81000 26.25900
H  4.53800 45.32700 24.67500
H  3.85700 46.48000 25.86900
H  7.15200 47.50400 30.14300
H  7.42700 44.78400 33.58700
H  8.34100 44.03600 32.34400
H  6.71100 43.77700 32.26200

