158

Mg 10.38500 46.85900 25.58100
C  8.49800 47.06600 28.42700
C  13.05600 48.00300 27.19800
C  12.14000 46.71200 22.57400
C  7.37400 45.90600 23.72300
N  10.65400 47.72700 27.54300
C  9.75000 47.69400 28.60800
C  10.35600 48.32600 29.86300
C  11.68700 48.96300 29.22500
C  11.82700 48.12300 27.99900
C  11.54700 50.46600 28.85700
C  10.71900 47.35200 31.13300
C  10.11700 47.82000 32.47500
H  9.88900 46.69300 33.50600
N  12.33500 47.10900 25.02700
C  13.30800 47.58100 25.88700
C  14.58300 47.36000 25.26500
C  14.34300 46.98800 23.87600
C  12.88400 46.93200 23.77300
C  15.86400 47.75100 25.90300
C  15.35800 46.76300 22.74900
O  15.05900 46.49500 21.62400
C  16.84900 46.94900 23.00400
N  9.84200 46.54200 23.50000
C  10.75700 46.50100 22.43500
C  10.08400 46.04600 21.17400
C  8.66200 45.57800 21.62300
C  8.60200 46.11900 23.02900
C  10.16400 47.05400 20.04300
C  8.37300 44.03100 21.45200
C  9.07800 43.12000 22.46800
N  8.31800 46.56700 25.89100
C  7.26300 46.11700 25.11900
C  6.10300 45.98500 26.03100
C  6.62100 46.25700 27.34200
C  7.91100 46.68100 27.21700
C  4.58500 45.68600 25.70300
C  6.16800 46.34300 28.62800
O  5.04800 46.14700 29.11100
C  7.45100 46.71800 29.44900
C  7.73600 45.56000 30.30500
O  8.25700 44.45500 30.02400
O  7.27800 45.76900 31.57700
C  7.41000 44.57400 32.51700
H  14.00500 48.22200 27.69100
H  12.66900 46.66700 21.62000
H  6.62200 45.55100 23.01600
H  9.73600 49.17700 30.14700
H  12.60400 48.76500 29.77900
H  11.51700 50.59500 27.77500
H  12.47200 50.93000 29.19900
H  10.67600 50.98200 29.26000
H  11.80400 47.26300 31.17700
H  10.46900 46.31800 30.89600
H  9.20100 48.36400 32.24500
H  10.83000 48.61000 32.71100
H  16.57900 46.93600 25.78900
H  15.74900 48.03800 26.94800
H  16.19300 48.65800 25.39600
H  17.14500 46.16800 23.70400
H  17.02800 47.95900 23.37300
H  17.45800 46.85200 22.10600
H  10.62900 45.19400 20.76700
H  7.88300 46.08800 21.05600
H  10.79000 46.76300 19.20000
H  10.45400 48.07100 20.30800
H  9.14800 47.11600 19.65300
H  8.60300 43.78500 20.41500
H  7.34000 43.83300 21.73800
H  9.82000 43.78100 22.91500
H  9.51600 42.25500 21.97100
H  8.35600 42.88500 23.25000
H  4.24700 44.81000 26.25900
H  4.53800 45.32700 24.67500
H  3.85700 46.48000 25.86900
H  7.15200 47.50400 30.14300
H  7.42700 44.78400 33.58700
H  8.34100 44.03600 32.34400
H  6.71100 43.77700 32.26200
Mg -11.77400 38.40000 42.27900
C  -9.57400 35.93300 41.05400
C  -9.85700 40.72100 40.53200
C  -14.27700 40.54300 42.58200
C  -13.98400 35.79600 43.47400
N  -10.05600 38.27300 40.81500
C  -9.19600 37.19100 40.61700
C  -7.84900 37.53300 39.92200
C  -8.02200 39.04400 39.74400
C  -9.41300 39.39100 40.35800
C  -6.89100 39.89300 40.30500
C  -7.63400 36.82300 38.55500
C  -6.31600 36.03800 38.35900
H  -5.47100 36.31600 37.11300
N  -11.94800 40.41300 41.79000
C  -11.04500 41.14200 41.09400
C  -11.56600 42.46700 41.00000
C  -12.83300 42.48100 41.54500
C  -13.07000 41.11000 42.04500
C  -10.74200 43.66100 40.42800
C  -13.78500 43.67800 41.54800
O  -13.46000 44.74700 41.05800
C  -15.18200 43.57800 42.06800
N  -13.93500 38.18100 42.97200
C  -14.66600 39.27700 42.99200
C  -16.06700 38.95400 43.54700
C  -15.94000 37.35300 43.84700
C  -14.50900 37.09700 43.45900
C  -16.67600 39.84400 44.72600
C  -16.94500 36.46300 43.11900
C  -18.17400 36.01600 43.86300
N  -11.84100 36.25500 42.23500
C  -12.75300 35.40700 42.82600
C  -12.10800 34.07000 42.83700
C  -10.86400 34.23600 42.20100
C  -10.78200 35.57200 41.79100
C  -12.60900 32.79200 43.44600
C  -9.58400 33.58000 41.83100
O  -9.15500 32.44900 42.13000
C  -8.73000 34.56600 41.00800
C  -7.39500 34.58600 41.63000
O  -6.46700 33.80800 41.32100
O  -7.28000 35.48900 42.68600
C  -6.04700 35.24200 43.53500
H  -9.14200 41.43100 40.11100
H  -15.07500 41.28500 42.64300
H  -14.65200 35.09100 43.97300
H  -7.03900 37.27400 40.60400
H  -8.09600 39.36100 38.70400
H  -7.09500 40.07300 41.36100
H  -6.70700 40.82100 39.76300
H  -5.97300 39.31500 40.19900
H  -7.68300 37.51100 37.71100
H  -8.51000 36.20600 38.35400
H  -6.63400 34.99600 38.32800
H  -5.78500 36.24600 39.28800
H  -10.80000 43.75200 39.34400
H  -9.71700 43.42000 40.70900
H  -11.00600 44.58800 40.93800
H  -15.74200 44.47800 41.81700
H  -15.06700 43.38900 43.13500
H  -15.73600 42.77500 41.58100
H  -16.76000 39.14500 42.72800
H  -16.07100 37.17100 44.91400
H  -15.75300 40.33200 45.04000
H  -17.07700 39.31000 45.58800
H  -17.34200 40.59600 44.30200
H  -16.48000 35.55000 42.74800
H  -17.20200 36.95300 42.17900
H  -18.79800 35.66900 43.03900
H  -18.66800 36.77400 44.47200
H  -17.97200 35.11900 44.44800
H  -12.84100 32.07800 42.65600
H  -13.48800 33.00700 44.05400
H  -11.80500 32.42700 44.08400
H  -8.63600 34.37400 39.93900
H  -6.16400 35.80800 44.45900
H  -5.11500 35.51600 43.04000
H  -6.00000 34.20800 43.87700

