158

Mg 16.89200 -2.56000 28.52000
C  15.37000 -0.80700 31.23100
C  19.03100 -4.11300 30.69100
C  18.14300 -4.20100 25.97000
C  15.08800 -0.41800 26.39100
N  17.05900 -2.62700 30.79200
C  16.41700 -1.73200 31.66300
C  17.13900 -1.90700 33.04700
C  18.41800 -2.73700 32.78700
C  18.19600 -3.17400 31.31500
C  19.79300 -2.08000 32.92100
C  16.18000 -2.56800 34.02300
C  15.81600 -1.80300 35.31400
H  16.90700 -0.95200 35.97000
N  18.15200 -4.25600 28.38500
C  18.93600 -4.72000 29.39700
C  19.73200 -5.78200 28.81800
C  19.45300 -5.90200 27.40100
C  18.56700 -4.72300 27.15500
C  20.63200 -6.54500 29.69000
C  19.92500 -6.81100 26.34100
O  19.69500 -6.77200 25.15700
C  20.72600 -8.01800 26.78100
N  16.69900 -2.22700 26.45100
C  17.22900 -3.17100 25.61400
C  16.99800 -2.66700 24.16400
C  15.92900 -1.59200 24.25200
C  15.83900 -1.41500 25.75800
C  18.32000 -2.19500 23.48000
C  14.58300 -1.90900 23.52000
C  14.19900 -0.88800 22.28700
N  15.58300 -0.95300 28.67300
C  14.96200 -0.16400 27.77900
C  14.07800 0.80400 28.33700
C  14.24700 0.59600 29.69900
C  15.11100 -0.51900 29.87500
C  13.14200 1.78100 27.64600
C  13.89000 1.10500 30.97800
O  13.31500 2.14700 31.31700
C  14.48900 0.13800 32.04900
C  15.22000 0.97100 33.09400
O  16.40300 1.20600 32.95500
O  14.39900 1.72600 33.97700
C  15.12400 2.64600 34.80200
H  19.98600 -4.35300 31.16400
H  18.60700 -4.74400 25.14400
H  14.53300 0.15000 25.64100
H  17.49600 -0.96600 33.46600
H  18.52600 -3.64200 33.38500
H  19.64600 -1.23800 33.59700
H  20.26900 -1.78000 31.98700
H  20.53100 -2.77400 33.32300
H  16.47700 -3.57100 34.33000
H  15.26800 -2.60900 33.42600
H  15.28600 -2.44500 36.01700
H  15.07600 -1.03300 35.09700
H  20.39900 -7.60000 29.54300
H  20.39900 -6.43300 30.74900
H  21.65900 -6.38700 29.36200
H  21.53300 -7.60200 27.38400
H  21.19500 -8.38300 25.86800
H  20.15300 -8.77800 27.31300
H  16.55800 -3.51600 23.64100
H  16.26100 -0.60100 23.94200
H  18.60300 -3.02700 22.83700
H  19.14700 -1.96000 24.15100
H  18.17200 -1.25300 22.95100
H  13.80100 -1.91000 24.27900
H  14.47500 -2.94100 23.18500
H  13.17700 -0.54300 22.44400
H  14.18600 -1.55800 21.42700
H  14.94400 -0.10300 22.15600
H  13.53500 2.07600 26.67400
H  13.13200 2.67000 28.27700
H  12.14600 1.35200 27.53400
H  13.72400 -0.35600 32.64700
H  14.41200 2.93200 35.57700
H  15.26700 3.59700 34.29000
H  16.06900 2.27400 35.19800
Mg 27.20900 50.51800 26.41900
C  25.09800 51.82500 29.13400
C  29.39900 49.33400 28.87900
C  29.38000 49.81900 23.95300
C  25.21400 52.40500 24.27900
N  27.27300 50.68900 28.69500
C  26.24200 51.05200 29.54600
C  26.54100 50.71300 31.02500
C  28.03700 50.02900 30.87800
C  28.25700 49.94500 29.38300
C  29.21500 50.71000 31.71800
C  25.49300 49.87800 31.77000
C  24.99000 50.55600 33.09000
H  26.07800 50.85600 34.17300
N  29.05300 49.50000 26.36800
C  29.82900 49.17200 27.47000
C  31.03600 48.60300 27.03800
C  31.01100 48.71400 25.56800
C  29.77000 49.36400 25.25900
C  31.88600 47.82200 27.92400
C  32.06500 48.27800 24.56900
O  32.00700 48.45800 23.37500
C  33.34700 47.64700 25.14400
N  27.31500 51.06300 24.50600
C  28.26500 50.65100 23.61500
C  27.97700 51.05300 22.17500
C  26.54200 51.58600 22.28400
C  26.33500 51.68800 23.78000
C  29.08100 51.92200 21.50200
C  25.38100 50.64400 21.75300
C  24.16300 51.34900 21.01400
N  25.44700 51.81900 26.59800
C  24.76500 52.50400 25.63400
C  23.57500 53.12600 26.17700
C  23.67500 52.89200 27.55900
C  24.85800 52.13700 27.77400
C  22.56600 53.82700 25.41900
C  23.00100 53.03000 28.79300
O  21.96400 53.62500 29.02000
C  23.97200 52.47700 29.86900
C  24.46700 53.60400 30.65500
O  25.48400 54.24200 30.53100
O  23.59100 53.62800 31.72900
C  24.10800 54.67200 32.67400
H  30.06800 48.99800 29.67400
H  30.03900 49.69700 23.09100
H  24.50500 52.87500 23.59500
H  26.54200 51.62000 31.62900
H  27.90800 48.98100 31.14900
H  29.63000 49.83100 32.21200
H  28.90400 51.49900 32.40200
H  29.86300 51.08200 30.92500
H  25.89600 48.92700 32.11800
H  24.62800 49.72300 31.12600
H  24.31700 49.79500 33.48600
H  24.37600 51.41200 32.81000
H  32.95800 48.00100 27.84600
H  31.83800 46.74300 27.77300
H  31.63900 47.94500 28.97800
H  33.03000 46.70700 25.59700
H  33.85100 48.25500 25.89500
H  33.96700 47.51900 24.25700
H  27.94900 50.15000 21.56500
H  26.42700 52.54500 21.77800
H  30.04500 51.88200 22.00900
H  28.60600 52.90100 21.44800
H  29.12900 51.59900 20.46200
H  24.94600 49.98900 22.50800
H  25.84900 49.96500 21.04000
H  24.29200 51.20900 19.94100
H  24.10700 52.42100 21.20000
H  23.18300 50.95200 21.27800
H  21.82400 54.34900 26.02300
H  22.12300 53.24100 24.61300
H  23.14800 54.65600 25.01700
H  23.37400 51.80600 30.48500
H  25.06700 54.42300 33.12600
H  23.60100 54.75400 33.63600
H  24.09400 55.67000 32.23700

