158

Mg 24.97900 0.90300 29.66700
C  27.17400 0.54700 32.35000
C  22.38200 1.13400 31.87400
C  22.91800 1.08300 26.89100
C  27.68700 0.31400 27.48600
N  24.89300 0.88300 31.84000
C  25.86100 0.82600 32.76800
C  25.34700 1.09200 34.21600
C  23.78300 0.83900 34.01700
C  23.62800 0.96700 32.45800
C  23.22400 -0.47300 34.65100
C  25.73500 2.47900 34.80700
C  25.05900 2.73800 36.16800
H  25.92300 2.83300 37.47500
N  23.00700 1.04800 29.47000
C  22.07000 1.13500 30.48700
C  20.77700 1.19800 29.86200
C  20.93300 1.13900 28.44200
C  22.34800 1.11900 28.20200
C  19.53700 1.13000 30.74800
C  19.78700 0.97900 27.36600
O  19.99300 0.88000 26.13900
C  18.38300 1.14000 27.80400
N  25.26400 1.00100 27.53600
C  24.26100 1.11900 26.54800
C  24.90600 1.19700 25.13000
C  26.35800 0.77700 25.41200
C  26.48900 0.67400 26.90100
C  24.13800 0.20000 24.13600
C  27.38800 1.79900 24.82500
C  28.31300 1.27000 23.75000
N  26.93900 0.40900 29.83100
C  27.93600 0.20800 28.88000
C  29.21600 -0.13500 29.54700
C  28.96100 0.02300 30.94900
C  27.55000 0.42300 31.00800
C  30.53100 -0.41400 28.81500
C  29.52500 0.00800 32.30000
O  30.67000 -0.17100 32.67800
C  28.40400 0.42200 33.22300
C  28.41000 -0.55300 34.44400
O  27.78800 -1.61800 34.46400
O  29.26600 -0.05100 35.38100
C  29.49200 -0.99500 36.44700
H  21.55200 1.16300 32.58300
H  22.23600 1.28700 26.06300
H  28.39300 0.03900 26.70000
H  25.76100 0.23400 34.74500
H  23.16000 1.67200 34.34100
H  23.27000 -1.24900 33.88700
H  22.16900 -0.32300 34.87800
H  23.82800 -0.74500 35.51700
H  25.68600 3.31000 34.10300
H  26.79300 2.38500 35.05000
H  24.44200 1.85700 36.34500
H  24.47100 3.63300 35.96600
H  19.79800 0.33000 31.44000
H  18.60700 0.71100 30.36200
H  19.32900 2.00500 31.36400
H  18.10600 0.16800 28.21300
H  17.78900 1.31800 26.90800
H  18.24500 1.97700 28.48700
H  24.89600 2.26100 24.89400
H  26.62700 -0.21100 25.03800
H  24.83000 -0.26000 23.43100
H  23.46200 0.78000 23.50700
H  23.58500 -0.61100 24.61000
H  28.00000 2.11400 25.67000
H  27.05800 2.76200 24.43600
H  29.29400 1.26400 24.22600
H  28.30800 1.92400 22.87800
H  28.07600 0.25400 23.43400
H  31.14600 0.43900 29.10200
H  30.34100 -0.41300 27.74100
H  30.94100 -1.32300 29.25400
H  28.66600 1.36400 33.70300
H  29.21000 -2.02600 36.23300
H  28.90700 -0.74600 37.33200
H  30.53500 -0.80800 36.70600
Mg 34.83100 2.47100 29.36600
C  32.38100 3.80500 31.63400
C  37.28500 2.92300 31.83800
C  37.15600 1.95800 27.03700
C  32.32000 2.50100 26.92700
N  34.82600 3.34000 31.43900
C  33.66100 3.55400 32.17100
C  33.98400 3.66500 33.70700
C  35.53500 3.55700 33.67400
C  35.91100 3.22500 32.25900
C  36.22400 4.84800 34.21200
C  33.28800 2.53900 34.54800
C  32.92600 2.80100 36.05900
H  33.97100 3.44000 36.93500
N  36.85200 2.31900 29.40200
C  37.67300 2.53500 30.52500
C  39.02400 2.14600 30.06100
C  39.00800 1.99900 28.65200
C  37.61500 2.13400 28.29500
C  40.18100 1.87900 31.00900
C  40.16900 1.62800 27.70300
O  39.98700 1.57100 26.48100
C  41.63600 1.33400 28.08000
N  34.78200 2.37800 27.22800
C  35.87900 2.06300 26.48000
C  35.47400 1.68100 25.04300
C  33.92200 1.54500 25.11900
C  33.62300 2.09500 26.52800
C  35.77500 2.71400 23.96500
C  33.41400 0.08900 24.94400
C  33.17800 -0.72900 26.21100
N  32.78500 3.01900 29.25700
C  31.92600 2.97700 28.16800
C  30.65200 3.53600 28.57400
C  30.76600 3.91300 29.96200
C  32.07200 3.53500 30.29300
C  29.38000 3.73800 27.67800
C  30.12000 4.40000 31.22000
O  28.99700 4.71500 31.43400
C  31.18700 4.32000 32.31900
C  31.50000 5.67200 32.94000
O  31.65700 6.70000 32.29000
O  31.31800 5.69400 34.32300
C  31.65700 6.88700 35.07800
H  38.08000 2.81300 32.57800
H  37.81300 1.53700 26.27300
H  31.51700 2.33000 26.20800
H  33.62200 4.58700 34.16100
H  35.84700 2.70600 34.28000
H  36.81600 4.47100 35.04600
H  35.61200 5.64000 34.64300
H  36.94700 5.30500 33.53700
H  33.90100 1.64200 34.46300
H  32.42900 2.16000 33.99600
H  32.66500 1.82500 36.46700
H  32.03200 3.42000 35.99100
H  39.83400 2.00800 32.03400
H  41.04400 2.51000 30.79700
H  40.55000 0.85400 31.01600
H  42.06300 1.88800 28.91600
H  42.16100 1.69800 27.19700
H  41.88100 0.29400 28.29500
H  35.91500 0.74100 24.71300
H  33.42800 2.23900 24.43900
H  36.77000 2.36800 23.68300
H  35.90500 3.76200 24.23400
H  35.07800 2.69400 23.12700
H  34.07900 -0.47700 24.29200
H  32.46300 0.21800 24.42700
H  33.78800 -0.29700 27.00500
H  33.48300 -1.77100 26.11400
H  32.11800 -0.65100 26.45300
H  28.50700 3.23300 28.09100
H  29.58800 3.60500 26.61600
H  29.13400 4.79400 27.56500
H  30.94600 3.68800 33.17400
H  31.46800 7.83900 34.58000
H  32.65400 6.86100 35.51700
H  30.94600 6.93400 35.90300

