158

Mg 47.95800 44.75900 43.37700
C  44.59300 45.07800 42.26100
C  47.86700 41.40900 42.39900
C  51.44900 44.60600 43.75800
C  48.09900 48.27100 43.59800
N  46.45500 43.48300 42.44300
C  45.16000 43.74000 42.14600
C  44.53900 42.48000 41.50000
C  45.43300 41.35900 41.95600
C  46.67800 42.13500 42.28500
C  44.76600 40.54500 43.13300
C  44.35300 42.69200 39.98000
C  43.04500 42.20100 39.38700
H  43.11900 41.58300 37.97100
N  49.45100 43.20500 43.19100
C  49.16800 41.86600 42.88100
C  50.46500 41.05500 42.92900
C  51.50500 41.99400 43.28600
C  50.83500 43.34500 43.46200
C  50.55000 39.62600 42.57300
C  52.98800 41.65000 43.37400
O  53.38700 40.52300 43.00800
C  54.03700 42.71100 43.78000
N  49.56600 46.21500 43.40700
C  50.85200 45.93600 43.75600
C  51.67100 47.16900 44.03100
C  50.64600 48.28600 43.97300
C  49.35800 47.56900 43.65400
C  52.40700 47.05100 45.45500
C  51.06400 49.31500 42.92400
C  51.83400 50.61900 43.16100
N  46.57700 46.37300 43.15100
C  46.85900 47.73800 43.16800
C  45.62900 48.40400 42.88000
C  44.69200 47.42300 42.55200
C  45.34900 46.22600 42.67600
C  45.50000 49.93400 42.80100
C  43.32800 47.25300 42.00500
O  42.50700 48.02500 41.59100
C  43.26500 45.67300 41.90000
C  42.07700 45.02500 42.51400
O  41.46800 44.07000 41.96800
O  41.82800 45.55500 43.75000
C  40.85000 44.89500 44.64200
H  47.87000 40.34600 42.14900
H  52.52300 44.70500 43.93200
H  48.24000 49.34600 43.73600
H  43.52900 42.53200 41.90700
H  45.62800 40.69500 41.11400
H  44.84400 39.47800 42.92400
H  43.73200 40.85500 43.28300
H  45.40100 40.73500 43.99800
H  45.27700 42.24600 39.61200
H  44.37700 43.76800 39.81200
H  42.28600 42.97700 39.28900
H  42.69200 41.36600 39.99200
H  50.82100 39.47600 41.52800
H  49.55200 39.19600 42.66600
H  51.18000 39.11100 43.29900
H  54.93600 42.10400 43.88500
H  53.82000 43.08200 44.78200
H  54.22000 43.50700 43.05900
H  52.46600 47.37700 43.31500
H  50.67600 48.63700 45.00500
H  52.37000 47.98800 46.01000
H  53.48400 46.88000 45.44800
H  51.96900 46.22800 46.01900
H  50.10200 49.69100 42.57600
H  51.56900 48.89900 42.05200
H  51.29500 51.44700 42.70200
H  52.79800 50.50300 42.66600
H  52.04200 50.69400 44.22900
H  44.46500 50.25100 42.92500
H  45.90200 50.40500 41.90300
H  46.14300 50.26500 43.61600
H  43.11800 45.54900 40.82800
H  39.87900 45.37200 44.50800
H  41.20800 44.99400 45.66600
H  40.81500 43.82400 44.43700
Mg 30.73300 57.75000 39.38700
C  27.95600 55.70300 38.57100
C  32.77600 55.00200 38.20800
C  33.39100 59.72600 39.53800
C  28.55000 60.36600 39.88300
N  30.35000 55.63700 38.45200
C  29.18100 54.99200 38.46200
C  29.31200 53.50500 38.16900
C  30.87300 53.33900 38.14800
C  31.41900 54.80800 38.25500
C  31.33400 52.49000 39.30700
C  28.62000 52.96000 36.92500
C  29.03500 53.70400 35.61500
H  27.92000 54.42100 34.74400
N  32.81200 57.40500 38.97900
C  33.45300 56.24800 38.54200
C  34.83300 56.52900 38.47500
C  35.05400 57.80700 39.05000
C  33.71200 58.44300 39.24300
C  35.86000 55.69900 37.86500
C  36.48600 58.41400 39.33300
O  37.48600 57.80500 38.94800
C  36.59800 59.68000 40.11000
N  30.92700 59.74700 39.62300
C  32.14400 60.36100 39.56400
C  32.05400 61.88600 39.69500
C  30.52200 62.09800 39.76100
C  29.90900 60.63000 39.78500
C  32.92600 62.58800 40.80100
C  29.95300 63.04800 38.66000
C  28.96600 64.12000 39.12300
N  28.65300 57.99300 39.26400
C  27.90500 59.17000 39.45300
C  26.50400 58.81000 39.22400
C  26.50900 57.46700 38.95400
C  27.82800 57.06800 38.89800
C  25.36700 59.68600 39.47400
C  25.60600 56.34700 38.66000
O  24.39000 56.25000 38.56900
C  26.52800 55.13500 38.35100
C  26.12700 54.04700 39.33800
O  26.65700 53.76000 40.42400
O  25.16300 53.27700 38.69400
C  24.80000 52.08700 39.35600
H  33.32000 54.06700 38.05500
H  34.22600 60.41200 39.69400
H  27.90400 61.21200 40.12600
H  28.77100 53.01000 38.97500
H  31.23500 52.88100 37.22700
H  32.22300 51.93800 39.00400
H  30.61900 51.76100 39.68800
H  31.67000 52.97500 40.22300
H  27.53400 52.92900 37.01100
H  28.98100 51.93300 36.89600
H  29.51200 52.95600 34.98100
H  29.75900 54.49300 35.81700
H  36.63500 55.27800 38.50600
H  36.33100 56.29400 37.08200
H  35.35300 54.93600 37.27500
H  35.79500 59.76000 40.84300
H  36.65600 60.45600 39.34700
H  37.53700 59.70100 40.66300
H  32.50700 62.38800 38.84000
H  30.24200 62.48900 40.73900
H  32.18000 63.18600 41.32300
H  33.73900 63.18800 40.39200
H  33.35400 61.91700 41.54500
H  29.76600 62.39700 37.80600
H  30.81100 63.68300 38.44000
H  29.48400 65.06600 39.27800
H  28.47200 63.78400 40.03500
H  28.26600 64.28600 38.30400
H  25.52500 60.57900 38.87100
H  25.16800 59.84700 40.53400
H  24.48500 59.10700 39.19900
H  26.15200 54.71100 37.42100
H  23.90300 51.61800 38.95100
H  24.73500 52.35600 40.41000
H  25.64500 51.40600 39.25000

