158

Mg 46.95000 15.95100 29.16900
C  44.87300 15.80200 32.15900
C  49.24500 17.85400 30.94200
C  48.49900 16.68100 26.32000
C  44.22700 14.76300 27.52100
N  47.03200 16.62200 31.26400
C  46.13600 16.40300 32.32000
C  46.75400 16.84000 33.63300
C  47.93600 17.73200 33.16000
C  48.08200 17.45500 31.65300
C  47.61500 19.26600 33.51000
C  47.05300 15.55500 34.45000
C  46.61400 15.48100 35.91000
H  46.19800 16.83800 36.47800
N  48.73500 16.94800 28.70800
C  49.54900 17.59700 29.62000
C  50.80200 17.91000 28.88000
C  50.58000 17.58500 27.50600
C  49.27900 17.00400 27.41200
C  52.09300 18.34400 29.62200
C  51.50100 17.77300 26.36900
O  51.17100 17.44500 25.25300
C  52.79500 18.52800 26.48600
N  46.39000 15.92900 27.23500
C  47.17500 16.21200 26.18400
C  46.54800 15.83900 24.83800
C  45.52000 14.82400 25.30100
C  45.30700 15.22300 26.80600
C  45.95100 16.88400 23.91600
C  45.96300 13.28600 25.09900
C  44.81500 12.63100 24.12800
N  44.99600 15.36500 29.70400
C  44.03300 14.85500 28.86500
C  42.90700 14.37300 29.62500
C  43.14700 14.75200 30.94200
C  44.40200 15.36700 30.91200
C  41.73300 13.53900 29.19200
C  42.54500 14.78600 32.30700
O  41.47000 14.36000 32.68600
C  43.73400 15.39900 33.18400
C  43.14300 16.60100 33.91600
O  43.37800 17.75900 33.60000
O  42.36800 16.17100 34.94100
C  41.71700 17.15900 35.78900
H  49.95300 18.48600 31.48200
H  48.87500 16.89900 25.31800
H  43.42300 14.21700 27.02300
H  45.91400 17.35300 34.10300
H  48.80400 17.42300 33.74100
H  46.81300 19.31300 34.24700
H  47.27900 19.71600 32.57600
H  48.54200 19.75400 33.81200
H  48.07500 15.26800 34.20100
H  46.50100 14.71200 34.03500
H  47.50200 15.12500 36.43200
H  45.79800 14.78500 36.10900
H  52.93400 18.09100 28.97700
H  52.09000 17.85100 30.59400
H  52.04800 19.39300 29.91600
H  53.14700 18.80400 25.49200
H  53.49200 17.88300 27.02100
H  52.73500 19.43100 27.09400
H  47.33100 15.34600 24.26100
H  44.52800 14.97400 24.87600
H  46.10500 17.88000 24.33100
H  44.91500 16.68700 23.63900
H  46.58000 16.70300 23.04400
H  46.05300 12.87600 26.10500
H  46.90700 13.06800 24.59900
H  45.21100 11.77100 23.58800
H  44.45600 13.29400 23.34200
H  44.00300 12.18800 24.70400
H  41.27400 13.24700 30.13700
H  42.06700 12.69300 28.59100
H  41.05600 14.17000 28.61700
H  44.00600 14.56700 33.83300
H  42.22000 18.12600 35.78100
H  41.85000 16.71600 36.77600
H  40.64200 17.33800 35.76000
Mg 49.26500 45.46400 42.97500
C  45.81300 44.94200 42.88700
C  49.63400 42.01400 43.12800
C  52.70500 45.86500 42.40300
C  48.79500 48.92100 42.31000
N  47.88000 43.67100 42.95300
C  46.49500 43.71400 42.96700
C  45.92800 42.29300 43.01200
C  47.17700 41.43600 43.28800
C  48.29800 42.45200 43.21000
C  47.21300 40.56800 44.63300
C  44.97600 41.86800 41.82400
C  45.36800 42.23300 40.41500
H  46.01400 41.11900 39.51100
N  50.89500 44.16800 42.80500
C  50.83600 42.82700 42.98500
C  52.14100 42.30600 42.95600
C  53.06900 43.39300 42.68400
C  52.24000 44.58100 42.62000
C  52.31100 40.77500 42.98700
C  54.56700 43.27300 42.45800
O  55.12700 42.17000 42.56500
C  55.40200 44.38800 41.93800
N  50.51500 47.12200 42.34100
C  51.89600 47.04200 42.30600
C  52.46400 48.43400 42.66100
C  51.34900 49.33600 42.04000
C  50.10800 48.40300 42.23100
C  52.58000 48.59200 44.17100
C  51.55200 49.54500 40.47900
C  51.01600 50.86500 39.93600
N  47.64300 46.80200 42.69800
C  47.57500 48.17000 42.46300
C  46.12800 48.46900 42.54300
C  45.42500 47.25800 42.72400
C  46.37300 46.26400 42.77900
C  45.42700 49.86300 42.38900
C  44.10400 46.70200 42.74800
O  42.94400 47.20000 42.55900
C  44.33300 45.17800 42.95300
C  43.57700 44.70500 44.12800
O  42.73400 43.88400 44.12400
O  44.04700 45.37600 45.22900
C  43.79000 44.79200 46.55500
H  49.72700 40.93800 43.29400
H  53.77300 46.07600 42.31500
H  48.69200 49.99800 42.16200
H  45.38900 42.37500 43.95600
H  47.24400 40.70100 42.48600
H  47.86600 39.74000 44.36000
H  46.21600 40.29700 44.97800
H  47.76000 41.00500 45.46900
H  43.96200 42.20800 42.03400
H  44.99000 40.77800 41.82400
H  46.21300 42.92000 40.46800
H  44.42200 42.66200 40.08500
H  52.57400 40.49400 41.96700
H  51.46700 40.17700 43.33200
H  53.16200 40.41500 43.56500
H  54.99000 44.87200 41.05300
H  56.37600 44.04200 41.59200
H  55.59500 45.07000 42.76600
H  53.43100 48.49700 42.16100
H  51.14000 50.18400 42.69300
H  52.40000 47.58600 44.55000
H  51.72500 49.16900 44.52300
H  53.49000 49.02800 44.58300
H  50.88100 48.81800 40.02100
H  52.60800 49.34900 40.29500
H  50.62600 50.60500 38.95200
H  51.83200 51.56500 39.75400
H  50.30900 51.21800 40.68700
H  44.45300 49.78100 42.87200
H  45.24800 50.02700 41.32600
H  45.96400 50.66800 42.89100
H  43.89800 44.77700 42.03700
H  44.67700 44.81400 47.18700
H  43.53500 43.74800 46.37500
H  42.88900 45.22400 46.98900

