158

Mg 24.96600 2.01800 30.43700
C  27.39900 1.56900 32.99300
C  22.55500 2.08900 32.86200
C  22.66000 1.88600 28.05000
C  27.41900 1.26100 28.05400
N  24.99700 1.74900 32.67100
C  26.11000 1.76000 33.51800
C  25.63400 2.13500 34.98100
C  24.10500 2.09400 34.84600
C  23.83600 1.97800 33.37800
C  23.41000 0.97200 35.69100
C  26.32400 3.47900 35.34100
C  27.25800 3.54900 36.57200
H  26.62900 4.40100 37.74700
N  22.90800 1.93700 30.49000
C  22.07400 1.94800 31.55700
C  20.70600 1.97100 31.14300
C  20.69400 1.82400 29.73000
C  22.13200 1.85800 29.34300
C  19.61400 2.08800 32.18300
C  19.56600 1.67300 28.76200
O  19.69700 1.56600 27.56100
C  18.07900 1.77800 29.15500
N  25.10600 1.61300 28.32000
C  23.97500 1.76200 27.57000
C  24.27200 1.86900 26.14100
C  25.85000 1.55600 26.07000
C  26.17600 1.47800 27.51600
C  23.53900 0.95200 25.12300
C  26.63800 2.59000 25.28300
C  27.45100 2.15300 24.00900
N  26.97200 1.63200 30.47800
C  27.86200 1.26000 29.37700
C  29.15800 0.91500 29.99700
C  28.98700 1.11600 31.39600
C  27.71600 1.46400 31.59400
C  30.39100 0.51600 29.28700
C  29.81700 1.14800 32.58600
O  31.00300 1.02600 32.75400
C  28.70400 1.40000 33.72300
C  28.62500 0.39800 34.73000
O  28.30100 -0.75700 34.54600
O  28.98600 0.89800 35.96300
C  28.76600 0.08900 37.07400
H  21.75800 2.17800 33.60300
H  22.07300 1.94100 27.13100
H  28.31700 1.13200 27.44500
H  25.94900 1.36800 35.68800
H  23.61800 2.99800 35.21100
H  23.17700 0.17100 34.98900
H  22.56200 1.40400 36.22100
H  24.07600 0.60900 36.47400
H  25.53200 4.20200 35.53700
H  26.95900 3.86900 34.54600
H  28.19700 4.00100 36.25300
H  27.46900 2.56800 36.99700
H  19.83500 2.25400 33.23700
H  19.01900 1.18500 32.04900
H  19.02400 2.92900 31.82100
H  17.72900 0.93100 29.74500
H  17.40600 1.91300 28.30900
H  18.00600 2.62500 29.83700
H  24.17400 2.94900 26.02400
H  26.19200 0.57500 25.74000
H  22.47000 1.10300 25.27800
H  23.94000 -0.03100 25.37000
H  23.77600 1.24600 24.10000
H  27.23500 3.06300 26.06300
H  25.97400 3.33500 24.84500
H  27.01500 2.65300 23.14400
H  27.38900 1.07800 23.84300
H  28.50900 2.38500 24.13200
H  30.34600 0.59700 28.20100
H  30.67000 -0.51800 29.49300
H  31.11400 1.24200 29.66000
H  28.85700 2.35200 34.23200
H  29.71000 0.20900 37.60400
H  28.76100 -0.96600 36.79800
H  27.88800 0.33700 37.67000
Mg 42.54100 41.51100 25.95500
C  41.79900 43.92700 28.44500
C  43.70600 39.50100 28.34600
C  43.42900 39.46300 23.45700
C  41.62500 43.87000 23.58800
N  42.84300 41.81500 28.08600
C  42.24500 42.70400 28.98600
C  42.35000 42.26100 30.46900
C  43.19700 40.97900 30.37500
C  43.23300 40.74100 28.83600
C  44.60800 41.12800 31.04900
C  40.98700 42.15200 31.17100
C  40.80500 42.82200 32.55000
H  39.92600 42.10000 33.64500
N  43.50300 39.61700 25.90200
C  43.87400 38.95400 26.99200
C  44.43500 37.66700 26.55500
C  44.41400 37.62300 25.13000
C  43.76700 38.92000 24.74000
C  45.06200 36.64600 27.49400
C  44.93100 36.60100 24.11600
O  44.67300 36.73000 22.93000
C  45.64500 35.43400 24.53000
N  42.70000 41.71700 23.78800
C  42.87500 40.66400 23.00100
C  42.55900 40.99000 21.54700
C  41.60400 42.17500 21.78900
C  42.01800 42.61500 23.12000
C  43.82700 41.41400 20.75400
C  40.12800 41.73200 21.79000
C  39.70600 40.21600 21.73200
N  41.84900 43.45600 25.99100
C  41.59300 44.29400 24.89800
C  41.26900 45.62900 25.37200
C  41.26600 45.50500 26.81000
C  41.65400 44.18400 27.09400
C  41.06500 46.84700 24.57500
C  41.04000 46.19700 28.01800
O  40.61600 47.31400 28.16200
C  41.23800 45.14800 29.19200
C  42.15000 45.68600 30.26700
O  43.35600 45.89500 30.21200
O  41.49200 45.85800 31.42900
C  42.32800 46.10700 32.61000
H  44.15500 38.77600 29.02700
H  43.68500 38.82600 22.60800
H  41.20700 44.50100 22.80100
H  42.93000 43.01600 31.00000
H  42.66700 40.12300 30.79300
H  44.47300 42.03200 31.64200
H  45.18600 41.42200 30.17300
H  44.96200 40.20100 31.50100
H  40.96900 41.08000 31.36300
H  40.16600 42.35200 30.48200
H  40.26900 43.72900 32.27100
H  41.73200 43.15600 33.01600
H  46.10600 36.43800 27.26000
H  44.51000 35.70600 27.46200
H  44.94000 36.95200 28.53300
H  46.10900 34.90500 23.69800
H  44.97100 34.70000 24.97300
H  46.46400 35.80500 25.14500
H  42.08700 40.14800 21.04100
H  41.75600 42.94500 21.03200
H  44.65900 41.21500 21.43000
H  43.81200 42.44800 20.41000
H  43.90300 40.84200 19.82900
H  39.62100 42.35000 21.05000
H  39.64900 42.10500 22.69600
H  39.51800 39.93200 20.69700
H  38.80500 40.11500 22.33700
H  40.42900 39.51100 22.14200
H  41.46900 46.77200 23.56600
H  41.51800 47.66700 25.13100
H  39.99300 47.02200 24.67200
H  40.27100 44.83700 29.58700
H  41.73200 45.93600 33.50600
H  42.58500 47.16700 32.60300
H  43.21700 45.47800 32.56200

