158

Mg 46.94400 24.37600 27.75700
C  47.76400 26.75400 30.31900
C  46.38700 22.06600 30.28400
C  46.49600 22.08000 25.35000
C  47.90600 26.76700 25.42400
N  47.00400 24.45600 30.05000
C  47.22700 25.58900 30.88600
C  47.15500 25.16300 32.38200
C  46.67800 23.65400 32.31400
C  46.73300 23.37000 30.77100
C  47.52900 22.67700 33.06400
C  46.21200 26.09700 33.20300
C  46.65700 26.43200 34.66400
H  45.59400 26.35500 35.73500
N  46.48000 22.28200 27.78400
C  46.29500 21.56000 28.94800
C  45.92600 20.24300 28.46400
C  46.07400 20.17900 27.08400
C  46.35100 21.52800 26.63400
C  45.64000 19.03300 29.41300
C  45.87900 19.02800 26.17000
O  46.16600 19.02600 24.94400
C  45.20300 17.75000 26.58800
N  47.29000 24.38700 25.74600
C  46.84400 23.44400 24.94400
C  46.79200 23.85500 23.45000
C  47.27400 25.41500 23.49100
C  47.56900 25.50300 24.97900
C  47.76200 23.07900 22.50700
C  46.23200 26.47400 23.08900
C  44.86000 26.61500 23.86100
N  47.77100 26.26700 27.81000
C  48.12900 27.13100 26.75300
C  48.62000 28.35200 27.28500
C  48.57700 28.25200 28.68600
C  47.93200 27.02400 28.91300
C  49.16900 29.56400 26.58000
C  48.69300 28.90200 29.90900
O  48.99800 30.03600 30.21700
C  48.24200 28.02900 31.00300
C  49.28100 27.81400 32.15600
O  50.23600 27.07600 32.07700
O  49.02500 28.59100 33.26300
C  50.07500 28.33400 34.26000
H  45.99300 21.48100 31.11800
H  46.32500 21.37000 24.53900
H  48.12000 27.59800 24.74800
H  48.18500 25.29100 32.71400
H  45.67600 23.61800 32.74200
H  46.90500 22.16200 33.79500
H  48.36800 23.21200 33.50900
H  47.96900 21.84500 32.51400
H  45.29200 25.51500 33.26400
H  46.00400 27.06400 32.74700
H  47.15500 27.39400 34.77700
H  47.47400 25.74600 34.88600
H  46.23500 18.16800 29.11800
H  44.59000 18.74800 29.35800
H  45.85300 19.14700 30.47600
H  45.78300 17.18500 27.31700
H  45.19900 17.11100 25.70400
H  44.19600 18.02200 26.90600
H  45.73400 23.80000 23.19200
H  48.20200 25.66200 22.97500
H  47.35300 23.12800 21.49800
H  47.71000 22.03700 22.82200
H  48.78400 23.45600 22.48300
H  45.96400 26.19200 22.07100
H  46.75500 27.41000 22.89300
H  44.75100 25.98600 24.74400
H  44.01300 26.50700 23.18300
H  44.66800 27.58000 24.32800
H  48.62400 30.49600 26.72900
H  49.31700 29.45200 25.50600
H  50.18100 29.70800 26.95700
H  47.46700 28.69500 31.38400
H  50.13000 27.30400 34.61100
H  49.78200 28.89000 35.15100
H  51.07700 28.67500 33.99900
Mg -4.65500 25.28700 26.34600
C  -3.07200 26.73800 28.85900
C  -6.32700 23.19700 28.40300
C  -6.07600 23.64000 23.48700
C  -2.91400 27.27200 23.97600
N  -4.67100 25.08000 28.41500
C  -3.98500 25.82400 29.32400
C  -4.50100 25.62800 30.76600
C  -5.32700 24.29100 30.56600
C  -5.55800 24.17100 29.05300
C  -4.64400 23.07300 31.21800
C  -5.38900 26.81900 31.06900
C  -5.45900 27.21100 32.56900
H  -4.98700 26.20200 33.65000
N  -6.10300 23.65300 26.00800
C  -6.66100 22.97200 27.06500
C  -7.58200 21.96600 26.47900
C  -7.37500 21.97400 25.05500
C  -6.51000 23.15400 24.78500
C  -8.32000 20.93800 27.24100
C  -8.03500 21.14300 23.96800
O  -7.76700 21.23000 22.77300
C  -8.91100 20.00400 24.32300
N  -4.42200 25.38900 24.03000
C  -5.16200 24.65600 23.16700
C  -4.74200 24.92700 21.72000
C  -3.83300 26.13300 21.85900
C  -3.63100 26.26600 23.33000
C  -4.10800 23.73200 21.02100
C  -4.34300 27.47200 21.23300
C  -5.12800 27.30000 19.88000
N  -3.15300 26.66500 26.33100
C  -2.55900 27.46000 25.37400
C  -1.61600 28.41600 26.01500
C  -1.84400 28.23100 27.37800
C  -2.70900 27.08100 27.53400
C  -0.78600 29.45800 25.25000
C  -1.43000 28.60900 28.66400
O  -0.68200 29.53800 29.06100
C  -2.26900 27.71200 29.69000
C  -1.31000 26.95900 30.42100
O  -0.35700 26.37100 29.86600
O  -1.59800 26.86600 31.77100
C  -0.70500 25.87400 32.52800
H  -6.94900 22.54200 29.01700
H  -6.43000 23.06200 22.63100
H  -2.38800 27.82000 23.19100
H  -3.64200 25.50700 31.42600
H  -6.21100 24.42300 31.19000
H  -4.48200 22.34300 30.42500
H  -5.31500 22.63300 31.95600
H  -3.69700 23.27000 31.72000
H  -6.41300 26.58300 30.77700
H  -4.98300 27.68900 30.55300
H  -6.43300 27.58800 32.88200
H  -4.70500 27.99500 32.64100
H  -9.36600 21.03800 26.94900
H  -8.28900 21.09500 28.31900
H  -7.96300 19.92700 27.04300
H  -8.37600 19.27000 24.92400
H  -9.06400 19.52400 23.35600
H  -9.91300 20.28800 24.64500
H  -5.70300 25.06400 21.22400
H  -2.84000 25.92000 21.46200
H  -4.32200 22.73100 21.39600
H  -3.02500 23.83000 20.94200
H  -4.57300 23.80300 20.03800
H  -3.46600 28.08700 21.03300
H  -5.01400 27.90500 21.97500
H  -5.17200 26.31100 19.42300
H  -4.64600 27.95200 19.15200
H  -6.10400 27.76900 20.00400
H  0.01800 28.94200 24.72600
H  -0.48800 30.28700 25.89300
H  -1.37800 29.83800 24.41800
H  -2.96100 28.28500 30.30700
H  -1.24200 25.47100 33.38600
H  0.26800 26.29600 32.77800
H  -0.63100 24.96400 31.93200

