158

Mg 35.37400 2.49400 29.51800
C  33.13100 3.80500 31.85500
C  37.78900 2.36200 32.00800
C  37.66900 1.60400 27.14100
C  32.90700 2.76400 27.00400
N  35.50400 3.10000 31.66000
C  34.44000 3.47500 32.42500
C  34.83300 3.38800 33.93300
C  36.33200 3.10500 33.89200
C  36.57400 2.87000 32.43700
C  37.41200 4.12000 34.54200
C  34.02300 2.35200 34.65900
C  33.51400 2.70300 36.08900
H  34.28900 3.80100 36.88700
N  37.47200 2.14900 29.55200
C  38.22200 1.98300 30.72500
C  39.50200 1.41900 30.33000
C  39.47600 1.28700 28.90400
C  38.19100 1.74600 28.50900
C  40.59100 1.18700 31.33100
C  40.63400 0.90200 27.91100
O  40.48800 0.99500 26.68900
C  41.97400 0.36500 28.41800
N  35.30700 2.26400 27.40000
C  36.35600 1.91800 26.67500
C  35.94800 1.72600 25.20300
C  34.40800 1.69800 25.21400
C  34.13700 2.36700 26.64100
C  36.52500 2.90400 24.40500
C  33.69500 0.26800 24.96200
C  32.59900 0.15900 23.81700
N  33.45800 3.23800 29.41100
C  32.53500 3.21700 28.31500
C  31.24700 3.76000 28.79200
C  31.49400 3.98200 30.20200
C  32.79100 3.71100 30.48100
C  29.98700 3.93500 28.02200
C  30.79300 4.39600 31.39800
O  29.65900 4.88300 31.52000
C  31.82400 4.22700 32.51100
C  31.86700 5.54400 33.20600
O  32.55600 6.48700 32.85200
O  31.08000 5.54300 34.34000
C  31.50800 6.43000 35.36100
H  38.54400 2.23400 32.78600
H  38.29500 1.32100 26.29200
H  32.27600 2.78900 26.11300
H  34.66700 4.37800 34.35700
H  36.62300 2.13000 34.28500
H  36.76600 4.88700 34.96900
H  38.15200 4.62600 33.92200
H  37.94700 3.63900 35.36000
H  34.57000 1.43100 34.85800
H  33.23200 2.06600 33.96600
H  33.45900 1.81600 36.72000
H  32.53100 3.16300 35.98600
H  40.42000 1.54000 32.34800
H  41.53300 1.66700 31.06900
H  40.94400 0.15600 31.32300
H  42.52700 1.23600 28.77200
H  42.53000 -0.14900 27.63400
H  41.69700 -0.35900 29.18400
H  36.40900 0.83400 24.77800
H  34.07500 2.34600 24.40300
H  35.79000 3.40300 23.77400
H  37.37500 2.62200 23.78400
H  36.90400 3.65300 25.10100
H  33.23900 -0.09100 25.88500
H  34.52300 -0.37600 24.66700
H  32.27300 1.10200 23.37700
H  31.75100 -0.34100 24.28600
H  32.93400 -0.48600 23.00500
H  29.85000 4.87200 27.48200
H  29.18300 3.94100 28.75800
H  29.81800 3.01300 27.46700
H  31.33100 3.56300 33.22200
H  30.80600 7.25900 35.26600
H  32.52900 6.79300 35.24300
H  31.41500 6.00300 36.35900
Mg -5.29100 25.52400 27.36100
C  -4.01600 27.32200 30.06500
C  -6.75100 23.42400 29.69400
C  -6.43000 23.55200 24.82000
C  -3.21700 27.25500 25.22000
N  -5.11500 25.30700 29.58900
C  -4.71100 26.23200 30.53200
C  -5.12800 25.90100 32.03400
C  -5.64700 24.48000 31.84900
C  -5.91900 24.40000 30.25500
C  -4.77500 23.26900 32.51100
C  -6.09800 27.04800 32.58400
C  -6.36300 27.15500 34.06000
H  -5.95800 25.94000 34.93300
N  -6.57400 23.82300 27.29100
C  -7.13400 23.17500 28.30300
C  -8.08800 22.15700 27.75900
C  -8.08600 22.24800 26.38400
C  -7.00500 23.23100 26.06700
C  -8.88900 21.27100 28.72300
C  -8.91300 21.55300 25.37400
O  -8.77400 21.83100 24.15200
C  -9.94600 20.53700 25.81400
N  -4.95200 25.57400 25.26700
C  -5.43900 24.52800 24.49300
C  -4.78700 24.57300 23.07000
C  -3.86000 25.88200 23.08800
C  -4.05000 26.30800 24.62100
C  -4.19000 23.16100 22.65400
C  -4.25100 27.02000 22.16600
C  -3.46700 27.25800 20.85000
N  -3.96800 27.01800 27.52000
C  -3.20700 27.72600 26.57000
C  -2.46000 28.76700 27.10900
C  -2.74700 28.68000 28.51600
C  -3.65500 27.58500 28.70600
C  -1.56800 29.64800 26.35000
C  -2.49500 29.24400 29.80600
O  -1.76300 30.18700 30.13400
C  -3.33700 28.45000 30.79900
C  -2.45800 27.93900 31.86700
O  -1.37700 27.35000 31.69800
O  -3.03000 28.20200 33.04900
C  -2.29000 27.87600 34.23900
H  -7.36700 22.98000 30.47800
H  -6.65600 22.99100 23.91000
H  -2.58600 27.90300 24.60800
H  -4.17000 25.83900 32.54900
H  -6.67600 24.38700 32.19600
H  -4.50100 22.59900 31.69600
H  -5.26400 22.74900 33.33400
H  -3.90100 23.72100 32.98000
H  -7.07600 26.73500 32.21800
H  -6.00000 28.07100 32.22100
H  -7.43900 27.31800 34.12900
H  -5.85100 28.03500 34.44900
H  -8.55100 21.46200 29.74200
H  -8.78500 20.20900 28.50400
H  -9.96100 21.46900 28.73900
H  -9.37800 19.95300 26.53800
H  -10.24200 19.92000 24.96600
H  -10.84900 20.97900 26.23600
H  -5.52100 24.75600 22.28500
H  -2.82100 25.55900 23.02900
H  -3.20200 23.26000 22.20400
H  -4.91600 22.70100 21.98300
H  -4.02800 22.58100 23.56300
H  -4.38100 27.94300 22.73000
H  -5.28400 26.83000 21.87500
H  -3.94800 26.62200 20.10700
H  -2.50600 26.79900 21.08300
H  -3.50200 28.28800 20.49500
H  -0.91700 28.98000 25.78800
H  -0.94900 30.36600 26.88900
H  -2.07500 30.14300 25.52200
H  -4.06600 29.18300 31.14500
H  -1.56400 27.06800 34.14300
H  -3.04800 27.42500 34.87900
H  -1.76000 28.74100 34.63700

