158

Mg 26.88200 50.14500 26.72700
C  24.77000 51.57800 29.15800
C  29.00500 49.33400 29.46000
C  29.24600 49.35100 24.60400
C  24.96200 51.54600 24.29200
N  26.91300 50.52900 29.02400
C  25.92900 50.96300 29.71800
C  26.17900 50.85200 31.23500
C  27.67000 50.35200 31.25400
C  27.87000 50.01100 29.85300
C  28.89100 51.33100 31.70600
C  25.25100 49.71200 31.86000
C  24.82000 49.89200 33.41500
H  25.81300 50.55600 34.38200
N  28.78000 49.38100 26.98900
C  29.42900 49.03000 28.11800
C  30.69900 48.44300 27.78300
C  30.85000 48.49900 26.36800
C  29.61900 49.14100 25.92700
C  31.54800 47.87300 28.89600
C  31.96900 48.05600 25.52500
O  31.95700 48.17700 24.33800
C  33.19100 47.42800 26.11900
N  27.02200 50.23100 24.73000
C  28.07300 49.85100 24.00800
C  27.78600 49.83400 22.52300
C  26.32500 50.39400 22.46300
C  26.03200 50.72400 23.91700
C  28.81700 50.67100 21.63200
C  25.24000 49.43600 21.97300
C  24.78200 49.79300 20.61000
N  25.20600 51.32800 26.63500
C  24.53500 51.76100 25.57800
C  23.32000 52.49200 26.06600
C  23.40100 52.41200 27.41800
C  24.54600 51.70700 27.77000
C  22.38200 53.30600 25.27900
C  22.75000 52.78900 28.70800
O  21.82000 53.52200 28.86100
C  23.53300 52.17300 29.83800
C  23.95100 53.24900 30.79200
O  24.90300 53.99400 30.69300
O  23.08800 53.31100 31.78400
C  23.17200 54.36700 32.90600
H  29.53100 49.04900 30.37400
H  30.04400 49.00900 23.94200
H  24.34100 51.80600 23.43200
H  26.05500 51.82400 31.71200
H  27.84100 49.40500 31.76500
H  28.51800 52.24700 32.16300
H  29.58500 51.54900 30.89400
H  29.34000 50.79500 32.54200
H  25.60100 48.71600 31.58800
H  24.35700 49.69300 31.23700
H  24.46200 48.91100 33.72800
H  23.95300 50.55100 33.45700
H  31.55500 46.78400 28.93400
H  31.27600 48.17900 29.90600
H  32.58300 48.21300 28.87900
H  34.00900 47.46300 25.40000
H  32.90400 46.43300 26.45900
H  33.59200 48.13100 26.85000
H  27.72700 48.80000 22.18100
H  26.17600 51.31000 21.89200
H  29.66100 51.10700 22.16600
H  28.35700 51.48100 21.06600
H  29.26300 49.93200 20.96600
H  24.43100 49.17800 22.65600
H  25.65900 48.43100 21.93700
H  23.79100 50.24300 20.66400
H  24.62400 48.82600 20.13200
H  25.37300 50.32100 19.86100
H  22.46500 54.39000 25.35800
H  21.35600 53.07000 25.56100
H  22.46300 53.07700 24.21600
H  22.96100 51.44700 30.41600
H  23.52100 55.31500 32.49500
H  23.85400 53.99300 33.67000
H  22.20100 54.56300 33.35900
Mg 17.25900 52.61900 25.68300
C  18.58600 51.08000 28.59000
C  14.72400 53.89300 27.68900
C  15.73600 53.64800 22.87900
C  19.68300 50.97800 23.76400
N  16.70800 52.44200 27.93900
C  17.42300 51.81600 28.92600
C  16.75800 51.95100 30.26400
C  15.44500 52.70400 29.90900
C  15.60400 53.01000 28.38800
C  14.05500 51.99900 30.37200
C  17.61100 52.53800 31.37500
C  17.69800 51.88800 32.80100
H  16.45900 51.00100 33.09900
N  15.52800 53.54000 25.36300
C  14.56100 53.92800 26.33400
C  13.43700 54.65200 25.64900
C  13.71500 54.56600 24.26300
C  15.01200 53.82600 24.09700
C  12.29700 55.30900 26.44200
C  13.00900 55.20900 23.16800
O  13.41100 55.11600 22.01100
C  11.82700 56.07900 23.49500
N  17.56900 52.16500 23.59300
C  16.91600 52.88200 22.70700
C  17.56800 52.87400 21.27500
C  18.80300 51.96700 21.60600
C  18.68600 51.65400 23.06900
C  16.72000 52.25500 20.13300
C  20.18100 52.66600 21.18500
C  21.43800 51.82100 20.95000
N  18.89500 51.36200 26.08000
C  19.78700 50.79500 25.18700
C  20.79200 49.95400 25.95200
C  20.33600 50.02300 27.28300
C  19.19400 50.90200 27.27900
C  21.93600 49.20500 25.30900
C  20.58200 49.56900 28.66500
O  21.43800 48.80200 29.08100
C  19.47500 50.29800 29.58100
C  18.83900 49.17300 30.37500
O  17.88100 48.47500 30.04500
O  19.54700 49.01700 31.56300
C  19.13800 47.88700 32.37200
H  13.98500 54.42700 28.28900
H  15.23500 53.93800 21.95300
H  20.54300 50.58400 23.21900
H  16.48100 50.91000 30.43400
H  15.30700 53.69000 30.35300
H  14.32200 51.02300 30.77600
H  13.42100 51.85900 29.49700
H  13.54600 52.54700 31.16500
H  17.08800 53.47700 31.55300
H  18.63400 52.77700 31.08500
H  17.82000 52.61200 33.60600
H  18.55700 51.22300 32.88800
H  11.28600 55.04800 26.12800
H  12.29700 56.39600 26.36300
H  12.44900 55.21600 27.51700
H  11.04500 55.46400 23.94100
H  11.41100 56.48800 22.57400
H  12.09700 56.92000 24.13200
H  17.71700 53.91700 20.99500
H  18.83800 50.94400 21.22900
H  16.02500 51.46300 20.41400
H  17.32800 51.78300 19.36100
H  16.00300 52.99200 19.77100
H  20.58600 53.22000 22.03200
H  19.94300 53.35800 20.37700
H  21.74100 51.98700 19.91600
H  21.31400 50.73900 20.99500
H  22.22300 52.10800 21.64900
H  22.16700 48.24900 25.78000
H  22.85800 49.69700 25.62100
H  21.93800 49.16800 24.22000
H  19.96700 51.01900 30.23300
H  18.10800 47.87500 32.72900
H  19.93500 47.89800 33.11500
H  19.37900 47.09100 31.66700

