158

Mg 29.24800 59.74700 41.48900
C  26.09100 58.80900 40.37800
C  30.44100 56.78900 40.13700
C  32.26900 61.00200 41.68600
C  27.90300 62.79200 42.51600
N  28.43300 58.15400 40.22400
C  27.03000 57.91100 39.95500
C  26.85800 56.53300 39.23900
C  28.16600 55.85600 39.68300
C  29.12900 57.02500 40.01800
C  27.94500 54.86400 40.88700
C  26.53800 56.65400 37.65600
C  25.30200 55.87800 37.13200
H  25.03000 55.82700 35.62000
N  31.12300 58.94600 41.07100
C  31.45200 57.72800 40.48400
C  32.82500 57.60100 40.51000
C  33.40200 58.85400 40.89000
C  32.24900 59.70600 41.17200
C  33.47600 56.31300 40.01200
C  34.90700 59.12900 40.86300
O  35.62500 58.20700 40.64000
C  35.46600 60.56900 41.09500
N  29.95400 61.68200 42.03300
C  31.29800 61.92700 42.02800
C  31.56600 63.39300 42.62800
C  30.12900 63.82100 43.03000
C  29.25800 62.74700 42.43400
C  32.70400 63.54700 43.67500
C  29.81200 65.33800 42.77400
C  29.17200 65.62300 41.39600
N  27.36200 60.64900 41.65800
C  26.97300 61.88000 42.08900
C  25.48300 61.91700 42.05000
C  25.10200 60.76900 41.31700
C  26.29100 60.09500 41.06000
C  24.65300 62.97800 42.43000
C  24.02100 59.97300 40.89800
O  22.81500 60.11700 40.97300
C  24.64800 58.71600 40.18700
C  24.04800 57.48000 40.73000
O  24.36500 56.97200 41.78200
O  23.01100 56.98000 39.95300
C  22.46800 55.71100 40.34000
H  30.77500 55.80800 39.79400
H  33.24500 61.45300 41.87900
H  27.48700 63.75300 42.82800
H  25.94100 56.03200 39.54900
H  28.58200 55.28200 38.85500
H  28.67300 54.06500 40.74700
H  26.93300 54.46000 40.91200
H  28.23000 55.36600 41.81100
H  27.39600 56.34800 37.05700
H  26.49700 57.72100 37.43700
H  24.41800 56.31300 37.59900
H  25.17800 54.86800 37.52300
H  33.91100 56.54700 39.04100
H  32.80200 55.45700 39.99400
H  34.27400 56.06200 40.71100
H  34.83000 61.14300 40.42000
H  36.54200 60.60500 40.92400
H  35.33700 60.73700 42.16400
H  31.83300 63.94500 41.72700
H  30.07500 63.80000 44.11800
H  33.67500 63.40000 43.20200
H  32.67500 62.87500 44.53300
H  32.85600 64.58400 43.97300
H  30.69400 65.95300 42.95600
H  29.11300 65.48900 43.59700
H  28.10600 65.77000 41.57100
H  29.25100 64.83100 40.65200
H  29.52000 66.60700 41.08100
H  23.69100 62.77200 41.96100
H  25.13600 63.88300 42.06100
H  24.37000 63.01900 43.48200
H  24.47400 58.76100 39.11100
H  23.25800 55.04700 39.98900
H  21.63500 55.41700 39.70100
H  22.27800 55.50000 41.39200
Mg 8.78100 47.85800 25.22000
C  6.99400 48.02100 28.14500
C  11.27300 49.65400 26.84900
C  10.44600 48.01900 22.20700
C  5.90100 46.80300 23.42800
N  9.01100 48.80300 27.17700
C  8.26400 48.63400 28.28500
C  8.83800 49.27000 29.59800
C  9.90200 50.18600 28.95800
C  10.07000 49.55200 27.54200
C  9.44300 51.67200 28.88700
C  9.35700 48.35500 30.64400
C  9.11100 48.87900 32.06900
H  8.65600 47.77700 33.16700
N  10.71400 48.54100 24.74000
C  11.55200 49.20400 25.56800
C  12.76700 49.37000 24.82100
C  12.50100 49.08100 23.47100
C  11.15300 48.49900 23.42600
C  14.13500 49.89300 25.32500
C  13.43300 49.13600 22.25800
O  13.09900 48.79600 21.12800
C  14.88000 49.56600 22.46600
N  8.28800 47.36400 23.13600
C  9.09400 47.52300 22.12400
C  8.43000 47.00200 20.82100
C  7.08000 46.43100 21.23600
C  7.07800 46.81300 22.72700
C  8.44200 48.02700 19.60000
C  6.73500 44.92900 21.03400
C  5.36200 44.63900 20.54200
N  6.87200 47.36600 25.63400
C  5.81100 47.03800 24.81800
C  4.60800 47.13300 25.59900
C  5.05900 47.29900 26.91200
C  6.42400 47.48700 26.91100
C  3.21900 46.96700 25.19400
C  4.65800 47.45500 28.27500
O  3.46700 47.38800 28.65500
C  5.91300 47.74400 29.11500
C  6.15900 46.57500 29.95500
O  7.20300 45.99000 30.01800
O  4.98700 46.34600 30.66200
C  5.01800 45.11900 31.51600
H  11.94300 50.43600 27.21200
H  11.02800 48.04900 21.28300
H  4.94500 46.42800 23.05600
H  8.08800 49.84200 30.14300
H  10.87700 50.15000 29.44400
H  8.36300 51.81100 28.94100
H  9.72300 52.20600 27.97900
H  9.88100 52.24600 29.70300
H  10.43000 48.19000 30.55000
H  8.85500 47.38800 30.61800
H  8.50100 49.78000 32.13700
H  10.11400 49.20300 32.34700
H  15.00900 49.27400 25.12300
H  14.13200 50.04900 26.40400
H  14.32900 50.86700 24.87400
H  15.03500 50.51000 22.98700
H  15.31200 49.69800 21.47400
H  15.41800 48.80900 23.03600
H  8.80100 46.07500 20.38400
H  6.34000 47.10100 20.79800
H  9.14300 48.84500 19.77000
H  7.43100 48.43200 19.56100
H  8.78500 47.48500 18.71800
H  6.91200 44.24500 21.86400
H  7.36500 44.58300 20.21500
H  4.82000 44.02800 21.26400
H  5.36100 44.10500 19.59100
H  4.79800 45.56400 20.42200
H  2.74800 47.80400 24.67900
H  2.77900 46.83100 26.18200
H  3.00800 46.04800 24.64700
H  5.67200 48.59100 29.75800
H  5.77000 44.33800 31.39800
H  4.03400 44.67700 31.35900
H  5.10200 45.49400 32.53600

