158

Mg 26.66400 50.35100 26.31300
C  24.55600 51.58800 28.76100
C  28.72500 48.99900 28.81200
C  28.90500 49.54400 23.91800
C  24.79200 52.08100 23.83600
N  26.64100 50.25100 28.56000
C  25.65300 50.82600 29.34100
C  25.91700 50.52000 30.84900
C  27.31600 49.88700 30.86100
C  27.60300 49.68000 29.34000
C  28.46800 50.75000 31.47800
C  24.77300 49.67300 31.51300
C  24.22500 50.10600 32.95800
H  25.22500 50.64700 33.88100
N  28.51100 49.31700 26.33200
C  29.18200 48.85300 27.44600
C  30.45400 48.33400 27.06000
C  30.53100 48.36800 25.66800
C  29.32300 49.07400 25.23400
C  31.50200 47.75100 28.12900
C  31.68000 47.92200 24.81500
O  31.64100 48.02300 23.57800
C  32.90300 47.26000 25.42600
N  26.76600 50.63400 24.17300
C  27.76500 50.14100 23.43800
C  27.49400 50.41700 21.89600
C  26.00800 50.94700 21.93300
C  25.83100 51.28300 23.37600
C  28.53500 51.38300 21.19500
C  24.91600 50.01100 21.39500
C  24.06700 50.42700 20.26100
N  24.95300 51.53400 26.29800
C  24.34700 52.19000 25.24800
C  23.25500 52.93300 25.78900
C  23.21700 52.70700 27.15900
C  24.36400 51.87000 27.38800
C  22.27400 53.71200 25.05300
C  22.57700 53.03200 28.36900
O  21.53000 53.66500 28.61900
C  23.39700 52.28600 29.48700
C  23.88900 53.29400 30.40600
O  24.66300 54.22200 30.14400
O  23.04500 53.33100 31.48800
C  23.33100 54.33700 32.45700
H  29.35200 48.56800 29.59500
H  29.76900 49.27700 23.30600
H  23.96000 52.36400 23.18700
H  26.05200 51.39500 31.48500
H  27.23600 48.90800 31.33200
H  28.68700 51.53700 30.75600
H  29.43300 50.24300 31.49700
H  28.26600 50.92300 32.53500
H  25.17000 48.66100 31.59200
H  23.85300 49.68300 30.92900
H  23.77100 49.17000 33.28100
H  23.47200 50.88100 32.81500
H  32.40600 48.34500 27.98800
H  31.79300 46.71500 27.95800
H  31.15200 47.89300 29.15200
H  33.52400 48.01900 25.90000
H  33.55000 46.89200 24.63000
H  32.65200 46.50500 26.17200
H  27.58200 49.42800 21.44600
H  25.91700 51.88400 21.38300
H  28.93100 50.99000 20.25800
H  29.37700 51.53600 21.87000
H  28.07100 52.34100 20.96100
H  24.33400 49.62800 22.23400
H  25.41500 49.11000 21.03900
H  23.01600 50.41300 20.55000
H  24.21700 49.72600 19.44000
H  24.36800 51.38700 19.84300
H  22.24500 53.37600 24.01600
H  22.49600 54.77600 25.13200
H  21.26400 53.64900 25.45800
H  22.75200 51.56500 29.98900
H  22.50400 54.56400 33.12800
H  23.48800 55.26400 31.90600
H  24.15000 53.96700 33.07300
Mg 17.06600 52.99600 25.59500
C  18.56700 51.20400 28.33500
C  14.37700 53.40800 27.74700
C  15.25200 54.40000 23.08300
C  19.37900 51.63200 23.57700
N  16.67100 52.55700 27.84000
C  17.41800 51.94800 28.70400
C  16.85500 52.05300 30.07600
C  15.38800 52.39800 29.82500
C  15.44900 52.87500 28.37800
C  14.39500 51.28800 30.00900
C  17.60600 53.09900 30.93500
C  17.98800 52.64400 32.37000
H  17.14400 53.26700 33.50100
N  15.11000 53.86200 25.46700
C  14.14900 53.92000 26.44600
C  12.96600 54.57800 25.94100
C  13.26400 54.96800 24.60400
C  14.61400 54.42500 24.31200
C  11.76400 54.88100 26.80900
C  12.49100 55.89800 23.63800
O  13.01800 56.35800 22.66800
C  11.18700 56.38900 24.04100
N  17.19600 52.99500 23.65700
C  16.40200 53.66900 22.74000
C  17.03000 53.75800 21.29900
C  18.36400 52.87300 21.54100
C  18.40500 52.49500 23.05800
C  16.12000 53.15600 20.25500
C  19.56900 53.68500 20.98500
C  20.33000 54.57600 21.93700
N  18.83600 51.74300 25.89000
C  19.57600 51.20000 24.93200
C  20.57400 50.31000 25.55300
C  20.37000 50.44900 26.93000
C  19.17700 51.16000 27.06100
C  21.77300 49.65500 24.81000
C  20.71000 50.12600 28.27200
O  21.68300 49.58500 28.65200
C  19.49500 50.53800 29.18600
C  18.97700 49.28700 29.92600
O  18.19700 48.44400 29.48800
O  19.56100 49.18600 31.18200
C  19.11500 48.11000 32.04300
H  13.55400 53.52700 28.45500
H  14.84800 55.00000 22.26600
H  20.08900 51.30800 22.81300
H  16.92400 51.09400 30.58900
H  15.04600 53.31900 30.29900
H  14.56700 50.79700 30.96700
H  14.51700 50.62100 29.15500
H  13.41200 51.75000 29.91700
H  16.99500 54.00100 30.94200
H  18.52200 53.39700 30.42500
H  19.05100 52.77200 32.57600
H  17.78100 51.57600 32.44600
H  11.81000 54.41900 27.79500
H  10.86800 54.63200 26.24000
H  11.76300 55.95000 27.01800
H  10.79500 57.04500 23.26400
H  11.30500 57.06400 24.88900
H  10.44400 55.59600 24.12200
H  17.20200 54.78400 20.97400
H  18.34400 51.93100 20.99200
H  16.08700 53.81500 19.38700
H  15.09200 52.97600 20.56900
H  16.52400 52.21600 19.87800
H  19.17200 54.29500 20.17300
H  20.29600 52.99600 20.55700
H  20.03000 54.33900 22.95700
H  20.10600 55.59900 21.63500
H  21.40000 54.37400 21.87700
H  21.82100 48.57400 24.94500
H  22.69900 50.10800 25.16300
H  21.66500 49.76400 23.73100
H  19.93800 51.19700 29.93200
H  19.28300 48.28500 33.10600
H  19.52300 47.12600 31.80900
H  18.04100 47.96800 31.92700

