158

Mg 42.76800 41.57500 26.90200
C  41.77700 43.71000 29.53100
C  43.76000 39.32300 29.29800
C  43.83600 39.49700 24.47000
C  41.98700 44.05300 24.60800
N  42.76500 41.51900 29.11800
C  42.11000 42.46100 29.97700
C  42.18200 41.98100 31.43800
C  42.93300 40.60000 31.29100
C  43.17300 40.47100 29.84900
C  44.33600 40.45700 32.08300
C  40.79700 41.87300 32.11200
C  40.58200 42.63900 33.51600
H  40.23400 41.88100 34.76600
N  43.68900 39.68700 26.88500
C  44.00000 38.95900 27.95000
C  44.67700 37.79300 27.55100
C  44.55300 37.74200 26.13800
C  43.97100 39.00800 25.75300
C  45.25800 36.73800 28.54400
C  44.90400 36.62200 25.15000
O  44.60400 36.60600 23.92000
C  45.43200 35.40100 25.68500
N  43.15500 41.81200 24.85900
C  43.46200 40.79600 24.09200
C  43.31200 41.15800 22.56900
C  42.62000 42.59900 22.59300
C  42.57700 42.84200 24.09000
C  44.67000 41.04700 21.75100
C  41.28700 42.49800 21.86900
C  40.70100 43.74600 21.29700
N  42.12400 43.55800 26.97100
C  41.85700 44.45000 25.97000
C  41.42600 45.68000 26.53400
C  41.44300 45.39000 27.94100
C  41.73000 44.07800 28.12700
C  41.02500 46.92500 25.74800
C  41.07000 46.02900 29.22400
O  40.62900 47.13700 29.40100
C  41.32700 44.98500 30.30900
C  42.24400 45.47200 31.36600
O  43.43700 45.65200 31.21100
O  41.58900 45.68800 32.56400
C  42.45500 45.97400 33.71000
H  43.98900 38.54100 30.02500
H  44.10200 38.85500 23.62700
H  41.71200 44.85500 23.92000
H  42.75500 42.69100 32.03400
H  42.36100 39.73000 31.61400
H  45.20200 40.29900 31.44000
H  44.23200 39.59800 32.74700
H  44.55000 41.17300 32.87600
H  40.40100 40.86100 32.19800
H  40.05200 42.37600 31.49500
H  39.73100 43.32000 33.54900
H  41.44000 43.22400 33.85000
H  44.71700 35.79300 28.58600
H  45.39300 37.10100 29.56300
H  46.27300 36.54800 28.19400
H  44.65600 35.17100 26.41400
H  46.38500 35.58700 26.18100
H  45.52500 34.55000 25.01000
H  42.52600 40.47600 22.24600
H  43.26600 43.32300 22.09800
H  44.51200 40.18900 21.09800
H  45.52700 40.88800 22.40500
H  44.96100 41.91400 21.15800
H  40.55300 42.23600 22.63200
H  41.26600 41.71700 21.10900
H  39.83500 44.12500 21.83900
H  40.41400 43.51400 20.27200
H  41.47600 44.50200 21.16600
H  41.82000 47.66600 25.83400
H  40.23200 47.40900 26.31900
H  40.61300 46.66400 24.77300
H  40.39500 44.82400 30.85100
H  43.41300 46.49300 33.66700
H  42.63500 45.07800 34.30500
H  41.99800 46.69300 34.39000
Mg 17.42100 51.88700 25.75700
C  19.06300 50.55000 28.48300
C  15.10300 53.11300 27.85600
C  15.75700 52.72400 23.11300
C  19.93500 50.40400 23.66900
N  17.06200 51.66400 27.90800
C  17.92100 51.21000 28.86600
C  17.40400 51.45900 30.29700
C  16.04100 52.20000 30.07600
C  16.09900 52.41100 28.50400
C  14.69900 51.46200 30.47800
C  18.36600 52.12100 31.39300
C  18.72000 51.37100 32.70300
H  17.82400 51.83100 33.85500
N  15.70600 52.91000 25.46300
C  14.94500 53.35500 26.46000
C  13.77400 54.09100 25.87300
C  13.93400 54.01100 24.47300
C  15.19700 53.25000 24.28900
C  12.77700 54.79300 26.79500
C  13.18800 54.57000 23.29800
O  13.59600 54.45600 22.17900
C  11.83600 55.25300 23.47900
N  17.75800 51.48800 23.65100
C  16.89200 52.07900 22.78100
C  17.33300 51.85200 21.27100
C  18.71300 51.06900 21.52000
C  18.82100 50.98300 23.01500
C  16.34800 50.93600 20.55800
C  19.98900 51.64500 20.80700
C  20.77100 52.91100 21.31300
N  19.18100 50.67600 25.96400
C  20.11200 50.19600 25.02300
C  21.10100 49.45800 25.71300
C  20.79200 49.54000 27.11100
C  19.56500 50.29500 27.15100
C  22.34900 48.76900 25.19100
C  21.21900 49.23300 28.40900
O  22.22600 48.59000 28.75000
C  20.09800 49.85700 29.37400
C  19.42700 48.69600 30.07100
O  18.53300 48.02900 29.66700
O  20.12900 48.45400 31.23800
C  19.49200 47.46300 32.16500
H  14.30300 53.56000 28.44900
H  15.38400 53.01300 22.12800
H  20.76500 50.02400 23.06900
H  17.16700 50.50900 30.77500
H  16.06100 53.24700 30.38100
H  14.08300 52.20500 30.98400
H  14.86800 50.56700 31.07600
H  14.27600 51.17200 29.51600
H  17.88500 53.06400 31.65100
H  19.39200 52.27800 31.06000
H  19.73500 51.48800 33.08300
H  18.46500 50.32800 32.51900
H  12.51800 55.70500 26.25700
H  13.19300 55.14400 27.73900
H  11.88200 54.20300 26.99200
H  11.08600 54.81500 22.81900
H  12.00200 56.29100 23.18800
H  11.45300 55.09800 24.48700
H  17.55600 52.82300 20.82900
H  18.56000 50.06300 21.13000
H  15.40400 50.96800 21.10100
H  16.69700 49.90300 20.53300
H  16.17700 51.19700 19.51400
H  19.73100 51.80600 19.76000
H  20.61500 50.75600 20.87400
H  20.74300 53.69900 20.56000
H  21.79600 52.54900 21.39500
H  20.40700 53.25400 22.28200
H  22.23700 47.72500 25.48300
H  23.21500 49.25800 25.63700
H  22.38700 48.80500 24.10200
H  20.52700 50.52700 30.11900
H  19.67800 46.49400 31.70200
H  18.41800 47.61100 32.27600
H  19.95600 47.42200 33.15000

