158

Mg 49.33300 45.20300 43.17300
C  46.01800 45.83100 42.13700
C  49.18300 42.23800 41.53500
C  52.69500 45.12700 43.22800
C  49.48900 48.69200 43.97200
N  47.80200 44.19000 41.96400
C  46.55200 44.65900 41.61200
C  45.83900 43.78200 40.66800
C  46.69400 42.47200 40.74100
C  47.98000 42.98700 41.48100
C  46.02800 41.31300 41.56800
C  45.68200 44.46100 39.22800
C  44.24500 44.45300 38.62200
H  44.03400 43.45700 37.49400
N  50.73300 43.65400 42.82400
C  50.43600 42.48200 42.14000
C  51.66400 41.68300 42.17000
C  52.73700 42.54400 42.69000
C  52.07500 43.85500 42.95700
C  51.74300 40.29200 41.66800
C  54.14200 42.13300 42.87900
O  54.51100 40.97900 42.61200
C  55.11900 43.06700 43.68500
N  50.92300 46.71700 43.50400
C  52.19400 46.43700 43.45900
C  53.06600 47.69400 43.61900
C  52.03600 48.75600 44.10600
C  50.70700 48.08800 43.81100
C  54.40600 47.53900 44.49900
C  52.18700 50.16100 43.35400
C  52.07700 51.50300 44.07100
N  47.98400 46.84800 43.30400
C  48.19600 48.11600 43.73900
C  46.88100 48.78900 43.92400
C  46.02800 47.87900 43.29600
C  46.74800 46.73900 42.87200
C  46.56700 50.21000 44.17700
C  44.69300 47.75200 42.85900
O  43.73000 48.47600 43.11800
C  44.64700 46.47900 41.96000
C  43.47600 45.68100 42.44700
O  42.38300 45.58800 41.89800
O  43.87700 45.10500 43.63400
C  42.79800 44.33700 44.26300
H  48.91200 41.28300 41.08000
H  53.78500 45.08200 43.17400
H  49.38200 49.75500 44.19500
H  44.88300 43.43300 41.05700
H  46.93600 42.03700 39.77200
H  44.97500 41.50600 41.77200
H  46.48500 41.05700 42.52400
H  46.08300 40.45400 40.89900
H  46.33800 43.90300 38.56000
H  46.06700 45.47200 39.35500
H  44.13800 45.49900 38.33300
H  43.48900 44.21600 39.37100
H  52.71300 40.05000 41.23300
H  50.89300 40.13000 41.00600
H  51.65700 39.58100 42.49000
H  54.63000 43.32200 44.62500
H  55.44000 43.89800 43.05700
H  55.98100 42.46200 43.96500
H  53.27900 47.97700 42.58800
H  52.06900 48.90900 45.18500
H  54.39000 46.62000 45.08500
H  54.64600 48.39800 45.12500
H  55.26200 47.38900 43.84100
H  51.39200 50.17800 42.60900
H  53.01700 50.09000 42.65000
H  52.60300 52.33400 43.60200
H  52.44200 51.39100 45.09300
H  51.03800 51.83300 44.08900
H  46.58500 50.47600 45.23400
H  45.54100 50.33600 43.83100
H  47.34200 50.88600 43.81500
H  44.48600 46.78800 40.92800
H  42.72700 43.37200 43.76100
H  41.81700 44.81100 44.28800
H  43.07800 44.15800 45.30100
Mg -10.77000 17.74700 41.47000
C  -7.36400 17.06100 41.44100
C  -10.03600 21.03200 40.66500
C  -14.01200 18.31400 41.13900
C  -11.27300 14.35100 41.37100
N  -8.85400 18.91000 41.19700
C  -7.60500 18.44600 41.21100
C  -6.57300 19.59400 40.87100
C  -7.50600 20.87900 41.12000
C  -8.90000 20.26500 41.01500
C  -7.28900 21.70300 42.42800
C  -6.16400 19.35800 39.40800
C  -4.68500 18.94900 39.17400
H  -4.41100 17.91000 38.12000
N  -11.92000 19.45300 40.99600
C  -11.40300 20.69200 40.68900
C  -12.52100 21.59600 40.49600
C  -13.70000 20.86900 40.76400
C  -13.24000 19.49500 41.04300
C  -12.33500 23.07800 40.01200
C  -15.14000 21.43900 40.60900
O  -15.34200 22.59700 40.40700
C  -16.38200 20.52500 40.76100
N  -12.41800 16.53100 40.93200
C  -13.66000 16.97100 41.08500
C  -14.70900 15.84100 41.17300
C  -13.79500 14.53800 41.04100
C  -12.37700 15.19400 41.19900
C  -15.59700 15.90100 42.48000
C  -13.85800 13.73100 39.74900
C  -13.80100 12.19700 39.80100
N  -9.64000 16.01300 41.45600
C  -9.94300 14.70800 41.38600
C  -8.79400 13.92100 41.51000
C  -7.74300 14.74500 41.50800
C  -8.31000 16.03300 41.50700
C  -8.68100 12.39100 41.60800
C  -6.31100 14.80900 41.53500
O  -5.45400 13.91500 41.50200
C  -6.02700 16.37400 41.47100
C  -5.28900 16.75900 42.74700
O  -4.11300 16.58900 42.91600
O  -6.15000 17.04400 43.80000
C  -5.53600 16.88700 45.12700
H  -9.78300 22.05900 40.39300
H  -15.09100 18.45000 41.04200
H  -11.47000 13.27700 41.38900
H  -5.80100 19.47800 41.63200
H  -7.30800 21.59400 40.32200
H  -6.26400 21.72600 42.79900
H  -7.97000 21.27600 43.16500
H  -7.67100 22.70200 42.21600
H  -6.27400 20.23400 38.76900
H  -6.89000 18.64400 39.01900
H  -4.30300 18.77600 40.18000
H  -4.23200 19.83700 38.73200
H  -12.59900 23.70100 40.86600
H  -13.02000 23.38400 39.22100
H  -11.30500 23.27100 39.71300
H  -16.15900 19.71100 40.07200
H  -17.33900 20.95300 40.46000
H  -16.48400 20.15400 41.78000
H  -15.39300 15.91100 40.32700
H  -14.00300 13.89600 41.89700
H  -15.68200 14.89500 42.89000
H  -16.61900 16.17900 42.22200
H  -15.10500 16.70200 43.03200
H  -13.13000 14.06300 39.00900
H  -14.82800 13.81600 39.25900
H  -14.81500 11.79800 39.81000
H  -13.19600 11.90500 40.65900
H  -13.40300 11.87500 38.83800
H  -9.63100 11.86800 41.49500
H  -8.08200 12.02500 42.44200
H  -8.14500 12.18300 40.68200
H  -5.44300 16.76900 40.64000
H  -6.19800 17.37500 45.84200
H  -4.62700 17.47200 45.26900
H  -5.34700 15.83900 45.36100

