158

Mg 7.25500 2.70900 27.74400
C  8.81200 1.38100 30.58400
C  5.64200 4.88100 29.75000
C  5.44800 3.60900 24.96500
C  8.60100 0.09600 25.91200
N  7.25300 3.13200 30.04300
C  8.05900 2.43500 30.97800
C  7.87900 3.18100 32.36000
C  6.77900 4.26800 32.06700
C  6.49400 4.10200 30.55800
C  5.41000 4.08100 32.85000
C  9.24100 3.80800 32.91500
C  9.61400 3.38400 34.34300
H  10.26200 4.48600 35.21800
N  5.90000 4.08100 27.36800
C  5.42100 4.98200 28.30900
C  4.66800 5.90500 27.68100
C  4.59400 5.58700 26.28600
C  5.31800 4.30200 26.13900
C  4.07400 7.06000 28.37900
C  3.96000 6.39400 25.14400
O  3.92800 6.02700 24.00500
C  3.40300 7.68400 25.36500
N  6.93200 1.88300 25.72600
C  6.21600 2.50000 24.80900
C  6.32300 1.71500 23.50500
C  7.49200 0.72800 23.68600
C  7.63900 0.90500 25.22700
C  4.99800 0.93200 23.02500
C  8.78200 1.08100 22.92600
C  9.62400 -0.01000 22.15800
N  8.46500 1.08000 28.12300
C  8.94400 0.05500 27.27900
C  9.82800 -0.85400 28.01800
C  9.89600 -0.32100 29.25900
C  9.01600 0.88700 29.30300
C  10.42200 -2.03700 27.37700
C  10.46600 -0.51200 30.59700
O  11.24200 -1.40500 30.92700
C  9.81000 0.58000 31.45300
C  9.16200 0.03700 32.65600
O  8.14200 -0.59000 32.70500
O  9.92800 0.25400 33.75300
C  9.60500 -0.24100 35.06700
H  5.03500 5.56800 30.34500
H  4.83900 3.75500 24.07100
H  9.07300 -0.62000 25.23600
H  7.44000 2.31500 32.85500
H  7.15200 5.25700 32.33600
H  5.54200 3.44500 33.72500
H  4.61900 3.71700 32.19500
H  4.96300 5.02200 33.17200
H  9.11800 4.88700 33.00100
H  10.11500 3.53600 32.32400
H  10.36000 2.59600 34.43900
H  8.73800 2.99600 34.86400
H  4.61900 7.98500 28.18900
H  4.00200 7.03800 29.46600
H  3.02300 7.18200 28.11700
H  2.37600 7.67300 25.73100
H  3.56700 8.20900 24.42400
H  3.96500 8.23600 26.11900
H  6.40400 2.45200 22.70600
H  7.18000 -0.31000 23.57500
H  5.11900 -0.04600 22.56100
H  4.59500 1.54200 22.21600
H  4.28500 0.99700 23.84800
H  9.52500 1.54700 23.57400
H  8.56400 1.84900 22.18400
H  9.65200 -1.01300 22.58400
H  10.64400 0.36500 22.08200
H  9.26200 -0.19000 21.14600
H  11.25000 -1.65100 26.78100
H  9.84100 -2.56100 26.61800
H  10.66000 -2.76400 28.15300
H  10.63400 1.14800 31.88400
H  8.94400 -1.10700 35.04100
H  8.95900 0.52500 35.49700
H  10.51000 -0.50300 35.61500
Mg 46.53500 26.02100 29.03500
C  47.65400 27.77600 31.92900
C  45.25000 23.66600 31.22700
C  45.94100 24.06600 26.50800
C  48.65300 28.06500 27.12600
N  46.47000 25.77800 31.30200
C  46.91900 26.63800 32.24400
C  46.55700 26.13300 33.58000
C  45.72200 24.86600 33.38300
C  45.90000 24.69000 31.90100
C  46.16200 23.65600 34.18000
C  45.86900 27.29300 34.47300
C  46.51900 27.50900 35.82400
H  45.82300 28.21500 37.03800
N  45.56600 24.20700 28.91500
C  45.00100 23.44200 29.89500
C  44.33100 22.26000 29.21200
C  44.50100 22.43700 27.83700
C  45.38300 23.58800 27.67900
C  43.73600 21.12200 30.00000
C  44.12700 21.59800 26.59800
O  44.35600 21.86600 25.40000
C  43.39000 20.34200 26.91500
N  47.35900 25.98000 27.07500
C  46.84600 25.11900 26.19900
C  47.41600 25.39500 24.77000
C  48.07500 26.88600 24.94500
C  48.04200 27.05200 26.48100
C  48.26000 24.19800 24.27100
C  47.22500 27.96600 24.24900
C  47.01900 27.69800 22.74700
N  47.82700 27.61700 29.41000
C  48.56400 28.40000 28.47500
C  49.14300 29.53900 29.16200
C  48.88200 29.29600 30.56900
C  48.05300 28.15000 30.60900
C  50.07000 30.52400 28.53800
C  49.12800 29.72500 31.87200
O  49.94100 30.58800 32.21500
C  48.43100 28.78700 32.80500
C  49.52700 28.09800 33.42100
O  49.96200 27.08100 32.90500
O  49.85300 28.55700 34.65300
C  50.77400 27.70900 35.35000
H  44.97700 22.75700 31.76700
H  45.67700 23.64400 25.53700
H  48.87600 28.75700 26.31100
H  47.54700 25.95300 33.99900
H  44.68700 25.03600 33.67900
H  47.15400 23.53200 33.74700
H  45.56200 22.76600 33.99000
H  46.43600 23.81100 35.22300
H  44.87900 26.91100 34.72300
H  45.74600 28.24100 33.95000
H  47.49600 27.97200 35.68500
H  46.75900 26.50800 36.18200
H  42.66700 21.30600 29.89500
H  43.91700 21.07300 31.07400
H  43.92000 20.10800 29.64600
H  43.90300 19.56000 27.47500
H  43.06900 19.86100 25.99100
H  42.55600 20.70500 27.51500
H  46.54200 25.39300 24.11800
H  49.07900 27.04300 24.55100
H  48.19000 23.22300 24.75300
H  49.28800 24.49700 24.48000
H  48.20500 24.16300 23.18300
H  47.80600 28.88300 24.34900
H  46.26400 28.07700 24.75200
H  47.52100 26.79200 22.40500
H  47.50300 28.46600 22.14300
H  45.95800 27.82400 22.53300
H  50.06800 31.55700 28.88700
H  49.63100 30.55400 27.54100
H  51.05900 30.14900 28.27400
H  47.90800 29.33000 33.59200
H  50.42300 26.86200 35.94100
H  51.33500 28.36600 36.01400
H  51.46900 27.36700 34.58400

