158

Mg 0.57500 7.72100 25.53300
C  1.30700 9.76200 28.29800
C  0.51600 5.09000 27.62200
C  0.27900 5.76300 22.71100
C  1.16600 10.59000 23.42200
N  0.97300 7.47300 27.61200
C  1.17600 8.42100 28.60300
C  1.18900 7.84700 30.05300
C  1.07100 6.32000 29.82400
C  0.74300 6.29200 28.25100
C  2.36700 5.37400 30.18400
C  0.07900 8.32800 30.98000
C  0.43200 8.46300 32.44500
H  1.70300 7.62200 32.83900
N  0.35200 5.69900 25.20300
C  0.42400 4.76500 26.24300
C  0.34300 3.43200 25.62100
C  0.19900 3.65000 24.16400
C  0.34200 5.06800 23.99900
C  0.27400 2.15900 26.44500
C  0.05700 2.54700 23.09800
O  0.08200 2.82800 21.89700
C  -0.06900 1.12900 23.48700
N  0.84800 8.04700 23.41100
C  0.47300 7.12700 22.50400
C  0.27800 7.71600 21.09600
C  0.33600 9.29400 21.44000
C  0.83100 9.38200 22.83100
C  1.29200 7.26400 20.06000
C  -1.04200 10.03100 21.49100
C  -1.16500 11.24100 20.59800
N  1.12700 9.73700 25.76700
C  1.25100 10.80700 24.85200
C  1.48900 12.04800 25.51300
C  1.40200 11.69800 26.84100
C  1.24400 10.29700 27.00100
C  1.80100 13.28600 24.90000
C  1.63300 12.28800 28.18900
O  1.87000 13.43800 28.53300
C  1.40300 11.07700 29.17400
C  2.66200 11.08400 30.03800
O  3.83400 10.94700 29.60400
O  2.31700 11.36500 31.38000
C  3.42200 11.19000 32.24400
H  0.29700 4.22800 28.25600
H  0.08200 5.25700 21.76400
H  1.20900 11.51100 22.83800
H  2.17900 8.11800 30.41900
H  0.25400 5.81700 30.34200
H  2.10400 4.58200 30.88600
H  3.12300 6.06600 30.55400
H  2.83400 4.86500 29.34200
H  -0.78600 7.68300 30.83000
H  -0.06900 9.33500 30.59000
H  -0.38900 8.33500 33.15000
H  0.81400 9.48400 32.48300
H  0.96700 1.37000 26.15300
H  -0.77400 1.86500 26.38400
H  0.60400 2.27100 27.47800
H  -0.21500 0.52300 22.59300
H  -0.94200 1.16200 24.13800
H  0.81400 0.70700 23.96800
H  -0.72000 7.51900 20.70500
H  1.00600 9.84800 20.78200
H  1.69800 6.26700 20.22600
H  2.15400 7.91100 19.89400
H  0.75900 7.24000 19.11000
H  -1.38000 10.19500 22.51400
H  -1.81700 9.30600 21.24500
H  -0.25300 11.47400 20.04800
H  -1.38900 12.09700 21.23500
H  -1.97100 11.13300 19.87300
H  1.37100 13.53200 23.92900
H  2.86800 13.31900 24.67900
H  1.44500 14.04400 25.59800
H  0.53300 11.37300 29.76100
H  3.93800 10.24500 32.07600
H  3.04100 11.13200 33.26300
H  4.21300 11.91000 32.03200
Mg 16.79400 51.97700 26.66800
C  18.56400 50.54000 29.23600
C  14.30000 52.94200 28.94900
C  15.19100 53.51900 24.15000
C  19.17500 50.69200 24.41000
N  16.49000 51.74600 28.74100
C  17.38200 51.19500 29.60600
C  16.88600 51.37900 31.02600
C  15.35200 51.82100 30.93500
C  15.35200 52.18700 29.47400
C  14.29400 50.75800 31.37600
C  17.74800 52.33400 31.84500
C  17.76200 52.16900 33.36900
H  16.61600 51.32100 33.97600
N  15.04800 53.11000 26.59400
C  14.20100 53.37700 27.62700
C  13.18100 54.34000 27.13500
C  13.42700 54.57900 25.77000
C  14.56400 53.69600 25.45800
C  12.02300 54.79200 27.98300
C  12.73800 55.48300 24.70600
O  13.11200 55.56900 23.55300
C  11.56200 56.34100 25.13700
N  17.08900 52.00300 24.63800
C  16.24500 52.72700 23.75500
C  16.70400 52.50900 22.27800
C  18.15700 51.99100 22.45700
C  18.13500 51.48000 23.90400
C  15.77900 51.54800 21.47200
C  19.33400 52.98400 22.25600
C  20.18400 52.71800 21.04400
N  18.49700 50.78600 26.76000
C  19.46700 50.40900 25.78000
C  20.61700 49.71900 26.41400
C  20.30700 49.78000 27.74800
C  19.02400 50.36100 27.94000
C  21.86200 49.18700 25.72000
C  20.81000 49.43700 29.07100
O  21.86900 48.94100 29.37600
C  19.71300 49.99400 30.09500
C  19.33800 48.84900 31.02600
O  18.70000 47.83700 30.80700
O  19.85900 49.13900 32.27500
C  19.40700 48.18700 33.25800
H  13.52900 53.27800 29.64600
H  14.55900 53.79800 23.30500
H  20.05900 50.38600 23.84800
H  16.90000 50.36600 31.42800
H  15.19400 52.70800 31.55000
H  13.47300 50.69800 30.66100
H  13.87100 51.17300 32.29100
H  14.80100 49.80600 31.53300
H  17.41400 53.33500 31.57500
H  18.78300 52.25300 31.51100
H  17.69000 53.17300 33.78600
H  18.71400 51.80900 33.76000
H  12.25800 55.83600 28.19300
H  11.82400 54.28500 28.92700
H  11.11400 54.85300 27.38500
H  10.72500 55.64800 25.21700
H  11.31500 57.10500 24.40000
H  11.69300 56.82800 26.10400
H  16.69900 53.46200 21.74900
H  18.25600 51.20700 21.70600
H  15.53600 52.10000 20.56400
H  14.84000 51.36300 21.99400
H  16.30000 50.62800 21.20700
H  19.97600 52.93600 23.13600
H  18.94500 53.98700 22.08500
H  21.18800 52.37300 21.29100
H  20.21700 53.58900 20.38900
H  19.77000 51.86400 20.50800
H  21.52800 48.64100 24.83800
H  22.24400 48.47500 26.45200
H  22.51700 50.03200 25.50500
H  20.06500 50.79800 30.74100
H  19.65700 47.13100 33.15200
H  18.32000 48.24100 33.21000
H  19.76400 48.48300 34.24400

