158

Mg 31.24900 57.51400 38.63000
C  28.47400 55.45600 37.60700
C  33.24900 54.70900 38.00400
C  33.88400 59.50000 38.91800
C  29.12800 60.19000 38.73100
N  30.87300 55.35300 37.67200
C  29.68700 54.73200 37.56700
C  29.79300 53.24900 37.25900
C  31.32800 53.00400 37.56700
C  31.83400 54.41100 37.82000
C  31.62400 51.98900 38.64500
C  29.28000 52.70400 35.93100
C  29.68700 53.52000 34.67500
H  28.63000 54.08500 33.76900
N  33.33000 57.12600 38.62700
C  33.91200 55.96600 38.31000
C  35.35300 56.20000 38.11400
C  35.62500 57.59900 38.34600
C  34.25700 58.15300 38.63800
C  36.41800 55.14300 37.84500
C  36.96700 58.31100 38.22600
O  38.03700 57.77700 37.81300
C  37.11900 59.71800 38.78800
N  31.39800 59.53700 38.79200
C  32.66400 60.13300 38.96000
C  32.48000 61.61200 39.23600
C  30.91100 61.90600 39.26400
C  30.39700 60.48000 38.90900
C  33.30400 62.42000 40.32700
C  30.46100 63.00300 38.31900
C  29.78600 64.18700 38.97300
N  29.21200 57.85600 38.23200
C  28.46500 58.99000 38.45200
C  27.04500 58.73700 38.30000
C  27.05400 57.36300 37.96900
C  28.37400 56.88100 37.88100
C  25.87100 59.59700 38.54100
C  26.17500 56.27200 37.59500
O  24.99600 56.32900 37.41600
C  27.07000 54.99600 37.48200
C  26.55200 54.06700 38.48800
O  27.24000 53.74800 39.41800
O  25.44900 53.43900 37.95800
C  25.02800 52.18600 38.59200
H  33.96500 53.89500 37.87400
H  34.70400 60.21900 38.86600
H  28.46000 61.03600 38.90300
H  29.26200 52.77200 38.08300
H  31.79600 52.67800 36.63900
H  32.01100 52.51500 39.51800
H  32.34300 51.30700 38.19000
H  30.70200 51.47900 38.92700
H  28.20600 52.79000 36.09700
H  29.62600 51.67300 35.86300
H  30.25700 52.84700 34.03600
H  30.22600 54.43300 34.93000
H  37.12800 55.40000 37.05900
H  35.96400 54.24900 37.41700
H  37.02400 54.90000 38.71800
H  36.55300 59.81000 39.71500
H  36.71600 60.29600 37.95600
H  38.13900 60.01600 39.02900
H  32.95900 61.97800 38.32700
H  30.67800 62.04600 40.31900
H  33.76300 63.32000 39.91800
H  34.11300 61.85500 40.78900
H  32.62000 62.85500 41.05700
H  29.79800 62.45000 37.65300
H  31.33000 63.38700 37.78500
H  30.53800 64.97100 38.88000
H  29.58800 64.06800 40.03800
H  28.86600 64.37300 38.41900
H  24.96500 58.99200 38.54200
H  25.86500 60.48000 37.90100
H  26.10900 60.03100 39.51200
H  26.92400 54.59100 36.48100
H  25.19200 52.06200 39.66200
H  25.34400 51.33200 37.99300
H  23.96600 52.02900 38.40400
Mg 6.60500 53.81100 40.79600
C  6.66600 50.19000 40.71300
C  9.72900 53.65000 39.58600
C  6.26700 57.02800 39.82700
C  3.29300 53.60800 41.53300
N  7.95100 52.05300 40.06900
C  7.85700 50.69600 40.22000
C  9.18500 50.03500 39.86100
C  10.05000 51.19000 39.78200
C  9.20700 52.41900 39.79700
C  11.14900 51.37000 40.96100
C  9.28200 49.14700 38.60500
C  8.94800 49.72900 37.16500
H  7.85700 49.08000 36.47300
N  7.84400 55.21200 39.93200
C  9.12100 54.92700 39.54300
C  9.79700 56.12400 39.19100
C  8.86300 57.18300 39.34800
C  7.54900 56.48600 39.66200
C  11.22800 56.06800 38.76800
C  9.11000 58.71700 39.09700
O  10.24400 59.07500 38.73200
C  8.09300 59.73600 39.37500
N  4.87600 55.15500 40.55500
C  5.02300 56.50100 40.29200
C  3.78100 57.28800 40.75400
C  2.90100 56.19200 41.38600
C  3.72100 54.90800 41.22600
C  4.18300 58.50900 41.71500
C  1.54100 56.14600 40.73300
C  0.29700 56.02600 41.65100
N  5.29500 52.29600 41.30700
C  3.99300 52.36900 41.58200
C  3.40600 51.08100 41.94400
C  4.47900 50.19900 41.66200
C  5.63400 50.99300 41.21900
C  1.95100 50.78500 42.16600
C  4.84600 48.83100 41.47800
O  4.18000 47.80800 41.61200
C  6.28900 48.73600 41.04300
C  6.28400 47.85400 39.83500
O  5.87300 48.20300 38.76200
O  6.68000 46.63400 40.19300
C  6.69000 45.59100 39.09400
H  10.81100 53.65800 39.43700
H  5.99700 58.05200 39.56100
H  2.23700 53.59500 41.81200
H  9.44400 49.39800 40.70600
H  10.64900 51.22900 38.87300
H  11.14100 52.37800 41.37400
H  12.13000 51.22900 40.50700
H  10.98000 50.66900 41.77800
H  8.59900 48.31100 38.75600
H  10.26500 48.67700 38.64200
H  9.83200 49.87200 36.54400
H  8.58100 50.70100 37.49500
H  11.48000 56.83600 38.03700
H  11.39200 55.09900 38.29800
H  11.84700 56.18500 39.65700
H  7.35600 59.78200 38.57200
H  8.63500 60.67700 39.28400
H  7.53800 59.75000 40.31300
H  3.36200 57.68000 39.82700
H  2.80700 56.41500 42.44900
H  3.67500 58.46600 42.67800
H  3.84400 59.42200 41.22400
H  5.25400 58.65100 41.85900
H  1.55000 55.25100 40.11100
H  1.38800 56.94100 40.00300
H  -0.17800 57.00300 41.74400
H  0.50500 55.60200 42.63400
H  -0.46100 55.42100 41.15500
H  1.49500 51.60300 41.60800
H  1.69400 50.90600 43.21800
H  1.51500 49.86000 41.79100
H  6.98700 48.50500 41.84800
H  7.42900 44.87100 39.44500
H  6.79600 46.04700 38.10900
H  5.75300 45.03200 39.09100

