158

Mg 44.18900 5.50900 48.68500
C  42.03400 8.16000 47.95900
C  41.63000 3.43700 47.49700
C  46.42000 2.90200 48.75800
C  46.85900 7.76000 48.65000
N  42.06600 5.74800 47.90900
C  41.40400 6.94500 47.76600
C  39.93400 6.71800 47.41400
C  39.86800 5.20300 47.16400
C  41.28800 4.76600 47.56300
C  38.68200 4.40100 47.87900
C  39.37800 7.70000 46.33900
C  40.23400 7.99000 45.12300
H  39.87600 7.34600 43.76000
N  43.97500 3.42800 48.40100
C  42.83300 2.80900 47.92700
C  43.13000 1.33600 47.77600
C  44.50200 1.21600 48.24100
C  45.00800 2.56000 48.49000
C  42.32400 0.41700 46.93300
C  45.18900 -0.09300 48.30900
O  44.60800 -1.12400 47.95900
C  46.59200 -0.29500 48.86800
N  46.40000 5.34700 48.56900
C  47.02600 4.15200 48.84100
C  48.53900 4.31000 48.81000
C  48.74500 5.91400 48.81400
C  47.24700 6.42500 48.70000
C  49.28800 3.60300 49.96600
C  49.80500 6.45600 47.76700
C  50.79600 7.54200 48.35500
N  44.44200 7.51600 48.57900
C  45.61700 8.32600 48.58400
C  45.29700 9.69900 48.37300
C  43.88300 9.67400 48.18400
C  43.41700 8.28900 48.21700
C  46.29700 10.85100 48.24700
C  42.76100 10.50800 47.92200
O  42.69300 11.70800 47.79500
C  41.49700 9.58400 47.81300
C  40.64400 9.81800 48.99400
O  40.68000 9.30400 50.10900
O  39.70600 10.81300 48.60900
C  38.77800 11.33400 49.71400
H  40.84900 2.73600 47.19500
H  47.23500 2.17600 48.71100
H  47.64400 8.51900 48.63800
H  39.45600 6.91700 48.37300
H  39.75400 4.96700 46.10600
H  37.91400 5.04900 48.30200
H  39.19000 3.90100 48.70400
H  38.28900 3.64600 47.19800
H  39.01500 8.62700 46.78300
H  38.47300 7.30400 45.87800
H  41.24600 7.62500 45.29600
H  40.19500 9.06600 44.95600
H  41.47500 0.81600 46.37800
H  41.90900 -0.37700 47.55400
H  43.08400 0.02400 46.25900
H  46.73500 -1.29900 49.26900
H  46.60700 0.52800 49.58300
H  47.29900 -0.20300 48.04300
H  48.83700 3.83400 47.87600
H  48.99400 6.26900 49.81400
H  48.63800 3.27300 50.77600
H  50.04300 4.30100 50.32700
H  49.91600 2.75700 49.68400
H  49.33700 6.84700 46.86300
H  50.36900 5.58000 47.44600
H  50.84700 7.61800 49.44100
H  50.61000 8.51500 47.90100
H  51.77500 7.14500 48.08600
H  46.77100 10.81400 47.26600
H  47.10800 10.87000 48.97500
H  45.80100 11.81100 48.39100
H  40.88800 9.61700 46.90900
H  39.03300 11.03000 50.73000
H  37.73500 11.15800 49.44900
H  38.86700 12.41900 49.77100
Mg 47.19000 24.61200 27.84000
C  48.37000 26.65700 30.53800
C  46.58500 22.04300 30.14000
C  46.85500 22.56800 25.26200
C  48.81500 26.85100 25.73600
N  47.54100 24.35400 30.17000
C  47.72300 25.44900 31.00400
C  47.32900 25.10600 32.46600
C  46.86600 23.55600 32.30800
C  47.06200 23.27400 30.82000
C  47.43900 22.49500 33.26600
C  46.29100 25.98500 33.16600
C  46.66500 26.58000 34.49700
H  45.61400 26.93500 35.54800
N  46.62900 22.56900 27.73100
C  46.44700 21.71900 28.77200
C  46.09900 20.47900 28.21700
C  46.15100 20.54200 26.79800
C  46.52800 21.96800 26.54600
C  45.78500 19.26200 29.09300
C  45.85200 19.52500 25.64800
O  45.87700 19.79300 24.46800
C  45.52200 18.15900 26.02800
N  47.91100 24.61200 25.80000
C  47.48000 23.72800 24.91800
C  47.79100 24.10200 23.46400
C  48.16600 25.60400 23.60300
C  48.33500 25.73400 25.10300
C  48.85000 23.15100 22.73200
C  47.08300 26.62900 23.00800
C  47.70000 27.70400 22.05800
N  48.21200 26.48500 27.99300
C  48.80900 27.21500 27.10500
C  49.43500 28.36200 27.71300
C  49.10500 28.25600 29.04600
C  48.46100 27.05800 29.16100
C  50.09800 29.46100 27.00900
C  49.37300 28.82600 30.30000
O  49.98100 29.82100 30.54400
C  48.67600 27.89200 31.34500
C  49.62100 27.59700 32.47400
O  50.42200 26.72300 32.51600
O  49.48400 28.51500 33.45700
C  50.29400 28.29200 34.70500
H  46.16600 21.30500 30.82700
H  46.57200 21.97600 24.38900
H  49.32800 27.55100 25.07200
H  48.25300 25.13800 33.04200
H  45.80300 23.59400 32.54100
H  48.04600 22.90300 34.07500
H  48.14100 21.87500 32.70900
H  46.73200 21.80900 33.73300
H  45.36300 25.46300 33.40000
H  45.87300 26.80300 32.58000
H  47.12300 27.53700 34.24500
H  47.33900 25.99500 35.12200
H  46.26300 19.35000 30.06800
H  46.16400 18.31700 28.70500
H  44.71300 19.13200 29.23900
H  46.24900 17.74400 26.72600
H  45.47700 17.52400 25.14400
H  44.59100 18.09800 26.59200
H  46.83400 24.02700 22.94800
H  49.16600 25.85200 23.24600
H  48.47700 22.84200 21.75600
H  48.91100 22.22600 23.30500
H  49.83900 23.58900 22.59700
H  46.55400 27.11100 23.83100
H  46.34400 26.10500 22.40200
H  47.40100 27.57100 21.01800
H  48.78500 27.59800 22.04600
H  47.38400 28.71300 22.32200
H  49.49200 30.14300 26.41200
H  50.91000 29.09000 26.38400
H  50.60300 29.99300 27.81500
H  47.81700 28.53100 31.55200
H  51.18500 28.87600 34.47400
H  50.59800 27.28200 34.98000
H  49.93500 28.68600 35.65600

