158

Mg 16.65500 52.23100 25.77000
C  18.50300 51.14600 28.69600
C  14.11900 53.25200 27.77800
C  15.02100 53.10500 22.98900
C  19.06700 50.64700 23.87100
N  16.41300 52.19600 27.96500
C  17.25600 51.76700 28.98400
C  16.67200 52.06100 30.39600
C  15.17500 52.36200 29.99000
C  15.19000 52.57600 28.49600
C  14.20500 51.22200 30.39700
C  17.44100 53.22900 31.12200
C  17.76300 52.89100 32.60800
H  16.68200 53.04000 33.66900
N  14.82800 53.08200 25.43500
C  14.00500 53.58100 26.38800
C  12.91000 54.30600 25.77900
C  13.21400 54.31700 24.34500
C  14.37300 53.42800 24.21000
C  11.75700 54.83400 26.46900
C  12.41100 55.00900 23.23700
O  12.73600 54.91800 22.05500
C  11.14500 55.69000 23.58100
N  17.04400 51.96700 23.67300
C  16.19500 52.43000 22.72700
C  16.71300 52.09000 21.31500
C  18.15400 51.50800 21.60700
C  18.10700 51.35300 23.12900
C  15.70000 51.18000 20.44200
C  19.33000 52.43500 21.16400
C  20.70300 51.85100 20.77700
N  18.43300 51.10400 26.09800
C  19.29200 50.46200 25.25700
C  20.25800 49.67000 26.01100
C  19.99500 49.91600 27.31000
C  18.92100 50.77400 27.34100
C  21.37500 48.92500 25.37800
C  20.43300 49.73300 28.66600
O  21.32300 48.96200 29.02400
C  19.55900 50.61400 29.64000
C  19.04600 49.66200 30.63200
O  18.36500 48.65400 30.39900
O  19.52500 49.96000 31.82900
C  19.32000 49.10000 32.91700
H  13.30000 53.44100 28.47500
H  14.61300 53.58700 22.09800
H  19.91100 50.32900 23.25600
H  16.79000 51.11300 30.92100
H  14.87800 53.32900 30.39700
H  13.63700 51.51400 31.28000
H  14.75800 50.29600 30.55400
H  13.44800 50.94500 29.66300
H  16.71500 54.04200 31.10100
H  18.31800 53.60400 30.59400
H  18.56700 53.57400 32.88200
H  18.12400 51.87600 32.77500
H  10.87000 54.23600 26.26100
H  11.59800 55.88000 26.20600
H  11.85700 54.75300 27.55100
H  10.56800 54.99300 24.18900
H  10.52800 55.98400 22.73200
H  11.29900 56.63400 24.10300
H  16.95200 53.04900 20.85600
H  18.30600 50.52500 21.16200
H  15.29900 51.71100 19.57800
H  14.96600 50.86000 21.18200
H  16.25000 50.30600 20.09400
H  19.64600 53.03200 22.01900
H  19.06800 53.14800 20.38200
H  21.56600 52.25500 21.30600
H  20.99400 51.93700 19.73000
H  20.83000 50.80400 21.04900
H  22.35800 49.29000 25.67600
H  21.28100 48.94300 24.29200
H  21.24600 47.89700 25.71600
H  20.07700 51.43900 30.12800
H  18.28500 48.86300 33.16300
H  19.75600 49.62800 33.76500
H  19.86900 48.15900 32.86200
Mg 1.09500 43.95600 25.15500
C  3.03500 43.81000 28.06800
C  -1.72000 43.10100 27.19600
C  -0.79000 43.20100 22.35000
C  3.79600 44.16000 23.30200
N  0.77100 43.57200 27.48600
C  1.74200 43.61600 28.42300
C  1.09700 43.31700 29.77500
C  -0.44700 42.94100 29.42000
C  -0.51700 43.20900 27.94700
C  -0.94000 41.52400 29.78000
C  1.15800 44.60500 30.69600
C  0.47000 44.48400 32.12800
H  0.34500 43.10700 32.84400
N  -1.01500 43.59400 24.77600
C  -1.93200 43.37000 25.80000
C  -3.21500 43.34900 25.18200
C  -3.03100 43.10800 23.72800
C  -1.54200 43.25700 23.52100
C  -4.54200 43.53400 26.00400
C  -4.10400 43.01600 22.71400
O  -3.94700 43.06900 21.50600
C  -5.51600 43.05700 23.20000
N  1.43800 43.68000 23.03400
C  0.51800 43.49500 22.00300
C  1.16700 43.45700 20.61800
C  2.63200 43.87400 20.95800
C  2.64700 43.94900 22.54800
C  1.17000 42.04800 19.89300
C  3.00500 45.25500 20.23600
C  2.53100 46.71500 20.82900
N  3.02000 44.02700 25.53900
C  3.98800 44.29300 24.67800
C  5.26300 44.44100 25.43900
C  4.88200 44.17600 26.75100
C  3.47700 43.96300 26.77700
C  6.58600 44.66500 24.86700
C  5.42000 43.95200 28.09200
O  6.58700 43.77800 28.43500
C  4.27900 43.84600 29.05300
C  4.29600 42.55400 29.81700
O  4.04700 41.46900 29.34300
O  4.58600 42.73600 31.17400
C  4.69500 41.55100 32.03400
H  -2.55200 42.82900 27.84900
H  -1.35300 42.83000 21.49100
H  4.69100 44.32100 22.69800
H  1.49400 42.50100 30.37800
H  -1.19900 43.53600 29.93800
H  -1.87700 41.65400 30.32200
H  -0.23700 41.07800 30.48300
H  -1.20700 41.00500 28.86000
H  0.72800 45.43400 30.13400
H  2.18700 44.83900 30.97000
H  -0.56000 44.81100 31.98100
H  1.10500 45.12700 32.73700
H  -5.13900 44.33700 25.57100
H  -4.46800 43.71900 27.07500
H  -5.10600 42.60500 25.92400
H  -5.67100 42.21300 23.87100
H  -6.13700 42.82300 22.33500
H  -5.77200 44.01200 23.66000
H  0.59400 44.20400 20.06900
H  3.31300 43.04600 20.76100
H  0.60600 41.38700 20.55000
H  2.09800 41.57800 19.56500
H  0.49900 42.21400 19.05100
H  2.60900 45.26000 19.22100
H  4.06700 45.34400 20.00700
H  2.25000 47.38100 20.01300
H  3.37300 47.18700 21.33500
H  1.66500 46.77000 21.49000
H  6.83700 45.72500 24.90200
H  6.68100 44.28000 23.85100
H  7.27300 44.01200 25.40500
H  4.31300 44.64100 29.79800
H  5.64700 41.04600 31.87000
H  3.84000 40.90900 31.82200
H  4.63300 41.90000 33.06500

