158

Mg 6.51700 53.78100 40.71300
C  6.31100 50.30700 40.32900
C  9.83700 53.66500 39.93200
C  6.45200 57.13900 40.45400
C  2.98900 53.88200 41.27500
N  7.85900 52.14500 40.15200
C  7.62300 50.78700 40.05400
C  8.86700 50.03300 39.62800
C  9.96000 51.08700 39.97000
C  9.16100 52.42200 40.00700
C  10.82000 50.85000 41.25000
C  8.72500 49.56700 38.13500
C  8.69900 50.61700 37.03200
H  7.37900 50.82400 36.26500
N  7.96000 55.18400 40.26500
C  9.28500 54.97200 39.98500
C  9.98100 56.24300 39.82100
C  9.04600 57.28300 40.19700
C  7.75000 56.56700 40.36000
C  11.40200 56.46000 39.40400
C  9.31400 58.77400 40.47000
O  10.43600 59.14500 40.24100
C  8.37100 59.74800 41.03200
N  4.90200 55.26100 40.73700
C  5.19200 56.60500 40.68400
C  3.91800 57.38800 40.63900
C  2.81800 56.42300 41.22900
C  3.59200 55.08600 41.00900
C  4.06100 58.70400 41.50300
C  1.35900 56.44700 40.68100
C  0.31300 56.41200 41.73800
N  4.94800 52.43600 40.89000
C  3.64100 52.58500 41.21100
C  3.06400 51.25500 41.51900
C  4.02000 50.33800 41.09200
C  5.18300 51.09500 40.76300
C  1.71100 50.89600 42.17900
C  4.31900 48.93600 40.94300
O  3.66200 47.92500 41.09000
C  5.82700 48.85800 40.53400
C  5.78500 47.91100 39.37200
O  5.33900 48.23500 38.28400
O  6.08300 46.62200 39.74100
C  5.94600 45.60200 38.75500
H  10.91200 53.56800 39.77000
H  6.37400 58.21300 40.27000
H  1.95200 53.77800 41.60100
H  9.01000 49.17900 40.29000
H  10.60200 51.23900 39.10200
H  11.32500 49.90700 41.04200
H  10.20600 51.03500 42.13100
H  11.53000 51.66300 41.40900
H  7.89900 48.86400 38.03000
H  9.59800 48.92100 38.04200
H  9.52800 50.35900 36.37300
H  9.01200 51.63400 37.27100
H  11.56300 57.25200 38.67300
H  11.71700 55.62400 38.78100
H  12.17600 56.51300 40.17000
H  8.98100 60.45600 41.59400
H  7.76900 59.20100 41.75800
H  7.79200 60.26300 40.26600
H  3.73400 57.57600 39.58100
H  2.68200 56.59500 42.29600
H  5.06200 58.81200 41.92100
H  3.38500 58.59200 42.35100
H  3.75800 59.59900 40.96000
H  1.25200 55.52700 40.10600
H  1.22800 57.25000 39.95600
H  0.54900 56.72900 42.75400
H  -0.24000 55.47300 41.73800
H  -0.48900 57.10900 41.49500
H  1.21500 50.11200 41.60600
H  1.00200 51.72400 42.16100
H  1.88800 50.63100 43.22200
H  6.49400 48.36600 41.24200
H  6.07700 44.69400 39.34400
H  6.63300 45.62300 37.90900
H  4.92700 45.60400 38.36900
Mg 17.27000 52.56500 25.73500
C  19.01700 50.99400 28.42700
C  14.88600 53.44200 27.81700
C  15.37900 53.29500 23.00700
C  19.58200 50.88100 23.45100
N  17.05900 52.29900 27.90300
C  17.95700 51.80900 28.79700
C  17.40600 51.95700 30.22700
C  15.93300 52.51400 29.96800
C  16.00300 52.86900 28.52300
C  14.73800 51.59000 30.43200
C  18.30200 52.81300 31.05500
C  18.01200 52.89800 32.57800
H  16.92900 52.01000 33.29700
N  15.44500 53.50500 25.49100
C  14.60000 53.76700 26.48100
C  13.37500 54.46300 25.97900
C  13.55400 54.40000 24.50300
C  14.85700 53.74000 24.26300
C  12.22400 54.92500 26.83100
C  12.63500 54.88700 23.43900
O  12.88900 54.90300 22.27000
C  11.28100 55.46700 23.83100
N  17.52500 52.12300 23.56100
C  16.55000 52.59800 22.67800
C  16.95200 52.36400 21.22500
C  18.36200 51.80400 21.40200
C  18.52600 51.62100 22.93200
C  16.05400 51.51300 20.31100
C  19.45400 52.66400 20.86600
C  20.64900 52.03800 20.03000
N  18.99100 51.15100 25.86100
C  19.80600 50.57000 24.85600
C  20.85100 49.80300 25.52600
C  20.59600 49.92500 26.91500
C  19.41800 50.71900 27.06500
C  22.04700 49.13700 24.90700
C  21.04100 49.55000 28.26100
O  22.05900 48.98900 28.63200
C  19.92800 50.11200 29.20700
C  19.16300 49.00600 29.78400
O  18.15300 48.43900 29.37800
O  19.56700 48.83700 31.08500
C  18.69900 48.01900 31.94200
H  14.04700 53.65600 28.48300
H  14.77500 53.50200 22.12100
H  20.29800 50.38900 22.78900
H  17.43900 50.96900 30.68500
H  15.84500 53.42200 30.56500
H  14.12700 51.31200 29.57300
H  14.12400 52.18600 31.10700
H  15.12600 50.67400 30.87900
H  17.99500 53.81200 30.74700
H  19.37900 52.64300 31.04900
H  17.94400 53.94900 32.85700
H  18.96300 52.52100 32.95500
H  12.51800 54.79900 27.87400
H  11.33200 54.31800 26.68200
H  11.91800 55.96900 26.75600
H  11.40400 56.43400 24.31800
H  10.65400 54.77900 24.39900
H  10.67000 55.69300 22.95700
H  17.03200 53.26800 20.62100
H  18.40300 50.79000 21.00300
H  15.62500 50.65500 20.82700
H  16.65000 51.17200 19.46400
H  15.21100 52.08500 19.92200
H  19.83300 53.33400 21.63800
H  18.94600 53.24400 20.09600
H  21.47300 52.64500 20.40400
H  20.51600 52.30800 18.98300
H  20.67800 50.95800 20.17600
H  22.94600 49.75300 24.91900
H  21.89600 48.67100 23.93300
H  22.24800 48.30500 25.58200
H  20.34500 50.66000 30.05200
H  18.71100 48.41600 32.95700
H  19.17300 47.03800 31.98000
H  17.67900 47.90800 31.57500

