158

Mg 47.43800 34.02200 26.57300
C  45.91600 32.81200 29.40000
C  47.88200 37.01200 28.28900
C  48.55000 35.49500 23.59000
C  46.62200 31.19000 24.69200
N  47.02100 34.80000 28.59500
C  46.44400 34.07900 29.60200
C  46.70100 34.73000 30.93100
C  46.97600 36.22600 30.52300
C  47.35500 35.99700 29.05800
C  45.73100 37.22600 30.66100
C  47.86800 34.07100 31.65500
C  47.85000 34.32200 33.16400
H  46.67500 35.09900 33.68800
N  48.17400 35.99700 26.05600
C  48.33700 36.99400 26.93900
C  49.11500 38.07600 26.31300
C  49.22200 37.69200 24.92100
C  48.67400 36.33400 24.79200
C  49.42700 39.41200 26.96800
C  49.95300 38.45000 23.78000
O  50.15300 37.98700 22.68000
C  50.32600 39.95100 24.06400
N  47.24500 33.50100 24.38300
C  48.03500 34.16500 23.45800
C  48.24300 33.41400 22.10400
C  47.66900 32.03600 22.53500
C  47.16700 32.23900 23.95000
C  47.59100 34.12900 20.89600
C  48.66100 30.80400 22.44200
C  49.76700 30.62900 23.50700
N  46.42900 32.37600 26.89200
C  46.23800 31.26200 26.10000
C  45.62400 30.20100 26.92100
C  45.43900 30.83200 28.19500
C  45.94700 32.12100 28.16500
C  45.27700 28.86900 26.48000
C  44.84800 30.63800 29.42700
O  44.06300 29.73400 29.73100
C  45.01400 31.86500 30.31300
C  45.41600 31.39700 31.61300
O  46.52100 31.13700 31.99000
O  44.29400 31.32500 32.40500
C  44.37600 31.41200 33.90200
H  48.32700 37.75800 28.95100
H  49.10700 35.80700 22.70400
H  46.54500 30.28200 24.09100
H  45.74900 34.66700 31.45900
H  47.88100 36.51500 31.05800
H  44.86500 36.77600 31.14700
H  45.50300 37.61500 29.66900
H  45.96300 38.09000 31.28300
H  48.82700 34.34100 31.21400
H  47.86200 32.98300 31.57900
H  48.69100 34.93200 33.49500
H  47.93500 33.30900 33.55700
H  50.50800 39.47700 27.08700
H  48.98500 39.53800 27.95700
H  49.16100 40.28700 26.37400
H  50.72900 40.28800 23.10900
H  51.14100 39.87600 24.78400
H  49.48300 40.55000 24.40700
H  49.31300 33.48700 21.91100
H  46.85500 31.86800 21.82900
H  46.87400 33.44000 20.45000
H  48.40900 34.32600 20.20300
H  47.11400 35.06900 21.17400
H  49.13500 30.98000 21.47600
H  48.09500 29.87600 22.36700
H  50.70200 30.94900 23.04500
H  49.86100 29.62100 23.91200
H  49.55100 31.35200 24.29400
H  46.19200 28.55300 25.97800
H  44.52600 28.90800 25.69100
H  44.88300 28.21800 27.26000
H  44.00000 32.25400 30.41300
H  44.80900 30.49600 34.30400
H  43.38700 31.61400 34.31400
H  45.00500 32.26200 34.16800
Mg -1.71900 35.11400 25.99200
C  -3.17700 33.35200 28.78300
C  -0.72100 37.56000 28.36200
C  -0.69300 36.90400 23.45300
C  -3.32100 32.90800 23.93100
N  -1.94700 35.38700 28.38100
C  -2.57100 34.51600 29.27600
C  -2.40200 35.04100 30.73100
C  -1.69800 36.42200 30.46600
C  -1.46400 36.51400 28.90800
C  -2.35300 37.57700 31.20000
C  -1.65000 34.02400 31.68200
C  -2.30800 33.41600 32.96700
H  -1.53400 33.29500 34.25600
N  -0.77800 36.90200 25.97600
C  -0.36300 37.69200 27.00800
C  0.26100 38.86000 26.39700
C  0.34400 38.64500 24.96600
C  -0.39300 37.43700 24.71200
C  0.93500 39.96700 27.19500
C  1.09400 39.50700 23.92500
O  1.23500 39.27300 22.71200
C  1.93900 40.68700 24.45300
N  -2.13600 34.97400 23.97200
C  -1.46400 35.80600 23.08200
C  -1.69800 35.38600 21.62200
C  -2.21000 33.92900 21.76700
C  -2.61000 33.88800 23.28300
C  -2.65800 36.24400 20.86200
C  -1.15800 32.84000 21.42800
C  0.20800 32.92000 22.10100
N  -2.93900 33.51300 26.28100
C  -3.55500 32.72700 25.27000
C  -4.28900 31.67400 25.86800
C  -4.16700 31.91600 27.23400
C  -3.34000 33.00800 27.44400
C  -5.11000 30.56900 25.21500
C  -4.57600 31.39700 28.51000
O  -5.24900 30.40500 28.86700
C  -3.97100 32.37000 29.61900
C  -5.09700 32.93500 30.37500
O  -5.78900 33.90300 30.00700
O  -5.32700 32.18400 31.51500
C  -6.36900 32.68500 32.43300
H  -0.31600 38.30100 29.05500
H  -0.26100 37.39900 22.58100
H  -3.89400 32.24100 23.28400
H  -3.43100 35.14900 31.07100
H  -0.70500 36.28100 30.89300
H  -2.57900 38.45400 30.59400
H  -1.55700 37.94100 31.85000
H  -3.16700 37.33200 31.88200
H  -0.67300 34.39700 31.99000
H  -1.33300 33.12900 31.14800
H  -2.67100 32.45100 32.61300
H  -3.22700 33.99500 33.06800
H  2.02100 39.90900 27.11800
H  0.74500 39.77200 28.25100
H  0.55800 40.93200 26.85700
H  2.37300 41.15700 23.57000
H  2.77600 40.42600 25.10000
H  1.28200 41.45700 24.85700
H  -0.72500 35.42900 21.13400
H  -3.09200 33.88300 21.12800
H  -2.06700 36.63100 20.03200
H  -2.95100 37.08900 21.48600
H  -3.55300 35.69400 20.57500
H  -1.10100 32.69000 20.34900
H  -1.60200 31.89500 21.73800
H  0.53500 32.17200 22.82300
H  0.38600 33.89600 22.55200
H  0.97400 32.78100 21.33800
H  -4.66800 30.22700 24.28000
H  -6.09700 30.97600 24.99300
H  -5.32500 29.69900 25.83500
H  -3.39800 31.66600 30.22100
H  -7.23800 33.11000 31.93100
H  -6.04900 33.21500 33.32900
H  -6.83900 31.80300 32.86700

