158

Mg 5.83600 54.44700 39.88300
C  5.49300 50.96900 40.47700
C  8.90300 53.84900 38.54400
C  5.81600 57.66400 38.89700
C  2.53100 54.84400 41.20200
N  7.06600 52.54900 39.42500
C  6.66800 51.25700 39.72400
C  7.82900 50.32500 39.36300
C  9.03400 51.34100 39.29100
C  8.32400 52.66400 39.01600
C  9.94200 51.39400 40.54300
C  7.58200 49.54000 38.02100
C  6.47300 49.97000 37.08100
H  6.81200 50.47500 35.60900
N  7.14400 55.58800 38.87000
C  8.45900 55.16300 38.46500
C  9.20000 56.35700 38.04500
C  8.23300 57.44900 38.04000
C  6.98600 56.93300 38.61800
C  10.68300 56.29000 37.68000
C  8.52700 58.85800 37.69700
O  9.64100 59.14000 37.29100
C  7.49200 60.01300 37.82600
N  4.20400 55.99000 39.62200
C  4.56400 57.25000 39.45700
C  3.46400 58.20400 39.86000
C  2.62400 57.36800 40.85000
C  3.10800 55.95900 40.48300
C  3.89500 59.50700 40.52700
C  1.10100 57.40000 40.54500
C  0.13900 57.28000 41.79400
N  4.31800 53.19800 40.66800
C  3.04000 53.51500 41.21700
C  2.46200 52.28200 41.78900
C  3.40800 51.29100 41.53100
C  4.46100 51.83000 40.73500
C  1.23000 52.24500 42.59300
C  3.65800 49.88100 41.75300
O  2.99400 49.11300 42.39600
C  4.98500 49.54600 40.94700
C  4.60600 48.66100 39.78400
O  4.11600 49.03500 38.76900
O  4.93000 47.34100 40.06200
C  4.78400 46.37200 38.96500
H  9.90300 53.73700 38.12100
H  5.75100 58.70500 38.57500
H  1.72300 55.14900 41.87000
H  7.91300 49.57500 40.15000
H  9.72500 51.15600 38.46900
H  9.66800 50.74800 41.37600
H  10.09400 52.39100 40.95700
H  10.95300 51.09400 40.26800
H  7.52800 48.47900 38.26600
H  8.48500 49.55500 37.41000
H  5.93500 50.84500 37.44500
H  5.83400 49.09000 37.01700
H  11.31700 55.65300 38.29700
H  11.28600 57.18000 37.85700
H  10.65200 55.94300 36.64800
H  6.58200 59.93100 37.23200
H  7.89200 61.00200 37.59900
H  7.35000 60.12600 38.90100
H  2.82400 58.36000 38.99200
H  2.79600 57.58200 41.90500
H  4.84000 59.32100 41.03900
H  3.17800 59.92800 41.23200
H  4.16300 60.21100 39.73900
H  0.90300 56.51100 39.94700
H  0.82100 58.20600 39.86500
H  -0.44100 58.20200 41.84700
H  0.61000 57.20700 42.77400
H  -0.51400 56.45500 41.51000
H  0.51800 51.66200 42.00900
H  0.84600 53.16600 43.03200
H  1.52300 51.47800 43.30900
H  5.64700 48.91200 41.53600
H  5.09100 46.63300 37.95200
H  3.74000 46.06400 38.89600
H  5.40500 45.53700 39.28900
Mg 16.64500 52.14000 25.82100
C  18.28700 50.98800 28.69600
C  14.06200 53.24100 27.75300
C  15.26800 53.46100 23.09300
C  19.18200 50.76000 23.87800
N  16.30100 52.18400 27.98300
C  17.16000 51.71000 29.01100
C  16.63000 52.17000 30.36100
C  15.21200 52.69400 30.04600
C  15.15300 52.69500 28.48400
C  14.08000 51.97600 30.92300
C  17.57500 53.26600 30.93300
C  18.09700 52.89100 32.29100
H  17.32700 53.41000 33.46200
N  14.86700 53.12300 25.44700
C  13.94900 53.51100 26.37600
C  12.83300 54.16600 25.71700
C  13.14400 54.18900 24.30100
C  14.48300 53.51600 24.20500
C  11.73800 54.85900 26.50600
C  12.32500 54.59800 23.12600
O  12.63600 54.44100 21.95100
C  11.04800 55.33500 23.26300
N  17.04100 51.99600 23.78800
C  16.46200 52.77500 22.88400
C  17.16300 52.81200 21.50500
C  18.55600 52.07300 21.76100
C  18.21900 51.54000 23.26100
C  16.34800 52.21100 20.31600
C  19.77800 53.00000 21.66000
C  21.13300 52.29600 21.53300
N  18.27800 51.00200 26.12500
C  19.20400 50.46400 25.27200
C  20.23600 49.66700 25.99700
C  19.88800 49.90500 27.32700
C  18.66200 50.60000 27.38700
C  21.53500 49.11200 25.51000
C  20.35500 49.68300 28.66400
O  21.29600 49.01600 29.10300
C  19.40400 50.45100 29.62600
C  18.90900 49.68800 30.78200
O  17.98200 48.90200 30.67800
O  19.76400 49.73500 31.79300
C  19.89700 48.71200 32.77300
H  13.20900 53.61700 28.32100
H  14.83400 53.93900 22.21200
H  19.99700 50.24900 23.36200
H  16.51300 51.31800 31.03100
H  15.12100 53.72900 30.37500
H  14.52700 51.69700 31.87700
H  13.77900 51.15500 30.27100
H  13.23100 52.64800 31.04700
H  17.07000 54.21700 31.10500
H  18.45400 53.41800 30.30700
H  19.12900 53.22000 32.40900
H  18.26300 51.81400 32.30700
H  12.03200 55.31300 27.45200
H  10.91500 54.14400 26.52100
H  11.33700 55.66900 25.89700
H  11.21300 56.23200 23.86100
H  10.50700 54.61100 23.87200
H  10.49800 55.46100 22.33100
H  17.33800 53.86500 21.28400
H  18.70500 51.17300 21.16500
H  15.45500 51.72800 20.71200
H  16.95100 51.44600 19.82600
H  16.09400 53.03600 19.65000
H  19.84100 53.73600 22.46200
H  19.55900 53.55100 20.74500
H  21.77600 52.61700 22.35200
H  21.66300 52.69000 20.66500
H  21.05100 51.21200 21.45100
H  21.97000 48.42800 26.23800
H  22.25800 49.91300 25.34800
H  21.35700 48.60900 24.56000
H  19.91600 51.28000 30.11500
H  20.72500 48.98500 33.42800
H  19.89300 47.73900 32.28300
H  19.03600 48.73000 33.44200

