158

Mg 3.01000 -0.18400 44.49500
C  6.39700 0.54500 43.99600
C  2.16000 2.80700 42.55500
C  -0.25500 -1.07300 44.35900
C  3.84100 -3.13500 45.94300
N  4.08100 1.36000 43.38600
C  5.51400 1.46000 43.28600
C  5.95100 2.47600 42.18500
C  4.65000 3.46000 42.13800
C  3.52800 2.54000 42.72600
C  4.84200 4.86400 42.93000
C  6.42900 1.73800 40.81200
C  7.72200 2.40000 40.09900
H  7.39900 3.45600 39.03900
N  1.18400 0.76300 43.56400
C  1.06500 1.96300 42.84000
C  -0.28300 2.07800 42.46700
C  -1.01400 0.94100 42.88600
C  -0.01400 0.10500 43.54200
C  -0.75500 3.34100 41.66300
C  -2.45000 0.78700 42.61700
O  -3.19700 1.66100 42.19900
C  -3.04600 -0.61400 42.81700
N  1.99800 -1.85400 45.04700
C  0.59500 -1.97500 44.96700
C  0.20800 -3.41000 45.41700
C  1.50000 -3.78600 46.29200
C  2.49300 -2.93600 45.63700
C  -1.17300 -3.49600 46.15600
C  1.88600 -5.33600 46.19700
C  2.02100 -6.06000 47.52600
N  4.75500 -1.19400 44.87100
C  4.92900 -2.40900 45.49000
C  6.35400 -2.66400 45.56500
C  6.92900 -1.54300 45.06700
C  5.94000 -0.62400 44.64400
C  7.05500 -3.92000 46.22600
C  8.19500 -0.93400 44.75100
O  9.37400 -1.39900 44.85400
C  7.90300 0.48400 44.04900
C  8.54000 1.62600 44.79300
O  8.08300 2.15300 45.80800
O  9.56700 2.17500 44.04200
C  9.91300 3.59900 44.38000
H  1.97600 3.77600 42.08500
H  -1.28100 -1.44800 44.35900
H  4.16000 -3.89600 46.65800
H  6.81200 3.03100 42.55700
H  4.56100 3.77000 41.09700
H  5.60400 4.66500 43.68400
H  3.98300 5.23200 43.49000
H  5.31600 5.61100 42.29300
H  5.52700 1.85000 40.21100
H  6.63900 0.67700 40.95100
H  8.38500 1.66000 39.65100
H  8.25200 3.01100 40.82900
H  0.07900 3.61100 41.01600
H  -1.13000 4.17400 42.25700
H  -1.43900 3.13000 40.84200
H  -3.95200 -0.72800 42.22200
H  -3.43000 -0.78600 43.82200
H  -2.35900 -1.38700 42.47200
H  0.19400 -3.95200 44.47100
H  1.44900 -3.56000 47.35700
H  -1.87200 -4.09600 45.57200
H  -1.55400 -2.50300 46.39200
H  -1.07100 -4.13400 47.03400
H  2.79900 -5.45900 45.61500
H  1.14500 -5.93300 45.66400
H  2.89400 -5.94500 48.16800
H  2.00500 -7.12900 47.31400
H  1.15700 -5.78800 48.13400
H  7.85000 -4.15400 45.51800
H  6.48200 -4.84700 46.24900
H  7.51800 -3.83400 47.21000
H  8.34500 0.39100 43.05700
H  10.26400 4.05600 43.45500
H  10.62300 3.67200 45.20400
H  8.99800 4.10600 44.68700
Mg 48.05600 44.60500 43.60800
C  44.61700 43.75000 43.37700
C  48.82200 41.28800 42.49900
C  51.07600 45.54200 42.76200
C  46.96900 48.02100 43.66700
N  46.88200 42.75500 42.99300
C  45.45800 42.70600 42.96600
C  45.02600 41.30300 42.72500
C  46.33800 40.41700 42.60400
C  47.38300 41.54300 42.71200
C  46.46200 39.28200 43.68900
C  43.94100 41.00300 41.64100
C  44.04500 41.86200 40.44300
H  43.70500 41.29000 39.04800
N  49.78900 43.54000 42.98800
C  49.90600 42.25200 42.61000
C  51.26200 41.96600 42.35500
C  52.01500 43.12600 42.35200
C  51.01200 44.14800 42.77200
C  51.74700 40.59400 42.08400
C  53.47500 43.39100 41.93700
O  54.10600 42.38600 41.63800
C  54.17500 44.70200 41.84200
N  48.89300 46.53800 43.39200
C  50.20500 46.61300 42.91200
C  50.65600 48.06700 42.71100
C  49.29800 48.86000 43.00100
C  48.29800 47.74100 43.32200
C  51.90400 48.60400 43.47700
C  48.92700 49.78000 41.77400
C  48.43700 51.11600 42.13800
N  46.22100 45.70000 43.67200
C  45.96000 47.01000 43.85900
C  44.51000 47.21500 44.01800
C  44.00600 45.91700 43.96600
C  45.04700 45.06500 43.67200
C  43.77800 48.53900 44.22600
C  42.73500 45.10200 44.02600
O  41.58300 45.43200 44.32400
C  43.11800 43.68400 43.58500
C  42.64600 42.83300 44.65000
O  41.81700 41.90200 44.49600
O  43.27900 43.12900 45.78500
C  43.03900 42.29400 46.95300
H  49.03200 40.27000 42.16400
H  52.05700 45.92400 42.47000
H  46.67100 49.07100 43.69400
H  44.46800 40.97700 43.60200
H  46.46100 39.95000 41.62700
H  47.10300 39.57000 44.52200
H  46.94500 38.40000 43.26600
H  45.55200 38.93400 44.17600
H  42.90900 41.03600 41.99200
H  44.17900 39.98800 41.32400
H  45.00700 42.37100 40.39500
H  43.35000 42.69500 40.54800
H  52.38600 40.47000 41.20900
H  50.96000 39.84000 42.09800
H  52.41000 40.30900 42.90100
H  53.50700 45.29800 41.21900
H  55.06300 44.46300 41.25800
H  54.35200 45.19900 42.79600
H  50.83500 48.32400 41.66700
H  49.45700 49.52100 43.85300
H  52.32900 47.75800 44.01700
H  51.66300 49.35100 44.23300
H  52.64100 48.98900 42.77300
H  48.04800 49.29700 41.34900
H  49.66700 49.91000 40.98400
H  49.05800 51.88700 41.68200
H  48.60000 51.44900 43.16300
H  47.39900 51.24700 41.83100
H  43.78300 48.89400 45.25700
H  42.75600 48.40200 43.87500
H  44.31800 49.31000 43.67600
H  42.51300 43.56200 42.68600
H  44.02000 42.07400 47.37500
H  42.62200 41.32700 46.67300
H  42.38400 42.80900 47.65500

