158

Mg 2.20000 -1.01500 43.79900
C  5.41200 -0.38300 42.88500
C  0.99400 1.68700 42.01800
C  -1.09300 -2.06800 44.37900
C  3.17400 -4.20100 45.13700
N  3.08600 0.25500 42.27700
C  4.48200 0.45100 42.19100
C  4.77100 1.74200 41.35700
C  3.35000 2.31800 41.05900
C  2.40000 1.44200 41.95900
C  3.18400 3.74900 41.40900
C  5.74500 1.55000 40.17400
C  6.91800 2.59600 39.98400
H  6.92700 3.37100 38.62600
N  0.27900 -0.16000 43.38900
C  0.02200 0.99100 42.68100
C  -1.42700 1.21000 42.62500
C  -2.04900 0.17100 43.37200
C  -0.97700 -0.73000 43.77200
C  -2.07300 2.27200 41.83000
C  -3.55900 0.11000 43.61600
O  -4.25500 0.97800 43.06100
C  -4.19900 -0.89600 44.55700
N  1.27200 -2.86000 44.73300
C  -0.10100 -2.97400 44.81000
C  -0.45900 -4.27600 45.63700
C  0.84500 -5.12300 45.60100
C  1.84000 -4.03100 45.10200
C  -1.06100 -3.98000 46.99200
C  0.94000 -6.49900 44.86800
C  -0.05300 -7.61600 45.24400
N  3.94300 -2.10100 44.12800
C  4.16100 -3.33500 44.61600
C  5.56900 -3.59500 44.62100
C  6.16500 -2.40400 44.07400
C  5.06500 -1.56100 43.69300
C  6.29100 -4.94000 45.06000
C  7.42200 -1.68000 43.74000
O  8.64100 -2.02800 43.79500
C  6.90000 -0.25200 43.04600
C  7.27300 1.00300 43.77600
O  6.59800 1.49500 44.69900
O  8.49800 1.53400 43.33100
C  8.85000 2.74800 44.06400
H  0.56400 2.59000 41.58100
H  -2.09500 -2.45800 44.57000
H  3.52900 -5.16900 45.49700
H  5.29000 2.40700 42.04800
H  3.10300 2.14500 40.01100
H  4.10200 4.33400 41.35300
H  3.02100 3.91500 42.47400
H  2.44600 4.14900 40.71400
H  5.01400 1.63800 39.37000
H  6.12900 0.54200 40.32300
H  7.90600 2.14400 40.07900
H  6.84400 3.33900 40.77900
H  -2.98000 1.94300 41.32400
H  -1.48000 2.68800 41.01500
H  -2.41600 3.07500 42.48300
H  -5.16400 -0.56200 44.93500
H  -3.58300 -0.94100 45.45600
H  -4.33200 -1.83400 44.01800
H  -1.27100 -4.78900 45.12000
H  0.96600 -5.30400 46.66900
H  -1.39200 -2.94200 46.96100
H  -0.32800 -4.18100 47.77300
H  -1.90100 -4.62900 47.23800
H  1.97100 -6.83100 44.99400
H  0.79600 -6.39900 43.79200
H  -0.45000 -7.98900 44.29900
H  -0.69900 -7.43900 46.10400
H  0.56600 -8.40900 45.66200
H  5.94800 -5.23800 46.05100
H  7.34700 -4.72300 45.21900
H  6.16600 -5.58200 44.18800
H  7.26700 -0.13600 42.02600
H  9.69100 3.26400 43.60100
H  9.04100 2.48900 45.10600
H  8.07700 3.51300 44.13800
Mg 41.58100 41.02600 26.58800
C  41.21700 43.40100 29.06300
C  42.57000 38.74300 29.04700
C  42.79600 39.01300 24.17000
C  40.97200 43.43700 24.15900
N  41.87500 41.10300 28.82800
C  41.49400 42.15900 29.58500
C  41.50500 41.82700 31.03600
C  42.11200 40.39200 31.05000
C  42.18700 40.00500 29.53900
C  43.40600 40.27000 31.90500
C  40.23200 42.04000 31.83400
C  40.10800 41.28700 33.25200
H  39.25100 42.00500 34.36100
N  42.36300 39.13800 26.55300
C  42.62800 38.39300 27.67700
C  43.04700 37.02600 27.26800
C  43.27700 37.09900 25.79500
C  42.83700 38.46500 25.45800
C  43.38900 35.95200 28.21700
C  43.80000 36.09000 24.79100
O  43.88900 36.34600 23.55100
C  44.41000 34.72500 25.28400
N  41.76300 41.17300 24.49400
C  42.26600 40.20600 23.72700
C  42.23000 40.68600 22.20900
C  41.38900 41.92600 22.26100
C  41.41700 42.26100 23.70200
C  43.67400 40.83400 21.63200
C  39.91400 41.79000 21.81200
C  38.87700 41.34600 22.86300
N  41.21100 43.09500 26.56600
C  41.00200 43.91400 25.47800
C  40.81600 45.25300 25.99800
C  40.81500 45.13200 27.35100
C  41.06500 43.77300 27.66800
C  40.54200 46.45800 25.26400
C  40.63700 45.82900 28.68200
O  40.48900 47.04100 28.92400
C  40.89000 44.73900 29.77900
C  42.04400 45.19000 30.68200
O  43.14000 45.50000 30.38900
O  41.52200 45.32200 31.89900
C  42.50100 45.72700 32.94000
H  42.85100 38.09600 29.88100
H  43.42900 38.56500 23.40100
H  40.76900 44.19200 23.39700
H  42.22900 42.53400 31.44000
H  41.45100 39.68900 31.55800
H  44.21200 39.66500 31.48900
H  43.20800 39.85400 32.89200
H  43.83600 41.25700 32.07500
H  39.43800 41.72100 31.15700
H  40.20000 43.12900 31.86200
H  41.10700 41.09200 33.64200
H  39.51700 40.37500 33.16800
H  42.75500 35.15900 27.81900
H  43.02400 36.09500 29.23400
H  44.45600 35.73900 28.15000
H  44.90300 34.21800 24.45400
H  43.73900 34.04400 25.80700
H  45.25600 34.91900 25.94300
H  41.77700 39.83700 21.69700
H  41.81300 42.78400 21.74000
H  44.32400 40.06600 22.05100
H  44.05300 41.83300 21.84700
H  43.65600 40.75300 20.54500
H  39.93400 41.13700 20.94000
H  39.64200 42.79000 21.47200
H  39.28400 41.29300 23.87300
H  38.43300 40.39900 22.55500
H  38.06300 42.07000 22.83300
H  40.73400 46.33900 24.19700
H  41.19700 47.26600 25.59100
H  39.59900 46.95400 25.49300
H  39.98700 44.70400 30.38900
H  43.40000 45.12100 33.06000
H  42.12600 45.43300 33.92100
H  42.82100 46.76700 32.88000

