158

Mg -1.22900 6.25500 26.10900
C  -0.49900 8.64200 28.72200
C  -0.73500 3.74800 28.38800
C  -1.71900 4.30600 23.58300
C  -1.29500 9.13800 23.90700
N  -0.79500 6.24600 28.37800
C  -0.62700 7.30300 29.21000
C  -0.40200 6.88200 30.66200
C  -0.38200 5.33400 30.58500
C  -0.66800 5.05000 29.00100
C  0.89300 4.56600 31.03900
C  -1.41700 7.38300 31.66000
C  -1.10400 7.32700 33.17300
H  0.11000 6.46100 33.78600
N  -1.24000 4.31600 25.96200
C  -1.07100 3.42100 27.02900
C  -1.38800 2.08800 26.48300
C  -1.60200 2.18900 25.08000
C  -1.50100 3.65600 24.78200
C  -1.43600 0.85100 27.37200
C  -2.01000 1.07400 24.02400
O  -2.17600 1.23700 22.79200
C  -2.38000 -0.42000 24.58000
N  -1.42000 6.67600 23.98900
C  -1.79400 5.63300 23.17600
C  -2.18700 6.13100 21.76500
C  -2.10800 7.67600 22.02500
C  -1.55800 7.87500 23.37000
C  -1.30100 5.48000 20.66000
C  -3.47700 8.43100 21.97500
C  -3.48200 9.78800 21.13800
N  -0.91800 8.45500 26.24900
C  -0.91900 9.42200 25.25000
C  -0.46400 10.63400 25.80600
C  -0.30200 10.35200 27.17800
C  -0.58900 9.02900 27.38700
C  -0.29700 11.97700 25.11900
C  -0.01300 10.97100 28.38600
O  0.37100 12.17700 28.51100
C  -0.18500 9.87800 29.49300
C  1.05700 9.80400 30.34400
O  2.13200 9.21600 30.12200
O  0.72100 10.48100 31.57700
C  1.76800 10.50500 32.59300
H  -0.51900 2.89800 29.03800
H  -1.87800 3.52800 22.83300
H  -1.35700 9.97400 23.20800
H  0.56500 7.30300 30.93700
H  -1.23900 4.92800 31.12300
H  1.25600 3.89500 30.25900
H  0.53000 4.00500 31.90000
H  1.71200 5.24500 31.27800
H  -2.41800 7.00300 31.45300
H  -1.55000 8.42300 31.36200
H  -2.00900 6.97800 33.67000
H  -0.91400 8.35000 33.49600
H  -1.40500 1.11500 28.43000
H  -0.51000 0.30500 27.19100
H  -2.29000 0.24400 27.07100
H  -1.65000 -0.69900 25.33900
H  -2.34700 -1.11100 23.73800
H  -3.39100 -0.28300 24.96400
H  -3.21600 5.79500 21.63400
H  -1.46700 8.11500 21.26000
H  -0.60100 4.77800 21.11300
H  -0.69100 6.21700 20.13700
H  -2.02700 4.98000 20.01900
H  -3.84600 8.57100 22.99100
H  -4.34700 7.91200 21.57200
H  -2.46800 9.87400 20.74700
H  -3.75100 10.65800 21.73800
H  -4.11400 9.77800 20.25000
H  -1.23500 12.21200 24.61500
H  0.56200 11.87200 24.45600
H  -0.11500 12.77800 25.83500
H  -1.08100 10.12700 30.06100
H  2.79300 10.36900 32.24800
H  1.43900 9.66700 33.20800
H  1.75000 11.43200 33.16700
Mg 5.76800 53.07300 41.35200
C  4.67200 49.82400 41.01900
C  8.65500 52.17700 39.45500
C  6.65200 56.30700 41.36200
C  2.70500 53.92400 42.76900
N  6.42100 51.25000 40.19400
C  5.83200 50.01600 40.30800
C  6.62200 48.94300 39.52100
C  8.05100 49.65600 39.42600
C  7.70800 51.14100 39.68600
C  9.14700 49.18700 40.47700
C  5.94300 48.55300 38.09700
C  5.54600 49.70000 37.17400
H  5.62300 49.44700 35.66300
N  7.50300 54.09000 40.66300
C  8.58800 53.54600 39.88100
C  9.46600 54.63500 39.65800
C  8.94100 55.78700 40.21500
C  7.66200 55.44200 40.81600
C  10.80300 54.41500 38.82100
C  9.64700 57.04600 40.13700
O  10.84800 57.14100 39.71200
C  9.10300 58.34100 40.69600
N  4.82300 54.91100 41.80800
C  5.40600 56.14100 41.89200
C  4.55500 57.25500 42.54800
C  3.23600 56.37500 42.81700
C  3.59500 54.97900 42.40000
C  5.18900 57.78900 43.81900
C  1.97500 56.91100 42.11200
C  1.24300 58.01900 42.80000
N  4.01600 52.12000 41.85700
C  2.92000 52.49600 42.58500
C  2.16300 51.32500 42.95200
C  2.86600 50.29500 42.45500
C  3.88000 50.82500 41.67300
C  0.87600 51.31600 43.73300
C  2.88900 48.88000 42.28300
O  2.04000 48.07100 42.63000
C  4.02600 48.52300 41.34600
C  3.47400 47.73600 40.26100
O  2.48900 48.07200 39.63000
O  4.09100 46.55100 40.14000
C  3.75600 45.63900 39.07100
H  9.61000 51.82300 39.06100
H  6.96400 57.34900 41.45300
H  1.82700 54.16700 43.37200
H  6.61200 48.06400 40.16600
H  8.53800 49.55200 38.45600
H  8.81500 48.55100 41.29700
H  9.46000 50.05900 41.05000
H  9.96900 48.77400 39.89200
H  5.07400 47.93000 38.30800
H  6.60700 47.81900 37.64000
H  5.98100 50.63800 37.52000
H  4.48400 49.89700 37.31500
H  10.61700 54.66600 37.77700
H  11.07400 53.37400 38.99700
H  11.61400 55.01700 39.23000
H  9.90800 59.07100 40.62000
H  8.86400 58.27300 41.75700
H  8.24100 58.61800 40.08900
H  4.26300 57.98600 41.79400
H  2.97400 56.44000 43.87300
H  4.54100 57.47200 44.63600
H  5.30100 58.87100 43.89500
H  6.19300 57.39400 43.97500
H  1.19100 56.18000 41.91400
H  2.36200 57.20700 41.13700
H  1.78800 58.39600 43.66500
H  0.25700 57.64300 43.07400
H  1.17600 58.82600 42.07100
H  0.17500 51.90400 43.14000
H  1.02300 51.78200 44.70700
H  0.52800 50.28600 43.80900
H  4.52500 47.85100 42.04400
H  4.54100 44.88400 39.03600
H  3.71000 46.08400 38.07700
H  2.91300 45.01600 39.37000

