158

Mg 47.33400 16.92400 28.81800
C  45.71900 16.50500 31.89100
C  49.85600 18.59100 30.47400
C  48.72400 17.42600 25.91300
C  44.51400 15.59200 27.19200
N  47.73400 17.42600 30.99600
C  47.01300 17.04900 32.07700
C  47.62500 17.48000 33.32600
C  48.87600 18.36900 32.93900
C  48.84200 18.13500 31.40700
C  48.81700 19.84900 33.35800
C  47.99200 16.31000 34.16500
C  48.36000 16.67500 35.63800
H  48.43300 18.10700 36.21500
N  49.05400 17.85000 28.26900
C  50.02700 18.42400 29.06100
C  51.06200 18.89700 28.25600
C  50.77500 18.48700 26.88200
C  49.43300 17.89600 26.99500
C  52.24900 19.66000 28.77400
C  51.64300 18.70500 25.63700
O  51.24200 18.36600 24.53500
C  52.91900 19.37600 25.65400
N  46.57400 16.70800 26.74700
C  47.43700 16.93700 25.76100
C  46.74500 16.57400 24.40000
C  45.45100 15.89900 24.85300
C  45.53400 15.95300 26.33500
C  46.47500 17.78800 23.44600
C  45.33000 14.37700 24.43500
C  44.37300 14.13800 23.15100
N  45.47800 16.10600 29.43000
C  44.48200 15.54300 28.61700
C  43.38600 15.10300 29.48000
C  43.82700 15.43100 30.81700
C  45.10100 16.03100 30.70100
C  42.07800 14.47900 29.01300
C  43.47100 15.34400 32.17300
O  42.41700 14.96200 32.69200
C  44.66900 16.01600 32.99500
C  44.01700 17.08800 33.72400
O  43.81100 18.23500 33.22400
O  43.92400 16.77200 35.11000
C  43.77400 17.85900 36.08300
H  50.71600 18.99900 31.00900
H  49.23600 17.68800 24.98400
H  43.68400 15.12100 26.66200
H  46.80200 18.05000 33.75800
H  49.74700 17.93200 33.42800
H  48.68300 20.47000 32.47300
H  49.71800 20.16700 33.88400
H  48.00600 20.15900 34.01700
H  48.76500 15.68900 33.71200
H  47.26000 15.50500 34.22400
H  49.30600 16.14200 35.72300
H  47.62200 16.18500 36.27200
H  53.15300 19.40700 28.21900
H  52.45100 19.38700 29.81000
H  52.08200 20.73300 28.68300
H  53.64000 18.72300 26.14600
H  52.86900 20.34900 26.14200
H  53.22700 19.52100 24.61900
H  47.42400 15.89600 23.88200
H  44.64500 16.60300 24.64400
H  46.80300 18.76200 23.81000
H  45.43700 17.86100 23.12200
H  47.11600 17.58600 22.58800
H  45.11300 13.66300 25.22900
H  46.26200 13.93300 24.08600
H  43.84500 15.02000 22.78800
H  43.62600 13.39300 23.42500
H  44.87900 13.65800 22.31300
H  41.27700 14.70500 29.71600
H  42.42400 13.44600 29.01900
H  41.86700 14.86200 28.01500
H  45.21200 15.32600 33.64200
H  43.76500 17.41700 37.07900
H  42.90200 18.51200 36.06800
H  44.68400 18.43600 35.92000
Mg 43.09300 41.90200 26.68400
C  42.19900 44.00300 29.26800
C  44.72700 39.87500 29.12500
C  44.00400 39.77800 24.37000
C  42.07200 44.20900 24.35900
N  43.41100 41.89500 28.88300
C  42.91600 42.88900 29.75400
C  43.02200 42.47500 31.20400
C  44.14500 41.36400 31.17500
C  44.22200 41.08300 29.61500
C  45.60200 41.69700 31.76600
C  41.66600 42.01800 31.83600
C  41.21300 42.80700 33.06500
H  40.73800 42.06700 34.34900
N  44.16100 40.01100 26.76500
C  44.69700 39.37100 27.82600
C  45.16200 37.97400 27.33000
C  44.84200 37.92000 25.94800
C  44.26500 39.28400 25.65800
C  45.68800 36.97300 28.36900
C  45.20500 36.81400 24.95000
O  45.01000 36.79800 23.78800
C  45.88000 35.66200 25.56300
N  43.10900 42.05400 24.66900
C  43.58800 41.02900 23.88300
C  43.52800 41.44300 22.39500
C  42.64300 42.67400 22.44800
C  42.61400 43.04500 23.90500
C  44.95700 41.65200 21.73600
C  41.29600 42.53700 21.73700
C  40.32900 41.56200 22.38400
N  42.18600 43.62700 26.75400
C  41.79900 44.51300 25.70900
C  41.23900 45.73200 26.25300
C  41.29400 45.50300 27.66500
C  41.92500 44.31200 27.91100
C  40.83100 46.95900 25.59900
C  41.02400 46.19100 28.95600
O  40.44500 47.28100 29.21700
C  41.52600 45.19700 30.08300
C  42.41700 45.97600 30.93800
O  43.56100 46.27300 30.62600
O  41.84500 46.25500 32.15200
C  42.59300 46.91500 33.24200
H  45.34300 39.32700 29.84100
H  44.41000 39.14200 23.58200
H  41.70600 44.95800 23.65400
H  43.37600 43.35800 31.73600
H  43.81700 40.45000 31.66900
H  45.84300 41.08200 32.63400
H  45.82000 42.72800 32.04500
H  46.25200 41.34100 30.96700
H  41.78100 41.00200 32.21300
H  40.91400 41.88400 31.05800
H  40.35000 43.33700 32.66200
H  41.98200 43.49400 33.41600
H  45.89000 37.28400 29.39400
H  46.56800 36.51800 27.91500
H  45.00300 36.12600 28.36700
H  46.81900 35.91500 26.05600
H  46.10700 35.13600 24.63500
H  45.20700 35.00300 26.11000
H  43.09000 40.60000 21.86000
H  43.11100 43.53000 21.96000
H  45.75000 41.26700 22.37600
H  45.13800 42.72500 21.67700
H  45.05800 41.14200 20.77800
H  41.27600 42.27300 20.68000
H  40.87500 43.53800 21.83200
H  39.48700 42.14300 22.76100
H  40.63400 41.00000 23.26700
H  39.96300 40.90200 21.59800
H  39.75500 47.12700 25.64800
H  41.11500 47.10700 24.55700
H  41.28800 47.74200 26.20400
H  40.61100 44.92000 30.60700
H  42.25500 47.95000 33.27400
H  43.64800 46.82900 32.98100
H  42.29000 46.43500 34.17200

