158

Mg -0.57400 7.39500 26.05700
C  -0.07500 9.55300 28.95000
C  -0.63400 4.82900 28.25300
C  -0.64300 5.49000 23.43300
C  -0.18500 10.21200 24.15400
N  -0.50200 7.23300 28.37200
C  -0.34000 8.24800 29.32600
C  -0.44100 7.62500 30.77100
C  -0.35600 6.09400 30.46100
C  -0.52200 6.03100 28.90100
C  0.97900 5.32700 30.90100
C  -1.66300 8.19500 31.43700
C  -1.29900 8.76900 32.78600
H  -1.82300 8.04900 34.04900
N  -0.69400 5.45300 25.89300
C  -0.79800 4.50700 26.90500
C  -0.87000 3.12300 26.32900
C  -0.89100 3.30500 24.92900
C  -0.79200 4.81100 24.71200
C  -0.93100 1.95000 27.27300
C  -0.75500 2.28200 23.85400
O  -0.68200 2.56200 22.66900
C  -0.75200 0.91400 24.22600
N  -0.23300 7.83500 24.05300
C  -0.42700 6.83200 23.11200
C  -0.63900 7.37200 21.69500
C  -0.61100 8.93100 21.92000
C  -0.32800 9.04600 23.41700
C  0.42900 6.86300 20.63000
C  -1.82500 9.76800 21.30400
C  -2.73100 10.48000 22.37200
N  -0.26900 9.43100 26.40500
C  -0.09600 10.47600 25.51800
C  0.14700 11.73400 26.20000
C  0.20100 11.36900 27.49500
C  -0.06400 9.99100 27.61600
C  0.44700 13.06500 25.53300
C  0.58700 11.88900 28.74600
O  1.09200 12.94600 29.08700
C  0.32400 10.73700 29.75900
C  1.55900 10.39100 30.51000
O  2.52800 9.70800 30.15300
O  1.42600 11.03100 31.68500
C  2.51300 11.07400 32.57600
H  -0.64700 4.02800 28.99500
H  -0.92800 4.85200 22.59400
H  -0.02300 11.04700 23.46900
H  0.52700 7.81900 31.23400
H  -1.25100 5.58000 30.81000
H  0.85600 4.46600 31.55800
H  1.59200 6.13000 31.30900
H  1.44600 4.77100 30.08700
H  -2.32600 7.35900 31.66100
H  -2.09100 9.04000 30.89700
H  -1.56800 9.82400 32.84600
H  -0.21800 8.74200 32.92200
H  0.06600 1.58400 27.52000
H  -1.50400 1.16100 26.78600
H  -1.44000 2.25500 28.18700
H  -0.15500 0.76800 25.12600
H  -0.31300 0.31300 23.43000
H  -1.77300 0.64900 24.50000
H  -1.65700 7.14600 21.37600
H  0.33700 9.32700 21.55500
H  -0.03400 6.43300 19.74200
H  1.12500 6.13300 21.04300
H  1.04200 7.65500 20.20100
H  -2.47000 9.17100 20.65800
H  -1.37600 10.56200 20.70700
H  -2.96600 9.73600 23.13300
H  -3.63600 10.84300 21.88400
H  -2.25300 11.28800 22.92600
H  1.02700 13.02200 24.61000
H  1.10400 13.53600 26.26500
H  -0.38900 13.73100 25.32200
H  -0.37600 11.13300 30.49500
H  2.56500 12.10800 32.91800
H  3.51500 10.71700 32.33800
H  2.26300 10.50800 33.47300
Mg 54.21400 24.79600 45.46000
C  51.52700 26.96900 44.66700
C  52.03900 22.10800 44.63400
C  56.76100 22.83000 45.54900
C  56.07300 27.49300 46.18100
N  52.08300 24.70600 44.61800
C  51.17700 25.64300 44.45000
C  49.86200 25.10200 43.84600
C  49.94300 23.60100 44.37100
C  51.43800 23.46500 44.56100
C  49.05800 23.36400 45.68400
C  49.72200 25.11800 42.33600
C  48.33700 25.03300 41.73400
H  48.13900 24.31500 40.38700
N  54.40800 22.73500 45.08200
C  53.41300 21.83300 44.85000
C  53.95100 20.53700 44.89500
C  55.36500 20.62600 45.12000
C  55.63600 22.08700 45.30800
C  53.09600 19.27400 44.75900
C  56.27400 19.46700 45.08300
O  55.77800 18.32100 45.05600
C  57.70900 19.62600 45.12000
N  56.15200 25.13200 45.77400
C  57.04900 24.14700 45.75700
C  58.47900 24.65500 46.00300
C  58.28100 26.19600 46.31100
C  56.73500 26.32900 46.10900
C  59.26900 23.98300 47.09400
C  59.06400 27.17200 45.37800
C  59.66100 28.38600 46.15100
N  53.90000 26.81800 45.47000
C  54.77500 27.80800 45.83600
C  54.05200 29.11000 45.83000
C  52.81900 28.75400 45.34600
C  52.76800 27.39200 45.09000
C  54.47900 30.43200 46.39900
C  51.60500 29.43200 45.09900
O  51.32300 30.58900 45.11800
C  50.67800 28.23700 44.61000
C  50.16100 28.57000 43.26700
O  50.82000 28.77700 42.22900
O  48.78600 28.71000 43.26800
C  48.22800 28.93500 41.93100
H  51.23400 21.37100 44.62300
H  57.65000 22.20100 45.63400
H  56.65200 28.38400 46.43000
H  48.93500 25.56900 44.17800
H  49.50200 22.91500 43.64800
H  49.72100 23.16000 46.52400
H  48.32900 22.56000 45.58300
H  48.60000 24.29200 46.02800
H  50.30200 24.23500 42.06600
H  50.36000 25.88900 41.90500
H  48.18500 26.09000 41.51400
H  47.65500 24.64700 42.49200
H  53.27300 18.51500 45.52200
H  53.20200 18.90500 43.73900
H  52.11000 19.54000 45.13900
H  58.06300 18.65900 44.76200
H  58.04200 19.87200 46.12800
H  58.00700 20.34900 44.36100
H  59.12900 24.50500 45.14200
H  58.61400 26.34000 47.33900
H  59.52100 24.60600 47.95300
H  60.06600 23.35700 46.69200
H  58.65900 23.18800 47.52200
H  58.49800 27.50600 44.50900
H  59.91200 26.63700 44.95100
H  60.71900 28.29400 46.39600
H  59.09400 28.62800 47.04900
H  59.54800 29.29000 45.55200
H  54.25100 30.40000 47.46400
H  54.01200 31.32100 45.97300
H  55.56000 30.47900 46.27200
H  49.86100 28.12600 45.32400
H  47.38800 28.24100 41.88600
H  48.81400 28.86900 41.01500
H  47.88400 29.97000 41.94100

