158

Mg -2.77500 17.25200 25.95300
C  -2.87500 15.10200 28.71700
C  -3.67600 19.86400 28.02400
C  -2.96700 19.26600 23.31300
C  -2.60800 14.51500 23.89500
N  -3.21600 17.46100 28.13600
C  -3.16400 16.45200 29.05500
C  -3.65400 16.94100 30.38600
C  -4.19200 18.38200 30.07100
C  -3.79700 18.60300 28.59000
C  -5.72200 18.52300 30.16500
C  -2.55500 16.93400 31.51400
C  -3.16900 16.78100 32.90400
H  -2.79000 15.64500 33.92200
N  -2.97600 19.34000 25.75600
C  -3.33700 20.24000 26.71400
C  -3.37800 21.54100 26.15900
C  -3.02100 21.40700 24.72700
C  -3.02000 19.95900 24.51100
C  -3.61800 22.83500 26.92400
C  -2.80100 22.52600 23.66300
O  -2.56800 22.40200 22.49900
C  -2.67300 23.89700 24.10600
N  -2.93100 16.95700 23.82900
C  -2.86800 17.94100 22.91000
C  -2.99600 17.37400 21.48900
C  -2.69200 15.83300 21.75300
C  -2.70600 15.77300 23.24800
C  -4.33000 17.77900 20.80400
C  -1.37500 15.36000 21.13900
C  -0.13100 15.48400 21.95500
N  -2.82500 15.20100 26.14000
C  -2.69800 14.18600 25.26800
C  -2.62000 12.87000 25.96000
C  -2.70800 13.19300 27.35800
C  -2.86400 14.62300 27.40700
C  -2.60400 11.55400 25.25300
C  -2.72800 12.61300 28.67200
O  -2.53600 11.53100 29.18300
C  -2.77400 13.84300 29.64900
C  -1.42700 13.70900 30.31600
O  -0.32900 13.92800 29.83600
O  -1.57300 13.29200 31.63500
C  -0.34900 13.09800 32.41400
H  -3.83800 20.63900 28.77600
H  -3.05600 19.82300 22.37800
H  -2.50700 13.71800 23.15500
H  -4.46700 16.23200 30.54400
H  -3.68200 19.22300 30.54100
H  -6.29800 18.49300 29.24000
H  -5.94500 19.51800 30.55000
H  -6.05400 17.78700 30.89700
H  -1.98700 17.86400 31.50200
H  -1.85700 16.14700 31.23000
H  -4.25600 16.81000 32.82400
H  -2.87400 17.69100 33.42700
H  -4.20800 22.59800 27.80900
H  -4.32000 23.46700 26.38000
H  -2.66800 23.36600 26.98400
H  -2.02600 24.00800 24.97600
H  -3.65300 24.08900 24.54100
H  -2.43000 24.57700 23.28900
H  -2.09400 17.86100 21.11800
H  -3.44600 15.09500 21.47800
H  -5.06500 18.05200 21.56100
H  -4.81000 16.97400 20.24600
H  -4.10000 18.69200 20.25500
H  -1.27800 15.98300 20.25000
H  -1.47300 14.38000 20.67200
H  -0.17800 15.35200 23.03600
H  0.44800 16.40000 21.83500
H  0.49000 14.63400 21.67300
H  -3.08700 11.75700 24.29600
H  -3.24400 10.80000 25.71000
H  -1.63900 11.04800 25.22200
H  -3.55600 13.85700 30.40800
H  -0.10500 12.03700 32.35100
H  -0.51900 13.51500 33.40600
H  0.57000 13.47600 31.96700
Mg 8.55900 3.28300 28.09800
C  9.83900 2.05300 30.92000
C  6.64400 5.50400 29.99000
C  6.87100 4.25900 25.33300
C  10.41100 1.02200 26.18400
N  8.20100 3.62900 30.19900
C  8.90300 3.01500 31.18500
C  8.51700 3.49700 32.54300
C  7.25600 4.37800 32.18300
C  7.31700 4.48800 30.69100
C  5.88300 3.79500 32.54000
C  9.68600 4.33800 33.17900
C  10.00100 3.95300 34.67000
H  9.01100 3.14700 35.56600
N  6.96000 4.68400 27.73500
C  6.40600 5.56200 28.54700
C  5.59500 6.53500 27.81500
C  5.60000 6.16400 26.52200
C  6.45700 4.93800 26.50900
C  4.85500 7.68300 28.56400
C  4.86800 6.69900 25.26900
O  4.97400 6.25400 24.14900
C  4.01400 7.90600 25.37700
N  8.53900 2.66700 26.03300
C  7.74500 3.23600 25.13700
C  7.91000 2.54600 23.77300
C  9.31600 1.73900 23.87300
C  9.47400 1.78500 25.38200
C  6.77100 1.63700 23.36700
C  10.39800 2.39500 23.12600
C  10.57400 2.01200 21.64600
N  9.85600 1.79700 28.39500
C  10.65300 1.00800 27.55600
C  11.49300 0.18300 28.32700
C  11.23500 0.58600 29.63500
C  10.24300 1.58600 29.62700
C  12.40800 -0.91100 27.83900
C  11.55400 0.32700 31.04400
O  12.33500 -0.44400 31.51100
C  10.65600 1.25200 31.88500
C  9.88500 0.42400 32.87300
O  8.81800 -0.08900 32.66700
O  10.56100 0.37500 34.03100
C  9.95300 -0.45700 35.08300
H  6.04000 6.16800 30.61300
H  6.38300 4.58700 24.41200
H  11.05900 0.34400 25.62500
H  8.36900 2.62300 33.17600
H  7.31800 5.38100 32.60600
H  5.48400 4.35900 33.38400
H  5.87100 2.81300 33.01300
H  5.03600 3.89700 31.86100
H  9.47500 5.40700 33.20800
H  10.67400 4.21900 32.73400
H  10.26700 4.87700 35.18500
H  10.92400 3.37900 34.74400
H  5.26800 8.66400 28.32800
H  4.91000 7.57600 29.64700
H  3.80100 7.69900 28.28600
H  3.32900 8.01300 24.53500
H  4.59400 8.82500 25.29900
H  3.40200 7.90800 26.27900
H  7.87800 3.34100 23.02800
H  9.23600 0.75700 23.40700
H  6.35800 1.09500 24.21800
H  7.11900 0.89300 22.64900
H  6.02300 2.24500 22.85800
H  11.35500 2.23800 23.62300
H  10.22500 3.47200 23.13100
H  10.36100 0.99000 21.33400
H  11.61500 2.13600 21.34600
H  9.88000 2.68500 21.14200
H  12.82200 -0.76200 26.84200
H  11.98500 -1.91400 27.89700
H  13.18500 -0.93800 28.60300
H  11.33700 1.98500 32.31700
H  10.51100 -1.39200 35.02500
H  8.90400 -0.75100 35.06400
H  10.14900 -0.11000 36.09800

