158

Mg 41.12800 7.91600 28.75700
C  42.93900 9.20300 31.44300
C  38.74500 6.75100 31.02200
C  39.52000 6.39800 26.19300
C  43.75900 8.84700 26.68000
N  40.94800 7.86300 31.02200
C  41.78500 8.57100 31.92200
C  41.26200 8.50600 33.32000
C  39.94500 7.67600 33.21000
C  39.90900 7.33600 31.68400
C  39.82800 6.43200 34.16500
C  41.24500 9.89900 34.03400
C  40.45400 10.04300 35.32800
H  41.36400 10.00000 36.63900
N  39.31400 6.84100 28.59100
C  38.46600 6.49700 29.66500
C  37.35400 5.77800 29.09000
C  37.47500 5.72700 27.64900
C  38.86200 6.25200 27.40800
C  36.24300 5.20900 29.85900
C  36.46200 5.42200 26.55700
O  36.64000 5.61600 25.40600
C  35.03800 5.03600 26.93800
N  41.58100 7.66400 26.74300
C  40.81600 6.93500 25.89800
C  41.37200 6.95200 24.43800
C  42.58600 7.96800 24.60400
C  42.61200 8.28600 26.08300
C  41.69700 5.55600 23.91200
C  42.38200 9.29700 23.80700
C  40.99900 10.00200 23.80200
N  43.01300 8.77800 28.94000
C  43.94200 9.12900 28.05100
C  45.02700 9.77600 28.64100
C  44.60300 9.88800 29.94900
C  43.42800 9.23700 30.10800
C  46.10700 10.47800 27.81000
C  44.91500 10.54300 31.18200
O  45.78700 11.43600 31.33400
C  43.83200 10.07000 32.22100
C  44.52700 9.24300 33.31800
O  44.73400 8.04500 33.44100
O  44.87900 10.14700 34.33800
C  45.72900 9.61000 35.38400
H  37.99200 6.52300 31.77900
H  38.98100 6.01300 25.32500
H  44.42500 9.35100 25.97600
H  42.04900 7.87200 33.72700
H  39.13000 8.38300 33.36400
H  39.61600 5.50800 33.62800
H  38.87300 6.61100 34.65900
H  40.57800 6.36900 34.95400
H  41.04200 10.71200 33.33700
H  42.29100 10.00600 34.32400
H  39.87000 9.13800 35.49400
H  39.83900 10.94300 35.32100
H  36.29600 5.29300 30.94500
H  36.07800 4.18700 29.51800
H  35.32600 5.67900 29.50600
H  34.98700 4.30400 27.74400
H  34.49500 4.74500 26.03800
H  34.46000 5.83300 27.40500
H  40.50000 7.32800 23.90300
H  43.54200 7.53600 24.31100
H  41.75900 4.94900 24.81500
H  42.70600 5.62600 23.50500
H  40.84700 5.28000 23.28900
H  42.59100 9.06700 22.76300
H  43.11900 9.97300 24.24200
H  41.25900 10.97800 24.21000
H  40.26600 9.57600 24.48700
H  40.55000 10.13300 22.81700
H  46.88600 10.90200 28.44500
H  45.49200 11.27500 27.39300
H  46.61900 10.02700 26.96000
H  43.40600 10.94300 32.71500
H  45.05200 9.52700 36.23400
H  46.56100 10.22900 35.72000
H  46.14400 8.60800 35.28200
Mg 53.35600 24.25700 43.94600
C  50.56400 26.45100 43.50700
C  51.23000 21.51000 43.06700
C  56.01000 22.34500 43.79600
C  55.24500 27.03400 44.82600
N  51.13500 24.06100 42.98500
C  50.24400 25.11600 43.09200
C  48.79600 24.51600 42.85800
C  49.01300 22.95100 43.05900
C  50.54600 22.82000 43.02100
C  48.26800 22.31900 44.30100
C  48.12200 24.81500 41.49400
C  49.01900 24.85000 40.16600
H  48.34300 24.16200 38.93800
N  53.60700 22.25400 43.51400
C  52.63600 21.26800 43.22400
C  53.21300 19.97200 43.24800
C  54.59800 20.14800 43.50400
C  54.80600 21.60400 43.56200
C  52.41800 18.68500 42.99900
C  55.70200 19.02700 43.61900
O  55.32400 17.80500 43.41900
C  57.12100 19.24700 43.90600
N  55.36400 24.60500 44.10400
C  56.32500 23.65500 43.95400
C  57.71200 24.30600 44.21400
C  57.45300 25.86900 44.31700
C  55.95200 25.89300 44.46800
C  58.41700 23.72900 45.47000
C  57.83200 26.80900 43.07100
C  58.59600 28.02300 43.44400
N  53.00800 26.28500 44.23100
C  53.88800 27.27100 44.61700
C  53.14500 28.48900 44.81200
C  51.84000 28.17500 44.49300
C  51.80900 26.84500 44.08200
C  53.84500 29.66600 45.16200
C  50.49200 28.74800 44.36500
O  50.17700 29.87000 44.62800
C  49.64200 27.61000 43.74500
C  49.07800 28.15300 42.45000
O  49.75700 28.49800 41.47900
O  47.72500 28.06500 42.56000
C  46.90200 28.45300 41.32300
H  50.57300 20.64200 43.15200
H  56.92100 21.74300 43.81500
H  55.88700 27.91300 44.91200
H  48.03300 24.88300 43.54400
H  48.64400 22.38800 42.20100
H  47.34700 21.86400 43.93500
H  48.06900 23.12300 45.01000
H  48.87500 21.52800 44.74300
H  47.55700 25.74700 41.49100
H  47.44400 23.99900 41.24100
H  49.98700 24.41400 40.41200
H  49.25100 25.88400 39.91400
H  52.86800 18.17200 42.14900
H  51.36900 18.82900 42.73900
H  52.40300 17.88300 43.73700
H  57.69600 19.72400 43.11300
H  57.52800 18.26100 44.12800
H  57.20700 19.78600 44.85000
H  58.39300 24.10300 43.38700
H  57.94800 26.19700 45.23200
H  59.43300 23.36400 45.32100
H  57.82700 22.88000 45.81700
H  58.30300 24.35000 46.35800
H  56.90300 27.07000 42.56300
H  58.37900 26.24200 42.31800
H  59.64500 27.95000 43.15500
H  58.59100 28.26000 44.50800
H  58.08200 28.85400 42.96200
H  54.39900 29.40400 46.06300
H  53.12200 30.42100 45.47300
H  54.65400 29.92200 44.47800
H  48.91300 27.27900 44.48500
H  46.89400 27.63700 40.60100
H  47.43400 29.29000 40.87300
H  45.85900 28.74900 41.43700

