158

Mg 26.54400 49.82100 26.85400
C  24.47300 51.04900 29.36100
C  28.84400 49.01600 29.20700
C  28.53100 48.86300 24.29800
C  24.04500 50.91600 24.57300
N  26.62500 50.08700 29.04400
C  25.68000 50.53500 29.94500
C  26.06700 50.17800 31.39100
C  27.59500 49.82200 31.27300
C  27.71700 49.66300 29.72700
C  28.57100 50.83900 31.93500
C  25.19800 49.09600 32.01200
C  24.56500 49.14600 33.46800
H  25.25600 49.95600 34.50900
N  28.42100 48.95500 26.78800
C  29.20900 48.71700 27.86500
C  30.47900 48.26600 27.41800
C  30.44300 48.21800 25.99600
C  29.10000 48.73500 25.60700
C  31.57800 47.98200 28.40500
C  31.48100 47.80000 24.97400
O  31.31100 47.85000 23.79500
C  32.80900 47.39000 25.48500
N  26.31200 49.92900 24.74900
C  27.23800 49.37700 23.94800
C  26.76700 49.43300 22.51600
C  25.32800 50.01000 22.53400
C  25.17300 50.26800 24.03200
C  27.75900 50.17000 21.65900
C  24.21600 49.12900 21.97400
C  24.17800 47.74000 22.62100
N  24.75300 50.94400 26.88000
C  23.79600 51.18600 25.88900
C  22.65900 51.94800 26.39700
C  22.83200 51.91400 27.77200
C  24.11800 51.24600 28.02100
C  21.53700 52.53100 25.56400
C  22.24400 52.12800 29.08300
O  21.13500 52.69600 29.38300
C  23.23600 51.53000 30.21700
C  23.40500 52.51600 31.30300
O  24.40800 53.07100 31.63600
O  22.23200 52.53200 32.04700
C  22.28800 53.41500 33.28800
H  29.57900 48.75500 29.97100
H  29.09400 48.43900 23.46400
H  23.29500 51.14900 23.81400
H  26.13000 51.07500 32.00800
H  27.69700 48.82900 31.71000
H  28.11100 51.80900 32.12000
H  29.54400 50.95600 31.45800
H  28.95500 50.34100 32.82500
H  25.73100 48.14600 32.05700
H  24.28900 49.13800 31.41100
H  24.49900 48.10700 33.79200
H  23.62900 49.68800 33.33400
H  31.67600 46.90500 28.53900
H  31.51900 48.54800 29.33400
H  32.42700 48.39600 27.86100
H  33.46800 46.93500 24.74500
H  32.59700 46.74500 26.33900
H  33.25300 48.32800 25.81600
H  26.87900 48.36600 22.32200
H  25.28800 50.89500 21.90000
H  28.36900 49.47900 21.07700
H  28.48800 50.70200 22.27000
H  27.26300 50.83600 20.95200
H  24.52300 49.20400 20.93100
H  23.28300 49.69200 21.95300
H  24.58600 47.77000 23.63100
H  24.81200 47.10400 22.00400
H  23.17700 47.31500 22.69500
H  20.64500 52.53600 26.18900
H  21.34100 51.75600 24.82200
H  21.70200 53.42300 24.95900
H  22.83700 50.61100 30.64600
H  21.35900 53.41800 33.85700
H  22.57200 54.45800 33.14400
H  22.89700 52.92900 34.05000
Mg 6.22500 54.00100 42.10000
C  5.29600 50.57100 41.68800
C  9.31200 53.27400 40.60600
C  6.78800 57.28500 41.75300
C  2.81800 54.63700 42.71200
N  7.08400 52.20800 41.22400
C  6.56500 50.92600 41.14600
C  7.58300 49.95900 40.45500
C  8.90800 50.73700 40.46100
C  8.42900 52.18600 40.78200
C  9.98400 50.17900 41.45200
C  7.21800 49.34300 39.04900
C  6.20800 50.21000 38.22200
H  6.48100 50.36400 36.70400
N  7.87400 55.15300 41.42100
C  9.09600 54.65000 40.92400
C  10.01900 55.73400 40.67900
C  9.32500 56.94100 41.13300
C  7.92900 56.54200 41.46800
C  11.36600 55.63500 40.06700
C  9.88700 58.34200 41.13300
O  11.11300 58.51600 40.95300
C  9.04100 59.52500 41.44900
N  4.96500 55.67700 41.94900
C  5.47900 56.93800 42.03500
C  4.39500 57.90700 42.52400
C  3.07300 57.08300 42.43800
C  3.65800 55.72600 42.40100
C  4.65500 58.43100 43.92900
C  2.21600 57.43200 41.19400
C  0.73100 57.81800 41.53200
N  4.39000 52.87100 42.34600
C  3.15100 53.28100 42.78000
C  2.30700 52.12000 42.99300
C  3.20300 51.04100 42.66600
C  4.35700 51.56800 42.17200
C  0.98700 52.06300 43.54600
C  3.33900 49.59900 42.66200
O  2.62700 48.73300 43.09500
C  4.71800 49.24900 42.00200
C  4.33600 48.42700 40.81200
O  3.67700 48.79800 39.85100
O  4.74900 47.16400 41.03200
C  4.30900 46.14200 40.06500
H  10.30000 53.04100 40.20300
H  6.95800 58.35400 41.89300
H  1.74900 54.77500 42.88700
H  7.69500 49.15700 41.18500
H  9.33000 50.84500 39.46200
H  9.57700 50.04300 42.45400
H  10.81100 50.88300 41.54600
H  10.30300 49.23100 41.01900
H  6.77300 48.35600 39.17700
H  8.11700 49.19600 38.45000
H  6.34100 51.25600 38.49800
H  5.22600 49.77900 38.41700
H  11.28500 55.28600 39.03700
H  11.91700 54.83500 40.56100
H  12.10300 56.43800 40.07800
H  8.26700 59.56600 40.68200
H  9.66400 60.40600 41.29700
H  8.61500 59.55700 42.45100
H  4.31800 58.79900 41.90200
H  2.55700 57.17800 43.39300
H  3.99200 57.99900 44.67900
H  4.52700 59.51000 44.01800
H  5.65700 58.10700 44.20900
H  2.05200 56.58600 40.52600
H  2.71100 58.16900 40.56200
H  0.47500 57.80800 42.59100
H  0.12700 57.09800 40.98100
H  0.47900 58.78100 41.08700
H  0.42200 51.20400 43.18400
H  0.44300 52.96800 43.27500
H  1.12700 52.00400 44.62500
H  5.27300 48.60700 42.68600
H  4.58300 45.21800 40.57300
H  4.89900 46.21400 39.15200
H  3.27200 46.21600 39.73700

