158

Mg 41.70900 41.08400 27.17100
C  40.98300 43.36400 29.60300
C  43.15800 39.12700 29.72700
C  42.54500 38.65200 24.96200
C  41.26200 43.38300 24.80700
N  42.11800 41.28100 29.48200
C  41.50100 42.29400 30.20000
C  41.61300 42.02900 31.69300
C  42.51700 40.74000 31.71600
C  42.72000 40.39400 30.23800
C  43.89200 40.87700 32.40700
C  40.25500 41.90100 32.39800
C  39.99500 42.90800 33.48400
H  39.57500 42.53900 34.86500
N  42.53800 39.04200 27.32900
C  43.13700 38.51700 28.37800
C  43.45000 37.13500 28.10100
C  43.15400 36.91600 26.72600
C  42.69600 38.23200 26.30000
C  43.75300 36.09100 29.19300
C  43.29500 35.70800 25.83700
O  43.02500 35.73700 24.65200
C  43.92900 34.46600 26.30200
N  42.04400 41.02700 25.12200
C  42.32500 39.92500 24.41900
C  42.10700 40.28100 22.88200
C  41.67800 41.76900 22.89200
C  41.69200 42.09300 24.37000
C  43.29200 40.01700 21.91800
C  40.31500 42.04100 22.19000
C  40.13900 43.30100 21.41800
N  41.22800 43.01200 27.12400
C  41.07700 43.88600 26.12400
C  40.51700 45.16200 26.59100
C  40.38600 44.90900 28.00300
C  40.83800 43.66200 28.20500
C  40.13700 46.35100 25.76100
C  39.88300 45.48600 29.22800
O  39.36300 46.61100 29.43900
C  40.33500 44.53900 30.31100
C  41.30900 45.30100 31.23400
O  42.49500 45.56000 31.01600
O  40.67800 45.73400 32.33800
C  41.50000 46.51600 33.33800
H  43.34800 38.42100 30.53800
H  42.50500 37.91300 24.16000
H  40.94800 44.03500 23.98900
H  42.27200 42.81700 32.05800
H  42.00600 39.90600 32.19800
H  44.58500 41.07300 31.58900
H  44.17800 39.98700 32.96800
H  43.83900 41.72800 33.08600
H  40.17700 40.91900 32.86300
H  39.44900 41.97900 31.66800
H  39.26300 43.63600 33.13400
H  40.88100 43.54300 33.51900
H  43.02200 35.29600 29.04300
H  43.88500 36.46200 30.21000
H  44.76400 35.76400 28.95200
H  44.91700 34.70400 26.69700
H  43.85600 33.82300 25.42500
H  43.42200 33.89600 27.08000
H  41.23800 39.70700 22.56200
H  42.42600 42.37900 22.38300
H  44.24700 40.07900 22.44100
H  43.16100 40.61400 21.01600
H  43.15100 38.93900 21.83800
H  39.49500 42.08900 22.90600
H  40.05900 41.22700 21.51200
H  39.77400 44.08200 22.08500
H  39.47500 43.16900 20.56400
H  40.99400 43.78400 20.94600
H  40.25600 46.12900 24.70000
H  40.67700 47.27400 25.97500
H  39.11000 46.64900 25.97200
H  39.41400 44.38000 30.87200
H  42.12500 45.88200 33.96700
H  40.74100 46.98300 33.96400
H  42.08100 47.28300 32.82600
Mg -11.19600 16.32300 42.95600
C  -8.08400 14.70700 42.76300
C  -9.54400 19.24900 41.89300
C  -14.14800 17.64800 41.96400
C  -12.62700 13.36000 43.77500
N  -9.12100 16.85200 42.14100
C  -8.03000 16.04500 42.27700
C  -6.72500 16.69900 41.76800
C  -7.20000 18.28200 42.01500
C  -8.70900 18.11900 41.91400
C  -6.78900 18.91700 43.32400
C  -6.40900 16.37400 40.32500
C  -5.20500 15.38100 40.02000
H  -5.52700 14.40400 38.88400
N  -11.75800 18.16300 42.16300
C  -10.92100 19.26000 41.85700
C  -11.75400 20.31000 41.33400
C  -13.12100 19.91700 41.38500
C  -13.05200 18.47000 41.79800
C  -11.05900 21.52100 40.77600
C  -14.27200 20.70600 40.88800
O  -14.12900 21.82300 40.43000
C  -15.69400 20.26500 40.80600
N  -13.10700 15.63200 42.78900
C  -14.19600 16.30300 42.37700
C  -15.49300 15.37300 42.39200
C  -14.97700 14.13900 43.17600
C  -13.46300 14.39700 43.26300
C  -16.71600 16.03300 43.05800
C  -15.48500 12.81700 42.55300
C  -15.83500 11.65400 43.54500
N  -10.53800 14.43700 43.43500
C  -11.20800 13.30600 43.81700
C  -10.27600 12.24400 44.06100
C  -9.00000 12.77300 43.68200
C  -9.23700 14.07300 43.26300
C  -10.71000 10.86000 44.44600
C  -7.62000 12.51700 43.63000
O  -6.98100 11.50300 43.99000
C  -6.94900 13.76200 43.01600
C  -6.05000 14.20800 44.07500
O  -6.43100 14.57500 45.20700
O  -4.83100 14.19900 43.60600
C  -3.83000 14.85900 44.47100
H  -9.04500 20.19500 41.67500
H  -15.10100 18.03100 41.59200
H  -13.03400 12.42200 44.15900
H  -5.88000 16.56100 42.44300
H  -6.86400 18.89500 41.17800
H  -6.23800 19.84100 43.15000
H  -6.20100 18.27600 43.98000
H  -7.62000 19.09600 44.00700
H  -6.08800 17.28100 39.81300
H  -7.27200 15.92100 39.83800
H  -4.93300 14.82300 40.91600
H  -4.29300 15.94900 39.84000
H  -11.81000 22.31100 40.80000
H  -10.61500 21.39300 39.78900
H  -10.40000 21.96800 41.52100
H  -15.78000 19.46800 40.06700
H  -16.36900 21.02600 40.41300
H  -15.96700 19.96400 41.81700
H  -15.69900 15.17400 41.34100
H  -15.39400 14.24700 44.17800
H  -16.29400 16.84800 43.64500
H  -17.34600 15.32400 43.59600
H  -17.37100 16.46300 42.30000
H  -14.79700 12.33200 41.86000
H  -16.40800 13.06800 42.03100
H  -16.67500 11.01600 43.27000
H  -15.73700 11.99700 44.57500
H  -15.04800 10.92100 43.37000
H  -10.75100 10.25500 43.54000
H  -11.70300 10.81900 44.89600
H  -9.96200 10.43400 45.11500
H  -6.39300 13.43800 42.13600
H  -3.14300 15.40500 43.82400
H  -3.33600 14.16400 45.14900
H  -4.29200 15.60100 45.12300

