158

Mg 45.34600 4.96900 48.16000
C  43.10300 7.53300 47.38900
C  42.67400 2.77000 47.99600
C  47.45700 2.54400 48.34400
C  47.92900 7.18500 47.39900
N  43.19300 5.18800 47.78500
C  42.50400 6.30600 47.47800
C  41.04400 6.05200 47.24000
C  40.83700 4.59000 47.66000
C  42.35900 4.09900 47.82200
C  39.96200 4.46700 48.88700
C  40.67900 6.35800 45.77200
C  39.47800 7.34300 45.67800
H  38.75700 7.30900 44.32500
N  45.13200 2.90300 48.25500
C  43.97300 2.19400 48.18300
C  44.29600 0.77500 48.39200
C  45.64500 0.65500 48.51800
C  46.16300 2.04900 48.33700
C  43.15000 -0.32400 48.57800
C  46.53700 -0.61900 48.81200
O  45.99900 -1.72800 48.89400
C  48.04900 -0.58700 48.71000
N  47.37300 4.94800 47.83500
C  48.00800 3.81500 48.23000
C  49.54900 3.94000 48.09000
C  49.68500 5.44100 47.86200
C  48.25000 5.91100 47.76800
C  50.47500 3.47200 49.34400
C  50.52300 5.69800 46.60200
C  49.81800 5.41100 45.21700
N  45.52600 7.00900 47.61500
C  46.66400 7.74800 47.42100
C  46.30700 9.11100 47.17600
C  44.87400 9.11600 47.17200
C  44.49000 7.82500 47.40700
C  47.30500 10.23300 46.82800
C  43.66400 9.94400 47.03500
O  43.49300 11.10900 46.74800
C  42.46200 8.88600 47.12000
C  41.60700 9.39200 48.17900
O  41.72800 9.20400 49.33700
O  40.72900 10.27300 47.59500
C  39.84800 10.91600 48.60400
H  41.87600 2.03000 47.90400
H  48.29100 1.86300 48.52800
H  48.65000 7.96600 47.15000
H  40.62900 6.77600 47.94200
H  40.29400 4.05000 46.88400
H  39.14600 3.74600 48.85500
H  39.47000 5.39900 49.16600
H  40.53700 4.20500 49.77500
H  40.22600 5.48400 45.30500
H  41.51200 6.61200 45.11600
H  39.91200 8.34300 45.68700
H  38.74700 7.16500 46.46600
H  43.27300 -1.16900 47.90000
H  42.16600 0.13700 48.49100
H  43.17900 -0.75200 49.58000
H  48.50200 -0.09000 47.85100
H  48.39200 -1.60000 48.92400
H  48.42100 -0.06900 49.59400
H  49.77700 3.29900 47.23800
H  50.08800 5.95900 48.73200
H  49.90900 3.21800 50.24100
H  51.19900 4.25800 49.56200
H  50.96800 2.57800 48.96300
H  51.38400 5.03100 46.63600
H  50.75500 6.76000 46.51500
H  48.96500 4.73700 45.29900
H  50.57400 4.97200 44.56500
H  49.47400 6.30000 44.68900
H  46.83000 11.20100 46.67200
H  47.75500 9.73500 45.96900
H  48.02000 10.37300 47.63900
H  41.91700 8.91300 46.17600
H  39.64500 10.34300 49.50900
H  38.87300 11.18500 48.20000
H  40.27000 11.86400 48.93800
Mg 49.56400 46.52200 42.55500
C  46.19600 47.02800 41.63000
C  49.29200 43.37400 41.36800
C  52.91000 46.14000 42.98200
C  49.75300 49.82400 43.60900
N  47.89100 45.38300 41.50300
C  46.61600 45.73400 41.29600
C  45.78600 44.62000 40.69000
C  46.70700 43.40500 40.97500
C  48.06900 44.05600 41.31000
C  46.07900 42.38600 41.96300
C  45.51300 44.99100 39.21700
C  44.31000 44.29700 38.59600
H  44.47200 43.68300 37.22100
N  50.94300 44.93800 42.15100
C  50.64800 43.72800 41.63900
C  51.83900 42.89400 41.58000
C  52.89700 43.69000 42.08500
C  52.28000 45.00400 42.44100
C  51.93600 41.53100 40.96300
C  54.28000 43.17200 42.25000
O  54.55900 41.99300 42.09500
C  55.38500 44.07100 42.81900
N  51.12700 47.80300 43.28900
C  52.43200 47.43900 43.36100
C  53.33700 48.55900 43.81300
C  52.30800 49.71300 44.04100
C  50.97000 49.06300 43.65700
C  54.16800 48.26400 45.14600
C  52.70900 51.05600 43.43000
C  52.85200 52.10100 44.50100
N  48.28000 48.05900 42.70500
C  48.50200 49.32400 43.19600
C  47.28800 50.14200 43.09800
C  46.34600 49.18700 42.53700
C  46.98400 48.00500 42.21500
C  47.17400 51.56500 43.43400
C  44.97100 49.03800 42.18000
O  44.04900 49.86700 42.39400
C  44.82800 47.66200 41.49800
C  43.72100 46.93000 42.17800
O  43.64700 46.65200 43.37200
O  42.82700 46.62100 41.21200
C  41.57100 45.95200 41.69400
H  49.24800 42.32700 41.05800
H  53.99600 46.17300 43.09200
H  49.76400 50.89000 43.84600
H  44.84500 44.44700 41.21200
H  46.78900 42.82400 40.05600
H  44.99700 42.28700 41.87900
H  46.28900 42.77500 42.96000
H  46.53000 41.42500 41.71400
H  46.28100 44.84000 38.45800
H  45.36100 46.06900 39.15200
H  43.40300 44.89300 38.70100
H  44.12300 43.41600 39.21100
H  52.78700 41.41700 40.29100
H  51.02200 41.22700 40.45300
H  52.05600 40.73000 41.69200
H  56.21200 43.40700 43.07000
H  54.87200 44.34000 43.74200
H  55.44300 44.80600 42.01600
H  54.03800 48.65800 42.98400
H  52.22700 49.78700 45.12500
H  55.11600 48.78700 45.02300
H  54.45300 47.22400 45.31000
H  53.77300 48.64800 46.08700
H  52.11500 51.46300 42.61200
H  53.72600 50.97900 43.04800
H  53.89800 52.40600 44.53700
H  52.69100 51.82600 45.54300
H  52.19300 52.91300 44.19100
H  47.59100 52.08800 42.57300
H  47.73500 51.72700 44.35400
H  46.16200 51.84600 43.72600
H  44.58300 47.91700 40.46700
H  41.76100 44.98700 42.16600
H  40.96200 45.73400 40.81700
H  40.86300 46.58300 42.23000

