158

Mg 45.54300 4.92500 46.67900
C  43.45000 7.71100 46.50300
C  42.85500 2.86900 46.45700
C  47.62900 2.37300 45.84400
C  48.34300 7.26700 46.15900
N  43.47100 5.25000 46.44100
C  42.81300 6.47400 46.40900
C  41.26000 6.27000 46.28700
C  41.07400 4.70900 46.13200
C  42.52800 4.25000 46.39500
C  39.95500 4.17100 47.12700
C  40.50600 7.07600 45.12400
C  41.21900 7.27700 43.74000
H  40.68700 6.77200 42.39500
N  45.34000 2.84400 46.53000
C  44.09900 2.21700 46.47200
C  44.37100 0.80400 46.20000
C  45.80000 0.65300 46.19600
C  46.34500 1.95300 46.23100
C  43.24200 -0.23500 45.91100
C  46.51900 -0.64700 46.15500
O  45.91900 -1.73900 46.08900
C  48.06900 -0.72900 46.17900
N  47.64200 4.86600 46.04300
C  48.25200 3.66400 45.76700
C  49.63400 3.82300 45.27600
C  49.90600 5.33700 45.39800
C  48.60400 5.93700 45.95000
C  50.50900 2.97400 46.21500
C  50.19900 5.99100 44.00600
C  51.53800 5.60800 43.44400
N  45.94400 7.05600 46.52000
C  47.03700 7.83700 46.41900
C  46.70300 9.23900 46.52700
C  45.29800 9.24600 46.64100
C  44.82600 7.89600 46.52300
C  47.65500 10.43600 46.51400
C  44.11100 10.06200 46.71800
O  44.00700 11.31300 46.64600
C  42.84100 9.11200 46.65000
C  42.18600 9.23100 48.02200
O  42.44300 8.60400 49.04100
O  41.19200 10.16700 47.87700
C  40.27800 10.28400 49.04100
H  42.04600 2.14200 46.35000
H  48.26200 1.67000 45.29700
H  49.18100 7.94600 45.99000
H  40.75100 6.76900 47.11100
H  40.81400 4.49500 45.09500
H  39.83900 4.81500 47.99900
H  40.33800 3.25400 47.57500
H  39.03700 4.13600 46.53900
H  40.26900 8.07600 45.48800
H  39.62000 6.48000 44.90600
H  42.23100 6.87400 43.79200
H  41.54700 8.31200 43.64400
H  43.45100 -0.57600 44.89700
H  42.25000 0.21000 45.98400
H  43.24700 -1.02000 46.66700
H  48.20900 -1.73800 46.56700
H  48.50000 0.03700 46.82400
H  48.37100 -0.67900 45.13300
H  49.75400 3.36300 44.29500
H  50.77500 5.46500 46.04400
H  50.42400 1.95400 45.83900
H  50.08800 2.95800 47.22000
H  51.54900 3.30200 46.18900
H  50.12200 7.07600 44.07300
H  49.42500 5.65000 43.31900
H  51.56600 4.72900 42.79900
H  52.29700 5.51800 44.22100
H  51.84100 6.40400 42.76400
H  47.79800 10.67500 47.56800
H  47.20500 11.36100 46.15200
H  48.56900 10.30500 45.93500
H  42.25800 9.37500 45.76700
H  39.50900 9.51200 49.03200
H  39.69300 11.20300 48.99200
H  40.69600 10.37400 50.04300
Mg -12.34000 16.06500 41.72200
C  -9.19900 14.04500 41.56400
C  -10.58400 18.56600 40.13700
C  -15.08100 17.34200 41.11100
C  -13.89000 12.91600 42.59300
N  -10.11300 16.24800 40.82200
C  -9.08200 15.31100 40.95500
C  -7.72800 15.93900 40.45200
C  -8.14200 17.48100 40.30300
C  -9.68500 17.44900 40.32600
C  -7.64000 18.40800 41.45800
C  -7.17700 15.26500 39.16800
C  -5.63600 15.52800 39.00200
H  -5.34900 16.24400 37.64200
N  -12.71200 17.78700 40.91700
C  -11.94100 18.73100 40.30800
C  -12.69700 19.89700 39.93900
C  -14.05300 19.62800 40.32400
C  -13.97900 18.17700 40.76300
C  -12.11100 21.14800 39.32900
C  -15.22100 20.54000 40.14800
O  -15.06900 21.62600 39.65300
C  -16.71100 20.15900 40.50900
N  -14.27900 15.13400 41.58300
C  -15.26300 16.05700 41.41500
C  -16.67600 15.34900 41.57800
C  -16.20600 14.03200 42.34200
C  -14.74200 13.95600 42.11600
C  -17.77000 16.14700 42.39100
C  -16.98900 12.76100 41.82900
C  -17.78400 11.91300 42.90000
N  -11.71300 13.94900 42.12600
C  -12.48500 12.83000 42.48100
C  -11.55900 11.73800 42.67900
C  -10.25200 12.19100 42.34300
C  -10.37600 13.51700 42.00400
C  -11.91800 10.43300 43.39200
C  -8.87100 11.73200 42.23600
O  -8.33400 10.63700 42.50300
C  -8.09900 13.02000 41.71800
C  -7.05300 13.52700 42.68800
O  -7.16700 13.52300 43.90400
O  -5.89000 13.82700 42.02300
C  -4.69000 13.89800 42.85800
H  -10.06600 19.39500 39.65000
H  -16.05500 17.82600 41.01500
H  -14.44800 12.02700 42.89200
H  -6.94500 15.85400 41.20600
H  -7.74200 17.94100 39.40000
H  -6.55900 18.55000 41.47000
H  -7.90500 17.89300 42.38100
H  -8.16600 19.36200 41.41400
H  -7.84000 15.64300 38.39000
H  -7.37600 14.19900 39.27800
H  -5.11900 14.57500 39.11000
H  -5.24900 16.22400 39.74600
H  -12.38300 21.32400 38.28800
H  -11.03000 21.10700 39.45600
H  -12.40700 22.00500 39.93300
H  -16.75400 19.84200 41.55100
H  -17.13400 19.36200 39.89700
H  -17.41200 20.96900 40.30500
H  -17.08900 15.18200 40.58300
H  -16.35300 14.00900 43.42100
H  -18.65500 16.41700 41.81400
H  -17.22400 17.03900 42.69900
H  -18.14600 15.61000 43.26100
H  -16.32700 12.16600 41.19800
H  -17.73800 13.08100 41.10400
H  -18.86700 11.91100 42.78000
H  -17.46900 12.21900 43.89700
H  -17.54700 10.84900 42.88200
H  -10.99300 9.86200 43.31600
H  -12.70200 9.97100 42.79100
H  -12.41300 10.59900 44.34800
H  -7.54000 12.82100 40.80300
H  -4.60000 12.97700 43.43500
H  -4.75200 14.68700 43.60700
H  -3.87100 14.00900 42.14800

