158

Mg 24.68400 -7.11000 46.30100
C  26.83600 -4.81100 44.82000
C  22.18300 -6.22900 44.16600
C  23.06100 -9.70900 47.61200
C  27.82200 -8.42900 47.85000
N  24.67300 -5.77900 44.71300
C  25.58100 -4.83300 44.29400
C  24.98700 -3.86300 43.31800
C  23.43200 -4.30100 43.29700
C  23.40600 -5.52900 44.14700
C  22.54700 -3.20200 43.87900
C  25.77200 -4.00000 41.88900
C  26.04500 -2.62500 41.19900
H  24.96900 -2.25100 40.21700
N  22.86300 -7.84100 45.94200
C  21.96600 -7.37000 45.01300
C  20.73000 -8.04800 45.15400
C  20.91600 -9.06500 46.12800
C  22.32600 -8.91900 46.65800
C  19.44300 -7.78500 44.31300
C  19.81400 -9.99600 46.63000
O  18.67800 -9.88700 46.20600
C  20.07300 -11.07500 47.67300
N  25.31000 -8.72000 47.64900
C  24.44200 -9.67800 48.02200
C  25.11000 -10.83000 48.84100
C  26.63900 -10.58700 48.58000
C  26.59600 -9.06700 48.13500
C  24.57700 -10.95200 50.31700
C  27.21200 -11.48300 47.49000
C  27.68200 -12.92100 47.84000
N  26.84300 -6.69500 46.41800
C  27.92800 -7.30800 47.02300
C  29.11600 -6.52600 46.87800
C  28.71500 -5.43400 46.07500
C  27.37100 -5.61900 45.82500
C  30.40800 -6.74800 47.50500
C  29.14100 -4.24100 45.41200
O  30.25300 -3.71200 45.36100
C  27.97300 -3.72300 44.59300
C  27.55400 -2.35500 45.03700
O  27.34900 -1.37400 44.32600
O  27.37900 -2.26100 46.43000
C  27.20700 -0.92100 47.06500
H  21.34400 -5.78500 43.62600
H  22.62900 -10.59500 48.08200
H  28.62700 -8.93800 48.38400
H  25.15700 -2.85200 43.68800
H  23.12500 -4.44100 42.26000
H  23.10800 -2.27500 44.00300
H  22.09000 -3.52100 44.81600
H  21.78300 -2.96400 43.13900
H  24.98700 -4.48200 41.30600
H  26.60200 -4.70400 41.83500
H  26.99100 -2.60800 40.65800
H  26.05100 -1.89200 42.00600
H  19.79600 -7.59700 43.29900
H  19.00300 -6.85500 44.67200
H  18.81400 -8.65100 44.10300
H  20.21200 -10.59700 48.64300
H  20.88200 -11.70100 47.29900
H  19.18600 -11.70200 47.76100
H  24.94900 -11.83200 48.44300
H  27.21200 -10.53300 49.50600
H  23.54100 -11.29000 50.32700
H  24.54700 -10.02300 50.88600
H  25.24500 -11.61000 50.87400
H  27.96900 -10.89100 46.97700
H  26.42800 -11.63600 46.74800
H  28.34600 -13.40200 47.12100
H  26.86100 -13.60900 48.04100
H  28.33200 -12.90500 48.71400
H  30.98000 -7.52600 46.99900
H  30.23300 -7.05900 48.53500
H  31.04000 -5.86000 47.46300
H  28.25000 -3.73900 43.53900
H  26.50400 -0.98900 47.89600
H  26.72900 -0.18600 46.41800
H  28.22300 -0.69900 47.39000
Mg -8.98900 19.04800 42.66600
C  -5.62200 18.70900 42.85700
C  -8.60900 22.39800 41.89700
C  -12.40600 19.32200 42.25500
C  -9.28300 15.55500 42.54600
N  -7.30000 20.34800 42.39300
C  -5.99400 20.01900 42.51800
C  -5.06600 21.20600 42.25000
C  -6.09300 22.34700 42.11700
C  -7.45200 21.65800 42.16100
C  -5.95500 23.54400 43.14500
C  -4.21600 20.89100 40.98200
C  -4.78700 20.06200 39.74700
H  -4.33400 20.51700 38.35300
N  -10.38100 20.66600 42.05500
C  -9.97600 21.96600 41.86000
C  -11.16700 22.76500 41.66800
C  -12.33600 21.89400 41.91400
C  -11.72000 20.53400 42.06200
C  -11.17200 24.16600 41.13300
C  -13.72800 22.36800 41.84900
O  -13.96100 23.55100 41.61600
C  -14.99700 21.44400 41.96600
N  -10.59800 17.63100 42.15900
C  -11.88700 18.00800 42.27700
C  -12.84900 16.79500 42.37000
C  -11.87400 15.55500 42.10700
C  -10.47000 16.23700 42.24500
C  -13.54600 16.74000 43.71000
C  -12.10000 14.79800 40.69900
C  -12.19700 13.29200 40.73000
N  -7.76900 17.46700 42.74400
C  -7.95600 16.09300 42.74800
C  -6.81100 15.37300 43.02300
C  -5.80200 16.40400 43.05100
C  -6.46000 17.61500 42.82900
C  -6.70500 13.90800 43.07500
C  -4.40700 16.67800 43.28600
O  -3.45900 15.92600 43.61300
C  -4.22200 18.16200 43.19300
C  -3.70400 18.80800 44.38000
O  -2.68500 19.53600 44.40300
O  -4.48900 18.31000 45.43100
C  -4.01000 18.67500 46.84100
H  -8.53100 23.48600 41.84000
H  -13.49600 19.38500 42.27400
H  -9.34400 14.48000 42.72700
H  -4.43100 21.20800 43.13700
H  -6.04000 22.91500 41.18700
H  -5.85600 24.46900 42.57600
H  -5.06100 23.44000 43.76000
H  -6.82600 23.55100 43.80100
H  -3.26000 20.43700 41.24100
H  -3.85700 21.83600 40.57500
H  -5.87000 20.13600 39.65900
H  -4.62900 18.98500 39.81000
H  -11.76100 24.20600 40.21700
H  -10.11500 24.39400 40.99700
H  -11.59800 24.77100 41.93300
H  -14.98000 20.90800 42.91500
H  -14.96600 20.60400 41.27200
H  -15.85600 22.09500 41.80100
H  -13.61100 16.96100 41.60900
H  -11.90400 14.75300 42.84400
H  -14.56400 16.37700 43.56700
H  -13.59500 17.70700 44.21100
H  -13.01300 16.17300 44.47300
H  -11.25100 15.07800 40.07600
H  -12.98900 15.10300 40.14600
H  -12.98700 12.86200 40.11500
H  -12.14800 12.83800 41.72000
H  -11.39800 12.90100 40.10000
H  -5.72400 13.56800 42.74300
H  -7.33400 13.50100 42.28400
H  -6.97000 13.36900 43.98500
H  -3.54100 18.46800 42.39900
H  -2.96700 18.97300 46.73300
H  -4.04300 17.80500 47.49600
H  -4.48200 19.59600 47.18400

