158

Mg -10.85000 37.59900 42.51500
C  -8.23700 35.17600 42.06200
C  -8.52600 39.98800 41.40500
C  -13.24800 39.66900 42.78000
C  -13.05700 34.86400 43.12700
N  -8.67000 37.56500 41.73900
C  -7.80700 36.47800 41.79600
C  -6.45700 36.81600 41.22900
C  -6.51300 38.39900 41.20800
C  -7.97700 38.67400 41.39200
C  -5.59200 39.05000 42.28700
C  -6.07200 36.10600 39.85800
C  -4.70800 35.33900 39.83800
H  -3.85600 35.74000 38.61100
N  -10.85900 39.63300 42.16200
C  -9.86100 40.46100 41.69800
C  -10.28800 41.82900 41.77500
C  -11.68300 41.71800 42.13600
C  -12.02900 40.30500 42.41700
C  -9.41100 43.05500 41.24100
C  -12.57400 42.91000 42.20900
O  -12.23800 44.05700 41.85600
C  -13.94500 42.83000 42.77700
N  -12.90000 37.34300 42.78900
C  -13.74000 38.39300 42.96500
C  -15.16900 38.06800 43.32300
C  -15.17000 36.49600 43.33300
C  -13.60400 36.19400 43.07500
C  -15.71100 38.76900 44.58000
C  -15.93100 35.76600 42.23900
C  -17.05300 34.79500 42.82500
N  -10.73400 35.46800 42.66500
C  -11.66200 34.52600 43.00500
C  -11.01800 33.22600 43.24000
C  -9.71700 33.48600 42.87000
C  -9.56200 34.84600 42.50200
C  -11.62200 31.93200 43.75800
C  -8.40900 32.81400 42.69500
O  -7.98500 31.66500 42.78100
C  -7.54600 33.82400 41.99700
C  -6.36500 33.77100 42.91100
O  -6.33800 34.04800 44.11100
O  -5.22500 33.36700 42.21300
C  -4.09700 33.01400 43.09400
H  -7.80500 40.80700 41.36600
H  -14.07500 40.38200 42.81400
H  -13.69700 34.03500 43.43600
H  -5.73600 36.41900 41.94300
H  -6.22000 38.71200 40.20700
H  -4.94100 39.79900 41.83500
H  -5.01100 38.37500 42.91500
H  -6.35600 39.55500 42.87800
H  -6.03800 36.85500 39.06800
H  -6.85000 35.40600 39.55300
H  -4.95600 34.27900 39.86900
H  -4.10500 35.61900 40.70200
H  -9.76400 43.33600 40.24900
H  -8.36900 42.78400 41.07100
H  -9.29400 43.82300 42.00500
H  -14.40400 43.81900 42.78900
H  -13.90200 42.44000 43.79300
H  -14.58100 42.34600 42.03500
H  -15.74700 38.35100 42.44400
H  -15.39600 36.01500 44.28500
H  -14.96300 39.39500 45.06600
H  -16.02000 37.98400 45.27100
H  -16.49500 39.47900 44.31700
H  -15.29600 35.09800 41.65600
H  -16.34100 36.42100 41.47000
H  -17.21400 34.89200 43.89900
H  -16.83600 33.75800 42.56600
H  -18.01500 35.11000 42.42100
H  -12.45300 31.72400 43.08500
H  -12.01100 32.33700 44.69200
H  -10.86400 31.15400 43.85100
H  -7.29300 33.54400 40.97400
H  -3.13400 32.92700 42.59100
H  -4.19900 32.02300 43.53600
H  -4.00800 33.73800 43.90400
Mg -1.24000 34.28000 26.40400
C  -2.86600 32.54600 28.96800
C  0.35800 36.16200 28.77400
C  -0.08400 35.98900 23.88700
C  -3.17300 32.40000 24.16600
N  -1.41400 34.39400 28.70500
C  -2.06000 33.55400 29.57700
C  -1.77700 33.90000 31.03900
C  -0.92700 35.19200 30.90800
C  -0.62500 35.27900 29.33000
C  -1.58800 36.46100 31.51500
C  -0.97400 32.80100 31.82400
C  -1.47700 32.69900 33.33100
H  -0.40700 32.68200 34.43900
N  0.03400 35.74000 26.35500
C  0.62000 36.41100 27.39400
C  1.66100 37.27000 26.82400
C  1.61800 37.15200 25.40200
C  0.45400 36.27600 25.16500
C  2.53100 38.13100 27.71500
C  2.50800 37.73200 24.24400
O  2.37200 37.52500 23.08600
C  3.67200 38.53100 24.64300
N  -1.71700 34.26000 24.33700
C  -1.04200 35.05600 23.51000
C  -1.55000 34.90700 22.12900
C  -2.10100 33.42500 22.15900
C  -2.35100 33.36600 23.60000
C  -2.65300 36.01600 21.65700
C  -1.02000 32.33000 21.77700
C  -0.81600 32.22600 20.19300
N  -2.73000 32.82600 26.51700
C  -3.39200 32.12400 25.50600
C  -4.32800 31.22700 26.09600
C  -4.09500 31.21700 27.47000
C  -3.15600 32.34600 27.65300
C  -5.34200 30.37000 25.47600
C  -4.45800 30.73200 28.76500
O  -5.11100 29.78800 29.19100
C  -3.73200 31.62400 29.82500
C  -4.67800 32.27200 30.72500
O  -5.47000 33.18500 30.45100
O  -4.50400 31.71200 31.97000
C  -5.11700 32.50600 32.97500
H  0.91800 36.70900 29.53500
H  0.27400 36.52000 23.00200
H  -3.70200 31.81600 23.41000
H  -2.75400 34.04700 31.50100
H  0.09600 35.16100 31.28300
H  -2.55000 36.07700 31.85400
H  -1.85000 37.26500 30.82700
H  -1.01400 36.88500 32.33900
H  0.07100 33.08700 31.70600
H  -1.11200 31.79900 31.41700
H  -2.02900 31.78100 33.53100
H  -2.09800 33.57700 33.50800
H  2.38400 37.92500 28.77500
H  2.24800 39.16000 27.49600
H  3.54800 37.87800 27.41400
H  4.48900 37.87500 24.94400
H  3.43000 39.35800 25.31100
H  3.83300 39.02800 23.68600
H  -0.79200 34.80600 21.35200
H  -3.05600 33.55500 21.65100
H  -3.04100 36.44200 22.58200
H  -3.46100 35.54900 21.09400
H  -2.08900 36.76300 21.09800
H  -1.43000 31.36800 22.08400
H  -0.13800 32.67400 22.31600
H  -0.83100 31.22200 19.77000
H  0.11300 32.69800 19.87200
H  -1.55600 32.85600 19.69900
H  -5.21700 29.29000 25.55800
H  -5.55800 30.69300 24.45700
H  -6.31600 30.64000 25.88500
H  -3.14400 30.96400 30.46300
H  -4.75400 33.53400 32.97500
H  -5.07800 32.04100 33.96000
H  -6.19900 32.39200 32.90000

