158

Mg 24.25800 -6.52100 46.87600
C  26.68600 -4.09000 45.66000
C  22.03000 -5.25600 44.48300
C  22.35200 -9.23900 47.24400
C  26.98300 -8.12600 48.40100
N  24.34300 -4.80100 45.34300
C  25.47400 -4.06400 44.95800
C  25.16000 -3.16900 43.78100
C  23.63900 -3.47200 43.47900
C  23.30000 -4.63400 44.44500
C  22.79700 -2.23200 43.46300
C  26.07900 -3.33700 42.58000
C  26.92700 -2.18100 42.15700
H  27.02100 -1.83600 40.64400
N  22.29800 -7.01600 46.15600
C  21.59200 -6.34400 45.27900
C  20.32900 -7.01600 45.12800
C  20.38000 -8.18800 45.87400
C  21.65400 -8.13900 46.54300
C  19.16200 -6.44800 44.27600
C  19.20600 -9.17200 45.94500
O  18.32100 -9.14800 45.10700
C  19.09100 -10.11700 47.10000
N  24.68700 -8.44900 47.72400
C  23.64600 -9.37700 47.81500
C  24.23300 -10.68400 48.53100
C  25.71700 -10.22600 48.90100
C  25.82500 -8.85600 48.33200
C  23.35500 -11.18800 49.69400
C  26.87400 -11.13500 48.42800
C  27.87300 -11.66400 49.52800
N  26.37400 -6.14000 47.12700
C  27.24600 -6.88300 47.80300
C  28.54400 -6.21600 47.84100
C  28.31800 -5.10100 47.04200
C  27.02600 -5.12400 46.56200
C  29.82700 -6.65100 48.49100
C  28.97200 -3.91600 46.43600
O  30.14400 -3.56200 46.49900
C  27.87600 -3.20400 45.54300
C  27.58800 -1.78700 45.96500
O  26.55000 -1.36900 46.42200
O  28.74400 -1.02100 45.79900
C  28.45500 0.37400 46.00000
H  21.32500 -4.87600 43.74100
H  21.81400 -10.18700 47.30600
H  27.82400 -8.57700 48.93300
H  25.16000 -2.11200 44.04600
H  23.54200 -3.89200 42.47800
H  23.35400 -1.29800 43.53200
H  22.14300 -2.34100 44.32900
H  22.22100 -2.34800 42.54500
H  25.50900 -3.58800 41.68600
H  26.73700 -4.19400 42.72200
H  27.94200 -2.46600 42.43400
H  26.70100 -1.20400 42.58600
H  18.43500 -6.13600 45.02600
H  18.76800 -7.20200 43.59500
H  19.52200 -5.70900 43.56100
H  18.18200 -10.71700 47.12500
H  19.49000 -9.78200 48.05700
H  19.84500 -10.82300 46.75000
H  24.28700 -11.47200 47.77900
H  25.68900 -10.04700 49.97600
H  23.93800 -11.29500 50.60800
H  22.88200 -12.10600 49.34600
H  22.59400 -10.43100 49.88800
H  27.46200 -10.66900 47.63700
H  26.41700 -11.96000 47.88100
H  27.67900 -12.72300 49.69700
H  27.54100 -11.35700 50.52000
H  28.93000 -11.44100 49.38300
H  30.40800 -5.84900 48.94600
H  30.43900 -6.96300 47.64400
H  29.74100 -7.39400 49.28500
H  28.31900 -3.21000 44.54700
H  28.79300 1.10100 45.26100
H  28.98700 0.67800 46.90200
H  27.43100 0.70000 46.18000
Mg -11.76200 17.12100 41.50500
C  -8.72300 15.43600 40.83000
C  -10.38200 19.95300 39.99600
C  -14.82300 18.39100 41.26900
C  -13.08900 13.97700 42.50300
N  -9.86600 17.55100 40.40600
C  -8.76200 16.71900 40.25400
C  -7.58200 17.38600 39.60600
C  -8.10500 18.82100 39.47700
C  -9.54000 18.81100 39.98600
C  -7.26000 19.93200 40.17200
C  -7.20200 16.71000 38.28500
C  -5.79300 16.09500 38.14400
H  -4.98700 16.42300 36.85500
N  -12.49200 18.99200 40.86700
C  -11.75300 20.01800 40.32900
C  -12.61300 21.07500 40.02400
C  -13.93900 20.71100 40.43000
C  -13.79800 19.30100 40.89500
C  -12.21600 22.40900 39.50500
C  -15.17800 21.64600 40.52700
O  -15.12400 22.86000 40.36100
C  -16.50600 21.07600 40.95400
N  -13.70600 16.33300 41.91000
C  -14.83800 17.07200 41.70400
C  -16.10500 16.24200 41.88700
C  -15.57100 14.93800 42.61800
C  -14.02800 15.00900 42.25000
C  -17.33800 16.84400 42.57700
C  -16.31800 13.69500 42.13500
C  -16.37800 12.56400 43.17800
N  -11.12900 15.11700 41.71000
C  -11.72000 13.98700 42.20200
C  -10.73100 12.98300 42.45900
C  -9.55400 13.47500 41.86600
C  -9.84900 14.79400 41.40000
C  -11.08800 11.57500 42.98500
C  -8.16500 13.06500 41.59600
O  -7.50500 12.06500 41.83100
C  -7.52900 14.42100 41.04200
C  -6.32700 14.83700 41.87500
O  -6.35000 15.43000 42.92100
O  -5.17800 14.48600 41.19700
C  -4.00600 14.69300 42.02800
H  -9.93600 20.86500 39.59200
H  -15.85600 18.67600 41.06300
H  -13.41100 13.01000 42.89500
H  -6.70600 17.31300 40.25100
H  -8.08200 19.05300 38.41200
H  -7.04600 20.75000 39.48400
H  -6.37100 19.49700 40.63000
H  -7.88300 20.33800 40.96900
H  -7.25800 17.37800 37.42500
H  -8.00400 16.00100 38.08000
H  -5.80800 15.00500 38.15300
H  -5.26500 16.50900 39.00300
H  -11.14100 22.57300 39.58100
H  -12.43100 23.18900 40.23500
H  -12.67100 22.78400 38.58800
H  -17.16600 21.92800 41.11600
H  -16.38100 20.50700 41.87500
H  -17.03700 20.41900 40.26500
H  -16.46400 15.93700 40.90400
H  -15.55400 15.05700 43.70200
H  -18.20400 17.00800 41.93500
H  -17.07100 17.82000 42.98000
H  -17.66700 16.22700 43.41300
H  -15.81400 13.45200 41.19900
H  -17.35200 13.88400 41.84800
H  -17.44200 12.40800 43.35300
H  -15.87100 12.77100 44.12000
H  -15.99000 11.68100 42.67100
H  -11.66500 10.90600 42.34700
H  -11.65600 11.72800 43.90300
H  -10.21800 10.92300 43.06700
H  -7.19000 14.13700 40.04500
H  -3.11100 14.19200 41.66200
H  -4.09300 14.50600 43.09800
H  -3.81800 15.76000 41.90500

