158

Mg 17.58300 0.03500 28.11800
C  16.57800 1.73300 31.12400
C  19.62100 -2.01500 29.97200
C  18.90200 -1.05200 25.29900
C  16.05200 2.77700 26.42000
N  17.93000 -0.11300 30.31700
C  17.41400 0.67600 31.36300
C  17.96800 0.10100 32.73500
C  19.17900 -0.75100 32.26400
C  18.90600 -1.09100 30.74900
C  20.65500 -0.15200 32.36800
C  16.80200 -0.63500 33.46600
C  16.55800 -0.50500 35.01400
H  17.64500 0.23000 35.81400
N  18.91100 -1.53900 27.67500
C  19.64200 -2.23800 28.54200
C  20.15100 -3.43700 27.81500
C  20.11800 -3.05800 26.39200
C  19.28800 -1.81800 26.35100
C  20.99900 -4.51100 28.59400
C  20.63100 -3.75800 25.15200
O  20.53000 -3.33100 23.97900
C  21.42200 -5.08200 25.51100
N  17.55700 0.81100 26.16400
C  18.12700 0.09200 25.12100
C  17.93500 0.90600 23.81800
C  16.96100 2.04100 24.20400
C  16.78500 1.80900 25.66400
C  19.25600 1.50500 23.25900
C  15.60400 2.03600 23.45700
C  15.57500 1.59100 22.00500
N  16.55500 1.80700 28.60900
C  15.92000 2.77600 27.79900
C  15.17800 3.67800 28.63800
C  15.46400 3.33400 29.89500
C  16.23700 2.18300 29.84800
C  14.17700 4.82200 28.17200
C  15.07000 3.64500 31.26000
O  14.33500 4.46100 31.67200
C  15.96100 2.66800 32.13800
C  16.95100 3.49700 32.88500
O  18.01000 3.95100 32.56100
O  16.23000 4.00500 33.90300
C  16.92700 4.98200 34.76500
H  20.24300 -2.60600 30.64700
H  19.31500 -1.31800 24.32300
H  15.59300 3.63900 25.93100
H  18.30700 0.93800 33.34600
H  19.17900 -1.60000 32.94700
H  21.17700 -0.86700 33.00400
H  20.57000 0.76400 32.95400
H  21.21700 -0.01800 31.44400
H  16.97000 -1.66400 33.14700
H  15.87800 -0.43300 32.92400
H  16.26300 -1.43200 35.50500
H  15.64200 0.06700 35.15900
H  22.07500 -4.38700 28.46900
H  20.64800 -5.47900 28.23600
H  20.66000 -4.46500 29.62900
H  20.78800 -5.94700 25.70400
H  22.18000 -4.95600 26.28400
H  21.86800 -5.33000 24.54800
H  17.60700 0.16500 23.08900
H  17.26600 3.08500 24.28000
H  20.11900 1.24200 23.87100
H  19.11900 2.56700 23.06000
H  19.48900 1.05400 22.29500
H  15.11100 3.00200 23.56300
H  14.96600 1.29700 23.94200
H  15.25400 2.36300 21.30600
H  14.78200 0.84300 22.02700
H  16.49400 1.15100 21.61800
H  14.39900 5.02700 27.12500
H  14.51500 5.65500 28.78800
H  13.15100 4.52200 28.38400
H  15.27500 2.16900 32.82200
H  16.96300 6.01300 34.41200
H  17.95100 4.69900 35.01100
H  16.40300 5.00300 35.72100
Mg 48.42400 34.26800 26.89400
C  46.73600 32.87400 29.66600
C  48.45100 37.22200 28.74800
C  49.65900 35.65900 24.34200
C  47.62600 31.38500 25.10700
N  47.63200 35.06000 28.95300
C  47.12100 34.20000 29.92900
C  46.95100 34.97000 31.24800
C  47.12000 36.48500 30.79200
C  47.85600 36.23900 29.49700
C  45.75500 37.23100 30.74000
C  48.05000 34.56900 32.26900
C  47.54900 34.38800 33.75000
H  46.53100 35.34400 34.33400
N  49.08700 36.10700 26.63600
C  49.10800 37.16300 27.50700
C  49.96400 38.14300 26.88500
C  50.20900 37.82100 25.54500
C  49.66500 36.47200 25.47300
C  50.33800 39.48300 27.58100
C  50.92300 38.55900 24.39200
O  50.76900 38.32500 23.19100
C  51.64100 39.86600 24.82900
N  48.38400 33.73100 24.92800
C  49.11200 34.44400 24.07400
C  49.40400 33.73900 22.81700
C  48.87600 32.26500 23.03100
C  48.23200 32.43900 24.39500
C  48.93200 34.44800 21.53000
C  49.92900 31.06400 23.10800
C  50.62900 30.63400 21.74700
N  47.45100 32.43100 27.25300
C  47.12100 31.35900 26.40000
C  46.44300 30.33400 27.16000
C  46.25500 30.92400 28.43200
C  46.92300 32.17400 28.41400
C  45.95600 29.02000 26.71900
C  45.81700 30.60000 29.78000
O  45.40900 29.55800 30.31900
C  45.97800 31.90100 30.55900
C  46.45700 31.50700 31.94600
O  47.49700 31.10800 32.30100
O  45.27100 31.48700 32.71600
C  45.35900 31.04700 34.10200
H  48.46900 38.20400 29.22700
H  50.32100 35.97800 23.53500
H  47.53600 30.44300 24.56300
H  46.01600 34.64400 31.70400
H  47.75900 36.93400 31.55300
H  45.40400 37.44300 29.73000
H  45.73900 38.13000 31.35700
H  45.04200 36.59000 31.25800
H  48.73600 35.40200 32.42800
H  48.62200 33.68400 31.98800
H  48.40800 34.38700 34.42200
H  47.22000 33.34900 33.73200
H  49.76000 40.27900 27.11200
H  51.38000 39.60900 27.28900
H  50.09700 39.36000 28.63700
H  50.92400 40.65900 25.04200
H  52.18500 40.16900 23.93400
H  52.41500 39.70200 25.57900
H  50.48200 33.59400 22.74500
H  48.08300 31.90200 22.37700
H  47.95000 33.99700 21.38500
H  49.64600 34.38900 20.70900
H  48.71600 35.50300 21.69600
H  49.41900 30.13900 23.37800
H  50.67000 31.36100 23.84900
H  50.77200 29.56400 21.59300
H  51.60500 31.11500 21.80600
H  50.09900 31.00400 20.86900
H  46.28000 28.68500 25.73300
H  44.87000 29.03300 26.81700
H  46.38000 28.39800 27.50700
H  44.97200 32.31700 30.61300
H  46.25600 30.46000 34.30100
H  44.51700 30.38400 34.30100
H  45.24000 31.80600 34.87500

