158

Mg 16.52100 -1.52800 28.19100
C  15.19900 0.56200 30.78300
C  18.29400 -3.21600 30.48200
C  17.96100 -3.43200 25.72000
C  14.89700 0.46900 25.86000
N  16.81300 -1.26900 30.25300
C  16.17700 -0.38800 31.18900
C  16.44600 -0.81500 32.64600
C  17.56900 -1.86800 32.52400
C  17.59000 -2.10100 30.98700
C  19.08300 -1.63600 32.95800
C  15.08200 -1.22900 33.28000
C  14.72500 -0.77800 34.69200
H  15.70600 0.04000 35.49700
N  17.77800 -3.17900 28.16400
C  18.42200 -3.72300 29.14600
C  19.23200 -4.89200 28.77600
C  19.03800 -5.06700 27.36300
C  18.22700 -3.80000 27.02000
C  20.01800 -5.72900 29.79300
C  19.67100 -6.01200 26.37600
O  19.57000 -5.87600 25.14900
C  20.50300 -7.20900 26.93100
N  16.40100 -1.44100 26.12100
C  17.05800 -2.37100 25.31600
C  16.71900 -2.10200 23.80900
C  15.65400 -0.93400 23.92800
C  15.63600 -0.61100 25.39300
C  17.96000 -1.83100 23.04100
C  14.28700 -1.51400 23.34500
C  14.20300 -1.52700 21.80500
N  15.37500 0.27100 28.25300
C  14.78900 0.90800 27.23800
C  13.96600 1.98700 27.75200
C  14.02200 1.86400 29.15100
C  14.97900 0.84400 29.44000
C  13.10000 2.76000 26.87700
C  13.65900 2.42500 30.38500
O  13.03600 3.41400 30.65500
C  14.36000 1.56700 31.49300
C  15.22700 2.54700 32.27700
O  16.41200 2.81200 32.00000
O  14.46400 3.03200 33.28700
C  14.96400 4.14300 34.12100
H  18.91200 -3.67100 31.25900
H  18.36000 -3.97500 24.86100
H  14.23900 1.01200 25.17900
H  16.86600 0.05100 33.15800
H  17.31300 -2.75900 33.09800
H  19.08000 -0.85500 33.71900
H  19.67700 -1.43200 32.06700
H  19.45200 -2.55600 33.41100
H  15.07800 -2.31700 33.35400
H  14.20600 -1.01000 32.67100
H  14.34400 -1.62000 35.27100
H  13.83800 -0.17000 34.51100
H  20.01000 -6.81100 29.66200
H  19.76900 -5.61500 30.84800
H  21.01800 -5.30900 29.69100
H  21.03900 -7.74700 26.14900
H  19.76500 -7.85500 27.40700
H  21.19300 -6.86000 27.69800
H  16.29300 -3.05500 23.49600
H  15.97300 -0.08800 23.31900
H  17.88200 -0.97100 22.37500
H  18.24800 -2.66900 22.40700
H  18.78500 -1.61900 23.72100
H  13.35800 -1.04500 23.66600
H  14.09400 -2.54400 23.64700
H  13.22000 -1.13700 21.54000
H  14.27100 -2.57400 21.51100
H  15.04900 -0.98900 21.37900
H  12.52500 2.10900 26.21900
H  13.76600 3.30200 26.20600
H  12.41300 3.43900 27.38200
H  13.65700 1.09900 32.18100
H  15.00100 3.85000 35.17000
H  14.30500 5.00500 34.01900
H  15.89500 4.60300 33.78800
Mg 40.01200 9.71700 30.22200
C  41.69100 11.16000 33.04300
C  37.62600 8.50500 32.27900
C  38.47900 8.50300 27.53700
C  42.75900 10.63600 28.28400
N  39.73800 9.85300 32.44400
C  40.36000 10.61900 33.34000
C  39.89500 10.40100 34.81000
C  38.72200 9.36300 34.53300
C  38.65300 9.15600 33.02500
C  38.77600 8.03000 35.35200
C  39.53000 11.75300 35.63400
C  40.51100 12.19100 36.68800
H  40.02500 12.58500 38.07500
N  38.26900 8.68400 29.93100
C  37.43400 8.25600 30.93700
C  36.26300 7.63800 30.36700
C  36.48500 7.60000 28.98300
C  37.79300 8.22200 28.72700
C  35.20100 7.00200 31.26600
C  35.65500 7.07300 27.86700
O  36.03700 7.20300 26.67600
C  34.34700 6.33500 28.11200
N  40.57200 9.50700 28.21200
C  39.66400 9.09900 27.29500
C  40.10200 9.39000 25.89500
C  41.55400 10.01200 26.12200
C  41.68800 10.05500 27.64800
C  40.11100 8.07700 25.02500
C  41.90900 11.41800 25.47400
C  41.25300 12.69200 26.07900
N  41.88700 10.64200 30.50900
C  42.87900 10.90600 29.66700
C  43.97400 11.54800 30.32600
C  43.53100 11.64600 31.66200
C  42.26800 11.07700 31.71900
C  45.16800 12.30000 29.62000
C  43.93000 12.19200 32.94600
O  44.91000 12.82500 33.27200
C  42.80000 11.70800 33.93400
C  43.39600 10.69300 34.80000
O  43.75800 9.57900 34.47900
O  43.86000 11.47700 35.92000
C  44.96800 10.92200 36.63100
H  36.94600 8.01500 32.97900
H  38.01600 8.22400 26.58800
H  43.52000 10.98800 27.58500
H  40.66400 9.88000 35.38200
H  37.77000 9.80800 34.82400
H  39.75800 7.95500 35.81800
H  38.73300 7.17100 34.68200
H  38.04600 7.77500 36.12000
H  38.52600 11.69800 36.05500
H  39.38000 12.39600 34.76700
H  41.02900 13.04200 36.24600
H  41.24200 11.39500 36.83500
H  35.05100 5.97600 30.93200
H  34.29800 7.60500 31.16200
H  35.42500 6.74200 32.30000
H  34.08200 5.83800 27.17800
H  33.58100 7.05800 28.38900
H  34.71900 5.57400 28.79800
H  39.37800 10.06300 25.43600
H  42.31400 9.34600 25.71400
H  39.91300 7.30200 25.76600
H  41.09300 7.90500 24.58400
H  39.25300 7.95300 24.36500
H  41.52300 11.21100 24.47600
H  42.98400 11.57200 25.38800
H  40.47600 13.13400 25.45500
H  42.04000 13.43500 26.21800
H  40.83400 12.37900 27.03500
H  44.94200 12.88600 28.72900
H  45.95300 11.72500 29.12900
H  45.61400 12.98800 30.33900
H  42.50000 12.66600 34.35600
H  45.54600 10.20200 36.05200
H  44.54300 10.46300 37.52300
H  45.59700 11.70200 37.05900

