158

Mg 36.52300 49.12700 25.78500
C  36.67700 47.09900 28.74400
C  35.69500 51.71600 27.80100
C  36.07100 50.88300 23.01500
C  36.88900 46.15500 23.94500
N  36.31400 49.37100 28.01400
C  36.44400 48.43800 28.97800
C  36.30300 49.05900 30.29300
C  35.65500 50.49800 30.07100
C  35.85400 50.55800 28.57700
C  34.19100 50.64000 30.46700
C  37.62200 49.16800 31.03600
C  37.57600 49.10500 32.60300
H  36.19400 49.35000 33.25700
N  36.18400 51.11800 25.44600
C  35.87400 51.99500 26.43000
C  35.69900 53.36000 25.75900
C  35.86600 53.09800 24.30500
C  36.03600 51.65000 24.17400
C  35.44600 54.72900 26.48400
C  35.78200 54.06000 23.10800
O  35.80300 53.66900 21.93600
C  35.76100 55.54100 23.35600
N  36.33100 48.56300 23.80700
C  36.17000 49.45800 22.78700
C  36.31300 48.81400 21.35500
C  36.90700 47.42900 21.72300
C  36.61400 47.32800 23.23900
C  34.94000 48.73600 20.72700
C  38.49600 47.29400 21.51600
C  39.02700 47.11300 20.08100
N  36.69700 47.04900 26.14900
C  36.97800 46.00200 25.34000
C  37.28100 44.76300 26.03500
C  37.08200 45.15200 27.39400
C  36.79500 46.52700 27.41200
C  37.61100 43.46300 25.46100
C  37.11000 44.66300 28.73600
O  37.27700 43.51700 29.12700
C  36.92000 45.94100 29.66600
C  35.70000 45.70100 30.54500
O  34.58500 45.53100 30.18200
O  36.08300 45.75500 31.85900
C  35.02700 45.52200 32.83700
H  35.37800 52.63300 28.30300
H  36.10100 51.43800 22.07500
H  37.28200 45.29200 23.40200
H  35.59700 48.51400 30.91900
H  36.11700 51.24600 30.71600
H  33.57800 50.77600 29.57500
H  34.12200 51.54700 31.06700
H  33.94100 49.88200 31.20900
H  38.06600 50.11100 30.71800
H  38.26400 48.36600 30.67200
H  38.27100 49.88500 32.91600
H  37.95200 48.11500 32.86100
H  34.73700 55.31500 25.90100
H  36.34600 55.33900 26.55900
H  34.91500 54.56900 27.42200
H  36.56400 55.64300 24.08600
H  34.75600 55.82600 23.66800
H  36.02600 56.01900 22.41200
H  37.02700 49.34500 20.72400
H  36.29600 46.65400 21.26000
H  34.42200 47.79000 20.88100
H  34.94000 48.98800 19.66600
H  34.37000 49.41900 21.35700
H  38.68500 46.37300 22.06800
H  38.96500 48.19600 21.91100
H  38.22200 47.39100 19.40100
H  39.16800 46.03200 20.08300
H  39.85800 47.77500 19.83800
H  38.61700 43.39900 25.04700
H  36.87000 43.15200 24.72400
H  37.56100 42.70900 26.24600
H  37.78700 46.06500 30.31500
H  34.10500 46.03700 32.56900
H  35.43800 45.79600 33.80800
H  34.64400 44.50100 32.85500
Mg -2.78100 35.05800 26.85000
C  -4.66300 33.04100 29.10800
C  -1.96500 37.14500 29.43400
C  -1.03300 36.61300 24.69500
C  -4.49300 33.30200 24.27300
N  -3.14700 34.99500 28.93100
C  -3.90200 34.14300 29.66700
C  -3.70200 34.43100 31.18000
C  -2.90200 35.78400 31.28900
C  -2.71300 36.01800 29.73300
C  -3.55100 36.91300 32.08600
C  -3.07200 33.11400 31.94700
C  -3.70700 32.64400 33.22900
H  -2.89800 33.06200 34.47200
N  -1.72200 36.75900 27.01800
C  -1.41000 37.48200 28.13600
C  -0.47400 38.51200 27.83800
C  -0.18900 38.31500 26.45100
C  -0.97600 37.25100 25.99100
C  -0.10700 39.51400 28.83900
C  0.65100 39.12900 25.48800
O  0.73200 38.92400 24.25800
C  1.31800 40.38100 26.06600
N  -2.74000 34.87500 24.71100
C  -1.85000 35.69700 24.05400
C  -1.96300 35.43400 22.51400
C  -3.07700 34.34300 22.37600
C  -3.43900 34.15800 23.84300
C  -2.30800 36.78100 21.70900
C  -2.53600 33.05800 21.74500
C  -3.49300 32.32100 20.85700
N  -4.22200 33.42300 26.63200
C  -4.87000 32.85900 25.52900
C  -5.88200 31.85900 25.94200
C  -5.78800 31.89400 27.32900
C  -4.86400 32.87800 27.70700
C  -6.72200 31.07900 25.00900
C  -6.29700 31.34500 28.51600
O  -7.15300 30.50200 28.63700
C  -5.64700 32.05400 29.78000
C  -6.76800 32.69500 30.51800
O  -7.31200 33.72000 30.07100
O  -7.08900 32.16800 31.76000
C  -8.02400 33.03900 32.50100
H  -1.58000 37.68600 30.30000
H  -0.32600 36.96000 23.93900
H  -5.09300 32.76700 23.53500
H  -4.67200 34.70600 31.59500
H  -1.93700 35.69600 31.78800
H  -4.57600 36.58900 32.26500
H  -3.60400 37.89200 31.61000
H  -3.04300 37.12800 33.02600
H  -2.05300 33.47300 32.09200
H  -3.05500 32.22700 31.31300
H  -3.81400 31.56100 33.29600
H  -4.72100 33.03600 33.30500
H  0.97400 39.65100 28.86800
H  -0.35800 39.33800 29.88500
H  -0.65000 40.41600 28.55800
H  0.51500 41.09800 26.23800
H  1.94300 40.78200 25.26800
H  1.92400 40.13600 26.93800
H  -1.01800 34.98400 22.21100
H  -3.96500 34.62500 21.80900
H  -1.76800 36.82500 20.76300
H  -2.06100 37.61400 22.36700
H  -3.38900 36.84200 21.58700
H  -2.27200 32.40400 22.57500
H  -1.61700 33.13500 21.16400
H  -3.08100 31.48300 20.29500
H  -3.89200 33.02800 20.13000
H  -4.33500 31.92800 21.42800
H  -6.07800 30.70100 24.21500
H  -7.49600 31.69300 24.54800
H  -7.24600 30.33100 25.60300
H  -5.25100 31.18800 30.31100
H  -7.91700 32.94100 33.58200
H  -8.99600 32.60000 32.27700
H  -7.93500 34.11300 32.33400

