158

Mg 53.68100 22.59700 45.12400
C  51.49400 25.12400 43.98800
C  51.52500 20.32200 43.52700
C  56.03500 20.28600 45.53000
C  55.85700 25.06100 46.15900
N  51.76900 22.68600 44.06300
C  51.15500 23.84000 43.63600
C  49.95800 23.54200 42.76900
C  49.61700 22.07700 43.22300
C  51.03400 21.60500 43.61000
C  48.61700 21.99900 44.41400
C  50.23700 23.65800 41.23900
C  49.04900 24.15100 40.38800
H  48.49700 23.14100 39.32600
N  53.87600 20.69200 44.42600
C  52.85600 19.94400 43.93400
C  53.29300 18.52100 43.87600
C  54.60500 18.48800 44.41800
C  54.92000 19.84800 44.78800
C  52.36700 17.44500 43.35000
C  55.49900 17.21900 44.53200
O  55.01300 16.09400 44.24000
C  56.96700 17.39700 44.62400
N  55.76400 22.71200 45.72000
C  56.51400 21.56300 45.85400
C  57.84800 21.86800 46.41400
C  57.73800 23.34400 46.80000
C  56.41700 23.77500 46.11000
C  58.32100 20.95400 47.69200
C  58.91900 24.26200 46.25900
C  59.71000 25.13100 47.24700
N  53.70600 24.68100 45.18700
C  54.62000 25.51100 45.66900
C  54.22700 26.86800 45.73900
C  52.97500 26.80800 45.01400
C  52.71800 25.48000 44.67300
C  54.87900 28.08400 46.33400
C  51.82400 27.56800 44.57700
O  51.61300 28.78100 44.71100
C  50.83000 26.53600 43.84100
C  50.39500 26.90800 42.44800
O  51.17900 27.06600 41.54600
O  49.00100 27.00200 42.41200
C  48.59400 27.38100 41.04900
H  50.71000 19.71900 43.12100
H  56.71100 19.48500 45.83600
H  56.65900 25.74000 46.45600
H  49.13000 24.18600 43.06500
H  49.15600 21.46100 42.45100
H  47.76300 21.39800 44.10200
H  48.14900 22.96000 44.62700
H  49.01300 21.64800 45.36600
H  50.45900 22.64700 40.89700
H  51.09100 24.30300 41.03400
H  49.44600 24.98700 39.81300
H  48.23000 24.48300 41.02700
H  52.55400 16.38400 43.51400
H  52.37700 17.52000 42.26200
H  51.32700 17.68900 43.56900
H  57.39600 18.25100 44.09900
H  57.47200 16.53500 44.18800
H  57.18900 17.48700 45.68700
H  58.48600 21.71400 45.54400
H  57.57200 23.46000 47.87100
H  59.01900 20.20500 47.31700
H  57.41500 20.52100 48.11400
H  58.78500 21.57600 48.45800
H  58.68400 24.96300 45.45800
H  59.72300 23.59300 45.95300
H  60.79300 25.25700 47.21400
H  59.48200 24.75000 48.24300
H  59.42400 26.18200 47.23100
H  55.80300 27.86300 46.86800
H  54.18900 28.56000 47.03100
H  55.07000 28.81000 45.54400
H  49.93800 26.56600 44.46700
H  49.18800 26.91600 40.26300
H  48.51800 28.46900 41.02800
H  47.64200 26.86600 40.92200
Mg 15.92500 51.21800 25.60700
C  17.57600 50.12500 28.52800
C  13.33400 52.43400 27.53500
C  14.37100 51.89300 22.84100
C  18.63000 49.72700 23.67600
N  15.58600 51.33700 27.83000
C  16.38400 50.83400 28.80200
C  15.80200 51.20700 30.18700
C  14.35400 51.79300 29.82700
C  14.36700 51.81600 28.27600
C  13.24000 50.80500 30.33000
C  16.69600 52.18700 30.92800
C  16.86200 52.05600 32.50800
H  15.98900 51.17900 33.43400
N  14.14500 52.13200 25.26100
C  13.21400 52.63400 26.13400
C  12.13200 53.23800 25.43400
C  12.53500 53.25000 24.03400
C  13.72000 52.35700 24.00700
C  10.93000 53.83200 26.13900
C  11.91000 53.90300 22.85900
O  12.43600 53.77400 21.74200
C  10.85400 54.73800 23.07400
N  16.46800 50.85300 23.56400
C  15.52000 51.11700 22.66400
C  15.93900 50.74900 21.26000
C  17.34400 50.14300 21.45800
C  17.53700 50.28600 22.99200
C  14.89400 49.83900 20.47200
C  18.58300 50.61200 20.64100
C  19.40800 49.50400 19.95200
N  17.67400 50.05500 25.95900
C  18.69500 49.52300 25.06500
C  19.79600 49.05700 25.89100
C  19.38500 49.24500 27.25300
C  18.11200 49.88100 27.25900
C  21.07400 48.42200 25.39500
C  19.74700 48.97100 28.59300
O  20.74100 48.41000 29.05200
C  18.63600 49.60900 29.53100
C  18.13600 48.44300 30.35300
O  17.31400 47.58000 30.05100
O  18.88100 48.42600 31.50800
C  18.52800 47.22800 32.33800
H  12.59400 52.88000 28.20200
H  13.89900 51.98100 21.86000
H  19.48200 49.25300 23.18300
H  15.79200 50.29200 30.77900
H  14.23100 52.80100 30.22300
H  13.54800 50.15100 31.14600
H  12.85000 50.21200 29.50300
H  12.35700 51.37600 30.61900
H  16.43400 53.23300 30.76800
H  17.71700 52.04800 30.57300
H  16.93500 53.06500 32.91300
H  17.90300 51.73900 32.57300
H  10.65200 53.27000 27.03000
H  10.05100 53.85300 25.49500
H  11.21900 54.83300 26.46000
H  10.00500 54.07900 23.25500
H  10.49000 55.31200 22.22200
H  11.14200 55.34300 23.93400
H  16.01400 51.68300 20.70400
H  17.35700 49.05400 21.48000
H  14.90600 48.75000 20.53100
H  14.95300 50.12200 19.42100
H  13.84800 50.01400 20.72500
H  19.28600 51.16500 21.26400
H  18.18300 51.28500 19.88200
H  20.30000 49.41100 20.57000
H  19.61800 49.90000 18.95800
H  18.92600 48.52700 19.91400
H  21.00600 47.33700 25.32300
H  21.82600 48.39900 26.18300
H  21.59200 48.75600 24.49700
H  19.16700 50.38800 30.07900
H  17.49300 47.17500 32.67600
H  19.27600 47.31500 33.12600
H  18.78400 46.30100 31.82500

