158

Mg 7.58700 2.55600 27.08700
C  8.86800 1.20800 30.01700
C  5.47800 4.51000 28.99700
C  6.07300 3.63100 24.21300
C  8.97200 -0.13200 25.34600
N  7.06300 2.70900 29.28700
C  7.88300 2.16700 30.24800
C  7.48200 2.76900 31.60800
C  6.22800 3.71000 31.30700
C  6.28300 3.67000 29.77800
C  4.89000 3.06300 31.69700
C  8.64800 3.52400 32.23500
C  8.38500 3.96100 33.67200
H  9.41200 3.58000 34.79100
N  6.05900 3.93700 26.62400
C  5.30300 4.55700 27.55400
C  4.33300 5.44900 26.87900
C  4.61700 5.38200 25.52100
C  5.61700 4.26200 25.38900
C  3.39600 6.35300 27.63000
C  4.18400 6.21200 24.36500
O  4.43100 5.96500 23.19600
C  3.20400 7.37000 24.63900
N  7.46300 1.86300 25.13500
C  6.92000 2.57100 24.14600
C  7.10200 1.86300 22.83800
C  8.22900 0.72500 23.09700
C  8.17800 0.80800 24.64500
C  5.89200 1.32200 22.03400
C  9.59600 1.16500 22.44600
C  10.46400 2.09000 23.27700
N  8.68300 0.86900 27.48800
C  9.23900 -0.05000 26.71900
C  10.26900 -0.75500 27.43300
C  10.08000 -0.27500 28.75100
C  9.13200 0.71000 28.71800
C  11.24900 -1.77500 26.99600
C  10.51800 -0.54400 30.07600
O  11.30000 -1.37300 30.51700
C  9.82100 0.46400 30.95100
C  9.19000 -0.08400 32.14800
O  8.21700 -0.82200 32.25300
O  9.97800 0.26200 33.23800
C  9.43300 -0.06400 34.56800
H  4.96900 5.29100 29.56500
H  5.74100 3.94200 23.22100
H  9.50300 -0.92000 24.80800
H  7.26400 1.95700 32.30100
H  6.55500 4.65800 31.73500
H  4.44800 3.57400 32.55200
H  4.96200 1.99200 31.89200
H  4.14300 2.94400 30.91200
H  8.68900 4.50600 31.76400
H  9.57100 2.94600 32.17500
H  7.38500 3.68700 34.00800
H  8.42200 5.04800 33.74500
H  3.91800 7.30400 27.73700
H  3.31000 5.95600 28.64100
H  2.48300 6.43500 27.04000
H  2.22800 6.93300 24.84800
H  3.25900 8.02400 23.76900
H  3.52500 7.95300 25.50200
H  7.63700 2.52500 22.15600
H  7.89300 -0.25800 22.76400
H  5.06800 1.23700 22.74300
H  5.98200 0.33500 21.58000
H  5.75400 2.11600 21.30000
H  9.38300 1.64400 21.49000
H  10.03000 0.18600 22.24400
H  10.08800 2.23500 24.29000
H  10.57900 3.13400 22.98500
H  11.44100 1.61000 23.33600
H  11.08700 -1.76200 25.91800
H  10.88800 -2.73800 27.35700
H  12.30100 -1.53400 27.15200
H  10.47800 1.26400 31.29100
H  9.35300 -1.14600 34.67800
H  8.41100 0.30000 34.66700
H  10.05300 0.26000 35.40400
Mg 49.80000 47.05300 43.52100
C  46.48800 47.41800 42.53300
C  49.84700 43.95900 42.07800
C  53.09000 46.92000 44.15500
C  49.90800 50.55700 44.25100
N  48.32500 45.75800 42.46900
C  47.09900 46.20600 42.09100
C  46.32200 45.02000 41.40500
C  47.39500 43.83900 41.44100
C  48.61000 44.51800 42.03600
C  47.04000 42.63300 42.34900
C  45.83700 45.45700 39.94500
C  44.30500 45.33600 39.85000
H  43.67400 44.74700 38.60200
N  51.31500 45.59200 43.19000
C  51.15900 44.40700 42.61100
C  52.40100 43.75600 42.58400
C  53.35800 44.58200 43.16400
C  52.60500 45.75900 43.54200
C  52.46100 42.28300 42.07800
C  54.80900 44.22000 43.29200
O  55.21300 43.16400 42.86900
C  55.78200 45.19300 43.82300
N  51.26400 48.51700 44.09800
C  52.51400 48.18800 44.34200
C  53.28100 49.38900 44.92400
C  52.33100 50.54000 44.68200
C  51.08400 49.87500 44.28700
C  53.70700 49.04500 46.42000
C  52.74500 51.51000 43.56000
C  53.65600 52.71200 43.91400
N  48.48200 48.70900 43.51600
C  48.63800 49.99300 43.82000
C  47.41600 50.62800 43.77600
C  46.48300 49.66600 43.34200
C  47.23000 48.48100 43.10100
C  47.11900 52.08200 44.05400
C  45.06200 49.34700 43.08900
O  44.03200 50.06600 43.12600
C  45.03800 47.85600 42.54800
C  44.19300 46.98600 43.34700
O  44.52300 46.34500 44.34600
O  42.89300 47.09100 42.92100
C  41.99900 46.11800 43.47900
H  49.94500 43.00100 41.56400
H  54.06900 46.80500 44.62500
H  49.99200 51.62700 44.45300
H  45.46800 44.75100 42.02700
H  47.66700 43.48900 40.44500
H  46.24600 42.97200 43.01500
H  47.94500 42.32300 42.87200
H  46.63300 41.90200 41.65000
H  46.24900 44.86400 39.12900
H  46.11000 46.47200 39.65800
H  43.80000 46.29700 39.94700
H  43.93200 44.61900 40.58100
H  51.53400 41.83300 41.72400
H  52.90300 41.72600 42.90300
H  53.06000 42.30000 41.16700
H  55.84700 46.02700 43.12500
H  56.78400 44.77000 43.90000
H  55.53400 45.52200 44.83200
H  54.13100 49.70700 44.32000
H  52.32100 51.10400 45.61500
H  53.16200 48.17800 46.79500
H  53.48800 49.93200 47.01300
H  54.78900 48.91200 46.42900
H  51.84200 51.85800 43.06000
H  53.28600 50.91400 42.82500
H  53.70100 52.87600 44.99100
H  53.11400 53.55200 43.47800
H  54.67600 52.56700 43.55900
H  46.09500 52.30800 43.75500
H  47.76300 52.61800 43.35600
H  47.24700 52.48100 45.06000
H  44.76900 47.73700 41.49800
H  40.97000 46.32600 43.18400
H  42.01100 46.25400 44.56000
H  42.42500 45.13500 43.28200

