158

Mg 24.85500 1.00900 29.36700
C  26.82300 0.80600 32.12700
C  22.05100 1.41600 31.33400
C  22.87700 1.14400 26.68900
C  27.60900 0.46300 27.40000
N  24.44400 1.06600 31.46900
C  25.44600 0.96000 32.40800
C  24.90300 1.21600 33.78500
C  23.34400 1.19300 33.61300
C  23.26300 1.21300 32.03400
C  22.50200 -0.07000 34.09000
C  25.62500 2.30100 34.59200
C  24.90000 3.06000 35.69600
H  25.71500 3.66200 36.90800
N  22.72600 1.24500 29.01300
C  21.77100 1.36400 29.99500
C  20.44900 1.57900 29.43000
C  20.63500 1.53300 28.00300
C  22.14500 1.29600 27.84100
C  19.15600 1.80100 30.23700
C  19.68100 1.57700 26.86900
O  19.91900 1.40700 25.70900
C  18.26400 1.98300 27.23500
N  25.14000 0.62100 27.33700
C  24.22400 0.83100 26.37800
C  24.78600 0.81400 24.94500
C  26.27700 0.84900 25.22000
C  26.39200 0.65500 26.73300
C  24.21200 -0.43600 24.16000
C  27.11800 2.06400 24.66600
C  27.42300 3.34100 25.47500
N  26.80700 0.58000 29.65000
C  27.85200 0.39200 28.81000
C  29.14800 0.27000 29.49200
C  28.76500 0.40300 30.79800
C  27.35400 0.63000 30.85500
C  30.43200 0.04200 28.75800
C  29.31900 0.45500 32.17500
O  30.45800 0.33300 32.58100
C  28.06800 0.70000 33.07600
C  28.08600 -0.31600 34.14000
O  27.44600 -1.35200 33.97500
O  28.76900 0.05900 35.30900
C  28.68700 -0.99100 36.37300
H  21.27400 1.65100 32.06400
H  22.47200 1.41400 25.71100
H  28.42800 0.32600 26.69100
H  25.16000 0.29800 34.31500
H  23.01400 2.12700 34.06900
H  21.96400 -0.61000 33.31000
H  21.84300 0.31300 34.86900
H  23.07400 -0.85200 34.59000
H  26.18500 2.95900 33.92800
H  26.35900 1.82700 35.24400
H  24.19200 2.36800 36.15200
H  24.38100 3.95800 35.36200
H  18.32600 1.25700 29.78600
H  18.89600 2.85500 30.33100
H  19.24500 1.31700 31.20900
H  17.77300 2.02300 26.26200
H  18.29700 2.93200 27.77100
H  17.77700 1.21800 27.83700
H  24.62000 1.78900 24.48500
H  26.66500 -0.14400 24.99200
H  23.61900 -1.02600 24.85800
H  25.05600 -1.03700 23.82200
H  23.68800 -0.24600 23.22300
H  26.88000 2.27600 23.62300
H  28.13100 1.67300 24.57300
H  28.45700 3.38000 25.81700
H  26.82900 3.35000 26.38900
H  27.23300 4.17000 24.79400
H  30.48500 0.69600 27.88800
H  30.54600 -1.00100 28.46200
H  31.27800 0.31900 29.38700
H  28.27700 1.62600 33.61100
H  28.80200 -2.02600 36.05200
H  27.70100 -0.89500 36.82900
H  29.51100 -0.72800 37.03600
Mg 0.74000 43.03200 25.37700
C  2.80700 43.08700 28.23900
C  -1.79900 41.92400 27.51000
C  -1.19400 41.97300 22.70700
C  3.58000 42.95900 23.45600
N  0.60100 42.50900 27.62800
C  1.51500 42.75600 28.61900
C  0.92600 42.64100 30.02200
C  -0.53300 42.11600 29.75700
C  -0.62200 42.15700 28.18700
C  -0.86300 40.66400 30.25700
C  0.82500 44.08200 30.73000
C  1.27800 43.99800 32.20200
H  0.08200 43.90200 33.20600
N  -1.25600 42.30200 25.16000
C  -2.11700 41.89600 26.12500
C  -3.37300 41.46300 25.51000
C  -3.20600 41.50400 24.14200
C  -1.86400 42.02900 23.89500
C  -4.57600 41.02700 26.37700
C  -4.19300 41.08900 23.02000
O  -3.98800 41.16900 21.79700
C  -5.54400 40.56000 23.41000
N  1.07400 42.63700 23.40800
C  0.15900 42.24900 22.47600
C  0.80700 42.07900 21.05400
C  2.25900 42.67600 21.23400
C  2.34600 42.72000 22.79700
C  0.84500 40.61200 20.50700
C  2.69200 43.95700 20.46100
C  2.45400 45.28600 21.24600
N  2.75900 43.16100 25.72700
C  3.82700 43.17600 24.86100
C  5.10300 43.39600 25.55000
C  4.72700 43.34200 26.89500
C  3.29600 43.23800 26.93700
C  6.46200 43.37000 24.91600
C  5.25600 43.20100 28.19600
O  6.43100 43.01000 28.65100
C  4.04900 43.22200 29.12100
C  4.15900 42.08700 30.02600
O  3.88700 40.88600 29.85900
O  4.60200 42.52600 31.33000
C  4.73600 41.47800 32.44100
H  -2.58700 41.49000 28.12900
H  -1.66000 41.63600 21.77900
H  4.46000 43.05600 22.81700
H  1.55500 41.92500 30.55100
H  -1.29300 42.76500 30.19200
H  -1.15000 39.95800 29.47800
H  -1.74200 40.72100 30.90000
H  -0.01100 40.19800 30.75200
H  -0.18800 44.44400 30.90500
H  1.43000 44.76100 30.12800
H  1.84300 44.89700 32.45000
H  1.99500 43.19900 32.39200
H  -5.06100 41.88700 26.83900
H  -4.32600 40.39000 27.22600
H  -5.24700 40.38800 25.80400
H  -5.34200 39.56700 23.81000
H  -6.23000 40.70000 22.57500
H  -5.90100 41.27500 24.15100
H  0.38500 42.72700 20.28500
H  2.95400 41.92800 20.85400
H  0.16100 40.04200 21.13500
H  1.79900 40.09800 20.62200
H  0.61900 40.56900 19.44100
H  2.13000 43.96900 19.52700
H  3.72100 43.89000 20.11000
H  2.53600 46.14100 20.57500
H  3.25500 45.36900 21.98000
H  1.51800 45.24900 21.80400
H  6.49100 42.95100 23.91000
H  7.03600 42.77600 25.62800
H  6.91000 44.35900 24.82600
H  4.03000 44.17300 29.65300
H  5.57300 40.80700 32.24500
H  3.83100 40.87600 32.35700
H  4.85100 41.98400 33.39900

