158

Mg 40.01200 9.71700 30.22200
C  41.69100 11.16000 33.04300
C  37.62600 8.50500 32.27900
C  38.47900 8.50300 27.53700
C  42.75900 10.63600 28.28400
N  39.73800 9.85300 32.44400
C  40.36000 10.61900 33.34000
C  39.89500 10.40100 34.81000
C  38.72200 9.36300 34.53300
C  38.65300 9.15600 33.02500
C  38.77600 8.03000 35.35200
C  39.53000 11.75300 35.63400
C  40.51100 12.19100 36.68800
H  40.02500 12.58500 38.07500
N  38.26900 8.68400 29.93100
C  37.43400 8.25600 30.93700
C  36.26300 7.63800 30.36700
C  36.48500 7.60000 28.98300
C  37.79300 8.22200 28.72700
C  35.20100 7.00200 31.26600
C  35.65500 7.07300 27.86700
O  36.03700 7.20300 26.67600
C  34.34700 6.33500 28.11200
N  40.57200 9.50700 28.21200
C  39.66400 9.09900 27.29500
C  40.10200 9.39000 25.89500
C  41.55400 10.01200 26.12200
C  41.68800 10.05500 27.64800
C  40.11100 8.07700 25.02500
C  41.90900 11.41800 25.47400
C  41.25300 12.69200 26.07900
N  41.88700 10.64200 30.50900
C  42.87900 10.90600 29.66700
C  43.97400 11.54800 30.32600
C  43.53100 11.64600 31.66200
C  42.26800 11.07700 31.71900
C  45.16800 12.30000 29.62000
C  43.93000 12.19200 32.94600
O  44.91000 12.82500 33.27200
C  42.80000 11.70800 33.93400
C  43.39600 10.69300 34.80000
O  43.75800 9.57900 34.47900
O  43.86000 11.47700 35.92000
C  44.96800 10.92200 36.63100
H  36.94600 8.01500 32.97900
H  38.01600 8.22400 26.58800
H  43.52000 10.98800 27.58500
H  40.66400 9.88000 35.38200
H  37.77000 9.80800 34.82400
H  39.75800 7.95500 35.81800
H  38.73300 7.17100 34.68200
H  38.04600 7.77500 36.12000
H  38.52600 11.69800 36.05500
H  39.38000 12.39600 34.76700
H  41.02900 13.04200 36.24600
H  41.24200 11.39500 36.83500
H  35.05100 5.97600 30.93200
H  34.29800 7.60500 31.16200
H  35.42500 6.74200 32.30000
H  34.08200 5.83800 27.17800
H  33.58100 7.05800 28.38900
H  34.71900 5.57400 28.79800
H  39.37800 10.06300 25.43600
H  42.31400 9.34600 25.71400
H  39.91300 7.30200 25.76600
H  41.09300 7.90500 24.58400
H  39.25300 7.95300 24.36500
H  41.52300 11.21100 24.47600
H  42.98400 11.57200 25.38800
H  40.47600 13.13400 25.45500
H  42.04000 13.43500 26.21800
H  40.83400 12.37900 27.03500
H  44.94200 12.88600 28.72900
H  45.95300 11.72500 29.12900
H  45.61400 12.98800 30.33900
H  42.50000 12.66600 34.35600
H  45.54600 10.20200 36.05200
H  44.54300 10.46300 37.52300
H  45.59700 11.70200 37.05900
Mg 30.73800 58.62800 40.42800
C  27.89500 56.75400 39.21200
C  32.80700 56.09300 39.19400
C  33.24200 60.65800 40.75800
C  28.31900 61.28700 40.92800
N  30.31200 56.66900 39.18500
C  29.10900 56.13700 38.92900
C  29.34000 54.75700 38.28900
C  30.86400 54.38800 38.58200
C  31.42600 55.77400 38.99500
C  31.03700 53.25700 39.63600
C  28.91200 54.87300 36.72300
C  28.04900 53.73900 36.19800
H  27.11400 54.07600 35.04900
N  32.74700 58.36600 40.09300
C  33.46200 57.32200 39.57100
C  34.83100 57.59500 39.55400
C  35.06600 58.96700 39.80500
C  33.66800 59.45100 40.24500
C  35.85000 56.55600 39.26300
C  36.36600 59.82900 39.66800
O  37.40600 59.33800 39.25400
C  36.37800 61.18900 40.29800
N  30.77400 60.72200 40.83500
C  32.01500 61.31000 40.91300
C  31.88000 62.83300 41.16200
C  30.32400 62.94200 41.42500
C  29.71700 61.59100 41.02900
C  32.77500 63.42700 42.30500
C  29.67100 64.12800 40.65100
C  28.51200 64.82700 41.30900
N  28.55500 59.00900 40.25000
C  27.75600 60.07500 40.50600
C  26.35800 59.76700 40.19700
C  26.37400 58.46600 39.77200
C  27.73100 58.06200 39.72800
C  25.28100 60.81300 40.24100
C  25.52400 57.38700 39.27100
O  24.29700 57.23900 39.12200
C  26.51200 56.18300 38.90800
C  26.22600 55.03900 39.76100
O  26.60300 55.06000 40.98500
O  25.54500 54.06100 39.09800
C  24.97000 52.93800 39.86400
H  33.53000 55.34400 38.86400
H  33.93200 61.48200 40.95000
H  27.55700 62.00400 41.24000
H  28.61500 54.08800 38.75200
H  31.35700 54.10500 37.65200
H  30.41600 52.39000 39.41300
H  30.93000 53.70000 40.62700
H  32.03100 52.81700 39.55200
H  29.84000 54.90300 36.15100
H  28.41700 55.81500 36.48600
H  27.34300 53.32500 36.91800
H  28.63600 52.88900 35.84900
H  35.52700 56.13700 38.30900
H  35.77500 55.80200 40.04600
H  36.79800 57.07200 39.11000
H  35.97100 61.12600 41.30700
H  35.87300 61.94800 39.70000
H  37.43900 61.43900 40.31200
H  32.23300 63.23500 40.21300
H  30.10600 63.16000 42.47000
H  33.42800 62.59800 42.58000
H  32.16800 63.71200 43.16400
H  33.35500 64.25200 41.89300
H  29.37000 63.77000 39.66600
H  30.42200 64.87200 40.38400
H  27.63300 64.61200 40.70100
H  28.63600 65.90900 41.32600
H  28.41400 64.47100 42.33400
H  24.36200 60.27100 40.01700
H  25.48600 61.61500 39.53200
H  25.33300 61.26900 41.22900
H  26.38600 56.04400 37.83400
H  24.71300 53.28200 40.86600
H  25.71100 52.13900 39.82000
H  23.98700 52.62900 39.50700

