158

Mg 25.86700 0.67300 29.15500
C  27.95100 0.37300 32.07600
C  23.17900 1.35100 31.19100
C  24.10500 0.59400 26.50100
C  28.66900 -0.73600 27.32400
N  25.60500 0.73700 31.45400
C  26.62700 0.64500 32.41800
C  25.95800 0.84500 33.79500
C  24.47900 1.28100 33.46400
C  24.36600 1.09300 31.99700
C  23.39900 0.22300 34.12800
C  26.70900 1.91000 34.66300
C  26.93400 1.48700 36.08500
H  26.47100 2.47600 37.16700
N  23.90000 1.02900 28.89600
C  22.94400 1.24700 29.78300
C  21.75400 1.45300 29.15700
C  21.92800 1.18900 27.76400
C  23.38300 0.90900 27.65900
C  20.44200 1.72200 29.88100
C  20.81300 1.08100 26.67400
O  21.00500 0.53500 25.57600
C  19.39600 1.57400 26.93400
N  26.37800 -0.00800 27.21400
C  25.40100 0.18400 26.27600
C  25.92000 -0.14800 24.82500
C  27.36400 -0.62100 25.07500
C  27.52200 -0.47700 26.57500
C  25.04600 -1.05900 23.94200
C  28.35400 0.15900 24.20700
C  28.84700 1.48100 24.76500
N  27.85800 -0.05100 29.57700
C  28.81200 -0.56900 28.73200
C  30.10800 -0.67700 29.42100
C  29.77600 -0.35100 30.76800
C  28.41500 0.05800 30.78200
C  31.45400 -1.25900 28.95000
C  30.32900 -0.33600 32.13400
O  31.40400 -0.58400 32.61300
C  29.17700 0.14700 32.97600
C  28.84400 -0.87400 33.93100
O  28.13400 -1.80700 33.68600
O  29.38400 -0.61700 35.16500
C  28.92000 -1.53800 36.21100
H  22.28300 1.60100 31.76200
H  23.47400 0.76500 25.62600
H  29.54700 -0.91600 26.70000
H  25.98300 -0.09900 34.33900
H  24.22000 2.32500 33.63900
H  23.60500 -0.80600 33.83400
H  22.35200 0.41500 33.89200
H  23.45300 0.20100 35.21600
H  26.09100 2.80100 34.77200
H  27.63800 2.22000 34.18500
H  28.00600 1.56100 36.27100
H  26.68000 0.46500 36.36800
H  19.59100 1.33300 29.32200
H  20.28700 2.78900 30.04500
H  20.54300 1.22100 30.84400
H  18.84400 0.76900 27.42000
H  18.94300 1.86000 25.98500
H  19.41200 2.47400 27.54800
H  25.75200 0.83900 24.39400
H  27.36800 -1.70400 24.95100
H  24.08700 -1.37600 24.35100
H  25.62300 -1.88400 23.52500
H  24.77800 -0.38200 23.13100
H  27.77900 0.31400 23.29400
H  29.23600 -0.36700 23.84100
H  28.34600 1.72400 25.70300
H  28.68000 2.26600 24.02700
H  29.92200 1.45200 24.93900
H  32.29300 -0.72200 29.39300
H  31.60200 -0.98100 27.90600
H  31.42600 -2.33200 29.14200
H  29.48600 1.04400 33.51200
H  29.72000 -1.54900 36.95100
H  28.83100 -2.59000 35.93900
H  28.01700 -1.20300 36.72000
Mg -2.05800 34.46700 26.99900
C  -3.66500 32.67400 29.45900
C  -0.50300 36.39200 29.45100
C  -0.75000 36.49300 24.57200
C  -3.61200 32.57200 24.59200
N  -2.04400 34.43700 29.27900
C  -2.75900 33.61600 30.02300
C  -2.31200 33.72400 31.49400
C  -1.41900 35.01000 31.45400
C  -1.30500 35.30300 29.97600
C  -2.06600 36.05300 32.30200
C  -1.63100 32.49600 32.11300
C  -1.98700 32.10900 33.56900
H  -0.90200 32.31300 34.61700
N  -0.85000 36.24400 27.06800
C  -0.26400 36.85000 28.12800
C  0.51600 38.00000 27.68700
C  0.36900 38.08800 26.28700
C  -0.40000 36.86800 25.87800
C  1.23000 39.03000 28.62900
C  0.88700 39.11800 25.32500
O  0.42800 39.17400 24.20400
C  2.05100 39.90800 25.77000
N  -2.20900 34.59500 24.85600
C  -1.52700 35.41700 24.06800
C  -1.72100 35.05100 22.60000
C  -2.21600 33.61500 22.71500
C  -2.75400 33.58200 24.16400
C  -2.79600 35.98200 21.86500
C  -1.17700 32.43200 22.47300
C  0.32000 32.73400 22.51000
N  -3.30400 32.91100 26.92800
C  -3.96500 32.29600 25.92000
C  -4.88000 31.29700 26.42400
C  -4.72100 31.35000 27.76900
C  -3.88000 32.37300 28.04300
C  -5.73300 30.47900 25.54300
C  -5.12400 30.76500 29.04900
O  -5.90200 29.84400 29.22600
C  -4.41500 31.59400 30.20400
C  -5.50300 32.18600 31.00300
O  -6.20400 33.13600 30.71300
O  -5.60400 31.38900 32.15400
C  -6.42800 31.86700 33.16500
H  -0.07900 36.89000 30.32600
H  -0.32100 37.06800 23.74800
H  -4.03800 31.92200 23.82600
H  -3.24100 33.89200 32.03900
H  -0.49100 34.66700 31.91100
H  -3.02100 36.33600 31.85900
H  -1.41500 36.91400 32.45000
H  -2.22300 35.54500 33.25300
H  -0.55900 32.69200 32.12400
H  -1.92800 31.63300 31.51700
H  -2.05600 31.02400 33.49300
H  -2.99100 32.34200 33.92400
H  0.95200 40.04600 28.34800
H  2.31600 38.95500 28.68300
H  0.91800 38.78800 29.64500
H  1.74300 40.70100 26.45200
H  2.59300 40.28800 24.90500
H  2.57800 39.18700 26.39600
H  -0.81600 35.11100 21.99500
H  -3.07800 33.50700 22.05700
H  -2.78900 36.85600 22.51600
H  -3.76700 35.48800 21.86400
H  -2.40400 36.22400 20.87600
H  -1.36000 32.04100 21.47200
H  -1.20500 31.55300 23.11600
H  0.87500 32.81800 21.57600
H  0.82700 31.90600 23.00600
H  0.41500 33.57600 23.19500
H  -5.86500 31.00700 24.59900
H  -6.62900 30.37400 26.15500
H  -5.30100 29.48700 25.41400
H  -3.83600 30.90900 30.82400
H  -6.07400 32.78000 33.64200
H  -6.33400 31.14900 33.98000
H  -7.44900 32.06000 32.83500

