158

Mg 56.36100 24.13300 44.84100
C  54.35400 26.88800 44.11900
C  53.73500 22.03800 44.33000
C  58.55900 21.54500 45.16000
C  58.93300 26.36600 45.50500
N  54.36800 24.40200 44.02300
C  53.76700 25.64200 43.86900
C  52.32600 25.37700 43.40100
C  52.07700 23.95600 43.90100
C  53.42400 23.38200 44.07000
C  51.21300 23.82500 45.19700
C  52.16300 25.56300 41.84800
C  50.86200 26.06800 41.35000
H  50.34900 25.38400 40.04200
N  56.20300 22.04500 44.61600
C  54.99900 21.37800 44.46100
C  55.24700 19.97400 44.47700
C  56.65200 19.80100 44.64300
C  57.23400 21.17400 44.80000
C  54.12900 18.85900 44.31000
C  57.35100 18.33200 44.57800
O  56.69600 17.35900 44.24100
C  58.85200 18.25000 44.70000
N  58.55400 24.03300 44.95800
C  59.15700 22.83900 45.29600
C  60.55100 23.04900 45.88100
C  60.75800 24.57500 45.94000
C  59.35600 25.08700 45.40700
C  60.72200 22.34000 47.21900
C  61.92100 25.14300 45.12500
C  63.14900 25.63600 45.95700
N  56.71300 26.19600 44.77800
C  57.72400 26.91400 45.23400
C  57.36800 28.34400 45.23900
C  56.02900 28.34100 44.82500
C  55.67900 27.02500 44.54000
C  58.12600 29.56500 45.61600
C  54.86400 29.20100 44.48400
O  54.77200 30.42400 44.57900
C  53.73500 28.25700 43.85900
C  53.76900 28.50300 42.38100
O  54.69800 28.20400 41.58400
O  52.62400 29.12200 41.98300
C  52.47500 29.27700 40.51200
H  52.90100 21.35100 44.16800
H  59.27000 20.72400 45.27300
H  59.74100 27.01200 45.85600
H  51.60300 26.04900 43.86300
H  51.62600 23.37400 43.09700
H  50.38000 23.12800 45.11400
H  50.69100 24.76500 45.37700
H  51.83100 23.64100 46.07600
H  52.12300 24.56900 41.40300
H  52.96300 26.10400 41.34200
H  50.97900 27.14500 41.23400
H  50.03600 25.91200 42.04400
H  54.44800 18.34100 43.40600
H  53.13700 19.30600 44.37600
H  54.20000 18.10800 45.09600
H  59.16100 19.03300 44.00800
H  59.20100 17.31800 44.25600
H  59.23400 18.41600 45.70800
H  61.24600 22.63900 45.14800
H  60.78200 24.95900 46.96000
H  59.77200 21.85900 47.45600
H  60.99100 22.97200 48.06600
H  61.43400 21.51600 47.16200
H  61.65200 26.03300 44.55600
H  62.27500 24.34100 44.47700
H  63.05700 25.32500 46.99700
H  63.10800 26.72500 45.94500
H  64.08000 25.23900 45.55200
H  58.11700 30.13500 44.68700
H  59.13000 29.41200 46.01300
H  57.59100 30.12600 46.38300
H  52.78700 28.44700 44.36200
H  52.85000 28.38400 40.01100
H  53.13600 30.08000 40.18800
H  51.40500 29.34700 40.31500
Mg -0.18600 43.73600 26.76900
C  1.87800 43.56300 29.62300
C  -2.93700 43.00400 28.83500
C  -2.10300 43.44400 24.05600
C  2.62000 44.31200 24.81300
N  -0.41700 43.35600 28.90000
C  0.50400 43.49000 29.86700
C  -0.10200 43.60800 31.24600
C  -1.56600 43.27700 31.00100
C  -1.70000 43.22200 29.48000
C  -2.15000 41.93600 31.69000
C  0.12600 44.92100 32.03100
C  0.38200 44.72000 33.54100
H  -0.18400 43.42700 34.27700
N  -2.24200 43.19700 26.49500
C  -3.21800 43.01500 27.45300
C  -4.54300 42.86400 26.78300
C  -4.29700 42.92000 25.38400
C  -2.85500 43.22200 25.28600
C  -5.88300 42.77500 27.52200
C  -5.26700 42.66900 24.12500
O  -4.85900 42.72700 22.93600
C  -6.69600 42.16900 24.39200
N  0.19900 43.79500 24.75200
C  -0.77400 43.62100 23.82000
C  -0.17100 43.63400 22.42600
C  1.27500 44.08000 22.62300
C  1.39200 44.06300 24.12500
C  -0.40100 42.25900 21.63900
C  1.61500 45.49400 22.08400
C  2.46300 45.54000 20.83000
N  1.79400 43.99500 27.12000
C  2.81700 44.22400 26.19000
C  4.06200 44.25900 26.95100
C  3.76800 44.05500 28.34600
C  2.36000 43.85400 28.29200
C  5.42500 44.29500 26.30100
C  4.21000 43.92000 29.64000
O  5.31600 44.00600 30.09000
C  3.01500 43.69800 30.56100
C  3.26100 42.54500 31.31500
O  3.54300 41.44500 30.84400
O  3.28100 42.78600 32.67300
C  3.70500 41.67500 33.49000
H  -3.85900 42.80000 29.38400
H  -2.68800 43.37800 23.13600
H  3.55700 44.48300 24.27900
H  0.34700 42.80000 31.82300
H  -2.28100 44.06200 31.24500
H  -2.77900 41.29700 31.07000
H  -2.74300 42.19200 32.56800
H  -1.29400 41.32900 31.98600
H  -0.75500 45.56000 32.09300
H  0.83400 45.51400 31.45200
H  0.10000 45.61500 34.09400
H  1.43500 44.80900 33.80700
H  -6.42000 41.90400 27.14400
H  -6.49700 43.65000 27.31000
H  -5.78000 42.74500 28.60700
H  -6.68900 41.28100 25.02300
H  -7.26200 41.96600 23.48200
H  -7.37800 42.86100 24.88600
H  -0.66600 44.33800 21.75700
H  2.03800 43.39300 22.25600
H  -0.99700 41.56600 22.23400
H  0.57500 41.77300 21.61900
H  -0.77000 42.35200 20.61800
H  2.04400 46.19200 22.80400
H  0.67200 46.01100 21.90800
H  1.74500 45.60800 20.01300
H  3.08000 44.64100 20.81600
H  3.18100 46.36000 20.82200
H  5.57800 43.39500 25.70500
H  6.13600 44.30000 27.12700
H  5.39000 45.16700 25.64800
H  2.83500 44.57100 31.18800
H  4.72400 41.35100 33.28200
H  3.01400 40.85800 33.28400
H  3.46800 41.82600 34.54400

