158

Mg 0.90900 8.27100 27.13800
C  1.65200 10.10400 30.19600
C  0.57900 5.58700 29.05500
C  0.55700 6.63200 24.29700
C  1.91700 11.12700 25.34100
N  1.41700 7.82100 29.38600
C  1.56000 8.72400 30.40900
C  1.26600 8.06700 31.76400
C  1.11000 6.56200 31.35400
C  0.96300 6.62700 29.84000
C  2.26600 5.70800 31.87100
C  -0.11700 8.56700 32.45100
C  -0.44100 8.27800 33.96000
H  0.50900 7.39800 34.77600
N  0.58300 6.36200 26.78500
C  0.40800 5.40500 27.64700
C  0.13300 4.17900 26.96600
C  0.12200 4.46400 25.58200
C  0.45300 5.93000 25.51000
C  -0.06100 2.88600 27.64800
C  -0.22400 3.53100 24.42400
O  -0.21400 3.83900 23.22100
C  -0.71600 2.18700 24.80200
N  1.27400 8.73700 25.06800
C  1.00700 7.91600 24.09000
C  1.48000 8.49500 22.79300
C  1.63000 9.98600 23.15200
C  1.57000 9.97600 24.62000
C  2.76600 7.83600 22.14300
C  0.68900 10.93500 22.31200
C  -0.80200 11.20100 22.61400
N  1.61200 10.22400 27.54900
C  1.96400 11.32700 26.75300
C  2.22600 12.50100 27.56300
C  2.13800 12.04200 28.86800
C  1.76000 10.66500 28.83200
C  2.43800 13.89400 27.03000
C  2.28100 12.44700 30.22100
O  2.72700 13.49300 30.63000
C  1.85100 11.26700 31.06700
C  2.83400 11.19500 32.24300
O  3.92100 10.68900 32.17200
O  2.26600 11.73300 33.36300
C  3.00400 11.55400 34.64800
H  0.29800 4.69200 29.61500
H  0.54600 6.00700 23.40100
H  2.22200 11.89400 24.62600
H  2.06800 8.33500 32.45200
H  0.18900 6.22500 31.83100
H  1.80100 4.98200 32.53800
H  2.99600 6.29800 32.42400
H  2.77000 5.21900 31.03700
H  -0.87700 8.01400 31.89900
H  -0.18800 9.63100 32.22300
H  -1.42200 7.80900 33.87700
H  -0.55900 9.20900 34.51600
H  -1.09000 2.54600 27.53500
H  -0.05900 2.91200 28.73800
H  0.64500 2.15400 27.25500
H  0.18100 1.62100 25.05600
H  -1.31300 1.68000 24.04300
H  -1.44900 2.06300 25.59900
H  0.68300 8.27900 22.08100
H  2.64100 10.33100 22.93600
H  3.58700 8.53300 22.31300
H  2.67300 7.73200 21.06200
H  3.03400 6.89200 22.61800
H  0.76500 10.52800 21.30400
H  1.22800 11.88200 22.29000
H  -1.39200 11.16600 21.69800
H  -0.84800 12.22000 22.99700
H  -1.30600 10.49000 23.26800
H  3.49600 14.15500 26.99100
H  1.87500 14.59300 27.64700
H  2.03500 14.03900 26.02800
H  0.90000 11.62100 31.46400
H  2.22900 11.31800 35.37800
H  3.46200 12.42900 35.10800
H  3.72300 10.73800 34.57300
Mg 49.11500 46.86100 42.59700
C  45.90900 47.81600 41.54800
C  48.73700 44.15500 40.61400
C  52.38300 46.08600 43.14800
C  49.65900 50.05900 43.65700
N  47.52100 46.09400 41.11700
C  46.26600 46.63700 40.95800
C  45.43800 45.79200 39.94700
C  46.31100 44.46800 39.78300
C  47.60000 44.91900 40.53800
C  45.67300 43.14600 40.29000
C  45.16000 46.46900 38.58300
C  43.71600 46.65300 38.20200
H  43.29600 46.18000 36.76100
N  50.31400 45.19500 42.09200
C  49.91300 44.24000 41.24400
C  50.92600 43.25900 41.30700
C  52.06300 43.76500 41.99900
C  51.59100 45.09200 42.49900
C  50.84700 41.93000 40.49600
C  53.44400 43.07500 42.20600
O  53.57900 41.84400 41.92300
C  54.65100 43.78500 42.83400
N  50.77400 47.93400 43.25800
C  51.99500 47.38700 43.49400
C  53.06900 48.42300 43.90300
C  52.18200 49.64000 44.15500
C  50.80200 49.20200 43.57000
C  54.00800 48.06200 45.00600
C  52.74400 51.00400 43.65400
C  52.70600 52.12400 44.68200
N  47.99400 48.58800 42.78600
C  48.33500 49.77000 43.32800
C  47.24000 50.66000 43.24300
C  46.19300 49.83400 42.66700
C  46.78600 48.70300 42.29400
C  47.15900 52.01900 43.79100
C  44.78100 49.86000 42.26600
O  43.89300 50.72500 42.36200
C  44.56300 48.50500 41.36000
C  43.37500 47.88700 41.95200
O  42.24600 48.17600 41.68000
O  43.73000 46.93100 42.86800
C  42.67400 46.20600 43.60300
H  48.57300 43.28000 39.98100
H  53.40800 45.77100 43.35300
H  49.87900 51.04700 44.06700
H  44.45200 45.64400 40.38700
H  46.62400 44.30700 38.75100
H  45.64300 42.40400 39.49200
H  44.67000 43.48200 40.55300
H  46.12600 42.76100 41.20400
H  45.82100 45.95900 37.88200
H  45.67100 47.43200 38.61300
H  43.34700 47.67900 38.21500
H  43.00700 46.22500 38.91100
H  51.74000 41.54000 40.00800
H  50.17400 42.11400 39.65800
H  50.44600 41.13700 41.12800
H  55.53800 43.28200 42.44900
H  54.51200 43.81200 43.91400
H  54.69400 44.74800 42.32400
H  53.68100 48.59900 43.01800
H  51.93700 49.73300 45.21300
H  53.76400 47.17600 45.59100
H  53.99000 48.98000 45.59400
H  55.06600 48.01300 44.74800
H  52.16000 51.29300 42.78100
H  53.74600 50.85400 43.25300
H  53.69400 52.41200 45.04000
H  52.13100 51.87300 45.57300
H  52.13500 52.98300 44.32900
H  48.10400 52.54400 43.64800
H  46.90500 51.99300 44.85100
H  46.29200 52.45000 43.29200
H  44.47700 48.92200 40.35700
H  42.49800 46.59700 44.60500
H  43.03100 45.17800 43.67000
H  41.74300 46.16100 43.03800

