158

Mg 25.71200 1.81800 29.36300
C  27.52300 1.42300 32.36000
C  22.89600 2.23300 31.22100
C  24.07600 2.12500 26.54100
C  28.60800 1.09600 27.67500
N  25.32000 1.79500 31.55200
C  26.14900 1.70900 32.57100
C  25.45100 1.89100 33.96600
C  23.92800 2.04500 33.53700
C  24.05500 2.01500 32.01600
C  23.09300 0.81400 33.98500
C  26.05800 3.12500 34.58300
C  26.82100 2.97500 35.97200
H  26.55700 4.06200 37.07300
N  23.80100 2.24600 29.01100
C  22.73800 2.19800 29.84700
C  21.46200 2.47000 29.14900
C  21.76100 2.42800 27.76000
C  23.26000 2.23000 27.72600
C  20.13000 2.69000 29.88800
C  20.81900 2.76200 26.61800
O  21.12500 2.77200 25.42100
C  19.35300 2.95800 26.96300
N  26.22500 1.40300 27.39400
C  25.41300 1.74700 26.35200
C  26.09000 1.59400 24.96500
C  27.57600 1.45200 25.37600
C  27.48000 1.33100 26.90800
C  25.46400 0.48600 24.04500
C  28.52100 2.63900 24.90700
C  29.67000 2.23700 23.99400
N  27.66500 1.25900 29.81700
C  28.75500 0.98400 29.06400
C  29.95500 0.71700 29.85200
C  29.42700 0.76400 31.16900
C  28.10100 1.14600 31.04100
C  31.34200 0.48400 29.35700
C  29.79200 0.62300 32.63000
O  30.78900 0.26300 33.19900
C  28.50900 0.99200 33.38700
C  28.13700 -0.11100 34.35200
O  27.36300 -1.00700 34.05800
O  28.87200 -0.00700 35.54600
C  28.41300 -0.86100 36.67800
H  22.01700 2.36700 31.85600
H  23.59100 2.27500 25.57400
H  29.49400 0.77100 27.12500
H  25.55000 0.92700 34.46500
H  23.45300 2.93300 33.95300
H  23.17500 -0.08500 33.37500
H  22.05500 1.14700 33.97800
H  23.22800 0.44300 35.00100
H  25.27000 3.79200 34.93200
H  26.63100 3.66100 33.82700
H  27.88500 2.93000 35.73900
H  26.59300 1.96800 36.32100
H  19.74800 3.70300 29.76100
H  20.18400 2.34600 30.92100
H  19.48800 2.04400 29.28900
H  18.81700 3.46200 26.15900
H  19.15100 3.64900 27.78200
H  18.86000 1.98900 27.04700
H  25.94200 2.51300 24.39800
H  27.86100 0.50100 24.92500
H  24.57200 0.06600 24.50900
H  26.19600 -0.25000 23.71200
H  25.04900 1.02800 23.19500
H  28.98200 3.10400 25.77900
H  27.89500 3.30300 24.31100
H  29.56500 2.82800 23.08400
H  29.61800 1.20300 23.65300
H  30.63100 2.36000 24.49300
H  32.05500 0.91200 30.06200
H  31.42400 0.89200 28.34900
H  31.56400 -0.58100 29.29700
H  28.78100 1.83900 34.01800
H  28.67500 -1.89200 36.44300
H  27.36300 -0.69000 36.91200
H  29.01500 -0.62900 37.55700
Mg 17.05700 52.63200 26.00400
C  18.66500 51.12900 28.70500
C  14.35400 53.27800 28.35100
C  15.13600 53.75000 23.50900
C  19.31400 51.38900 23.82900
N  16.54900 52.24100 28.22700
C  17.47600 51.66900 29.14000
C  16.93700 51.70100 30.60100
C  15.41300 52.06300 30.38900
C  15.41300 52.52600 28.91600
C  14.47700 50.84500 30.52500
C  17.77100 52.68600 31.50200
C  17.27900 52.96800 32.99000
H  16.29800 52.01800 33.70600
N  14.99400 53.60900 25.94200
C  14.11300 53.76200 27.01100
C  12.94600 54.47500 26.48200
C  13.10400 54.56900 25.08300
C  14.41300 53.91300 24.75500
C  11.83000 54.94900 27.29400
C  12.30100 55.26200 24.06100
O  12.63100 55.35800 22.86100
C  10.98300 56.14600 24.51800
N  17.13700 52.44500 24.00600
C  16.27200 53.04400 23.11600
C  16.81000 52.92800 21.67200
C  18.17200 52.25000 21.75200
C  18.22400 52.03100 23.25600
C  15.83900 52.49200 20.57400
C  19.42700 53.06300 21.08400
C  20.10000 52.37500 19.86100
N  18.65300 51.45700 26.16000
C  19.51600 51.03700 25.18800
C  20.63000 50.28500 25.79500
C  20.36900 50.40700 27.18600
C  19.16000 51.03200 27.37100
C  21.74900 49.60700 25.05700
C  20.88800 49.92900 28.46100
O  21.78900 49.15000 28.75800
C  19.78700 50.49700 29.49400
C  19.39100 49.32600 30.31300
O  18.78200 48.33900 29.86500
O  19.80700 49.46300 31.59700
C  19.42200 48.33900 32.47000
H  13.54800 53.37500 29.08100
H  14.56400 53.88300 22.58900
H  20.07900 51.20400 23.07300
H  17.09200 50.72100 31.05100
H  15.04500 52.91000 30.96700
H  15.14200 50.08000 30.92400
H  14.22800 50.42500 29.55100
H  13.62900 51.04600 31.18100
H  17.67700 53.62900 30.96300
H  18.84200 52.52000 31.62200
H  16.90500 53.99000 32.93800
H  18.10200 53.07400 33.69700
H  11.66200 56.02600 27.31800
H  11.99000 54.62200 28.32100
H  10.92400 54.55600 26.83300
H  11.29900 56.96600 25.16300
H  10.21700 55.53000 24.98800
H  10.56600 56.42100 23.54900
H  16.93200 53.97800 21.40600
H  18.19300 51.24400 21.33300
H  16.00200 53.20600 19.76700
H  14.85200 52.52400 21.03600
H  16.14300 51.50100 20.23900
H  20.17200 53.21200 21.86600
H  19.13300 54.05100 20.72900
H  21.05200 51.91600 20.12900
H  20.34300 53.12400 19.10700
H  19.53700 51.54400 19.43700
H  22.47700 49.51900 25.86300
H  22.04800 50.29200 24.26300
H  21.40000 48.66800 24.62900
H  20.36700 51.25600 30.01800
H  18.63400 47.66100 32.14400
H  18.99400 48.92300 33.28400
H  20.32500 47.87100 32.86200

