158

Mg 0.62400 -2.74700 43.43300
C  4.00000 -1.99500 42.32100
C  -0.43600 -0.22600 41.38700
C  -2.50900 -3.85200 43.79300
C  1.82100 -5.80300 44.55300
N  1.72500 -1.40100 41.93900
C  3.06700 -1.16900 41.64300
C  3.24600 -0.00400 40.67500
C  1.83100 0.67500 40.61000
C  0.96800 -0.42800 41.33100
C  1.76300 2.10800 41.24900
C  3.88600 -0.37000 39.29700
C  5.15300 0.32800 38.95300
H  5.42800 0.69800 37.47000
N  -1.25000 -1.98900 42.90600
C  -1.48900 -0.93900 42.08400
C  -2.86800 -0.68400 42.00300
C  -3.49800 -1.69200 42.77000
C  -2.42600 -2.55500 43.23400
C  -3.39000 0.50600 41.37400
C  -4.95600 -1.71100 43.00400
O  -5.69700 -0.83900 42.46900
C  -5.60700 -2.81500 43.73100
N  -0.22200 -4.69200 43.88000
C  -1.59900 -4.86100 44.02100
C  -1.86400 -6.36900 44.40400
C  -0.41900 -6.79000 44.89600
C  0.50500 -5.66800 44.46800
C  -3.01800 -6.46100 45.49300
C  0.00500 -8.20700 44.42200
C  -1.03200 -9.31400 44.39400
N  2.51000 -3.68200 43.63600
C  2.86700 -4.91800 44.15800
C  4.30900 -4.93300 44.18100
C  4.79600 -3.82700 43.50600
C  3.66400 -3.12000 43.07300
C  5.17600 -6.06700 44.83500
C  5.98500 -3.14100 43.11000
O  7.17400 -3.26100 43.43400
C  5.52500 -1.90900 42.29600
C  6.19000 -0.65900 42.68300
O  7.00500 -0.08600 41.94700
O  5.85300 -0.34200 44.00300
C  6.36700 1.02000 44.41800
H  -0.71000 0.74200 40.96100
H  -3.51600 -4.24400 43.94800
H  2.14700 -6.74300 45.00400
H  3.91700 0.63200 41.25200
H  1.51200 0.88300 39.58900
H  1.28700 2.18500 42.22700
H  1.32200 2.84200 40.57500
H  2.81500 2.31700 41.44100
H  3.20800 0.03600 38.54500
H  4.09500 -1.43300 39.18300
H  6.03700 -0.20900 39.29700
H  5.19400 1.22100 39.57600
H  -3.93600 0.29000 40.45600
H  -2.71500 1.35300 41.24800
H  -4.10100 1.03900 42.00500
H  -5.08000 -3.11900 44.63500
H  -5.63500 -3.76300 43.19600
H  -6.58700 -2.41900 43.99600
H  -2.15200 -6.97300 43.54300
H  -0.43800 -6.70700 45.98300
H  -3.23500 -5.42900 45.76700
H  -2.72000 -6.78900 46.48900
H  -3.92600 -6.94900 45.13800
H  0.79800 -8.57200 45.07400
H  0.53200 -8.18000 43.46800
H  -1.33200 -9.31000 43.34600
H  -1.93800 -9.18000 44.98400
H  -0.61900 -10.28300 44.67400
H  6.13600 -5.58100 45.01100
H  5.26800 -6.91500 44.15600
H  4.88200 -6.50300 45.79000
H  5.72800 -2.11200 41.24500
H  7.26700 1.01600 45.03300
H  5.67800 1.58000 45.05000
H  6.63400 1.68300 43.59500
Mg 42.89900 4.91000 47.29000
C  41.07000 7.99900 47.33600
C  39.93600 3.27200 46.97400
C  44.63800 2.21700 46.50200
C  45.82200 6.86800 47.24100
N  40.72900 5.62300 47.28300
C  40.21000 6.85400 47.22500
C  38.68300 6.81000 47.22300
C  38.33000 5.30400 47.44300
C  39.72700 4.68900 47.17100
C  37.76700 5.03300 48.85500
C  38.07900 7.46700 45.95600
C  38.93100 7.47500 44.71000
H  38.22600 7.74300 43.37900
N  42.34300 2.96800 46.83300
C  41.06600 2.49400 46.78300
C  41.09400 1.10500 46.43000
C  42.46100 0.67500 46.24900
C  43.22400 1.95500 46.55400
C  39.81400 0.29300 46.36800
C  42.99500 -0.76100 45.81800
O  42.30600 -1.71900 45.37400
C  44.39900 -1.02200 45.88700
N  44.89000 4.64900 46.77000
C  45.34400 3.36900 46.74200
C  46.87700 3.34800 46.80200
C  47.32600 4.84100 47.02800
C  45.95400 5.51400 47.02600
C  47.41600 2.27800 47.86700
C  48.26300 5.21200 45.98000
C  49.78700 5.19600 46.47500
N  43.37200 6.97100 47.28600
C  44.62300 7.60600 47.20000
C  44.42200 8.98500 47.36500
C  43.04600 9.19600 47.46800
C  42.46700 7.96600 47.30800
C  45.59400 9.96800 47.31300
C  42.04100 10.20600 47.55800
O  42.20600 11.39500 47.59500
C  40.63600 9.49700 47.42400
C  39.97300 9.72800 48.71200
O  39.97200 8.92200 49.63400
O  39.28300 10.96500 48.66000
C  38.23200 11.13000 49.70500
H  39.02000 2.68400 46.89200
H  45.27700 1.34500 46.34300
H  46.74700 7.40500 47.46300
H  38.46600 7.43000 48.09300
H  37.79800 4.81100 46.63000
H  37.14600 5.89800 49.08800
H  38.58800 4.98700 49.57000
H  37.23900 4.08300 48.93800
H  38.00900 8.54500 46.09500
H  37.05800 7.10400 45.83700
H  39.31900 6.45800 44.63500
H  39.73300 8.19300 44.88300
H  39.36900 0.28000 45.37300
H  39.16300 0.53400 47.20900
H  40.13100 -0.71400 46.63600
H  44.87900 -0.74500 46.82600
H  44.85600 -0.48800 45.05400
H  44.57900 -2.09600 45.85600
H  47.18000 2.87500 45.86900
H  47.70200 5.12900 48.01000
H  46.94600 2.16600 48.84500
H  48.45400 2.55100 48.05500
H  47.39300 1.24500 47.51800
H  48.11800 6.22800 45.61500
H  48.22500 4.60900 45.07300
H  50.00800 4.57100 47.34000
H  50.22900 6.18700 46.57400
H  50.46900 4.80700 45.71800
H  46.04400 9.75800 46.34300
H  46.28700 9.75400 48.12600
H  45.29400 11.01600 47.31200
H  40.00600 9.91100 46.63700
H  37.93200 10.32300 50.37300
H  37.31800 11.39700 49.17500
H  38.59400 11.79500 50.48900

