158

Mg 25.45400 1.47600 29.14300
C  27.37800 1.03700 32.14600
C  22.64500 2.03700 31.07600
C  23.73100 1.83600 26.32700
C  28.26000 0.61800 27.25900
N  25.05500 1.50000 31.37800
C  26.04600 1.39600 32.38900
C  25.33300 1.68300 33.72800
C  23.87300 1.80700 33.31400
C  23.88600 1.83900 31.79500
C  22.74200 0.92700 34.03700
C  25.89500 2.88100 34.53700
C  26.58800 2.65700 35.86600
H  26.39500 3.73800 37.00200
N  23.47900 1.90600 28.75200
C  22.48000 1.96500 29.65800
C  21.24300 2.13500 29.03000
C  21.49100 1.92100 27.59300
C  22.93700 1.86000 27.49800
C  19.95500 2.39800 29.81300
C  20.47900 1.74800 26.46400
O  20.87800 1.63500 25.33000
C  19.00800 1.75200 26.70900
N  26.02100 1.42000 27.02500
C  25.11400 1.66000 26.08100
C  25.79000 1.59800 24.66800
C  27.23200 0.99400 24.95300
C  27.19200 0.99600 26.50600
C  25.16500 0.66000 23.59300
C  28.45100 1.68400 24.36200
C  28.58900 3.22800 24.64800
N  27.41500 0.89100 29.53200
C  28.43900 0.58300 28.66800
C  29.62400 0.33900 29.48700
C  29.28400 0.57400 30.80600
C  27.87500 0.85000 30.79200
C  30.89800 -0.23000 28.87100
C  29.81300 0.68700 32.14500
O  30.92900 0.40900 32.58500
C  28.58500 1.06300 32.98200
C  28.40300 0.03400 34.09400
O  27.57800 -0.86900 34.19200
O  29.23000 0.46900 35.13000
C  29.23800 -0.41200 36.33600
H  21.78900 2.30600 31.69800
H  23.09700 2.04100 25.46200
H  29.06400 0.35900 26.56600
H  25.47800 0.78400 34.32700
H  23.52800 2.80500 33.58500
H  22.24100 0.24800 33.34800
H  22.02500 1.53700 34.58500
H  23.27500 0.26100 34.71500
H  25.10300 3.59300 34.77000
H  26.60300 3.35600 33.85800
H  27.65100 2.46500 35.72600
H  26.16000 1.70200 36.17100
H  20.02200 3.44600 30.10500
H  19.81700 1.77800 30.69900
H  19.02700 2.33600 29.24500
H  18.51200 2.69500 26.93700
H  18.73200 0.97000 27.41700
H  18.55500 1.45500 25.76300
H  25.75800 2.63500 24.33400
H  27.37100 -0.04600 24.65700
H  24.80900 1.31300 22.79600
H  24.37000 0.14100 24.12800
H  25.84700 -0.00400 23.06200
H  28.25500 1.65000 23.29100
H  29.39000 1.14100 24.46600
H  28.30200 3.57200 25.64200
H  27.86600 3.76000 24.03100
H  29.60100 3.62500 24.57400
H  30.68000 -0.91100 28.04800
H  31.40900 -0.64800 29.73800
H  31.55800 0.57100 28.53800
H  28.70200 2.04800 33.43400
H  29.10200 -1.44500 36.01600
H  28.67100 -0.15200 37.23000
H  30.25700 -0.40900 36.72300
Mg 16.83000 51.72800 26.25200
C  18.43100 50.20700 28.90800
C  14.60800 53.19000 28.37600
C  15.06300 52.79400 23.59800
C  19.03900 50.09600 24.12100
N  16.49400 51.44000 28.35900
C  17.26200 50.85900 29.29300
C  16.87700 51.28800 30.68500
C  15.49800 52.01300 30.48100
C  15.57100 52.32300 28.96300
C  14.27300 51.18200 30.78700
C  17.88200 52.27800 31.42900
C  17.98200 52.12200 32.91800
H  17.01100 51.20600 33.63900
N  15.03700 52.81700 26.05500
C  14.26900 53.39800 27.07100
C  13.16300 54.23400 26.54500
C  13.32000 54.12700 25.10400
C  14.50200 53.22900 24.89300
C  12.23300 55.04200 27.33800
C  12.46700 54.76000 24.03200
O  12.59200 54.40500 22.79300
C  11.27100 55.71600 24.38300
N  17.00900 51.46800 24.20300
C  16.22200 51.98800 23.31400
C  16.64200 51.66800 21.89400
C  18.12600 51.30100 22.05500
C  18.02600 50.83000 23.52600
C  15.71000 50.54900 21.19500
C  19.10200 52.54400 21.98600
C  20.38900 52.27000 21.19200
N  18.49800 50.37200 26.43800
C  19.33200 49.82000 25.51500
C  20.39800 49.15800 26.15600
C  20.13000 49.28700 27.51800
C  18.89200 49.99700 27.58700
C  21.56000 48.42700 25.49500
C  20.62600 49.06000 28.90700
O  21.68800 48.61800 29.29600
C  19.48500 49.53000 29.84900
C  19.04600 48.41700 30.68200
O  18.72800 47.31400 30.25700
O  19.17900 48.70400 31.99400
C  18.92400 47.59400 32.89400
H  13.95800 53.86300 28.93800
H  14.48200 53.05000 22.70900
H  19.86400 49.83500 23.45600
H  16.63400 50.40800 31.28100
H  15.45000 52.92500 31.07600
H  14.49200 50.37600 31.48800
H  14.00100 50.67900 29.85900
H  13.54500 51.89300 31.17900
H  17.57100 53.30800 31.25500
H  18.86600 52.30000 30.96200
H  17.92900 53.07500 33.44500
H  19.01800 51.84200 33.11400
H  11.26100 54.92900 26.85600
H  12.47200 56.10500 27.32800
H  12.19400 54.66400 28.35900
H  11.57000 56.51900 25.05700
H  10.51900 55.05000 24.80600
H  10.84600 56.25200 23.53500
H  16.62300 52.59000 21.31300
H  18.29100 50.52100 21.31200
H  14.64600 50.64300 21.41600
H  16.12900 49.65200 21.65200
H  15.95000 50.50800 20.13300
H  19.39700 52.89700 22.97400
H  18.50100 53.30500 21.48700
H  20.26100 52.68500 20.19200
H  20.67200 51.22100 21.27900
H  21.16700 52.87200 21.66200
H  21.41600 48.41500 24.41500
H  21.54300 47.38700 25.82200
H  22.55000 48.83600 25.69800
H  19.89300 50.31200 30.48900
H  17.84100 47.47400 32.94500
H  19.24200 48.05900 33.82700
H  19.48700 46.68400 32.68800

