158

Mg 47.74600 35.67900 26.93800
C  45.84400 34.33600 29.55200
C  48.27400 38.53300 28.71900
C  49.36800 36.99900 24.21100
C  47.11300 32.74100 25.11800
N  47.19400 36.29200 28.89400
C  46.50000 35.53000 29.91900
C  46.43200 36.25800 31.21700
C  46.92100 37.73800 30.72800
C  47.46200 37.49900 29.34000
C  45.84700 38.88700 30.86900
C  47.44900 35.53500 32.11500
C  47.28300 35.42700 33.63700
H  46.39800 36.46700 34.23300
N  48.81900 37.50100 26.55000
C  48.94300 38.57000 27.42400
C  49.83500 39.60100 26.78600
C  50.24000 39.08300 25.48100
C  49.46500 37.77200 25.38300
C  50.29400 40.86400 27.48100
C  51.12700 39.65700 24.45800
O  51.46400 39.07000 23.46500
C  51.89100 40.90200 24.71900
N  47.92700 35.12400 24.81100
C  48.75800 35.74900 23.95300
C  48.83100 34.97500 22.60900
C  48.55400 33.49100 23.12300
C  47.80300 33.76900 24.45100
C  47.81000 35.55000 21.61600
C  49.90800 32.64900 23.25100
C  50.16900 31.60100 22.12500
N  46.55900 34.02800 27.10900
C  46.44600 32.84700 26.34400
C  45.40700 32.00800 26.88800
C  45.15400 32.50000 28.17700
C  45.90600 33.77500 28.26300
C  45.00100 30.68400 26.27800
C  44.56100 32.19000 29.39700
O  43.78300 31.30400 29.76100
C  44.92100 33.42500 30.38500
C  45.41200 32.83600 31.66600
O  46.48300 32.25300 31.77000
O  44.48000 32.88400 32.70500
C  44.73400 31.98000 33.89300
H  48.49300 39.46800 29.23800
H  49.81100 37.44500 23.31800
H  46.93600 31.81600 24.56700
H  45.40600 36.21300 31.58400
H  47.71400 37.97600 31.43700
H  46.44600 39.69600 31.28800
H  45.02500 38.49600 31.46900
H  45.48300 39.18700 29.88600
H  48.41000 35.99200 31.87700
H  47.38200 34.48000 31.84900
H  48.28800 35.58500 34.02900
H  46.90800 34.51600 34.10300
H  50.05800 40.89900 28.54400
H  49.98800 41.81600 27.04600
H  51.37400 40.72800 27.52500
H  51.32300 41.82400 24.59100
H  52.75000 40.87900 24.04900
H  52.32500 41.07600 25.70400
H  49.84100 35.01600 22.20200
H  47.95200 33.07500 22.31600
H  47.55800 34.71800 20.95900
H  48.09800 36.45900 21.08700
H  46.82100 35.81800 21.98800
H  49.83700 32.16900 24.22700
H  50.81800 33.24600 23.31000
H  49.54200 31.71900 21.24200
H  50.13800 30.59600 22.54600
H  51.22900 31.75800 21.92400
H  43.93300 30.68800 26.05900
H  45.08400 29.95200 27.08100
H  45.54100 30.34100 25.39500
H  43.96800 33.90800 30.60300
H  44.27300 31.07900 33.48800
H  44.25300 32.44400 34.75400
H  45.79500 31.75600 34.00200
Mg -1.60400 35.25300 27.01800
C  -3.42600 33.62600 29.69800
C  -0.48400 37.40500 29.34900
C  -0.05000 36.91000 24.50300
C  -3.06200 33.15700 24.75700
N  -2.14300 35.53600 29.21900
C  -2.78900 34.78000 30.16500
C  -2.50100 35.20800 31.55800
C  -1.64700 36.47100 31.36700
C  -1.36600 36.43500 29.89000
C  -2.44600 37.69400 31.73200
C  -1.64400 33.99300 32.25000
C  -2.25700 33.38300 33.54700
H  -1.48400 33.47400 34.92200
N  -0.53300 37.05400 26.89100
C  -0.11600 37.73700 27.99700
C  0.69200 38.88000 27.48400
C  0.78900 38.80900 26.05300
C  0.07800 37.56600 25.76300
C  1.35900 39.85600 28.36000
C  1.41500 39.79700 25.01900
O  1.30500 39.60300 23.82600
C  2.32900 40.80500 25.49800
N  -1.57500 35.02900 24.95600
C  -0.76600 35.78800 24.07500
C  -0.60200 35.13100 22.73100
C  -1.53900 33.83800 22.83100
C  -2.09000 34.03200 24.26100
C  -0.90300 35.99600 21.51900
C  -0.83600 32.43700 22.70800
C  0.44400 32.11900 23.51000
N  -2.96200 33.70900 27.13100
C  -3.45500 32.94800 26.10600
C  -4.12700 31.79000 26.67200
C  -4.08500 31.96500 28.07400
C  -3.41800 33.14300 28.30600
C  -4.66300 30.59200 25.81900
C  -4.48000 31.42600 29.38200
O  -5.12200 30.40600 29.65000
C  -4.06500 32.49700 30.47200
C  -5.17100 32.94300 31.32800
O  -5.79600 33.99000 31.29400
O  -5.28700 32.03700 32.33200
C  -6.04000 32.39100 33.54900
H  -0.03500 38.12400 30.03700
H  0.66000 37.33100 23.78700
H  -3.38300 32.44700 23.99100
H  -3.37800 35.18500 32.20600
H  -0.70000 36.42900 31.90500
H  -3.46600 37.42800 31.45500
H  -2.07900 38.51400 31.11500
H  -2.34400 37.94300 32.78800
H  -0.71200 34.48100 32.53700
H  -1.45800 33.16100 31.57100
H  -2.31600 32.31000 33.36400
H  -3.27000 33.72700 33.75700
H  2.41300 39.58300 28.40200
H  1.11600 39.72400 29.41400
H  1.07300 40.83500 27.97500
H  3.08500 40.37500 26.15600
H  1.78000 41.56400 26.05400
H  2.82700 41.24100 24.63100
H  0.44000 34.82600 22.63300
H  -2.28000 33.73400 22.03900
H  -1.45900 35.41400 20.78400
H  -0.06000 36.46300 21.00900
H  -1.55800 36.83000 21.76900
H  -0.54900 32.25900 21.67100
H  -1.64400 31.71000 22.79100
H  0.58000 31.11100 23.90300
H  0.63100 32.86500 24.28200
H  1.25900 32.36700 22.83000
H  -3.96400 30.33100 25.02500
H  -5.62400 30.78600 25.34200
H  -4.84500 29.76000 26.49900
H  -3.42500 31.89700 31.11800
H  -5.68000 33.29700 34.03800
H  -5.81200 31.59200 34.25400
H  -7.10000 32.27900 33.32400

