158

Mg -10.83200 38.32600 42.55900
C  -8.79600 35.63700 41.53500
C  -8.89200 40.40900 40.70600
C  -13.30000 40.65200 42.76000
C  -13.15800 35.88400 43.63100
N  -9.11200 38.01900 41.04300
C  -8.37600 36.84900 40.91000
C  -7.08400 37.22300 40.01500
C  -7.05400 38.71200 40.20200
C  -8.47400 39.09300 40.63300
C  -5.91500 39.39600 41.14600
C  -7.29000 36.70100 38.52800
C  -6.09900 35.93600 37.92700
H  -5.54600 36.60700 36.67200
N  -11.00800 40.32500 42.05300
C  -10.02200 40.98400 41.36000
C  -10.42300 42.39800 41.34900
C  -11.74100 42.51100 41.91700
C  -12.04400 41.12500 42.34300
C  -9.62200 43.49300 40.65700
C  -12.63400 43.74100 41.91400
O  -12.24700 44.80200 41.41800
C  -13.98800 43.84600 42.55800
N  -12.97400 38.28000 43.02500
C  -13.74600 39.37500 43.11300
C  -15.13400 39.07200 43.72700
C  -15.06700 37.54600 44.01500
C  -13.67200 37.14800 43.45400
C  -15.36300 39.85500 45.07800
C  -16.14100 36.69100 43.25700
C  -17.54000 37.08000 43.52300
N  -10.95300 36.19400 42.81300
C  -11.89300 35.34000 43.28900
C  -11.35900 33.98200 43.42800
C  -10.14600 34.08800 42.67600
C  -9.96100 35.44400 42.29100
C  -12.08100 32.92200 44.13900
C  -9.00900 33.30400 42.30900
O  -8.63100 32.21200 42.57400
C  -8.14400 34.26400 41.44700
C  -6.78200 34.19500 42.07700
O  -6.06800 33.18500 42.13100
O  -6.52900 35.36600 42.78100
C  -5.31100 35.38700 43.52800
H  -8.22500 41.12500 40.22000
H  -13.98300 41.47000 42.99900
H  -13.88700 35.16600 44.01300
H  -6.22100 36.84300 40.56200
H  -6.98500 39.13300 39.19900
H  -5.93400 39.20500 42.21900
H  -6.17100 40.43700 40.94800
H  -4.93200 39.07200 40.80500
H  -7.61900 37.50300 37.86900
H  -8.10100 35.98500 38.65900
H  -6.13600 34.85300 37.80600
H  -5.28300 35.98500 38.64800
H  -9.61700 44.36500 41.31100
H  -10.25900 43.65600 39.78700
H  -8.60100 43.17600 40.44200
H  -14.00100 43.75600 43.64400
H  -14.58700 43.12500 42.00000
H  -14.49800 44.77300 42.29900
H  -15.91300 39.43000 43.05400
H  -15.05100 37.39500 45.09400
H  -16.26800 39.65100 45.65100
H  -15.33800 40.94200 45.00300
H  -14.48100 39.57700 45.65700
H  -16.07800 35.68200 43.66600
H  -15.91200 36.62500 42.19300
H  -17.91000 37.60800 42.64400
H  -17.53700 37.84500 44.30000
H  -18.24100 36.26700 43.70900
H  -13.16200 32.88100 44.00600
H  -12.03000 33.05400 45.22000
H  -11.85800 31.90900 43.80300
H  -8.04100 33.72900 40.50400
H  -4.53200 35.79500 42.88500
H  -5.10100 34.39600 43.93100
H  -5.41800 36.03200 44.40100
Mg -11.66600 16.96000 41.52000
C  -8.36000 15.92500 41.84400
C  -10.63700 20.16900 40.88200
C  -14.72800 17.83700 40.54200
C  -12.60800 13.50900 41.59000
N  -9.73900 17.86100 41.36500
C  -8.52400 17.33400 41.66400
C  -7.30100 18.38200 41.34400
C  -8.16500 19.74200 41.40400
C  -9.62300 19.24300 41.24200
C  -7.98100 20.63500 42.59300
C  -6.73100 18.07100 39.86800
C  -5.19600 18.13600 39.69900
H  -4.54100 17.01600 38.81500
N  -12.62600 18.77300 40.89100
C  -12.01200 19.95100 40.75900
C  -12.91700 21.00600 40.37700
C  -14.16100 20.30600 40.10800
C  -13.94200 18.97200 40.56400
C  -12.44900 22.35700 40.03900
C  -15.46400 20.90200 39.53300
O  -15.54900 22.06700 39.12800
C  -16.79000 20.03800 39.41400
N  -13.42700 15.80600 41.00900
C  -14.59000 16.45700 40.79400
C  -15.71100 15.43300 40.83500
C  -15.02800 14.02000 40.94500
C  -13.60000 14.48300 41.23900
C  -16.85600 15.66500 41.86700
C  -15.22600 13.16300 39.72100
C  -14.41100 13.43600 38.45600
N  -10.76800 15.11700 41.83500
C  -11.22200 13.78500 41.75400
C  -10.19600 12.89800 41.92800
C  -9.02000 13.72200 41.92100
C  -9.41700 15.01100 41.86200
C  -10.23200 11.38500 42.01900
C  -7.57000 13.62800 42.07400
O  -6.80900 12.65700 42.24300
C  -7.03700 15.08200 41.87900
C  -6.29900 15.40500 43.05400
O  -6.74300 15.56300 44.16800
O  -4.95300 15.29200 42.80400
C  -4.06800 15.14400 43.92500
H  -10.20800 21.16400 40.74500
H  -15.75400 18.11200 40.28800
H  -12.93100 12.46600 41.60200
H  -6.56600 18.23500 42.13500
H  -7.99000 20.39100 40.54600
H  -7.26600 20.21700 43.30100
H  -8.94200 20.62600 43.10900
H  -7.51500 21.60200 42.40400
H  -7.05200 18.96700 39.33600
H  -7.22300 17.13300 39.61100
H  -4.74100 18.19000 40.68800
H  -4.91500 19.09700 39.26700
H  -11.90100 22.20200 39.10900
H  -11.92900 22.79600 40.89000
H  -13.38500 22.90700 39.93800
H  -17.56200 20.66100 38.96100
H  -17.09000 19.65300 40.38900
H  -16.51400 19.24300 38.72000
H  -16.21800 15.49500 39.87200
H  -15.38200 13.43700 41.79500
H  -16.57900 16.34500 42.67200
H  -17.29700 14.73600 42.22800
H  -17.70800 16.18500 41.42900
H  -16.27000 13.26100 39.42400
H  -14.92500 12.15300 40.00200
H  -13.83900 12.56900 38.12500
H  -13.89700 14.39300 38.36900
H  -15.19400 13.49700 37.70100
H  -10.44400 11.11600 40.98400
H  -11.09100 11.09300 42.62300
H  -9.35100 10.92800 42.47000
H  -6.36000 15.16400 41.02800
H  -3.02900 15.40100 43.71900
H  -4.23200 14.14100 44.32000
H  -4.33000 15.86400 44.70100

