158

Mg 2.97000 -1.51600 43.40300
C  6.53900 -0.68700 42.88200
C  2.24400 1.21800 41.44300
C  -0.26200 -2.53700 43.20700
C  3.90500 -4.50400 44.74000
N  4.33200 -0.04200 42.11000
C  5.71400 0.23100 42.26400
C  6.03700 1.62400 41.67100
C  4.65200 2.26900 41.53300
C  3.62600 1.09900 41.73700
C  4.31900 3.43000 42.61600
C  6.64600 1.47300 40.22500
C  6.05500 0.48600 39.19900
H  5.70900 1.17800 37.95500
N  1.29400 -0.74800 42.49500
C  1.18400 0.43400 41.81700
C  -0.19400 0.72500 41.56800
C  -0.98300 -0.25300 42.19900
C  -0.01800 -1.21600 42.76100
C  -0.73200 1.96500 40.84700
C  -2.56400 -0.22900 42.43000
O  -3.18800 0.62000 41.81000
C  -3.28500 -1.19100 43.35800
N  1.91600 -3.35400 43.73600
C  0.60100 -3.49000 43.67300
C  0.20200 -4.91000 44.20400
C  1.52500 -5.56300 44.67000
C  2.49900 -4.42200 44.34700
C  -0.96100 -4.81800 45.26100
C  1.89400 -6.89800 43.90000
C  1.52100 -8.15100 44.65400
N  4.83000 -2.45200 43.81900
C  5.05200 -3.68300 44.42700
C  6.44100 -3.83800 44.66600
C  7.07500 -2.70200 44.16000
C  6.08000 -1.89000 43.54700
C  7.13600 -5.00100 45.37500
C  8.39900 -2.13400 43.84100
O  9.53400 -2.56900 44.02600
C  8.02100 -0.77900 42.99000
C  8.58500 0.48000 43.60600
O  9.25100 1.30400 43.00700
O  8.22700 0.76600 44.91800
C  8.77900 2.01800 45.50400
H  2.03700 2.23500 41.10300
H  -1.25700 -2.98300 43.15400
H  4.09500 -5.52100 45.09100
H  6.68100 2.14900 42.37700
H  4.55000 2.68200 40.52900
H  4.99300 3.41200 43.47200
H  3.29200 3.43400 42.98100
H  4.44100 4.41500 42.16600
H  7.66500 1.14100 40.42000
H  6.73900 2.48300 39.82400
H  5.11900 0.12900 39.62800
H  6.72000 -0.35000 38.98200
H  -0.07900 2.39200 40.08600
H  -0.93500 2.63500 41.68200
H  -1.68400 1.72800 40.37100
H  -2.64200 -1.82400 43.96800
H  -3.93200 -1.77900 42.70700
H  -3.95200 -0.61500 44.00000
H  -0.14200 -5.41800 43.30300
H  1.54300 -5.73500 45.74700
H  -1.59700 -3.94300 45.13000
H  -0.49900 -4.68900 46.24000
H  -1.57100 -5.71800 45.34400
H  2.93700 -6.95800 43.59000
H  1.31800 -7.01700 42.98200
H  0.79400 -8.79400 44.15800
H  1.14800 -7.84800 45.63300
H  2.38600 -8.79100 44.82300
H  7.55900 -5.71300 44.66600
H  6.43600 -5.54300 46.01100
H  7.95800 -4.62700 45.98500
H  8.49900 -0.80500 42.01000
H  8.94300 1.82000 46.56300
H  7.99200 2.75700 45.35600
H  9.64800 2.37200 44.94900
Mg 41.82900 41.85200 26.99400
C  40.83200 44.21600 29.52800
C  42.49000 39.72600 29.27500
C  42.75100 39.90600 24.48900
C  41.19700 44.38300 24.70100
N  41.51200 42.01100 29.17200
C  41.18600 42.98300 30.05300
C  41.38100 42.58000 31.49300
C  41.96100 41.13200 31.39200
C  42.06300 40.90200 29.85900
C  43.36500 40.87500 32.12900
C  40.03200 42.71800 32.33700
C  39.90800 41.73300 33.51500
H  39.59000 42.32300 34.83800
N  42.57200 40.00500 26.92200
C  42.85100 39.23200 27.96000
C  43.36400 38.02800 27.54600
C  43.38100 38.02900 26.13800
C  42.87300 39.33600 25.76000
C  43.71900 36.97600 28.57600
C  43.69000 36.96200 25.05900
O  43.54200 37.12200 23.87400
C  44.17700 35.65800 25.46600
N  41.94200 42.12400 24.91800
C  42.37500 41.16200 24.10400
C  42.28800 41.63900 22.64500
C  41.52600 42.99400 22.68000
C  41.61800 43.24500 24.13600
C  43.72800 41.58500 22.00200
C  40.06400 43.07200 22.19900
C  39.09800 42.14200 22.92900
N  41.15900 43.94700 27.07200
C  41.01000 44.78600 26.00800
C  40.64000 46.07900 26.50900
C  40.52900 45.97500 27.84800
C  40.85200 44.59200 28.15700
C  40.33600 47.29200 25.63600
C  40.20500 46.62600 29.11700
O  39.84200 47.76500 29.39600
C  40.42100 45.49100 30.20600
C  41.34000 45.98500 31.33300
O  42.52900 46.26200 31.27600
O  40.52600 46.36000 32.30000
C  41.23300 46.93400 33.51000
H  42.72300 39.03800 30.09100
H  43.13300 39.35500 23.62700
H  41.06800 45.14500 23.93100
H  42.21400 43.20100 31.82200
H  41.25500 40.34500 31.65600
H  44.03100 41.61500 32.57200
H  44.01800 40.40500 31.39400
H  43.03500 40.13000 32.85400
H  39.16300 42.65700 31.68200
H  40.06400 43.67600 32.85700
H  40.79400 41.12800 33.71000
H  39.13200 41.04100 33.18700
H  44.80500 36.91400 28.64000
H  43.32800 36.01600 28.23800
H  43.24000 37.13200 29.54300
H  43.35100 35.21500 26.02200
H  45.15800 35.73000 25.93500
H  44.21700 35.04400 24.56500
H  41.69000 40.90900 22.09900
H  42.06200 43.86500 22.30300
H  44.51200 41.42200 22.74100
H  44.01100 42.48200 21.45300
H  43.58900 40.73900 21.32900
H  39.93900 42.90200 21.13000
H  39.72600 44.08300 22.42700
H  38.50900 42.64700 23.69400
H  39.61300 41.28100 23.35400
H  38.39000 41.66300 22.25200
H  41.11300 48.00500 25.91000
H  39.36700 47.75000 25.83500
H  40.33600 46.98600 24.59000
H  39.46600 45.38100 30.72000
H  41.80100 46.12500 33.97000
H  40.43900 47.21000 34.20500
H  41.96800 47.68600 33.22300

