158

Mg 24.23900 -7.31200 48.28300
C  26.61700 -4.97500 47.04500
C  21.98500 -6.18000 45.73900
C  22.10600 -9.47300 49.33600
C  26.83500 -8.61900 50.18000
N  24.31600 -5.78900 46.70500
C  25.37600 -5.00400 46.35100
C  24.99600 -3.93900 45.34800
C  23.41500 -4.09700 45.24700
C  23.19500 -5.44800 45.97200
C  22.62000 -2.87600 45.81200
C  25.77300 -4.03900 43.97000
C  26.45400 -2.76300 43.52300
H  25.87300 -2.10800 42.30500
N  22.31500 -7.83800 47.55500
C  21.48900 -7.24600 46.55200
C  20.23300 -7.89700 46.51100
C  20.14700 -8.73600 47.59600
C  21.56200 -8.76900 48.22500
C  19.14900 -7.50300 45.46600
C  18.90700 -9.57600 48.00600
O  17.85500 -9.46400 47.37600
C  18.91400 -10.59700 49.09900
N  24.42300 -8.95300 49.44100
C  23.35300 -9.60200 49.90200
C  23.72500 -10.75400 50.91400
C  25.31400 -10.53300 51.03400
C  25.55200 -9.27500 50.17200
C  22.93100 -10.70300 52.32000
C  26.28000 -11.71200 50.69100
C  26.82100 -11.80300 49.22200
N  26.33200 -6.86100 48.70000
C  27.28200 -7.49000 49.43200
C  28.59700 -6.82700 49.35300
C  28.38200 -5.71200 48.45400
C  27.01800 -5.83700 48.04700
C  29.84900 -7.25700 50.07800
C  28.96200 -4.58000 47.73400
O  30.13700 -4.19600 47.67300
C  27.85200 -4.11100 46.75500
C  27.73600 -2.66500 47.09100
O  27.11000 -2.19400 48.06100
O  28.18400 -1.90600 46.07100
C  27.72700 -0.51900 46.19200
H  21.29200 -5.81500 44.97800
H  21.36500 -10.17100 49.73300
H  27.63400 -9.13400 50.71800
H  25.20700 -2.94000 45.72800
H  23.03500 -4.23000 44.23400
H  23.26600 -2.02300 46.02100
H  22.04400 -3.35000 46.60700
H  21.90700 -2.50500 45.07700
H  24.96000 -4.10900 43.24800
H  26.44800 -4.89400 43.92500
H  27.46900 -3.08500 43.29000
H  26.52000 -1.96200 44.26000
H  18.50400 -6.68100 45.77600
H  18.55000 -8.38400 45.23500
H  19.48000 -7.26900 44.45500
H  17.95400 -11.07100 49.30000
H  19.14100 -10.05400 50.01600
H  19.71200 -11.32900 48.97800
H  23.57600 -11.69500 50.38600
H  25.44000 -10.09100 52.02300
H  22.43200 -9.74600 52.46900
H  23.61700 -10.83600 53.15700
H  22.23600 -11.54200 52.33000
H  25.91900 -12.68100 51.03600
H  27.05200 -11.71100 51.46000
H  26.88800 -12.88100 49.07900
H  27.76800 -11.27000 49.13800
H  25.98300 -11.47200 48.60800
H  30.26000 -8.20800 49.73700
H  29.51100 -7.51300 51.08200
H  30.61300 -6.48100 50.04000
H  28.21600 -4.14000 45.72800
H  28.15400 0.02300 45.34800
H  28.17200 0.03500 47.01900
H  26.64200 -0.56400 46.10400
Mg 40.51100 9.08700 29.27000
C  42.61400 10.51000 31.81800
C  38.69000 7.58300 31.57100
C  39.13600 7.33300 26.72400
C  43.08200 10.11300 26.96300
N  40.77400 8.95400 31.37000
C  41.52200 9.78300 32.23800
C  41.14000 9.45000 33.73700
C  39.86800 8.54300 33.58700
C  39.74500 8.35900 32.04500
C  39.85300 7.14400 34.32300
C  40.84300 10.70500 34.64100
C  40.10000 10.50400 35.98400
H  40.87300 10.86800 37.28500
N  38.95300 7.81400 29.18200
C  38.34000 7.28200 30.25600
C  37.16600 6.50600 29.80200
C  37.35100 6.40700 28.36400
C  38.56400 7.19400 28.02600
C  36.35900 5.74800 30.82400
C  36.60900 5.65100 27.36300
O  36.84400 5.58900 26.14900
C  35.34500 4.86900 27.70000
N  41.01000 8.78500 27.18600
C  40.21700 8.13600 26.35600
C  40.61600 8.22700 24.86900
C  41.99700 8.94600 24.97400
C  42.01300 9.34300 26.46000
C  40.72200 6.84300 24.10100
C  42.21900 10.14300 24.00800
C  41.38600 11.44100 24.23800
N  42.39800 10.22400 29.30500
C  43.31100 10.52100 28.30100
C  44.48800 11.20600 28.86000
C  44.22600 11.28700 30.23200
C  42.95000 10.64100 30.48200
C  45.66300 11.63500 28.06500
C  44.72100 11.79200 31.47900
O  45.76800 12.38600 31.72800
C  43.67900 11.24800 32.53100
C  44.36900 10.48300 33.55000
O  44.99700 9.48300 33.47500
O  44.32000 11.15800 34.73800
C  44.75800 10.48700 36.02200
H  38.09300 7.12000 32.36000
H  38.72700 6.81600 25.85300
H  43.80600 10.36700 26.18600
H  42.03000 8.90800 34.05800
H  39.01000 9.16900 33.83200
H  40.64500 7.01500 35.06100
H  39.79100 6.28100 33.65900
H  38.81300 7.13900 34.64700
H  40.48000 11.57400 34.09200
H  41.69700 11.26100 35.02700
H  39.77400 9.46600 36.04200
H  39.17100 11.04600 35.80700
H  36.75000 5.81900 31.83900
H  36.29700 4.68000 30.61300
H  35.29000 5.96000 30.84400
H  34.58100 5.45100 28.21500
H  35.68400 4.06200 28.35000
H  34.86400 4.55900 26.77200
H  39.86500 8.81700 24.34300
H  42.75300 8.16200 24.91800
H  40.05600 6.80400 23.23800
H  40.56000 6.02500 24.80300
H  41.71000 6.64800 23.68500
H  41.91000 9.75500 23.03700
H  43.26600 10.44700 23.99100
H  41.95000 12.16700 24.82500
H  40.44600 11.31600 24.77500
H  41.11700 11.92500 23.29900
H  45.75100 11.07800 27.13300
H  46.47100 11.43300 28.76900
H  45.66400 12.68700 27.77900
H  43.21200 12.09500 33.03300
H  44.95800 9.43900 35.80100
H  44.04900 10.66200 36.83100
H  45.72200 10.92000 36.28800

