158

Mg 3.23800 -0.73700 43.94100
C  6.66500 -0.18000 43.75000
C  2.79200 2.21900 42.26600
C  0.24700 -1.90400 43.19600
C  4.02400 -3.94500 45.38000
N  4.63500 0.81900 42.92700
C  5.96100 0.83600 43.00400
C  6.55700 2.02600 42.21700
C  5.27400 2.91800 42.16400
C  4.18500 1.95800 42.46200
C  5.23200 4.11300 43.25600
C  7.11200 1.41100 40.94100
C  8.59400 1.65500 40.77000
H  9.11700 1.86600 39.35400
N  1.68900 0.11500 43.00000
C  1.68400 1.33700 42.40400
C  0.40100 1.65400 41.85000
C  -0.42600 0.44900 42.08900
C  0.47300 -0.51700 42.88300
C  0.06200 2.97000 41.16000
C  -1.92000 0.21000 41.71500
O  -2.56000 0.93300 40.98300
C  -2.68800 -0.95200 42.25100
N  2.25200 -2.77900 44.25200
C  0.95000 -2.96600 43.85100
C  0.36300 -4.33800 44.38500
C  1.64300 -4.93100 45.17400
C  2.65400 -3.76300 45.03300
C  -0.94900 -4.21300 45.23200
C  2.18900 -6.27900 44.67900
C  2.58400 -7.38600 45.61400
N  4.91500 -1.84500 44.47100
C  5.07200 -3.00200 45.18200
C  6.48700 -3.15300 45.58500
C  7.13300 -1.98900 45.11800
C  6.12200 -1.27800 44.41000
C  7.07800 -4.33000 46.34200
C  8.40500 -1.29800 44.99500
O  9.53700 -1.62900 45.35900
C  8.14300 -0.09400 44.16200
C  8.28700 1.13600 44.99400
O  7.66500 1.33800 45.98000
O  9.06600 2.07900 44.34300
C  9.00700 3.42200 44.87500
H  2.50900 3.19300 41.86200
H  -0.64500 -2.33500 42.73800
H  4.19700 -4.95400 45.76100
H  7.34400 2.64100 42.65300
H  5.20300 3.31000 41.14900
H  6.11000 4.06200 43.89900
H  4.33300 4.12200 43.87300
H  5.24300 5.03900 42.68100
H  6.64300 1.81900 40.04500
H  7.04400 0.32600 40.86300
H  9.27800 0.98000 41.28400
H  8.99200 2.51000 41.31600
H  0.75500 3.31400 40.39300
H  0.09800 3.71500 41.95400
H  -0.95200 3.00800 40.76100
H  -3.74800 -0.79100 42.05000
H  -2.49100 -1.04700 43.31900
H  -2.37500 -1.85700 41.73100
H  0.06700 -4.93900 43.52500
H  1.42300 -4.98300 46.24000
H  -1.70800 -4.58100 44.54200
H  -1.07900 -3.18700 45.57600
H  -0.96700 -4.95400 46.03200
H  3.13100 -6.07600 44.17000
H  1.48300 -6.69800 43.96100
H  3.58000 -7.75600 45.36700
H  1.84600 -8.18500 45.54300
H  2.65700 -6.98600 46.62500
H  6.50200 -5.25400 46.38600
H  7.32800 -4.06700 47.37000
H  7.99900 -4.70600 45.89600
H  8.75100 0.00200 43.26300
H  9.96200 3.62500 45.35900
H  8.27500 3.71300 45.62900
H  8.78100 4.17200 44.11800
Mg 0.29600 43.67700 25.93000
C  2.47200 43.92600 28.67900
C  -2.16400 42.72700 28.14400
C  -1.62700 42.96500 23.29700
C  3.08900 43.97800 23.77100
N  0.16300 43.50000 28.14500
C  1.14700 43.76800 29.05400
C  0.64700 43.83600 30.47700
C  -0.83500 43.25100 30.39200
C  -0.99700 43.09400 28.81400
C  -1.17100 41.95100 31.22200
C  0.69000 45.22400 31.22500
C  0.81100 45.39000 32.81800
H  0.57800 44.08700 33.59800
N  -1.64100 42.98200 25.82300
C  -2.50700 42.70000 26.79000
C  -3.83600 42.29200 26.21000
C  -3.63400 42.23900 24.82200
C  -2.26600 42.74200 24.59200
C  -4.99900 42.10300 27.07400
C  -4.67200 41.84700 23.66000
O  -4.39100 41.74300 22.46000
C  -6.11400 41.46000 24.10500
N  0.69100 43.54000 23.88000
C  -0.31400 43.34400 23.05600
C  0.25100 43.44000 21.57100
C  1.67300 43.96600 21.70600
C  1.82900 43.80200 23.20900
C  0.08000 42.14300 20.72100
C  1.82300 45.44700 21.30700
C  1.20200 46.59700 22.17000
N  2.34300 44.03500 26.09900
C  3.33500 44.16600 25.12900
C  4.65900 44.30700 25.83800
C  4.43400 44.22200 27.19000
C  2.96500 44.02600 27.28600
C  6.00900 44.52200 25.16400
C  4.95100 44.16500 28.55100
O  6.10000 44.15500 29.02000
C  3.76900 44.08600 29.56100
C  4.06700 42.79500 30.26400
O  4.26500 41.67100 29.82600
O  3.95100 43.10200 31.63300
C  4.34000 42.01400 32.54600
H  -3.03600 42.45900 28.74300
H  -2.30000 42.93900 22.43800
H  3.72300 44.03100 22.88300
H  1.16600 43.05500 31.03200
H  -1.53100 44.04500 30.66300
H  -1.47900 41.23600 30.45900
H  -1.91500 42.14500 31.99500
H  -0.24100 41.59700 31.66600
H  -0.21600 45.76600 30.95300
H  1.52100 45.70300 30.70900
H  0.09900 46.15700 33.12300
H  1.84000 45.72800 32.94700
H  -5.88900 42.54300 26.62400
H  -4.87600 42.67000 27.99700
H  -5.25900 41.13400 27.50100
H  -5.94300 40.71400 24.88000
H  -6.57100 40.99600 23.23100
H  -6.61100 42.35300 24.48400
H  -0.24200 44.32800 21.17500
H  2.42300 43.41000 21.14400
H  -0.56400 41.41100 21.20800
H  0.98300 41.63700 20.37900
H  -0.49700 42.45900 19.85200
H  1.36400 45.44200 20.31800
H  2.86800 45.68500 21.11200
H  0.78600 46.24000 23.11100
H  0.43500 46.92100 21.46600
H  1.96600 47.36400 22.29700
H  6.54000 43.57100 25.20400
H  6.57300 45.22800 25.77300
H  5.82100 44.82500 24.13400
H  3.75700 44.98200 30.18100
H  5.39800 41.88000 32.31800
H  3.94900 41.03400 32.27200
H  4.16800 42.39500 33.55300

