158

Mg 41.03700 7.34200 29.37900
C  42.56400 8.61000 32.21600
C  38.43400 6.13600 31.51600
C  39.61900 6.00100 26.82500
C  43.88500 8.06900 27.42200
N  40.62200 7.29000 31.66400
C  41.39500 8.00900 32.56500
C  40.76200 8.04100 33.96000
C  39.46500 7.13100 33.75200
C  39.44700 6.83400 32.21000
C  39.50700 5.77000 34.59600
C  40.39300 9.56600 34.36000
C  41.04000 10.27700 35.59700
H  40.08900 10.60300 36.76900
N  39.40800 6.10800 29.20800
C  38.45800 5.70800 30.17500
C  37.44400 5.02700 29.53700
C  37.75000 4.89500 28.13400
C  38.98400 5.64500 27.98700
C  36.18900 4.48700 30.25200
C  37.04000 4.12000 27.07400
O  37.34300 4.08100 25.89400
C  35.84500 3.35500 27.35500
N  41.76900 7.02200 27.34300
C  40.84100 6.58600 26.44900
C  41.36500 6.68200 25.04000
C  42.85700 7.26700 25.25600
C  42.83000 7.51000 26.71400
C  41.38900 5.24100 24.46400
C  43.12700 8.48400 24.35200
C  42.51600 9.80000 24.80300
N  42.85800 8.27200 29.67600
C  43.91300 8.40600 28.77100
C  44.96500 8.98300 29.58400
C  44.45700 9.25300 30.86600
C  43.17600 8.66200 30.91100
C  46.28300 9.52700 28.99600
C  44.74700 9.82000 32.10700
O  45.70900 10.53400 32.44900
C  43.53900 9.46200 33.06900
C  44.12900 8.71400 34.16500
O  44.36700 7.52400 34.12700
O  44.43500 9.58000 35.18500
C  44.82100 8.92400 36.39000
H  37.52900 5.95300 32.09900
H  39.12000 5.62700 25.92900
H  44.65200 8.29700 26.68000
H  41.45500 7.50400 34.60800
H  38.62600 7.80000 33.94200
H  38.64500 5.88100 35.25400
H  40.37700 5.73900 35.25200
H  39.58000 4.88500 33.96400
H  39.31800 9.65000 34.51800
H  40.55300 10.27900 33.55100
H  41.47600 11.20500 35.22600
H  41.85100 9.59200 35.84300
H  36.27400 3.42100 30.03800
H  35.28200 4.81800 29.74600
H  36.08500 4.69100 31.31700
H  35.95300 2.52900 28.05800
H  35.41600 3.06500 26.39600
H  35.10200 4.01400 27.80600
H  40.69700 7.30700 24.44800
H  43.61400 6.48600 25.18600
H  40.90700 4.58900 25.19300
H  42.38200 4.88300 24.19100
H  40.73600 5.23700 23.59200
H  42.73200 8.34400 23.34600
H  44.21200 8.58500 24.31600
H  41.98800 9.78500 25.75700
H  41.76600 10.16400 24.10200
H  43.34900 10.49300 24.92200
H  46.60500 10.46900 29.43800
H  46.28800 9.40800 27.91200
H  46.94700 8.72200 29.31000
H  43.06500 10.40800 33.32800
H  44.27000 8.02200 36.65900
H  44.78500 9.61500 37.23200
H  45.85800 8.61800 36.25200
Mg 26.62600 50.25000 25.88600
C  24.30600 51.67300 28.20500
C  28.52100 49.42400 28.52900
C  28.84200 49.29900 23.57800
C  24.52400 51.49200 23.27900
N  26.40100 50.41200 28.04500
C  25.39300 51.01400 28.75700
C  25.59100 51.01500 30.18900
C  27.07200 50.63600 30.38400
C  27.42700 50.13500 28.97400
C  27.97100 51.85800 30.84100
C  24.49100 50.17300 30.93300
C  23.82300 50.80900 32.16700
H  23.70300 49.98200 33.40800
N  28.50600 49.46800 26.05400
C  29.09700 49.12900 27.25500
C  30.42300 48.63300 26.92900
C  30.51900 48.57800 25.46600
C  29.26900 49.13200 24.95600
C  31.32300 48.22800 27.98000
C  31.59400 48.04300 24.61000
O  31.57800 47.94400 23.40900
C  32.76400 47.46300 25.35500
N  26.65900 50.30200 23.72700
C  27.71000 49.88700 23.04500
C  27.48300 50.03900 21.52700
C  26.10000 50.65300 21.41300
C  25.76700 50.86800 22.90700
C  28.58200 50.98800 20.90200
C  24.91800 49.90800 20.69400
C  24.15000 50.59200 19.59000
N  24.81400 51.39700 25.72800
C  24.10500 51.75400 24.60200
C  22.89500 52.44300 25.07700
C  22.92200 52.42200 26.45300
C  24.11000 51.75500 26.76000
C  21.78800 52.96300 24.21900
C  22.19300 52.78400 27.69000
O  21.16200 53.43100 27.80500
C  23.06700 52.36800 28.85500
C  23.34700 53.60500 29.61500
O  23.99700 54.58400 29.21300
O  22.79800 53.46800 30.88300
C  23.31000 54.37000 31.87700
H  29.09000 49.01200 29.36500
H  29.50400 48.89200 22.81100
H  23.90900 51.92800 22.48900
H  25.59900 52.02600 30.59700
H  27.11100 49.87200 31.16000
H  28.89800 51.74300 30.27900
H  28.10400 51.96000 31.91800
H  27.53300 52.80400 30.52200
H  24.83600 49.16000 31.14000
H  23.73900 50.02700 30.15800
H  22.79700 51.07200 31.90700
H  24.38900 51.70500 32.42400
H  31.56300 47.16500 27.98500
H  30.95000 48.28100 29.00300
H  32.22100 48.79000 27.72300
H  32.42100 46.66000 26.00800
H  33.31300 48.21500 25.92200
H  33.33200 46.94600 24.58200
H  27.48300 49.09600 20.98100
H  26.12900 51.65500 20.98700
H  29.40300 51.06400 21.61500
H  28.32200 52.02500 20.68900
H  28.93600 50.55700 19.96600
H  24.16600 49.62300 21.43000
H  25.46700 49.03200 20.34800
H  24.34100 49.90200 18.76800
H  24.56900 51.56300 19.32600
H  23.09400 50.77000 19.79700
H  22.08300 53.62300 23.40300
H  21.20600 53.60000 24.88500
H  21.15300 52.12700 23.92600
H  22.38900 51.72300 29.41400
H  23.63700 53.74500 32.70900
H  22.42600 54.92800 32.18700
H  24.09000 55.08900 31.62600

