158

Mg 40.15300 8.88200 30.33600
C  42.13800 10.07000 32.88600
C  38.21500 7.29200 32.64600
C  38.42600 7.29500 27.82200
C  42.65200 9.51800 27.95600
N  40.16700 8.80800 32.55300
C  41.05600 9.41400 33.43000
C  40.72700 9.24000 34.91300
C  39.56000 8.20300 34.78000
C  39.22700 8.09400 33.18800
C  39.74800 6.87800 35.57800
C  40.30500 10.56700 35.67600
C  41.20200 11.01800 36.80900
H  40.52900 11.62200 38.07100
N  38.40000 7.75300 30.26700
C  37.79100 7.23700 31.35100
C  36.57000 6.49800 30.90300
C  36.64400 6.44800 29.47700
C  37.85700 7.20300 29.13900
C  35.50000 6.01500 31.87200
C  35.74500 5.79500 28.51400
O  35.78400 5.96800 27.28700
C  34.69800 4.81900 29.11700
N  40.42500 8.53700 28.17600
C  39.60400 7.86600 27.34600
C  39.98700 7.94100 25.88200
C  41.48900 8.46900 26.00600
C  41.53000 8.87800 27.48600
C  39.94800 6.57900 25.02900
C  41.85000 9.56500 25.08100
C  41.31800 10.97300 25.35800
N  41.97700 9.63800 30.38100
C  42.87400 9.95200 29.32300
C  43.98000 10.64500 29.91300
C  43.66300 10.86800 31.29900
C  42.42000 10.19600 31.51600
C  45.27200 11.02200 29.24700
C  44.22900 11.29700 32.52100
O  45.24600 11.81600 32.83900
C  43.16000 10.98400 33.63800
C  43.95400 10.30200 34.65300
O  44.25300 9.10800 34.54800
O  44.33900 11.04400 35.76800
C  45.19600 10.45200 36.86400
H  37.47300 6.92800 33.36000
H  37.95400 6.65300 27.07500
H  43.48500 9.73500 27.28300
H  41.51100 8.75000 35.48900
H  38.59500 8.60600 35.08500
H  40.75300 6.85500 36.00100
H  39.54800 6.01900 34.93700
H  38.95600 6.95500 36.32300
H  39.30400 10.39600 36.07100
H  40.17600 11.31800 34.89700
H  41.93400 11.66100 36.32100
H  41.73400 10.09000 37.02000
H  35.40800 6.66300 32.74300
H  35.64900 5.00500 32.25400
H  34.55300 6.11000 31.34000
H  33.89400 5.42300 29.53700
H  35.14200 4.10700 29.81300
H  34.37500 4.09500 28.36900
H  39.35200 8.66200 25.36700
H  42.26500 7.70800 25.92400
H  39.48600 5.75400 25.57100
H  40.86700 6.25300 24.54200
H  39.32800 6.94500 24.21100
H  41.52400 9.24600 24.09100
H  42.93700 9.54000 25.00300
H  42.18700 11.49900 25.75300
H  40.45600 11.01300 26.02400
H  40.95000 11.45500 24.45200
H  45.29800 12.06300 28.92500
H  45.37900 10.46700 28.31500
H  46.11200 10.91200 29.93300
H  42.84900 11.98200 33.94800
H  45.07800 9.37100 36.79300
H  44.81000 10.77600 37.83100
H  46.27100 10.62900 36.82300
Mg 42.50000 41.94600 26.21900
C  41.50300 44.27400 28.70000
C  43.41900 39.77400 28.80000
C  43.50900 39.63300 23.93000
C  41.88700 44.21000 23.80000
N  42.33900 41.98500 28.51900
C  41.91900 43.07300 29.25700
C  41.89600 42.64700 30.76200
C  42.66800 41.22400 30.79500
C  42.75500 40.93600 29.26500
C  43.86600 41.02400 31.69200
C  40.47100 42.57700 31.40900
C  40.33700 43.23600 32.75000
H  41.34600 42.97800 33.84600
N  43.37500 40.07000 26.32600
C  43.66500 39.42000 27.48300
C  44.11300 38.07400 27.12900
C  43.97200 37.91800 25.72600
C  43.67400 39.21000 25.21900
C  44.51000 36.91900 28.17400
C  44.16600 36.70500 24.87400
O  44.04500 36.66800 23.66900
C  44.48100 35.35300 25.50800
N  42.75900 41.89600 24.21400
C  43.26200 40.89700 23.43200
C  43.34400 41.28700 21.92900
C  42.69800 42.71800 21.90200
C  42.39700 42.94100 23.43200
C  44.73000 41.14600 21.15600
C  41.40600 42.69000 21.10700
C  40.18600 42.06400 21.81900
N  41.75000 43.82100 26.20600
C  41.58300 44.66000 25.12200
C  41.18700 46.01900 25.59400
C  41.12700 45.86700 27.00900
C  41.45200 44.51900 27.32200
C  40.93200 47.21100 24.79700
C  40.75100 46.53700 28.23600
O  40.52900 47.76300 28.34600
C  41.01400 45.54200 29.42500
C  42.02300 46.10200 30.24500
O  43.01100 46.59700 29.74200
O  41.79200 45.82100 31.56800
C  42.85200 46.28600 32.43300
H  43.50000 38.99300 29.55900
H  43.87500 38.97000 23.14300
H  41.68700 45.01200 23.08700
H  42.47700 43.35200 31.35500
H  42.10400 40.35400 31.13300
H  44.56000 40.41900 31.10900
H  43.66500 40.58000 32.66800
H  44.44900 41.93000 31.85500
H  40.05800 41.57000 31.37400
H  39.92200 43.16200 30.67100
H  39.40000 42.84800 33.14800
H  40.20500 44.31000 32.61500
H  45.45000 36.44100 27.89900
H  43.68500 36.22200 28.31700
H  44.67600 37.40400 29.13600
H  43.86000 35.21900 26.39400
H  45.56300 35.38400 25.63700
H  44.29400 34.46000 24.91100
H  42.73500 40.57300 21.37300
H  43.38800 43.44500 21.47400
H  45.38200 41.96400 21.46100
H  44.56300 41.24500 20.08300
H  45.09800 40.14400 21.37900
H  41.58000 42.06400 20.23200
H  41.19800 43.73400 20.87300
H  39.83500 41.17400 21.29700
H  39.51900 42.92700 21.83700
H  40.36100 41.69700 22.83000
H  41.40500 46.94300 23.85300
H  41.57600 47.92000 25.31900
H  39.90600 47.52800 24.61100
H  40.14800 45.23300 30.01000
H  43.26000 47.25100 32.13300
H  43.71500 45.62800 32.33900
H  42.51500 46.31600 33.46900

