158

Mg -1.37200 17.67400 27.23700
C  -2.00100 15.31100 29.79700
C  -1.31000 20.13800 29.57800
C  -1.16700 19.73300 24.72900
C  -2.35300 15.10100 25.06200
N  -1.61600 17.71600 29.43800
C  -1.86900 16.64700 30.27000
C  -1.89200 17.10500 31.75200
C  -1.95800 18.66200 31.58500
C  -1.55200 18.90000 30.10500
C  -3.32800 19.42100 31.79600
C  -0.69200 16.53600 32.53700
C  -0.20000 17.24400 33.81800
H  -0.09200 16.42700 35.12900
N  -1.18900 19.70700 27.11400
C  -1.14800 20.52400 28.18600
C  -0.94000 21.90800 27.68900
C  -0.86800 21.89600 26.28700
C  -1.16200 20.40600 25.94800
C  -0.85600 23.05900 28.71300
C  -0.85800 22.97200 25.31700
O  -0.87300 22.79200 24.10400
C  -0.81800 24.44100 25.77400
N  -1.64400 17.46600 25.22200
C  -1.47700 18.42800 24.34700
C  -1.68100 18.01600 22.87000
C  -1.84400 16.45500 22.97600
C  -1.97200 16.32200 24.49600
C  -2.81100 18.68400 22.10600
C  -0.63300 15.64400 22.45600
C  0.86000 15.91400 22.88200
N  -1.91600 15.62400 27.31400
C  -2.25000 14.72700 26.33200
C  -2.37600 13.39400 26.83100
C  -2.28400 13.59600 28.21100
C  -2.05000 14.94100 28.47600
C  -2.79300 12.25900 25.96100
C  -2.33500 12.90400 29.43700
O  -2.33200 11.69000 29.65300
C  -2.25300 13.98400 30.55600
C  -1.15400 13.51300 31.38100
O  0.04600 13.72300 31.22900
O  -1.68100 12.89200 32.44600
C  -0.67000 12.28300 33.38100
H  -1.21500 20.96400 30.28500
H  -1.03600 20.28400 23.79500
H  -2.48500 14.39300 24.24200
H  -2.87500 16.84800 32.14500
H  -1.14700 19.19600 32.08100
H  -3.99200 19.29700 30.94000
H  -3.08200 20.43700 32.10400
H  -3.86500 18.86700 32.56700
H  0.19000 16.28700 31.94500
H  -1.23500 15.65800 32.88600
H  -0.98000 17.97900 34.01400
H  0.64100 17.93000 33.72400
H  -1.33300 23.90500 28.21900
H  0.15300 23.33500 29.02000
H  -1.36100 22.85000 29.65600
H  -1.73500 24.78700 26.25000
H  -0.69200 25.25100 25.05500
H  0.07100 24.33700 26.39600
H  -0.78000 18.20900 22.28700
H  -2.77700 16.15100 22.50200
H  -2.37400 19.28700 21.31100
H  -3.40300 19.25500 22.82100
H  -3.50000 17.95600 21.67600
H  -0.69100 15.62800 21.36700
H  -0.74400 14.63900 22.86300
H  1.38500 15.00300 23.17000
H  0.96500 16.74000 23.58600
H  1.33000 16.18000 21.93500
H  -2.07500 12.27300 25.14100
H  -3.78600 12.27500 25.51100
H  -2.66500 11.30300 26.46900
H  -3.22600 13.83500 31.02300
H  0.28900 12.06200 32.91300
H  -1.00700 11.30900 33.73600
H  -0.60100 12.85700 34.30500
Mg -11.58100 17.21000 40.47000
C  -8.52900 15.40900 40.33700
C  -9.84000 20.11700 39.73200
C  -14.48700 18.77400 39.80800
C  -13.19500 14.06300 40.19700
N  -9.43600 17.64900 39.80300
C  -8.44600 16.78200 39.91700
C  -7.10300 17.48900 39.49700
C  -7.55200 19.00100 39.35700
C  -9.03100 18.96600 39.67700
C  -6.63700 19.92300 40.21400
C  -6.46900 16.91800 38.19500
C  -5.02600 16.34900 38.30000
H  -4.68900 15.13000 37.38600
N  -12.06500 19.19200 39.99400
C  -11.19800 20.24000 39.81300
C  -11.94500 21.46400 39.56500
C  -13.35200 21.09200 39.64100
C  -13.35000 19.62400 39.86400
C  -11.39200 22.85200 39.25600
C  -14.49000 22.09100 39.47600
O  -14.31500 23.29900 39.34600
C  -15.96400 21.65700 39.38800
N  -13.52700 16.51300 40.06100
C  -14.55700 17.34900 39.88800
C  -15.86900 16.61100 39.70800
C  -15.43400 15.15800 39.87900
C  -13.95400 15.22000 40.00400
C  -17.16300 17.03700 40.60000
C  -16.02100 14.22000 38.82900
C  -16.43800 12.84300 39.39700
N  -11.04300 15.16000 40.55600
C  -11.81000 13.97500 40.42200
C  -10.96000 12.80700 40.61000
C  -9.65800 13.37200 40.73000
C  -9.79000 14.78200 40.55400
C  -11.34100 11.39800 40.63100
C  -8.21300 13.05200 40.91400
O  -7.63900 12.01700 41.09300
C  -7.44200 14.38700 40.73100
C  -6.75300 14.79600 41.97600
O  -7.03000 15.62800 42.79600
O  -5.61900 13.98900 42.10600
C  -4.79200 14.24600 43.27600
H  -9.23300 21.01200 39.58500
H  -15.47300 19.22100 39.66000
H  -13.64200 13.07000 40.12000
H  -6.44900 17.23000 40.33000
H  -7.47000 19.34700 38.32700
H  -6.64800 19.47800 41.20900
H  -6.91400 20.96600 40.37000
H  -5.65500 19.94200 39.74100
H  -6.41900 17.74600 37.48800
H  -7.07500 16.10100 37.80200
H  -4.94600 15.97000 39.31800
H  -4.35800 17.18500 38.09200
H  -11.87200 23.63700 39.84100
H  -11.52800 22.94300 38.17800
H  -10.32200 22.85600 39.46000
H  -16.02900 21.08500 38.46200
H  -16.61700 22.52800 39.33700
H  -16.30600 21.06200 40.23500
H  -16.26200 16.84700 38.71900
H  -15.78700 14.78600 40.84100
H  -17.32300 18.11400 40.54200
H  -17.03600 16.68900 41.62600
H  -18.06100 16.60900 40.15500
H  -15.34800 14.14200 37.97500
H  -16.97900 14.52700 38.40900
H  -17.50600 12.77600 39.60300
H  -15.76500 12.64200 40.23000
H  -16.13200 12.12800 38.63200
H  -12.17500 11.20100 39.95600
H  -11.63100 11.21000 41.66500
H  -10.48000 10.80200 40.32900
H  -6.68000 14.40300 39.95200
H  -4.16300 15.13600 43.27900
H  -4.25100 13.31800 43.46600
H  -5.41200 14.31800 44.16900

