158

Mg 2.34500 -1.94200 44.07200
C  5.83300 -0.98300 43.90400
C  1.77600 0.91500 42.00600
C  -0.73500 -2.92300 43.70300
C  3.47100 -5.08500 45.30300
N  3.71600 -0.27200 42.96400
C  5.10000 -0.04900 43.16200
C  5.53300 1.19600 42.34200
C  4.20100 1.89700 41.90100
C  3.17200 0.76700 42.23600
C  3.83100 3.22800 42.67400
C  6.50400 0.97200 41.13600
C  6.04900 -0.03400 40.10700
H  5.46800 0.44400 38.72000
N  0.69300 -1.17500 42.95000
C  0.64300 0.01100 42.27900
C  -0.69900 0.16000 41.81500
C  -1.52200 -0.90400 42.32100
C  -0.52400 -1.77300 43.05200
C  -1.07000 1.42400 41.14600
C  -2.97200 -1.10300 42.26600
O  -3.62200 -0.30900 41.60600
C  -3.73000 -2.16300 43.03900
N  1.51800 -3.83800 44.43500
C  0.12300 -3.89800 44.32500
C  -0.28600 -5.35300 44.76200
C  1.00700 -6.00100 45.34900
C  2.04500 -4.94000 45.01900
C  -1.49100 -5.57300 45.65200
C  1.31700 -7.32500 44.66700
C  0.79400 -8.56400 45.16900
N  4.20700 -2.88300 44.60200
C  4.44500 -4.12000 45.11100
C  5.89400 -4.28000 45.39900
C  6.46900 -3.00200 45.03500
C  5.43100 -2.25700 44.48700
C  6.53600 -5.52800 45.93800
C  7.67400 -2.30600 44.88300
O  8.81800 -2.66300 45.09600
C  7.34700 -0.96600 44.10200
C  7.76800 0.24100 44.86000
O  7.34500 0.49600 45.97800
O  8.69500 0.89200 44.17400
C  9.06000 2.19800 44.72600
H  1.73100 1.82900 41.41000
H  -1.72900 -3.34300 43.53300
H  3.88800 -5.94800 45.82400
H  6.08500 1.85800 43.00900
H  4.26100 2.12900 40.83800
H  2.84800 3.19300 43.14400
H  3.86300 4.11100 42.03600
H  4.63700 3.32200 43.40200
H  7.45100 0.67100 41.58400
H  6.58700 1.94600 40.65400
H  5.31900 -0.76500 40.45500
H  6.89900 -0.64500 39.80400
H  -2.12600 1.33300 40.88900
H  -0.66600 1.39000 40.13400
H  -0.81000 2.27900 41.76900
H  -4.78500 -1.91400 43.14500
H  -3.31700 -2.01000 44.03600
H  -3.53600 -3.13300 42.58000
H  -0.45400 -5.77500 43.77100
H  0.90300 -6.06100 46.43200
H  -1.48400 -6.54200 46.15000
H  -2.38000 -5.53500 45.02300
H  -1.61800 -4.70100 46.29300
H  2.36200 -7.62700 44.74800
H  1.06900 -7.33300 43.60600
H  1.60900 -9.11600 45.63700
H  0.29100 -9.09600 44.36200
H  0.05800 -8.53900 45.97300
H  6.22300 -6.44000 45.42900
H  6.10400 -5.74100 46.91600
H  7.62400 -5.57500 46.00200
H  7.94500 -0.98100 43.19100
H  8.33100 2.77100 45.29800
H  9.40400 2.83000 43.90800
H  9.89300 2.03900 45.41200
Mg 24.36900 -5.59400 47.06800
C  26.25600 -3.40100 45.15200
C  21.75200 -5.04100 44.91000
C  22.83200 -8.26300 48.45400
C  27.48400 -6.81300 48.50600
N  24.10200 -4.52400 45.18300
C  24.93100 -3.54000 44.67100
C  24.29500 -2.66200 43.58800
C  22.85000 -3.22200 43.60300
C  22.89500 -4.31100 44.64400
C  21.72600 -2.21200 43.87800
C  25.00400 -2.61300 42.16600
C  25.18000 -1.11200 41.66100
H  25.37800 -0.96300 40.09000
N  22.53500 -6.46400 46.79000
C  21.62000 -6.10300 45.86000
C  20.44100 -6.90900 46.10200
C  20.68200 -7.80300 47.14300
C  22.11800 -7.51400 47.55100
C  19.15200 -6.56000 45.33000
C  19.70900 -8.80100 47.74600
O  18.59500 -8.82700 47.17000
C  19.93200 -9.69500 48.90500
N  25.08100 -7.46300 48.10700
C  24.19400 -8.30200 48.65600
C  24.90800 -9.37900 49.55000
C  26.27200 -8.78100 49.71900
C  26.33900 -7.64000 48.65900
C  24.31600 -9.75000 50.92800
C  27.40200 -9.86800 49.65400
C  27.88100 -10.62100 50.90400
N  26.39600 -5.10800 47.05800
C  27.50100 -5.60900 47.70600
C  28.64500 -4.91000 47.35500
C  28.20900 -3.97500 46.39200
C  26.81100 -4.18700 46.16500
C  30.08400 -5.12200 47.91900
C  28.65500 -2.94400 45.50200
O  29.78500 -2.53900 45.34700
C  27.34400 -2.49800 44.73100
C  27.12800 -1.06000 45.05300
O  26.29300 -0.63400 45.81700
O  27.86700 -0.22100 44.34700
C  27.84000 1.20300 44.66900
H  20.88000 -4.83300 44.28600
H  22.37600 -9.16700 48.86200
H  28.44400 -7.02000 48.98300
H  24.24400 -1.67400 44.04600
H  22.63300 -3.66000 42.62900
H  21.03400 -2.21200 43.03600
H  22.07100 -1.19200 44.04700
H  21.22100 -2.53000 44.79100
H  24.40100 -3.09100 41.39400
H  25.92800 -3.19200 42.16400
H  26.12700 -0.70400 42.01500
H  24.27000 -0.65800 42.05500
H  18.87000 -7.34700 44.63100
H  19.18000 -5.71900 44.63700
H  18.42600 -6.39100 46.12500
H  18.96900 -10.16200 49.11200
H  20.38500 -9.14900 49.73200
H  20.67000 -10.48300 48.75300
H  25.04300 -10.25900 48.92100
H  26.42100 -8.23500 50.65000
H  23.49300 -9.08300 51.18400
H  24.95500 -9.65300 51.80600
H  23.97600 -10.78500 50.95400
H  28.27600 -9.32100 49.30100
H  27.15100 -10.65900 48.94700
H  28.92500 -10.42800 51.15200
H  27.84100 -11.70500 50.79300
H  27.27400 -10.46700 51.79600
H  30.82300 -4.60500 47.30600
H  30.13600 -6.21000 47.96100
H  30.05900 -4.65800 48.90500
H  27.53900 -2.52000 43.65900
H  28.63400 1.36900 45.39800
H  26.88100 1.51800 45.08000
H  28.23600 1.75100 43.81400

