158

Mg 17.79300 52.99900 25.76100
C  19.64600 51.59100 28.43700
C  15.19400 53.42500 27.93200
C  15.82800 53.83100 23.27000
C  20.32100 51.89700 23.52200
N  17.47000 52.73000 27.94500
C  18.37900 52.08100 28.80100
C  17.82200 52.06100 30.18400
C  16.26400 52.45500 30.00300
C  16.33400 52.93600 28.55800
C  15.20400 51.45400 30.44300
C  18.57900 53.14100 31.07500
C  18.45100 53.09300 32.61200
H  17.40600 52.21800 33.23200
N  15.98400 53.87700 25.72500
C  15.05800 53.94900 26.64500
C  13.91600 54.71900 26.18400
C  14.12000 54.91700 24.79600
C  15.33900 54.18600 24.51900
C  12.73900 55.07700 27.04200
C  13.30600 55.68000 23.74100
O  13.67800 55.94300 22.58100
C  11.91600 56.16800 24.06300
N  18.11900 52.88000 23.72900
C  17.08300 53.28200 22.87600
C  17.47900 53.18300 21.41700
C  19.02400 52.69800 21.57300
C  19.15000 52.41100 23.03500
C  16.58200 52.14300 20.69300
C  20.14100 53.70400 21.10500
C  20.36900 55.03600 21.94100
N  19.63200 51.89800 25.90900
C  20.58800 51.61500 24.89900
C  21.71800 51.05100 25.57300
C  21.43400 51.08600 26.99300
C  20.09200 51.51800 27.10500
C  22.98100 50.63300 25.03000
C  21.95900 50.73800 28.34300
O  23.00600 50.29400 28.65000
C  20.79000 51.08200 29.21800
C  20.45900 49.95300 30.12800
O  19.94300 48.91800 29.75200
O  20.73800 50.26800 31.43500
C  20.29700 49.20800 32.38300
H  14.35200 53.64800 28.59100
H  15.16100 53.98600 22.41900
H  21.12200 51.51300 22.88900
H  17.99300 51.09400 30.65700
H  16.21500 53.40000 30.54400
H  14.39800 51.92700 31.00500
H  15.55800 50.57400 30.98000
H  14.67600 51.06300 29.57400
H  18.23200 54.13900 30.80400
H  19.63600 53.06600 30.81900
H  18.30700 54.11800 32.95300
H  19.43800 52.86400 33.01400
H  12.08400 54.21600 27.17400
H  12.14500 55.91200 26.66900
H  12.97300 55.39100 28.05900
H  11.45000 56.48500 23.13000
H  12.08600 57.02400 24.71500
H  11.24300 55.46500 24.55400
H  17.42900 54.19400 21.01100
H  19.14600 51.77300 21.00900
H  15.76000 51.86000 21.35000
H  17.08200 51.26600 20.28100
H  16.00400 52.59900 19.88900
H  19.87300 53.81500 20.05400
H  21.07500 53.15400 20.99200
H  20.02100 54.81800 22.95000
H  19.81500 55.81200 21.41400
H  21.40100 55.38700 21.93400
H  23.28900 51.36900 24.28800
H  22.86300 49.62200 24.63800
H  23.71700 50.79000 25.81800
H  21.21500 51.98000 29.66700
H  20.97900 48.35800 32.37900
H  19.27000 48.84900 32.31100
H  20.21200 49.67100 33.36600
Mg -10.77500 37.27200 42.01800
C  -8.51500 34.73500 41.47300
C  -8.89500 39.45200 40.13800
C  -13.25800 39.46000 42.31400
C  -12.83800 34.86500 43.54600
N  -9.00900 37.01900 40.81600
C  -8.23800 35.87300 40.66400
C  -6.93700 36.16000 39.94500
C  -7.06600 37.70400 39.61800
C  -8.44700 38.10800 40.20300
C  -5.90700 38.58700 40.12100
C  -6.72700 35.14400 38.78900
C  -5.25000 34.84200 38.66600
H  -4.36200 35.33200 37.52800
N  -11.06300 39.25200 41.29400
C  -10.15400 39.92300 40.56600
C  -10.67900 41.25100 40.40600
C  -11.91700 41.34200 41.08900
C  -12.12800 39.99900 41.60000
C  -9.99000 42.40000 39.77400
C  -12.66400 42.57300 41.37900
O  -12.23000 43.61300 40.95000
C  -13.92900 42.59000 42.09100
N  -12.87200 37.12700 42.60100
C  -13.69100 38.20200 42.72700
C  -15.01700 37.92400 43.37300
C  -14.88900 36.38900 43.60900
C  -13.40400 36.09900 43.21600
C  -15.24800 38.74000 44.63900
C  -15.96900 35.47700 42.83100
C  -16.86000 34.50300 43.65000
N  -10.73000 35.21500 42.51000
C  -11.57600 34.39800 43.25100
C  -10.94100 33.09800 43.54800
C  -9.75300 33.21700 42.77300
C  -9.65000 34.50800 42.29800
C  -11.54500 31.93900 44.25600
C  -8.45700 32.56100 42.45800
O  -7.98200 31.52500 42.84300
C  -7.65400 33.49500 41.60500
C  -6.25300 33.60000 42.09400
O  -5.33600 32.78400 41.88700
O  -6.17900 34.78800 42.86600
C  -4.79400 35.04800 43.33600
H  -8.40000 40.12100 39.43000
H  -14.06100 40.19500 42.39700
H  -13.39500 34.07300 44.05200
H  -6.12000 36.01100 40.65000
H  -7.16000 37.83500 38.54000
H  -5.36300 39.04700 39.29600
H  -5.13200 38.01400 40.63000
H  -6.43800 39.23400 40.82000
H  -7.08400 35.58600 37.85900
H  -7.39400 34.28400 38.84800
H  -5.21700 33.75500 38.58700
H  -4.70600 35.24000 39.52300
H  -8.98600 42.20000 39.39800
H  -9.72100 43.04500 40.61000
H  -10.58700 43.01800 39.10400
H  -14.29700 43.61600 42.10700
H  -13.75300 42.30400 43.12800
H  -14.64100 41.93100 41.59400
H  -15.86200 38.12800 42.71500
H  -14.94500 36.06500 44.64800
H  -14.35600 39.19900 45.06500
H  -15.90400 38.13400 45.26400
H  -15.89000 39.59400 44.42500
H  -15.51100 34.79400 42.11600
H  -16.65900 36.15800 42.33300
H  -17.87900 34.87800 43.54900
H  -16.55200 34.49400 44.69500
H  -16.76700 33.48700 43.26500
H  -12.45100 32.24900 44.77800
H  -10.87300 31.50500 44.99500
H  -11.83600 31.17000 43.54000
H  -7.61400 32.83700 40.73600
H  -4.79800 35.91100 44.00100
H  -4.21400 35.15600 42.41900
H  -4.51200 34.30200 44.07900

