158

Mg 47.17200 25.23600 29.29700
C  47.80800 27.56000 31.84200
C  45.70600 23.21300 31.70300
C  46.57700 23.03800 26.82800
C  48.87600 27.28500 27.09500
N  46.71100 25.40200 31.50600
C  47.13000 26.42900 32.34700
C  46.59000 26.21200 33.76700
C  45.97400 24.79600 33.72400
C  46.20300 24.39800 32.22500
C  46.50900 23.82500 34.84200
C  45.53800 27.41900 34.05600
C  45.34100 27.85200 35.53000
H  45.83500 26.94700 36.68000
N  46.35700 23.36900 29.29300
C  45.64900 22.73500 30.34800
C  45.05000 21.55600 29.89400
C  45.40900 21.38400 28.49900
C  46.16200 22.62000 28.13500
C  44.32300 20.63100 30.84500
C  45.01200 20.24300 27.48800
O  45.32000 20.24800 26.28900
C  44.12900 19.17700 27.99100
N  47.66200 25.15400 27.21600
C  47.35800 24.07700 26.35500
C  47.63300 24.44200 24.87600
C  48.50200 25.74400 25.02300
C  48.33300 26.09700 26.48400
C  48.38300 23.23800 24.23900
C  48.10300 26.83300 24.04000
C  49.14500 27.88500 23.68900
N  48.10300 27.15200 29.29600
C  48.81300 27.74700 28.40200
C  49.33700 28.95700 28.92300
C  48.94200 28.98300 30.25700
C  48.22700 27.79900 30.42400
C  50.20100 29.93800 28.17900
C  48.92100 29.74300 31.47600
O  49.41600 30.86300 31.66400
C  48.17600 28.85600 32.53900
C  49.13600 28.61700 33.64800
O  50.21400 28.05200 33.47600
O  48.72000 29.17300 34.83700
C  49.61000 29.45000 35.95100
H  45.12100 22.60700 32.39900
H  46.20400 22.44300 25.99200
H  49.44700 27.93200 26.42600
H  47.39400 26.27000 34.50100
H  44.92900 24.86500 34.02600
H  45.69700 23.34600 35.38900
H  47.20400 24.19200 35.59800
H  46.96200 22.93800 34.39900
H  44.60400 26.92200 33.79400
H  45.67600 28.27000 33.38900
H  44.28700 28.05100 35.72200
H  45.89400 28.78600 35.63000
H  43.24600 20.54900 30.70500
H  44.41700 20.77100 31.92200
H  44.74200 19.63500 30.69600
H  43.21300 19.56600 28.43700
H  44.75400 18.47500 28.54300
H  43.88400 18.56800 27.12100
H  46.72900 24.56100 24.27900
H  49.53500 25.42000 24.89600
H  47.71600 22.45000 23.89100
H  49.00700 22.78600 25.01000
H  49.12500 23.64500 23.55200
H  47.26700 27.35800 24.50100
H  47.65600 26.26900 23.22200
H  50.04100 27.80500 24.30500
H  48.86700 28.92300 23.86900
H  49.45500 27.87500 22.64400
H  49.59400 30.78800 27.86700
H  50.52600 29.49400 27.23800
H  51.01200 30.36700 28.76700
H  47.33800 29.38600 32.99100
H  50.60100 29.02800 35.78300
H  49.44100 28.92900 36.89300
H  49.55300 30.52900 36.09900
Mg -12.32300 37.99800 41.91500
C  -10.23300 35.40700 40.83300
C  -10.28000 40.21000 40.15200
C  -14.52800 40.41600 42.50500
C  -14.24700 35.69700 43.44200
N  -10.59400 37.73800 40.58100
C  -9.88900 36.61300 40.29400
C  -8.83800 36.86100 39.19400
C  -8.71200 38.43300 39.33900
C  -10.02200 38.87000 40.03900
C  -7.44200 38.84700 40.21300
C  -9.03200 36.23500 37.76900
C  -7.78800 35.47900 37.17200
H  -6.78600 36.37600 36.30500
N  -12.34400 40.12600 41.50000
C  -11.41300 40.76800 40.81600
C  -11.84800 42.16800 40.81200
C  -13.16400 42.30400 41.44800
C  -13.39000 40.91000 41.88800
C  -11.02900 43.14800 40.16700
C  -13.94200 43.54800 41.73400
O  -13.51800 44.66000 41.44000
C  -15.30800 43.54400 42.34900
N  -14.14100 38.05400 42.69100
C  -14.89200 39.14600 42.88500
C  -16.21100 38.80500 43.72600
C  -16.12800 37.24700 43.94200
C  -14.77700 36.98500 43.29900
C  -16.19100 39.64400 44.94000
C  -17.21300 36.39200 43.26900
C  -17.91500 35.33600 44.09200
N  -12.32400 35.90600 42.06900
C  -13.07800 35.13500 42.93000
C  -12.53600 33.76800 43.09600
C  -11.32600 33.80600 42.32200
C  -11.31800 35.10200 41.67900
C  -12.99700 32.64900 43.99600
C  -10.15500 33.17500 41.81800
O  -9.73400 32.03900 42.01700
C  -9.55300 34.07800 40.65400
C  -8.03000 34.14600 40.77100
O  -7.24200 34.79600 41.46200
O  -7.57000 33.17300 39.90800
C  -6.11900 33.07600 39.83200
H  -9.58200 40.87300 39.63700
H  -15.32200 41.15000 42.65400
H  -14.81400 34.91200 43.94600
H  -7.88000 36.49500 39.56300
H  -8.67000 38.93800 38.37400
H  -6.81200 38.05200 40.61300
H  -7.82300 39.39200 41.07600
H  -6.81500 39.55200 39.66700
H  -9.26100 36.93300 36.96300
H  -9.78500 35.44900 37.81400
H  -8.14200 34.64700 36.56300
H  -7.24100 35.01200 37.99100
H  -11.66200 43.98600 39.87600
H  -10.48000 42.86700 39.26800
H  -10.29700 43.40000 40.93400
H  -15.97600 42.91200 41.76300
H  -15.66400 44.56000 42.52300
H  -15.26400 43.09400 43.34000
H  -17.09500 39.08000 43.15100
H  -16.07200 37.05700 45.01300
H  -15.13000 39.75300 45.16900
H  -16.60100 39.05900 45.76300
H  -16.73200 40.58900 44.89600
H  -16.74200 35.80900 42.47700
H  -17.88900 37.08800 42.77300
H  -17.96100 35.52200 45.16500
H  -17.61700 34.28900 44.03000
H  -18.91000 35.25700 43.65500
H  -12.36200 31.77100 43.87500
H  -14.03600 32.39800 43.78400
H  -13.11400 32.98200 45.02700
H  -9.95400 33.66500 39.72900
H  -5.69800 32.67400 40.75400
H  -5.74500 34.08400 39.65300
H  -5.87300 32.29100 39.11700

