158

Mg 48.00400 25.21100 30.31600
C  49.20900 27.62400 32.67400
C  46.90900 23.48600 32.88500
C  47.22700 23.04000 28.04800
C  49.69500 27.18100 27.83700
N  47.89100 25.65600 32.51400
C  48.46600 26.62800 33.29800
C  48.06600 26.43500 34.80900
C  47.44500 25.00600 34.79600
C  47.37500 24.71400 33.27500
C  48.17100 23.94400 35.78800
C  47.12900 27.55600 35.36600
C  47.66000 28.18900 36.66500
H  46.64900 28.53200 37.82600
N  47.15500 23.34700 30.49100
C  46.74400 22.77900 31.62700
C  46.12500 21.49300 31.30800
C  46.21900 21.33500 29.83300
C  46.89600 22.56900 29.35900
C  45.34700 20.62800 32.26300
C  45.74200 20.29200 28.93700
O  46.22000 20.28700 27.76300
C  44.92900 19.13900 29.36000
N  48.50800 25.13600 28.32800
C  47.97900 24.13100 27.61600
C  48.31400 24.20400 26.11100
C  49.20500 25.46800 26.07400
C  49.10900 26.01700 27.49600
C  48.93500 22.92300 25.47400
C  48.77000 26.43000 25.04600
C  47.39000 27.12400 25.36000
N  49.23400 26.95700 30.17200
C  49.78600 27.69400 29.14100
C  50.47100 28.87100 29.57000
C  50.22300 28.88700 30.93400
C  49.53800 27.70400 31.27400
C  51.20000 29.85000 28.70500
C  50.45400 29.63600 32.18100
O  50.89800 30.78100 32.37600
C  49.85400 28.82300 33.32800
C  51.02500 28.44000 34.28100
O  51.98300 27.78700 34.03600
O  50.76600 29.02900 35.50500
C  51.62000 28.79500 36.66400
H  46.48300 22.87900 33.68700
H  46.84100 22.46500 27.20400
H  50.27500 27.69200 27.06500
H  48.97200 26.43000 35.41500
H  46.39200 25.04200 35.07400
H  48.54000 23.08300 35.23100
H  47.44000 23.70800 36.56200
H  49.00500 24.39700 36.32400
H  46.07800 27.28900 35.47100
H  47.06800 28.28100 34.55400
H  48.23300 29.09200 36.45200
H  48.42600 27.73200 37.29000
H  44.29900 20.57500 31.96600
H  45.44000 20.75400 33.34200
H  45.68800 19.59800 32.15700
H  44.00700 19.50700 29.81000
H  45.49400 18.50200 30.04100
H  44.69800 18.56800 28.46100
H  47.38500 24.35800 25.56200
H  50.26600 25.27400 25.91900
H  48.95800 22.13300 26.22400
H  49.89300 23.17600 25.02100
H  48.19100 22.63700 24.73100
H  48.80600 25.83200 24.13500
H  49.46200 27.27100 24.99600
H  47.60700 28.19200 25.38200
H  46.92000 26.71200 26.25300
H  46.78400 26.87700 24.48800
H  50.90900 29.83300 27.65500
H  52.26500 29.61800 28.72900
H  51.07900 30.82900 29.16900
H  49.09800 29.37000 33.89200
H  52.58300 28.37000 36.37800
H  51.14900 28.09400 37.35300
H  51.82800 29.71900 37.20400
Mg 1.35700 42.04600 24.83800
C  2.93500 41.78100 27.98500
C  -1.50300 40.75200 26.29200
C  0.19700 41.58000 21.72600
C  4.52000 42.66200 23.44600
N  0.79200 41.46500 26.87800
C  1.60700 41.52500 28.06400
C  0.74800 41.25800 29.34700
C  -0.65000 40.91900 28.74500
C  -0.46700 41.05700 27.20100
C  -1.12100 39.54000 29.13500
C  0.70700 42.50600 30.30800
C  1.17100 42.23900 31.76900
H  0.22300 42.56800 32.92600
N  -0.51800 41.48000 24.10600
C  -1.49800 40.89700 24.87200
C  -2.60500 40.44800 24.00100
C  -2.24600 40.92000 22.73100
C  -0.77600 41.39300 22.80000
C  -3.77200 39.72800 24.54400
C  -3.10200 40.89400 21.44800
O  -2.61900 41.23200 20.37500
C  -4.48900 40.36100 21.41600
N  2.23700 42.15600 22.84000
C  1.55400 41.95500 21.76100
C  2.32700 42.44100 20.48600
C  3.64000 42.99200 21.09700
C  3.47700 42.65600 22.58000
C  2.52100 41.37200 19.34400
C  3.84800 44.49800 20.92200
C  3.93200 45.07300 19.51900
N  3.36000 42.23000 25.49700
C  4.50200 42.47900 24.82200
C  5.63500 42.59000 25.79600
C  4.99600 42.35800 27.00100
C  3.63600 42.13000 26.79700
C  7.14800 42.95400 25.49500
C  5.36200 42.19700 28.45900
O  6.38400 42.30900 29.11100
C  3.96700 41.84900 29.12000
C  4.02900 40.65500 30.01400
O  3.80800 39.50000 29.76600
O  4.37900 41.05800 31.25900
C  4.63000 40.08700 32.31500
H  -2.40600 40.38900 26.78700
H  -0.19600 41.40200 20.72300
H  5.48800 42.86500 22.98300
H  1.25800 40.39300 29.77000
H  -1.39600 41.63100 29.09800
H  -2.06400 39.60600 29.67800
H  -0.45100 39.04900 29.84000
H  -1.22400 38.89800 28.25900
H  -0.28300 42.96000 30.35400
H  1.22200 43.35400 29.85700
H  1.96100 42.97000 31.94000
H  1.70000 41.29100 31.85800
H  -4.26600 39.12800 23.78100
H  -4.43700 40.46700 24.99000
H  -3.39200 38.91000 25.15600
H  -4.45700 39.29200 21.20800
H  -5.05200 40.95600 20.69700
H  -4.95400 40.60700 22.37200
H  1.81100 43.28000 20.01900
H  4.48100 42.38900 20.75500
H  2.09800 40.36700 19.37700
H  3.57900 41.29100 19.09700
H  2.15500 41.74500 18.38800
H  4.63900 44.81900 21.60100
H  2.96300 44.93900 21.38000
H  3.05100 45.68300 19.31600
H  4.14500 44.45000 18.65000
H  4.63600 45.90500 19.51300
H  7.66700 41.99600 25.47100
H  7.52200 43.54900 26.32900
H  7.32500 43.59800 24.63400
H  3.76400 42.71000 29.75700
H  3.74800 39.61900 32.75100
H  4.93700 40.63000 33.20900
H  5.43800 39.39600 32.07500

