158

Mg 46.00900 4.75600 48.21000
C  43.73600 7.20200 47.45100
C  43.37200 2.47300 47.69400
C  48.17000 2.20800 48.12000
C  48.62500 7.06800 47.47100
N  43.71400 4.87800 47.82100
C  43.04800 5.96200 47.40200
C  41.60700 5.67800 46.92300
C  41.45400 4.19100 47.37800
C  42.89500 3.82700 47.72100
C  40.43200 4.03200 48.52200
C  41.68600 5.88400 45.37400
C  40.78100 7.03500 44.78800
H  41.33600 7.92600 43.65300
N  45.81100 2.66700 48.04800
C  44.64800 1.93400 47.84900
C  45.03200 0.54800 47.67400
C  46.38500 0.34300 47.89600
C  46.83800 1.72700 48.11300
C  44.01400 -0.56800 47.31900
C  47.21800 -0.93600 47.71000
O  46.61100 -2.01400 47.52800
C  48.65500 -0.97400 47.73700
N  48.07400 4.60800 47.98200
C  48.77600 3.44300 48.13300
C  50.31300 3.65300 47.96100
C  50.45600 5.22600 47.85400
C  48.98800 5.67800 47.76200
C  50.97900 3.01700 49.21900
C  51.35100 5.80000 46.79500
C  52.56300 6.58500 47.31700
N  46.23100 6.71800 47.77700
C  47.31500 7.51400 47.50700
C  46.92900 8.89500 47.50100
C  45.53600 8.83800 47.43600
C  45.12300 7.48100 47.63100
C  47.89000 10.08400 47.56800
C  44.37300 9.67200 47.34800
O  44.29500 10.90600 47.15900
C  43.13600 8.63900 47.31500
C  42.10000 8.97700 48.33500
O  41.94800 8.32200 49.35300
O  41.15100 9.87000 47.82400
C  40.12400 10.16800 48.76800
H  42.53900 1.77800 47.56900
H  48.96400 1.46200 48.18300
H  49.45300 7.78000 47.47100
H  40.86300 6.38000 47.29800
H  41.10200 3.47500 46.63400
H  40.98400 3.70400 49.40300
H  39.61000 3.34700 48.31300
H  39.85900 4.94700 48.67400
H  41.34800 5.01400 44.81000
H  42.64800 6.20500 44.97600
H  40.58900 7.70200 45.62900
H  39.76800 6.68100 44.59900
H  44.41400 -1.03500 46.41900
H  43.05200 -0.10600 47.09600
H  44.06700 -1.12700 48.25400
H  48.97300 -0.57200 48.69900
H  49.06400 -0.30300 46.98200
H  49.13400 -1.95200 47.69300
H  50.55800 3.16300 47.01900
H  50.89700 5.66100 48.75100
H  51.38300 2.11900 48.75200
H  50.20700 2.65600 49.89900
H  51.78700 3.65100 49.58400
H  50.91100 6.49500 46.08000
H  51.88900 4.98900 46.30400
H  52.36500 7.11700 48.24700
H  52.86000 7.31100 46.56100
H  53.40600 5.93200 47.54400
H  48.69400 9.91500 46.85100
H  48.32700 10.17300 48.56200
H  47.31800 10.98200 47.33500
H  42.61400 8.86000 46.38300
H  39.48500 10.91400 48.29400
H  40.37800 10.47200 49.78300
H  39.45100 9.31800 48.87800
Mg -4.98500 26.02000 25.68500
C  -3.89200 27.28800 28.78700
C  -7.14000 24.04100 27.69600
C  -5.83800 24.38000 22.92100
C  -2.69400 27.99200 23.94800
N  -5.26700 25.58400 28.03800
C  -4.75900 26.30400 29.00800
C  -5.49000 26.01700 30.37500
C  -6.28400 24.73200 30.02400
C  -6.32300 24.82000 28.50100
C  -5.56600 23.44900 30.51700
C  -6.48500 27.15100 30.77900
C  -6.46300 27.40400 32.27800
H  -6.52300 26.12700 33.26900
N  -6.29600 24.40500 25.34300
C  -7.10800 23.77000 26.27500
C  -8.05100 22.86700 25.57800
C  -7.60900 22.90200 24.17100
C  -6.51900 23.91200 24.08600
C  -9.07700 21.96400 26.23600
C  -8.14200 22.13100 22.94800
O  -7.51700 22.12100 21.87000
C  -9.32200 21.23900 23.03900
N  -4.25100 26.01200 23.72800
C  -4.84200 25.31300 22.78500
C  -4.20400 25.73000 21.38700
C  -3.42100 27.06600 21.72500
C  -3.44000 27.05700 23.21700
C  -3.27800 24.57500 20.77200
C  -4.10400 28.31700 20.99400
C  -3.25500 29.21700 20.10300
N  -3.46300 27.29300 26.21700
C  -2.65800 28.09000 25.37600
C  -1.91000 28.98100 26.26800
C  -2.37300 28.66800 27.56500
C  -3.36700 27.67700 27.53400
C  -0.74700 29.82500 25.92000
C  -2.15900 29.01500 28.93800
O  -1.48000 29.89500 29.50500
C  -3.19600 28.15600 29.75200
C  -2.54800 27.35100 30.88100
O  -1.56400 26.63300 30.79900
O  -3.15100 27.50400 32.11600
C  -2.45500 26.85000 33.20600
H  -7.88000 23.41200 28.19700
H  -6.11500 23.78800 22.04500
H  -2.14100 28.72500 23.35700
H  -4.73500 25.69000 31.09000
H  -7.30300 24.73500 30.41100
H  -5.19400 22.76500 29.75500
H  -6.21300 22.99400 31.26700
H  -4.63200 23.64100 31.04400
H  -7.54200 27.04100 30.53900
H  -6.13300 28.10100 30.37700
H  -7.34300 28.02900 32.43000
H  -5.53500 27.90100 32.56200
H  -9.98200 21.88600 25.63500
H  -9.30400 22.41900 27.20100
H  -8.70700 20.99000 26.55600
H  -9.34800 20.52700 22.21400
H  -10.13000 21.95900 23.16500
H  -9.39600 20.56500 23.89200
H  -5.03500 25.96300 20.72100
H  -2.38800 26.92900 21.40600
H  -3.26800 23.73000 21.45900
H  -2.32700 24.92000 20.36500
H  -3.90600 24.22100 19.95400
H  -4.65700 28.94200 21.69500
H  -4.87400 28.01800 20.28200
H  -3.09000 30.26900 20.33500
H  -3.64700 29.23000 19.08600
H  -2.32400 28.67700 19.92800
H  -1.15000 30.82500 25.76100
H  -0.26600 29.56700 24.97600
H  0.04500 29.81300 26.66900
H  -3.91900 28.83500 30.20400
H  -1.46600 27.28000 33.35900
H  -2.33300 25.76800 33.15900
H  -2.97100 26.98500 34.15700

