158

Mg 1.73300 7.52600 25.58900
C  2.21100 9.59800 28.33700
C  2.22300 4.84700 27.77200
C  1.16700 5.56900 23.00400
C  1.71400 10.43000 23.55300
N  2.07500 7.25600 27.82400
C  2.19900 8.26200 28.77300
C  2.22400 7.74600 30.19600
C  2.75500 6.22400 29.96000
C  2.47200 6.09000 28.42000
C  4.22700 5.86200 30.33500
C  0.85300 7.86800 30.98500
C  0.84300 7.70000 32.52700
H  2.08800 7.02200 33.15400
N  1.68300 5.48400 25.42900
C  1.76300 4.54700 26.45100
C  1.58600 3.18100 25.89500
C  1.21900 3.41400 24.49800
C  1.37800 4.88400 24.24500
C  1.59400 1.87100 26.78900
C  0.85300 2.35400 23.34900
O  0.59800 2.66300 22.16700
C  0.71800 0.96900 23.74600
N  1.78900 7.90600 23.46300
C  1.35500 6.92900 22.65000
C  0.92500 7.44400 21.26900
C  0.80200 8.98100 21.56500
C  1.46200 9.14200 22.95200
C  1.95800 7.06300 20.08200
C  -0.65600 9.59600 21.52400
C  -0.92300 10.41100 20.22500
N  1.99100 9.55600 25.82500
C  2.02500 10.56400 24.89900
C  2.31300 11.82400 25.58100
C  2.47800 11.51200 26.93100
C  2.19000 10.07600 27.03200
C  2.30300 13.20700 25.04000
C  2.60600 12.02700 28.28700
O  2.84300 13.15600 28.73700
C  2.41400 10.83800 29.21300
C  3.67800 10.74200 30.03800
O  4.72100 10.13700 29.74500
O  3.35000 11.20800 31.28900
C  4.53500 11.15800 32.17200
H  2.50200 3.99400 28.39400
H  0.93100 4.97100 22.12200
H  1.63500 11.36900 23.00100
H  2.99100 8.26500 30.77100
H  1.95300 5.64900 30.42500
H  4.79500 6.72100 30.69300
H  4.73600 5.47500 29.45200
H  4.32300 5.16400 31.16700
H  0.18600 7.23700 30.39800
H  0.54400 8.87800 30.71700
H  -0.05800 7.18600 32.86300
H  0.89900 8.70100 32.95500
H  0.65800 1.37100 26.53800
H  1.58200 1.92500 27.87700
H  2.40700 1.20500 26.50200
H  0.24700 0.39100 22.95000
H  -0.01600 1.04300 24.54800
H  1.64000 0.58500 24.18300
H  -0.07300 7.11000 20.98600
H  1.39700 9.49100 20.80700
H  2.46000 7.97300 19.75300
H  1.49000 6.49900 19.27500
H  2.73400 6.42100 20.49900
H  -0.75200 10.25700 22.38500
H  -1.37800 8.78700 21.63400
H  -1.91600 10.23700 19.81000
H  -0.30100 10.04000 19.41100
H  -0.74500 11.45800 20.47100
H  2.33700 13.22400 23.95000
H  3.21000 13.66800 25.43100
H  1.46100 13.76600 25.44800
H  1.44500 10.98600 29.69100
H  4.89500 10.13400 32.27500
H  4.29300 11.61300 33.13200
H  5.34400 11.76400 31.76500
Mg 25.99800 -0.38000 28.99100
C  27.82900 -0.75100 31.96500
C  23.26700 0.20400 30.82200
C  24.35800 -0.25300 26.11500
C  28.95100 -1.60400 27.22600
N  25.61800 -0.31400 31.17400
C  26.49800 -0.49500 32.25900
C  25.82400 -0.14900 33.65700
C  24.38200 0.12300 33.17600
C  24.39000 -0.02700 31.62100
C  23.42700 -0.89600 33.82100
C  26.43700 1.08300 34.39600
C  25.93600 1.34000 35.82500
H  26.52600 2.52800 36.68500
N  24.03100 -0.10900 28.54700
C  23.03200 0.11400 29.39700
C  21.82500 0.47400 28.69100
C  22.17700 0.38300 27.30200
C  23.60900 0.07100 27.22500
C  20.45300 0.71400 29.34300
C  21.30700 0.54800 26.14500
O  21.71500 0.59300 24.99600
C  19.74600 0.78400 26.22600
N  26.52600 -1.01900 26.99800
C  25.62300 -0.87200 25.94700
C  26.35100 -0.89300 24.67100
C  27.69700 -1.53900 24.97300
C  27.75300 -1.38600 26.49500
C  25.61600 -1.57000 23.48900
C  28.96000 -1.00200 24.27100
C  29.11900 0.53700 24.19800
N  28.03200 -0.93200 29.45800
C  29.13400 -1.36700 28.64800
C  30.28700 -1.44300 29.45800
C  29.85800 -1.19000 30.78800
C  28.48600 -0.96700 30.76600
C  31.65000 -1.71700 28.89700
C  30.30800 -1.12700 32.15200
O  31.43700 -1.34100 32.61600
C  28.99100 -0.69100 32.92400
C  28.74600 -1.50700 34.10200
O  28.33000 -2.67600 34.16400
O  29.05000 -0.77600 35.18500
C  28.97700 -1.46200 36.49200
H  22.41400 0.45700 31.45500
H  23.90200 0.05400 25.17200
H  29.91200 -1.81700 26.75300
H  25.94000 -1.05700 34.24700
H  24.11100 1.14000 33.45900
H  24.09900 -1.66100 34.21000
H  22.83500 -1.37600 33.04100
H  22.70700 -0.51200 34.54400
H  26.13700 1.97500 33.84600
H  27.52500 1.08700 34.46000
H  26.31900 0.47300 36.36200
H  24.85000 1.41200 35.89200
H  19.71800 1.34900 28.84700
H  20.66800 1.32700 30.21900
H  20.04700 -0.23800 29.68400
H  19.33500 0.95600 25.23100
H  19.47300 1.64100 26.84200
H  19.28300 -0.13400 26.58600
H  26.46800 0.13800 24.33500
H  27.60100 -2.62000 24.87300
H  24.56900 -1.76700 23.71700
H  26.07500 -2.53100 23.25600
H  25.68300 -1.04700 22.53500
H  28.87100 -1.28500 23.22200
H  29.79700 -1.56600 24.68200
H  28.49700 1.16300 24.83800
H  28.99300 0.76200 23.13900
H  30.15000 0.57900 24.54900
H  31.63900 -1.24000 27.91700
H  31.77200 -2.77800 28.68000
H  32.41000 -1.22500 29.50400
H  29.10900 0.35100 33.22100
H  28.51400 -0.67200 37.08400
H  29.95000 -1.62700 36.95400
H  28.30800 -2.32200 36.52000

