158

Mg 47.93500 25.66400 27.60800
C  48.91900 27.94000 29.91800
C  46.91600 23.48900 30.14800
C  47.29000 23.21100 25.34400
C  49.46000 27.50700 25.18900
N  47.85200 25.73500 29.72700
C  48.27500 26.79000 30.52600
C  47.98300 26.56100 32.04300
C  47.40900 25.10300 32.04100
C  47.38800 24.74800 30.54300
C  48.20400 24.01900 32.83900
C  46.96700 27.61000 32.61100
C  47.47100 28.46300 33.78600
H  46.78400 28.42800 35.14100
N  47.21200 23.62900 27.69400
C  46.83100 22.92200 28.85600
C  46.21500 21.68300 28.49500
C  46.31000 21.68600 27.08600
C  47.01300 22.84300 26.63500
C  45.65100 20.74200 29.41700
C  45.72800 20.54500 26.16500
O  45.84500 20.47500 24.92200
C  45.06600 19.35500 26.80400
N  48.28400 25.31600 25.56700
C  47.81100 24.38000 24.80500
C  48.03000 24.63900 23.22900
C  48.62700 26.10300 23.23900
C  48.78500 26.36900 24.77100
C  48.83500 23.47100 22.60700
C  47.75500 27.29000 22.59000
C  48.47300 28.42200 21.88200
N  49.10000 27.28500 27.51900
C  49.68000 27.93100 26.48400
C  50.42600 29.13000 26.88300
C  50.12800 29.15300 28.24200
C  49.31600 27.99800 28.57600
C  51.19200 30.07500 26.03200
C  50.34500 29.88100 29.42100
O  51.14300 30.83400 29.57400
C  49.48900 29.18200 30.57300
C  50.59500 28.83000 31.49200
O  51.45800 27.97300 31.44600
O  50.46400 29.69500 32.57200
C  51.33700 29.50200 33.75600
H  46.50400 23.03200 31.05000
H  46.91600 22.41100 24.70200
H  49.74800 28.22700 24.42100
H  48.91400 26.62000 32.60600
H  46.40100 25.15100 32.45500
H  47.49200 23.54800 33.51700
H  49.00200 24.51900 33.38700
H  48.72100 23.24900 32.26500
H  45.93800 27.26700 32.72300
H  46.77100 28.37200 31.85700
H  47.42800 29.53100 33.57100
H  48.50500 28.26000 34.06400
H  46.02200 19.71700 29.40800
H  44.56800 20.63800 29.34500
H  45.85300 21.07100 30.43600
H  44.73100 18.70500 25.99600
H  44.27100 19.77100 27.42400
H  45.73600 18.79000 27.45300
H  47.08100 24.85700 22.73800
H  49.66600 26.10400 22.91000
H  48.52500 23.23200 21.59000
H  48.84800 22.66300 23.33900
H  49.76500 23.97800 22.35000
H  47.04800 27.66100 23.33200
H  47.13400 26.74200 21.88100
H  48.20400 29.24000 22.55000
H  47.99700 28.68500 20.93700
H  49.55300 28.28900 21.81700
H  51.80500 30.67100 26.70700
H  50.48200 30.60900 25.40100
H  51.84800 29.58800 25.31000
H  48.83400 29.93300 31.01300
H  50.69900 29.16200 34.57200
H  51.68500 30.47600 34.10300
H  52.19000 28.83500 33.63300
Mg 9.40800 48.71800 26.02400
C  7.28500 48.61500 28.73900
C  11.93500 49.68100 27.98900
C  11.27300 48.68800 23.22500
C  6.60000 47.57100 24.09500
N  9.58700 49.14100 28.14700
C  8.59100 49.03100 29.12700
C  9.08900 49.40300 30.54100
C  10.64500 49.76900 30.21800
C  10.79900 49.41700 28.71900
C  10.93000 51.23700 30.53900
C  8.97400 48.21600 31.55900
C  9.61100 48.41000 32.94100
H  8.65400 48.56300 34.14300
N  11.33300 49.22600 25.62000
C  12.23400 49.45300 26.59800
C  13.53700 49.49100 25.99400
C  13.42100 49.19800 24.57700
C  11.96600 49.06600 24.38900
C  14.78400 49.82300 26.79500
C  14.50000 49.09700 23.53700
O  14.16100 48.92400 22.36800
C  15.94200 49.02200 23.82800
N  8.93700 48.33800 24.02500
C  9.93000 48.36400 22.98200
C  9.39900 47.97400 21.60900
C  8.02000 47.34900 22.02300
C  7.86800 47.67300 23.49500
C  9.42900 49.06100 20.56800
C  8.10500 45.83000 21.79900
C  8.71700 44.90400 22.83200
N  7.32700 48.18400 26.26700
C  6.36400 47.81800 25.41000
C  5.04700 47.74300 26.11000
C  5.35400 48.06200 27.45300
C  6.72400 48.35900 27.48100
C  3.80600 47.15700 25.60500
C  4.83200 48.23800 28.85700
O  3.74800 48.00500 29.39000
C  6.08100 48.40800 29.68100
C  6.15800 47.19900 30.46700
O  6.95800 46.35400 30.24200
O  5.40100 47.24200 31.66000
C  5.85200 46.28600 32.68600
H  12.79700 49.87100 28.63200
H  11.94900 48.48400 22.39200
H  5.72500 47.17400 23.57500
H  8.52900 50.22300 30.99000
H  11.18300 49.01000 30.78600
H  11.71600 51.47300 29.82300
H  11.27900 51.30900 31.56900
H  10.06400 51.89200 30.44500
H  9.29600 47.25800 31.14900
H  7.89800 48.18000 31.72900
H  10.07100 49.39300 32.83500
H  10.33900 47.60900 33.06600
H  14.51000 50.33400 27.71800
H  15.51200 50.46300 26.29600
H  15.29000 48.87200 26.95900
H  16.16800 48.25800 24.57200
H  16.32000 50.01900 24.05300
H  16.35100 48.55100 22.93400
H  10.17400 47.30700 21.23300
H  7.24600 47.81800 21.41500
H  9.88500 49.95400 20.99500
H  8.42000 49.31900 20.24800
H  10.07300 48.85200 19.71400
H  8.68900 45.55900 20.91900
H  7.09800 45.53700 21.50100
H  7.90200 44.26800 23.17700
H  9.09800 45.36800 23.74100
H  9.34500 44.16600 22.33200
H  3.70700 46.11500 25.91100
H  3.81100 47.23600 24.51800
H  2.97300 47.72600 26.01700
H  5.93500 49.27700 30.32200
H  6.92100 46.47900 32.76900
H  5.55700 45.25900 32.47200
H  5.42600 46.62100 33.63200

