158

Mg 48.29500 15.94800 28.07800
C  46.11200 15.98900 30.94500
C  50.45700 17.85900 29.71700
C  49.87900 16.16100 25.16500
C  45.32400 14.68800 26.28600
N  48.18700 16.94700 30.06800
C  47.35800 16.65800 31.14600
C  47.98100 17.17700 32.42500
C  49.16500 18.05400 31.91400
C  49.30600 17.55500 30.52300
C  48.83300 19.54400 31.81600
C  48.36100 15.99600 33.34600
C  47.94600 16.15800 34.82700
H  47.28100 17.42500 35.41700
N  50.08500 16.71000 27.59700
C  50.80500 17.50000 28.38900
C  51.94200 18.01700 27.64000
C  51.82500 17.45800 26.33300
C  50.57600 16.65900 26.28500
C  52.95400 19.10600 28.16100
C  52.69000 17.64600 25.10000
O  52.46500 17.00200 24.07200
C  53.83200 18.49900 25.11200
N  47.64500 15.52500 26.03800
C  48.63800 15.56300 25.11300
C  48.07300 15.06600 23.79800
C  46.63300 14.61200 24.12300
C  46.48300 15.00400 25.52300
C  48.18900 16.17400 22.72700
C  46.45700 13.06500 23.92500
C  45.70600 12.65600 22.73400
N  46.14000 15.45200 28.44800
C  45.11700 14.93600 27.63100
C  44.02900 14.49900 28.45700
C  44.33900 14.84100 29.74800
C  45.63600 15.49800 29.70600
C  42.70200 13.91300 27.95100
C  43.94400 14.71600 31.12700
O  43.06100 14.09400 31.63900
C  45.07100 15.46700 31.94500
C  44.36600 16.50800 32.83300
O  44.51200 17.71900 32.85900
O  43.57500 15.83800 33.77900
C  43.07500 16.59200 34.98700
H  51.15300 18.53100 30.22400
H  50.38200 16.20200 24.19700
H  44.63300 14.06900 25.71100
H  47.26900 17.85300 32.90000
H  50.04000 17.86300 32.53500
H  48.00700 19.75300 31.13700
H  49.70400 20.12100 31.50500
H  48.60400 19.92600 32.81100
H  49.39900 15.67400 33.42200
H  47.94600 15.09500 32.89300
H  48.80400 16.00500 35.48200
H  47.39100 15.24900 35.05700
H  53.48100 19.64900 27.37700
H  53.79700 18.60900 28.64200
H  52.48600 19.77800 28.88000
H  53.60300 19.53000 25.38300
H  54.24100 18.42800 24.10400
H  54.52600 18.05300 25.82300
H  48.69800 14.23500 23.46800
H  45.86100 15.23500 23.66900
H  47.33400 16.08100 22.05800
H  48.91100 15.87000 21.96900
H  48.29600 17.18500 23.12000
H  46.10500 12.63700 24.86400
H  47.42500 12.58200 23.79100
H  45.31800 11.63800 22.77800
H  46.39900 12.80600 21.90600
H  44.89100 13.36000 22.56700
H  42.28900 14.68000 27.29600
H  42.05300 13.74600 28.81100
H  42.87600 13.03100 27.33400
H  45.55700 14.80700 32.66400
H  42.14000 16.07700 35.20500
H  42.73800 17.61200 34.80300
H  43.69300 16.46900 35.87700
Mg 9.28400 48.52600 26.06200
C  6.97100 48.87200 28.70500
C  11.64000 49.97300 28.16800
C  11.56600 48.61500 23.35800
C  6.75600 47.75000 23.83000
N  9.25500 49.35000 28.18600
C  8.31600 49.11500 29.13100
C  8.77600 49.54800 30.54300
C  10.17200 50.23600 30.31300
C  10.38600 49.82300 28.77000
C  10.11300 51.80100 30.40600
C  8.89800 48.27600 31.40400
C  8.62500 48.53300 32.86600
H  8.82200 47.40200 33.90700
N  11.29500 49.05800 25.90600
C  12.09200 49.69500 26.86300
C  13.38200 49.82400 26.29700
C  13.43500 49.38500 24.94600
C  12.05600 49.00200 24.65700
C  14.58900 50.13700 27.16700
C  14.67000 49.10900 23.94400
O  14.51500 48.60400 22.81500
C  16.00800 49.61900 24.24400
N  9.14900 48.29000 23.94200
C  10.22200 48.33600 23.04200
C  9.83400 47.83100 21.61000
C  8.36300 47.45400 21.82800
C  8.02300 47.81600 23.34500
C  9.99200 48.86300 20.45800
C  8.06800 45.99000 21.48200
C  8.67900 44.91600 22.35600
N  7.29200 48.29000 26.16300
C  6.36100 47.96500 25.15300
C  5.05900 47.81500 25.83000
C  5.30300 48.17200 27.16700
C  6.61900 48.53600 27.35700
C  3.82900 47.46800 25.12500
C  4.65000 48.26100 28.40300
O  3.49100 48.05400 28.74900
C  5.73700 48.88900 29.49700
C  5.69800 48.00000 30.61100
O  5.80200 46.79700 30.65800
O  5.18900 48.75100 31.69900
C  4.72500 47.96500 32.87200
H  12.38600 50.31800 28.88700
H  12.18100 48.66700 22.45600
H  6.03400 47.30500 23.14300
H  8.14200 50.31500 30.98800
H  11.01900 49.80100 30.84200
H  10.80100 52.25200 31.12100
H  9.09400 52.13800 30.59200
H  10.38300 52.26500 29.45700
H  9.90900 47.89000 31.26900
H  8.34500 47.38500 31.10800
H  7.55500 48.72600 32.93400
H  9.24700 49.39300 33.11100
H  15.15200 50.97400 26.75400
H  15.36100 49.36800 27.19100
H  14.33600 50.41000 28.19100
H  16.73500 49.34200 23.48200
H  16.39100 49.22500 25.18500
H  15.76400 50.66700 24.42300
H  10.39200 46.91300 21.42800
H  7.63000 47.86000 21.13200
H  9.02700 49.05200 19.98700
H  10.75300 48.52800 19.75300
H  10.25700 49.82400 20.90000
H  8.34400 45.78900 20.44700
H  6.98600 45.89400 21.57000
H  9.22800 45.23100 23.24300
H  9.37700 44.41400 21.68600
H  7.87200 44.22500 22.59800
H  3.38100 46.69000 25.74200
H  4.06400 47.02900 24.15600
H  3.13400 48.26800 24.86700
H  5.41800 49.90300 29.73600
H  5.57400 47.60100 33.45200
H  4.13400 47.12600 32.50500
H  4.07100 48.63600 33.42900

