158

Mg 0.14300 7.03600 25.61900
C  0.90000 9.09400 28.44900
C  0.32500 4.37700 27.81600
C  -0.47000 5.23500 23.01200
C  0.69000 9.82800 23.63400
N  0.45700 6.80600 27.96800
C  0.70600 7.77700 28.88500
C  0.62400 7.24200 30.29500
C  0.75800 5.69500 30.00100
C  0.38500 5.60600 28.54400
C  2.20800 5.11100 30.39100
C  -0.78600 7.65200 30.89400
C  -0.85500 7.82200 32.43800
H  0.30600 7.58700 33.40900
N  -0.08300 5.05700 25.40400
C  0.10500 4.10400 26.35000
C  0.05700 2.81800 25.73100
C  -0.32900 3.01700 24.32400
C  -0.26300 4.49100 24.18800
C  0.27200 1.63900 26.60400
C  -0.62400 2.00300 23.27200
O  -0.79500 2.27700 22.11300
C  -0.86100 0.61200 23.68500
N  0.24900 7.47100 23.55100
C  -0.25600 6.54500 22.70100
C  -0.63700 7.23300 21.36900
C  -0.42900 8.67800 21.67000
C  0.20500 8.66900 23.04800
C  0.18500 6.59100 20.21200
C  -1.71000 9.65600 21.62700
C  -1.79200 10.70300 20.44800
N  0.59200 9.12200 25.93600
C  0.94600 10.10500 25.04700
C  1.44000 11.29700 25.71300
C  1.38100 10.97700 27.05200
C  0.92300 9.64300 27.14700
C  1.59800 12.68000 25.10100
C  1.61100 11.45100 28.39100
O  2.01600 12.52100 28.92100
C  1.20300 10.25400 29.28200
C  2.26600 10.08100 30.29600
O  3.23100 9.38000 30.13700
O  1.94000 10.80200 31.40200
C  2.79600 10.76300 32.56300
H  0.55000 3.57900 28.52700
H  -0.80400 4.55200 22.22700
H  0.76100 10.73900 23.03600
H  1.46200 7.64600 30.86300
H  0.13700 5.04200 30.61400
H  2.62300 4.80300 29.43100
H  2.02600 4.26600 31.05600
H  2.75100 5.87500 30.94600
H  -1.47600 6.89600 30.51800
H  -1.03000 8.61400 30.44400
H  -1.65800 7.20300 32.83800
H  -1.16200 8.84300 32.66500
H  0.92700 1.91600 27.43000
H  0.82900 0.96100 25.95600
H  -0.61900 1.14800 26.99700
H  -1.35900 0.49800 24.64800
H  0.06800 0.04200 23.72300
H  -1.46600 0.05800 22.96700
H  -1.70800 7.04000 21.30100
H  0.39100 9.01500 21.03700
H  -0.48300 6.02700 19.56100
H  0.94700 5.96600 20.67500
H  0.71900 7.30400 19.58300
H  -1.71800 10.14100 22.60300
H  -2.64000 9.08800 21.63800
H  -0.85200 10.58500 19.91000
H  -1.77100 11.66100 20.96900
H  -2.71300 10.67700 19.86600
H  2.48100 12.77200 24.46800
H  1.62000 13.46700 25.85500
H  0.76400 12.90800 24.43700
H  0.39200 10.59600 29.92500
H  3.50200 9.93200 32.55900
H  2.30300 10.83800 33.53200
H  3.48900 11.59800 32.45300
Mg 30.92400 58.72400 40.73900
C  28.32400 56.62900 39.78000
C  33.14700 56.35700 39.46400
C  33.41400 61.07000 40.93300
C  28.57400 61.16800 41.69000
N  30.70700 56.77400 39.75500
C  29.55600 56.17500 39.35500
C  29.73100 54.88200 38.58700
C  31.29400 54.72500 38.76600
C  31.74700 56.00800 39.38300
C  31.69700 53.41900 39.52200
C  29.27200 54.95900 37.09900
C  28.23300 53.98800 36.54100
H  27.14300 54.52000 35.55200
N  32.92000 58.72100 40.25100
C  33.69300 57.63600 39.82700
C  35.07800 57.97000 39.76300
C  35.16100 59.30000 40.12000
C  33.80300 59.76500 40.41100
C  36.19500 56.96800 39.40200
C  36.51900 60.00900 40.29500
O  37.53300 59.37700 40.18900
C  36.62500 61.46100 40.61000
N  30.93600 60.92100 41.03600
C  32.16200 61.55500 41.24800
C  31.90600 62.93900 41.81200
C  30.37600 63.02600 42.05300
C  29.88600 61.63700 41.56600
C  32.81000 63.38200 43.10100
C  29.65400 64.15800 41.33800
C  28.31200 64.64700 41.90200
N  28.92400 58.83900 40.81300
C  28.06100 59.94300 41.16100
C  26.74000 59.61800 40.80700
C  26.74400 58.29900 40.30900
C  28.06700 57.87300 40.42600
C  25.52300 60.54200 41.05400
C  25.98800 57.21500 39.80900
O  24.81100 57.11400 39.57800
C  26.92800 56.08700 39.38200
C  26.59100 54.91100 40.17600
O  26.96200 54.60700 41.29900
O  25.69900 54.16000 39.42800
C  25.24900 52.85800 40.05500
H  33.78600 55.59300 39.01500
H  34.19100 61.81800 41.10400
H  27.88400 61.91900 42.08000
H  29.12100 54.19400 39.17400
H  31.79300 54.78500 37.79900
H  32.01200 53.72800 40.51900
H  32.57700 52.97300 39.05900
H  30.95500 52.62200 39.55500
H  30.14200 54.76600 36.47100
H  28.95900 55.98900 36.93200
H  27.66900 53.63300 37.40300
H  28.71300 53.11200 36.10400
H  35.79100 56.23500 38.70400
H  36.64000 56.62000 40.33400
H  36.98900 57.46800 38.84700
H  36.00700 62.15000 40.03400
H  37.67000 61.76500 40.54200
H  36.27100 61.70600 41.61100
H  32.18400 63.57100 40.96900
H  30.12400 62.90600 43.10700
H  32.20800 63.37800 44.00900
H  33.33800 64.33400 43.04600
H  33.58100 62.63600 43.29500
H  29.62600 63.69700 40.35100
H  30.27700 65.05100 41.31300
H  28.15600 64.27200 42.91300
H  27.54600 64.29100 41.21200
H  28.30800 65.73700 41.90700
H  24.99700 60.18200 41.93900
H  24.82800 60.50300 40.21600
H  25.83200 61.57100 41.23800
H  26.84200 55.95900 38.30300
H  24.38100 52.96700 40.70600
H  26.04400 52.46200 40.68700
H  24.94100 52.13900 39.29500

