158

Mg 53.27900 23.57400 44.51900
C  50.55600 25.65600 43.72500
C  51.86600 21.04300 42.86500
C  56.30100 22.17900 44.46200
C  54.80300 26.70900 45.55600
N  51.54800 23.47500 43.23300
C  50.52800 24.36900 43.12500
C  49.44300 23.86600 42.17000
C  49.68200 22.23400 42.29900
C  51.14600 22.24200 42.77100
C  48.69900 21.41100 43.17500
C  49.63700 24.42300 40.72500
C  48.37400 24.79600 39.95300
H  47.88300 23.72600 38.88600
N  53.95900 21.77600 43.88900
C  53.18900 20.88400 43.26000
C  54.02200 19.70300 43.07500
C  55.31400 19.97000 43.44000
C  55.28400 21.38200 43.90700
C  53.46600 18.39300 42.53000
C  56.56800 19.03900 43.42700
O  56.56200 17.89500 43.00500
C  57.85600 19.42100 43.96800
N  55.25000 24.34400 44.84700
C  56.29500 23.45400 44.95700
C  57.59600 24.11100 45.70300
C  57.11100 25.57700 45.85500
C  55.63600 25.56400 45.41500
C  57.96200 23.46600 47.08000
C  57.88000 26.70500 45.06100
C  58.54700 27.80200 45.82400
N  52.81300 25.74300 44.71900
C  53.49100 26.83000 45.28100
C  52.56800 27.89800 45.50400
C  51.42800 27.50600 44.87900
C  51.63400 26.20900 44.38500
C  53.01000 29.12600 46.31400
C  50.07100 27.84200 44.64800
O  49.47900 28.85400 44.99500
C  49.44600 26.71800 43.80400
C  49.04100 27.31000 42.47700
O  49.70200 27.59800 41.53000
O  47.66000 27.46200 42.53500
C  47.12200 27.89800 41.31700
H  51.37000 20.12800 42.53600
H  57.26400 21.74400 44.73700
H  55.24200 27.61100 45.98900
H  48.46100 24.08100 42.59300
H  49.70600 21.71500 41.34100
H  48.69900 21.55400 44.25500
H  48.77200 20.34500 42.96000
H  47.66300 21.54800 42.86400
H  50.26100 23.77200 40.11200
H  50.29800 25.27700 40.87200
H  48.60900 25.73400 39.44900
H  47.59500 25.00700 40.68600
H  53.92000 17.55200 43.05600
H  53.60300 18.42700 41.45000
H  52.39100 18.32000 42.69500
H  58.34700 20.10000 43.27100
H  58.55800 18.58900 44.00800
H  57.76500 19.81000 44.98200
H  58.41300 24.09200 44.98000
H  57.13400 25.75400 46.93000
H  58.09800 24.12000 47.94200
H  58.97700 23.08400 46.97300
H  57.37900 22.57100 47.29300
H  57.19400 27.20100 44.37400
H  58.67800 26.24000 44.48200
H  58.18000 28.68700 45.30300
H  59.62500 27.63900 45.84300
H  58.18200 27.80100 46.85100
H  52.14100 29.76400 46.47100
H  53.65300 29.71100 45.65700
H  53.61200 28.93800 47.20300
H  48.53600 26.32400 44.25500
H  47.49500 28.88500 41.04200
H  46.06000 27.78300 41.52900
H  47.37400 27.24300 40.48200
Mg -9.96600 40.65200 43.34700
C  -8.86300 37.42100 42.55900
C  -6.93500 41.77800 41.95500
C  -11.13300 43.75100 43.51200
C  -13.15300 39.48500 44.09400
N  -8.07400 39.65800 42.24000
C  -7.80400 38.31600 42.26200
C  -6.33000 38.04700 41.81500
C  -5.76400 39.54300 41.80500
C  -6.95900 40.45900 42.06000
C  -4.51500 39.77700 42.74900
C  -6.32300 37.30900 40.43400
C  -5.00600 36.53500 40.12300
H  -3.98200 37.22200 39.13800
N  -9.18700 42.54600 42.73400
C  -7.93400 42.76600 42.18100
C  -7.76000 44.14300 42.08100
C  -8.96400 44.81200 42.47000
C  -9.84500 43.69700 42.91300
C  -6.44200 44.82300 41.60100
C  -9.29100 46.35600 42.54000
O  -8.41900 47.21700 42.33400
C  -10.73400 46.86500 42.73900
N  -11.87500 41.51000 43.89400
C  -12.00500 42.82700 44.06100
C  -13.39500 43.26300 44.43000
C  -14.14400 41.78600 44.61900
C  -13.00000 40.82500 44.24200
C  -13.59000 44.29600 45.57400
C  -15.45500 41.67900 43.91300
C  -16.48200 40.76500 44.59000
N  -10.85100 38.87600 43.33900
C  -12.20100 38.55000 43.68400
C  -12.34200 37.07400 43.60000
C  -11.09900 36.62600 43.19200
C  -10.21900 37.77600 42.93400
C  -13.46800 36.17600 43.89000
C  -10.29200 35.45700 42.90000
O  -10.60000 34.27000 42.83100
C  -8.87400 35.88600 42.38900
C  -7.83800 35.03200 42.97200
O  -7.45000 35.13200 44.09100
O  -7.43000 34.09800 42.09000
C  -6.44000 33.10800 42.53800
H  -5.91900 42.15000 41.80500
H  -11.63000 44.72300 43.48800
H  -14.11500 39.02800 44.33600
H  -5.92100 37.45200 42.63200
H  -5.31400 39.70200 40.82500
H  -3.58900 39.43500 42.28800
H  -4.52600 39.08500 43.59200
H  -4.28300 40.79600 43.05800
H  -6.44100 38.07500 39.66700
H  -7.12000 36.58800 40.25500
H  -5.29500 35.56600 39.71800
H  -4.52300 36.36200 41.08500
H  -6.53300 45.48600 40.74000
H  -5.63800 44.09600 41.48900
H  -6.09300 45.56000 42.32300
H  -10.91600 47.84500 42.29800
H  -10.86400 46.84900 43.82200
H  -11.47100 46.23600 42.24000
H  -13.88900 43.57800 43.51100
H  -14.29800 41.65200 45.68900
H  -12.71800 44.93300 45.72400
H  -13.94500 43.74800 46.44600
H  -14.28700 45.05700 45.22100
H  -15.15800 41.30400 42.93400
H  -15.87100 42.68200 43.81500
H  -16.06800 40.13400 45.37600
H  -16.78700 40.08900 43.79100
H  -17.26400 41.43600 44.94600
H  -14.11100 36.52600 44.69800
H  -13.26400 35.16700 44.24800
H  -14.00800 35.91900 42.97900
H  -8.85500 35.75200 41.30700
H  -5.90200 32.69800 41.68300
H  -6.83900 32.45000 43.30900
H  -5.64300 33.70900 42.97700

