158

Mg 41.51900 8.65000 30.54200
C  43.55200 9.67800 33.06800
C  39.19900 7.65400 32.84100
C  39.78300 7.34900 28.03000
C  44.13800 9.35700 28.24100
N  41.35000 8.78900 32.67600
C  42.28200 9.18700 33.55900
C  41.83200 9.21300 35.01700
C  40.50600 8.45200 34.91700
C  40.35800 8.20900 33.43600
C  40.37700 7.15400 35.75100
C  41.96300 10.67600 35.71800
C  40.67700 11.29500 36.48600
H  41.03900 12.10500 37.74500
N  39.69200 7.71600 30.43700
C  38.86600 7.39900 31.49200
C  37.69800 6.73000 31.01800
C  37.77100 6.83500 29.61800
C  39.13600 7.29500 29.24000
C  36.64500 6.06300 31.90300
C  36.80600 6.34800 28.55500
O  37.06400 6.46600 27.36800
C  35.45700 5.89000 29.02500
N  42.00900 8.32300 28.47300
C  41.06000 7.80200 27.68400
C  41.60700 7.52400 26.23500
C  42.76600 8.57600 26.25100
C  43.00000 8.75300 27.71400
C  42.06900 6.05000 25.87700
C  42.35800 9.82600 25.45200
C  41.51100 10.92400 26.04900
N  43.45300 9.43500 30.58600
C  44.37200 9.64300 29.57500
C  45.57500 10.17300 30.19600
C  45.31400 10.10000 31.57800
C  43.92800 9.73800 31.73500
C  46.85700 10.72800 29.49200
C  45.85400 10.45100 32.87700
O  46.95900 10.91400 33.18500
C  44.71200 10.18600 33.83500
C  45.29300 9.19000 34.85300
O  45.80600 8.12500 34.66000
O  45.09200 9.65100 36.09700
C  45.59900 8.78900 37.20400
H  38.30100 7.45900 33.43000
H  39.26900 7.06500 27.10900
H  44.97200 9.59800 27.57900
H  42.58600 8.57400 35.47700
H  39.57300 8.99200 35.08100
H  39.52500 7.24700 36.42400
H  41.35900 6.95300 36.18000
H  40.26100 6.31100 35.06900
H  42.21000 11.41500 34.95500
H  42.74100 10.61400 36.47800
H  40.04500 10.45500 36.77300
H  40.21900 12.00200 35.79400
H  35.75100 6.68600 31.91800
H  36.96400 5.93700 32.93800
H  36.43500 5.07900 31.48400
H  35.56200 4.95600 29.57700
H  34.80400 5.74500 28.16600
H  34.88800 6.62400 29.59600
H  40.84200 7.79800 25.50900
H  43.62500 8.17400 25.71400
H  43.14300 5.95200 25.71900
H  41.46900 5.71900 25.02900
H  41.89300 5.42800 26.75500
H  41.89200 9.55900 24.50400
H  43.31000 10.26100 25.14700
H  41.02600 10.52200 26.93800
H  40.64800 11.17300 25.43200
H  41.96000 11.87100 26.34800
H  47.66200 11.15300 30.09200
H  46.77100 11.39700 28.63600
H  47.39000 9.83700 29.16000
H  44.47400 11.10400 34.37200
H  45.02400 7.86700 37.28400
H  45.77900 9.32100 38.13800
H  46.58800 8.48200 36.86500
Mg 30.09400 56.45500 41.11400
C  27.01300 55.28400 39.81900
C  31.60500 53.73300 39.61500
C  33.02600 57.96100 41.44600
C  28.45300 59.40300 41.94300
N  29.33300 54.67100 39.99600
C  28.13100 54.46100 39.48900
C  27.99700 53.24600 38.56800
C  29.29500 52.53300 38.98400
C  30.18800 53.69000 39.69000
C  29.19000 51.25400 39.88700
C  27.92600 53.51100 37.00800
C  27.85500 54.87500 36.49400
H  27.08600 55.22600 35.23500
N  32.10000 55.93000 40.59500
C  32.50000 54.77300 40.02600
C  33.83300 54.86700 39.63500
C  34.36100 56.06600 40.22700
C  33.19200 56.71900 40.82800
C  34.43100 53.82600 38.69300
C  35.82300 56.59500 40.03400
O  36.66900 55.96600 39.35100
C  36.23900 57.94200 40.54200
N  30.65100 58.38300 41.64800
C  31.98800 58.71900 41.85800
C  32.11500 60.24400 42.26600
C  30.62900 60.60500 42.68800
C  29.87500 59.40300 42.03600
C  33.13700 60.48600 43.46600
C  30.20800 61.96300 42.20300
C  29.16000 62.83100 43.04500
N  28.08800 57.19900 41.04100
C  27.57300 58.38000 41.49400
C  26.16900 58.33700 41.29700
C  25.92000 57.13400 40.64400
C  27.12600 56.44900 40.51700
C  25.27500 59.50400 41.56800
C  24.84800 56.34000 40.19400
O  23.66300 56.48400 40.21300
C  25.46400 55.09800 39.53100
C  24.87700 53.93600 40.12200
O  25.25200 53.30600 41.08900
O  23.90600 53.49100 39.27300
C  23.26400 52.18700 39.59300
H  32.09600 52.79800 39.33900
H  33.96300 58.50600 41.57700
H  28.08200 60.38300 42.25000
H  27.13200 52.62300 38.79600
H  30.00000 52.26800 38.19700
H  29.77800 51.43400 40.78800
H  29.69400 50.44300 39.36200
H  28.15300 51.00400 40.11500
H  27.03200 52.99100 36.66300
H  28.71900 53.13900 36.36000
H  28.89600 55.15800 36.33700
H  27.66900 55.70500 37.17500
H  33.97300 54.04700 37.72900
H  34.26000 52.77700 38.93800
H  35.51600 53.85500 38.58800
H  35.70200 58.69800 39.96800
H  37.27900 58.05100 40.23500
H  36.19400 57.99800 41.63000
H  32.21800 60.71300 41.28700
H  30.32900 60.46400 43.72600
H  33.69300 59.57200 43.67000
H  32.70400 60.88900 44.38200
H  33.73400 61.32700 43.11500
H  29.84600 61.76200 41.19500
H  31.11600 62.54900 42.06500
H  29.69100 63.69000 43.45600
H  28.68300 62.22900 43.81800
H  28.35400 63.13500 42.37700
H  24.74500 59.67500 40.63100
H  25.74700 60.41900 41.92500
H  24.58000 59.27100 42.37600
H  25.30400 55.12200 38.45300
H  23.93100 51.50500 40.12000
H  22.81600 51.76700 38.69300
H  22.41000 52.46900 40.20900

