158

Mg 47.18000 14.59900 27.65500
C  44.94000 14.74700 30.43700
C  49.08400 16.85300 29.00300
C  48.93300 14.67600 24.67400
C  44.56600 13.06300 25.81300
N  46.90500 15.77500 29.47500
C  46.04400 15.60900 30.50100
C  46.56000 16.27300 31.78800
C  47.72200 17.20400 31.29100
C  47.99700 16.48200 29.88500
C  47.33800 18.71300 31.10400
C  47.12600 15.29500 32.96600
C  46.94800 15.79100 34.46700
H  47.98100 15.58800 35.56000
N  48.83900 15.67200 26.96600
C  49.62200 16.48900 27.76300
C  50.74700 16.98700 27.04200
C  50.67600 16.36600 25.69900
C  49.42500 15.49300 25.72600
C  51.76800 17.88500 27.63300
C  51.58700 16.56900 24.53400
O  51.44500 15.92100 23.55800
C  52.63200 17.60800 24.58800
N  46.74700 14.07800 25.54300
C  47.71700 14.08600 24.54800
C  47.19900 13.57200 23.24500
C  45.92100 12.81900 23.68200
C  45.73700 13.34800 25.14300
C  47.03000 14.78100 22.22700
C  45.95100 11.22800 23.60600
C  46.89700 10.47300 24.55100
N  45.22900 13.90400 28.06200
C  44.30700 13.34300 27.18900
C  43.13900 12.99300 27.92500
C  43.33400 13.48900 29.29500
C  44.58600 14.06700 29.27100
C  41.93600 12.30000 27.39900
C  42.84700 13.62500 30.68200
O  41.78900 13.22700 31.07300
C  43.94300 14.38400 31.52400
C  43.26800 15.58400 32.04100
O  42.74700 16.39400 31.31800
O  43.48900 15.65000 33.35400
C  42.97300 16.91200 34.05700
H  49.82400 17.57000 29.36500
H  49.62300 14.55400 23.83700
H  43.88800 12.43400 25.23200
H  45.86900 16.99200 32.22800
H  48.62800 17.20200 31.89800
H  46.45900 19.08000 31.63400
H  47.18600 18.93900 30.04900
H  48.14700 19.36100 31.44200
H  48.18100 15.15300 32.73100
H  46.62100 14.32900 32.97900
H  46.14200 15.18600 34.88300
H  46.59800 16.82300 34.47300
H  51.68100 17.95500 28.71700
H  51.67100 18.89700 27.24000
H  52.77900 17.52600 27.44200
H  53.38100 17.53000 25.37500
H  52.15400 18.56300 24.80800
H  53.14100 17.54900 23.62600
H  47.92500 12.81800 22.94100
H  44.97100 13.00500 23.18100
H  47.13800 15.78200 22.64500
H  46.07400 14.62000 21.73000
H  47.83000 14.76100 21.48800
H  46.39100 11.01200 22.63200
H  44.92100 10.88100 23.52200
H  47.55900 9.80000 24.00500
H  46.43800 9.92600 25.37300
H  47.63600 11.10800 25.04100
H  42.22100 11.75700 26.49700
H  41.12500 12.97400 27.12500
H  41.51900 11.61400 28.13600
H  44.25200 13.71100 32.32500
H  42.27800 17.53400 33.49300
H  43.90300 17.40700 34.33500
H  42.43100 16.53200 34.92400
Mg -9.51200 17.90200 42.53600
C  -6.04700 17.36600 42.12600
C  -8.95100 21.25300 41.81900
C  -12.85600 18.22800 42.18800
C  -9.90600 14.41600 42.23500
N  -7.65700 19.13200 42.03900
C  -6.43400 18.70800 41.96600
C  -5.44500 19.88000 41.68100
C  -6.27800 21.15300 41.78100
C  -7.72400 20.48800 41.94000
C  -5.91700 22.20300 42.91700
C  -4.53700 19.82100 40.39100
C  -5.06700 18.96800 39.28400
H  -4.31100 18.87700 37.92900
N  -10.67400 19.51400 42.20600
C  -10.30700 20.83000 41.87200
C  -11.48600 21.73400 41.71100
C  -12.60800 20.88400 41.87400
C  -12.08000 19.45800 42.15900
C  -11.32900 23.20800 41.29400
C  -14.03800 21.38700 41.93400
O  -14.19500 22.63100 41.74900
C  -15.22700 20.51000 42.08300
N  -11.20100 16.48600 42.02500
C  -12.48000 16.89400 42.25000
C  -13.46800 15.67700 42.33400
C  -12.44100 14.49100 42.53800
C  -11.09100 15.10800 42.23400
C  -14.61100 15.64100 43.41900
C  -12.65500 13.18800 41.81500
C  -12.70900 11.94600 42.74700
N  -8.25500 16.17000 42.31400
C  -8.56100 14.85000 42.28800
C  -7.26700 14.00600 42.25600
C  -6.24800 15.00500 42.24300
C  -6.92500 16.22900 42.25300
C  -7.21000 12.49900 42.29400
C  -4.79200 15.22500 42.18000
O  -3.85100 14.48400 41.93800
C  -4.62100 16.79000 42.25200
C  -3.72300 17.24700 43.44300
O  -2.65900 17.89100 43.36500
O  -4.41300 16.97300 44.66500
C  -3.92000 17.71500 45.82600
H  -8.72900 22.30500 41.63000
H  -13.94300 18.31000 42.12400
H  -9.93300 13.32400 42.22000
H  -4.77200 19.75000 42.52900
H  -6.31900 21.72100 40.85200
H  -4.96900 22.06900 43.43700
H  -6.71400 22.26400 43.65800
H  -6.00900 23.14800 42.38100
H  -3.51700 19.51500 40.62400
H  -4.62400 20.81100 39.94500
H  -6.05900 19.38000 39.10000
H  -5.11900 17.96000 39.69500
H  -10.54000 23.32400 40.55100
H  -11.14900 23.72500 42.23700
H  -12.17100 23.74100 40.85300
H  -15.31400 19.91100 42.99000
H  -15.24600 19.88400 41.19100
H  -16.17900 21.04000 42.04200
H  -13.95500 15.53500 41.37000
H  -12.47700 14.35200 43.61800
H  -15.59100 15.90000 43.01700
H  -14.45200 16.40800 44.17700
H  -14.66300 14.69200 43.95100
H  -11.84700 13.01900 41.10300
H  -13.61200 13.37100 41.32400
H  -13.73800 11.59900 42.66000
H  -12.55200 12.12100 43.81200
H  -12.11800 11.12200 42.34600
H  -7.77000 11.98100 41.51600
H  -7.67200 12.29400 43.26000
H  -6.15300 12.23300 42.30400
H  -3.97200 17.02100 41.40700
H  -2.84200 17.58500 45.92700
H  -4.57800 17.51500 46.67200
H  -3.96200 18.79500 45.68600

