158

Mg 47.01800 16.25500 28.14500
C  44.86500 16.03800 30.93600
C  49.47100 17.59100 30.21800
C  48.62000 17.39500 25.33800
C  44.48400 14.90400 26.19800
N  46.97400 16.90900 30.26700
C  46.08300 16.68500 31.31300
C  46.69100 17.09100 32.73300
C  48.10200 17.68700 32.36700
C  48.20900 17.34300 30.80100
C  48.27600 19.21600 32.76500
C  46.76100 15.91200 33.85900
C  46.29300 16.16500 35.27400
H  46.24600 17.54100 35.87200
N  48.80500 17.26400 27.83300
C  49.72300 17.73100 28.79700
C  50.90800 18.19900 28.16700
C  50.71600 18.20700 26.77100
C  49.39200 17.53700 26.55800
C  52.08200 18.57600 28.97400
C  51.74300 18.65000 25.68200
O  51.51400 18.40500 24.52400
C  53.01100 19.39800 26.02800
N  46.66300 16.12000 26.12700
C  47.41200 16.71300 25.07000
C  46.77600 16.54400 23.71700
C  45.67300 15.44000 24.00500
C  45.62300 15.43200 25.55700
C  46.18500 17.84900 23.28900
C  46.02800 13.93100 23.56600
C  44.76100 13.13300 23.00700
N  45.11600 15.61800 28.41700
C  44.24100 14.98500 27.55400
C  43.08500 14.59500 28.23200
C  43.25700 14.92800 29.56100
C  44.51500 15.61300 29.63200
C  41.93800 13.80500 27.62000
C  42.72600 14.87200 30.95400
O  41.68000 14.46700 31.46300
C  43.77600 15.62900 31.87600
C  43.03400 16.78500 32.51600
O  42.57200 17.76200 31.91300
O  42.91200 16.61400 33.83700
C  42.03800 17.67200 34.51800
H  50.37500 17.82300 30.78400
H  49.11700 17.80400 24.45500
H  43.78900 14.52700 25.44500
H  46.08700 17.91600 33.11200
H  48.72700 17.11300 33.05100
H  47.33500 19.53900 33.21000
H  48.49500 19.77200 31.85300
H  49.08800 19.30400 33.48800
H  47.79200 15.56700 33.93300
H  46.28100 15.07500 33.35300
H  46.92700 15.52100 35.88300
H  45.29700 15.72200 35.28200
H  51.98600 18.40100 30.04500
H  52.25900 19.65000 28.91700
H  52.93100 18.00700 28.59400
H  53.63600 18.69400 26.57800
H  52.77000 20.32800 26.54300
H  53.53100 19.56000 25.08400
H  47.56100 16.23400 23.02600
H  44.67300 15.68700 23.65000
H  45.10000 17.75700 23.22800
H  46.74000 18.09000 22.38300
H  46.48300 18.57000 24.05000
H  46.50000 13.41300 24.40200
H  46.84000 13.97900 22.84000
H  44.53100 12.16100 23.44400
H  44.94400 12.88900 21.96000
H  43.83300 13.70500 23.04600
H  41.20600 13.71700 28.42300
H  42.36900 12.86300 27.28200
H  41.43300 14.36000 26.83000
H  44.20300 14.98600 32.64600
H  41.65800 18.53700 33.97400
H  42.45100 17.99400 35.47500
H  41.09500 17.19800 34.79000
Mg 30.66000 58.61000 41.67000
C  27.80300 56.99000 40.74000
C  32.46700 56.05700 40.17400
C  33.53300 60.50200 42.03400
C  28.81800 61.52400 42.39600
N  30.13500 56.92500 40.38600
C  28.90300 56.38700 40.28400
C  28.96000 54.98200 39.56600
C  30.44600 54.51100 39.87300
C  31.05700 55.90300 40.21600
C  30.44900 53.60800 41.06000
C  28.57000 54.98900 38.13200
C  27.39000 54.14500 37.64100
H  26.61500 54.79200 36.46300
N  32.70000 58.32900 41.09300
C  33.23400 57.15100 40.56500
C  34.66400 57.32500 40.49300
C  34.97100 58.57200 41.03100
C  33.73100 59.22600 41.40500
C  35.56800 56.23400 40.07300
C  36.37200 59.16800 41.16200
O  37.39300 58.46500 41.10200
C  36.62900 60.63900 41.41400
N  31.18000 60.69800 42.20500
C  32.36800 61.20100 42.28200
C  32.43900 62.65600 42.73400
C  30.89800 62.98200 42.79800
C  30.22400 61.66400 42.46600
C  33.43600 63.05700 43.83300
C  30.53500 64.18300 42.00800
C  29.48000 65.12700 42.62500
N  28.75700 59.16000 41.86200
C  28.10800 60.36100 42.11400
C  26.67700 60.20300 42.03000
C  26.49900 58.83600 41.41600
C  27.79700 58.28500 41.32500
C  25.60100 61.25700 42.37500
C  25.50100 57.88200 40.95700
O  24.29500 57.99700 40.95000
C  26.26400 56.57600 40.54400
C  25.99000 55.43400 41.48900
O  26.82800 55.00000 42.31000
O  24.75900 54.83200 41.25500
C  24.53100 53.63700 42.03100
H  33.06700 55.21100 39.83100
H  34.34300 61.21500 42.20200
H  28.16900 62.39500 42.51300
H  28.15700 54.38300 39.99500
H  30.93600 54.07100 39.00400
H  31.31200 53.75100 41.71000
H  30.59100 52.62800 40.60300
H  29.53800 53.50200 41.64800
H  29.38000 54.64900 37.48700
H  28.31300 56.02700 37.92000
H  26.72000 54.01500 38.49000
H  27.70300 53.18300 37.23700
H  35.86300 56.25100 39.02400
H  35.11900 55.27500 40.33200
H  36.54600 56.17200 40.55100
H  36.40200 60.96200 42.43000
H  35.93600 61.22700 40.81300
H  37.70000 60.83600 41.38100
H  32.87100 63.31200 41.97800
H  30.61600 63.15500 43.83700
H  32.91000 63.44800 44.70400
H  34.06500 63.87900 43.49300
H  34.03900 62.18700 44.09500
H  30.20400 63.83700 41.02900
H  31.34400 64.85400 41.72100
H  28.63700 65.10200 41.93400
H  29.78100 66.17200 42.70000
H  29.18200 64.85000 43.63600
H  24.58200 60.91000 42.20500
H  25.67200 62.08900 41.67400
H  25.60700 61.62900 43.40000
H  25.86000 56.20400 39.60200
H  25.31100 52.88000 41.96000
H  23.54700 53.21700 41.82000
H  24.37900 53.89800 43.07800

