158

Mg 10.75000 47.80900 25.82200
C  8.92900 47.66900 28.79800
C  13.30600 49.21300 27.45300
C  12.46700 47.91800 22.80700
C  7.81100 47.02600 24.01600
N  10.99800 48.34700 27.83300
C  10.19100 48.27400 28.91500
C  10.74400 48.90900 30.22000
C  11.90600 49.70900 29.57300
C  12.17500 48.97000 28.25900
C  11.76100 51.18100 29.45000
C  11.12200 47.82000 31.30900
C  10.22500 47.81300 32.51900
H  10.27300 46.59900 33.48700
N  12.64200 48.41100 25.24700
C  13.58700 48.93300 26.06500
C  14.85500 49.07400 25.36100
C  14.60700 48.57100 24.06200
C  13.18900 48.33000 23.94800
C  16.13500 49.59700 26.08000
C  15.61000 48.18300 22.93500
O  15.36000 47.77100 21.84500
C  17.07900 48.33300 23.27800
N  10.22000 47.44300 23.72600
C  11.12100 47.48400 22.64400
C  10.47800 47.16100 21.27000
C  9.14800 46.63400 21.82900
C  8.99000 47.11200 23.28900
C  10.40000 48.26800 20.26700
C  8.80700 45.09100 21.63400
C  9.90900 44.15200 22.28700
N  8.81200 47.43700 26.21800
C  7.69700 47.12700 25.41800
C  6.55100 46.86300 26.25700
C  6.99100 47.06500 27.54400
C  8.35900 47.44300 27.47000
C  5.22200 46.47300 25.64000
C  6.50100 47.00800 28.94100
O  5.40400 46.60800 29.39500
C  7.85600 47.38700 29.77500
C  8.16800 46.08200 30.56600
O  9.02000 45.23400 30.29300
O  7.38200 46.07800 31.67600
C  7.24700 44.91200 32.57300
H  14.11200 49.60500 28.07600
H  13.04600 47.88200 21.88100
H  6.99300 46.67800 23.38200
H  10.04800 49.64300 30.62500
H  12.78700 49.63100 30.21000
H  10.78100 51.55000 29.75200
H  11.93100 51.30900 28.38100
H  12.51600 51.76800 29.97300
H  12.13000 48.02800 31.66800
H  11.26700 46.82600 30.88500
H  9.20300 47.98500 32.18100
H  10.50500 48.63800 33.17400
H  15.98100 49.52100 27.15600
H  16.42500 50.63700 25.93200
H  17.00200 48.96900 25.87300
H  17.34200 49.36400 23.51300
H  17.62200 47.89700 22.44000
H  17.35500 47.66600 24.09500
H  11.01600 46.31700 20.83700
H  8.28700 47.05000 21.30500
H  10.93400 47.98200 19.36200
H  10.91800 49.19000 20.52900
H  9.35900 48.57700 20.16500
H  8.47800 44.88400 20.61600
H  7.93600 44.86400 22.24900
H  9.52300 43.55700 23.11500
H  10.73400 44.73200 22.70200
H  10.47900 43.67300 21.49100
H  5.08500 46.79500 24.60700
H  4.46600 47.04300 26.18000
H  5.06100 45.39600 25.68200
H  7.82800 48.19900 30.50100
H  7.94100 44.11700 32.29700
H  6.20700 44.64900 32.76200
H  7.72500 45.26200 33.48800
Mg 1.95500 41.35900 26.42900
C  3.80100 41.98900 29.20200
C  -0.84200 40.53900 28.20200
C  0.50500 40.30000 23.54500
C  4.84700 42.20500 24.48500
N  1.50400 41.29100 28.49000
C  2.40300 41.64100 29.51500
C  1.71500 41.62700 30.87200
C  0.24700 41.19800 30.51800
C  0.26900 41.04700 28.98800
C  -0.20400 39.81000 31.12300
C  1.77600 43.03000 31.60100
C  2.24300 43.19600 33.07300
H  1.91000 41.97200 33.94800
N  0.13200 40.41700 26.01500
C  -0.92400 40.21200 26.86600
C  -2.02000 39.54900 26.20400
C  -1.56700 39.45500 24.79400
C  -0.24500 39.99800 24.73000
C  -3.35000 39.00900 26.86300
C  -2.30100 38.86600 23.54600
O  -1.84200 38.83000 22.41400
C  -3.73400 38.35200 23.79600
N  2.59200 41.31700 24.24200
C  1.74100 40.88300 23.29300
C  2.39500 40.95400 21.88900
C  3.80600 41.66700 22.15500
C  3.73300 41.75600 23.73600
C  2.58000 39.54800 21.14800
C  3.97300 43.00700 21.35000
C  4.11500 44.43500 22.12600
N  3.87900 42.02100 26.68200
C  4.91500 42.31400 25.84300
C  6.04400 42.77100 26.60500
C  5.66400 42.63200 27.96300
C  4.35700 42.13200 27.93200
C  7.37900 43.34000 26.09700
C  6.00900 42.79100 29.31000
O  7.04500 43.18500 29.85700
C  4.91500 42.23000 30.17400
C  5.45500 40.89500 30.78000
O  6.02000 39.99200 30.13800
O  5.15200 40.74700 32.06600
C  5.40800 39.51000 32.73200
H  -1.81900 40.32200 28.64000
H  0.06000 39.92500 22.62100
H  5.64900 42.56000 23.83400
H  2.27100 40.85000 31.39700
H  -0.52400 41.88200 30.87200
H  0.54300 39.49600 31.85100
H  -0.27400 39.01100 30.38600
H  -1.15400 39.88400 31.65300
H  0.75100 43.39500 31.65500
H  2.48200 43.72300 31.14400
H  1.94600 44.16900 33.46300
H  3.33200 43.18000 33.04100
H  -4.17400 39.70800 26.71900
H  -3.08300 38.87800 27.91100
H  -3.67700 38.05000 26.46100
H  -4.42100 39.05300 24.27000
H  -3.70300 37.44300 24.39700
H  -4.05800 38.11900 22.78200
H  1.78600 41.52300 21.18700
H  4.53300 40.99100 21.70500
H  1.99400 38.76500 21.63000
H  3.55000 39.19900 20.79600
H  1.88600 39.66500 20.31600
H  3.09800 43.10200 20.70800
H  4.82600 42.88900 20.68200
H  3.33600 45.13100 21.81600
H  5.04200 44.90600 21.79900
H  3.84300 44.46900 23.18100
H  8.13000 42.63500 25.74200
H  7.86600 44.03400 26.78200
H  7.12200 44.04500 25.30600
H  4.64000 42.91200 30.97800
H  4.93000 39.64100 33.70300
H  6.44800 39.24300 32.92400
H  4.89600 38.67600 32.25300

