158

Mg 8.51600 3.76900 27.97000
C  9.53900 2.10100 30.87400
C  6.58100 5.83000 29.88000
C  7.04500 4.84200 25.19200
C  9.87100 1.04100 26.13500
N  8.03800 3.87700 30.11700
C  8.66600 3.12600 31.17200
C  8.32800 3.64500 32.56500
C  7.20500 4.67600 32.15400
C  7.18000 4.78500 30.62900
C  5.85000 4.26100 32.79200
C  9.56700 4.29300 33.38700
C  9.81500 3.61000 34.72700
H  9.94600 4.55800 35.92100
N  7.17700 5.28000 27.62000
C  6.53500 6.06900 28.52100
C  5.70700 7.03300 27.82100
C  5.87500 6.75800 26.42000
C  6.76300 5.56600 26.35300
C  4.95400 8.14200 28.54700
C  5.15200 7.44800 25.33100
O  5.29900 7.13500 24.15100
C  4.30900 8.57400 25.56800
N  8.40200 3.00000 26.01900
C  7.77200 3.71300 25.01900
C  8.06100 3.12100 23.65200
C  8.95400 1.91300 23.99400
C  9.05200 1.95300 25.50100
C  6.71000 2.90800 22.82200
C  10.36700 2.11900 23.27700
C  10.84900 0.80300 22.68100
N  9.64400 2.04900 28.31400
C  10.22500 1.06500 27.45800
C  11.13400 0.23500 28.20900
C  10.86700 0.60300 29.53600
C  9.94500 1.65200 29.58200
C  11.89400 -0.90500 27.69100
C  11.18600 0.27900 30.91500
O  11.96100 -0.54800 31.36400
C  10.32700 1.22700 31.79500
C  9.56300 0.35600 32.66900
O  8.54100 -0.22600 32.42700
O  10.11300 0.39500 33.99100
C  9.41300 -0.19300 35.15900
H  5.98400 6.45500 30.54800
H  6.70400 5.35700 24.29200
H  10.25300 0.27700 25.45400
H  7.86100 2.80700 33.08200
H  7.43900 5.67500 32.52300
H  6.15400 3.99000 33.80300
H  5.39000 3.38800 32.32900
H  5.12100 5.07100 32.79600
H  9.53300 5.38100 33.44900
H  10.38500 4.13200 32.68500
H  10.76700 3.07800 34.73300
H  9.00500 2.93200 34.99300
H  5.26800 8.19400 29.59000
H  3.88700 7.92900 28.48500
H  5.02100 9.11300 28.05600
H  3.98700 8.91100 24.58300
H  4.81400 9.40800 26.05600
H  3.44000 8.29300 26.16300
H  8.56200 3.89500 23.07000
H  8.53600 0.92700 23.79100
H  6.68400 3.65800 22.03100
H  5.85600 2.96600 23.49700
H  6.66900 1.88800 22.43900
H  11.12100 2.28200 24.04700
H  10.30600 2.84100 22.46200
H  11.92700 0.83500 22.52400
H  10.48000 0.72100 21.65800
H  10.50400 -0.07300 23.23000
H  11.89600 -1.10500 26.61900
H  11.50300 -1.85100 28.06600
H  12.93000 -0.79100 28.01000
H  11.14700 1.59000 32.41400
H  8.71700 -1.00600 34.95000
H  8.90300 0.68400 35.55800
H  10.06700 -0.47000 35.98500
Mg 47.62900 35.61800 27.68200
C  45.99900 33.87700 30.26100
C  48.08000 38.21600 29.87000
C  49.15400 37.37600 25.28100
C  47.45300 32.78200 25.70500
N  47.20200 35.88700 29.78500
C  46.51800 35.11500 30.68500
C  46.55100 35.64300 32.09500
C  46.68200 37.18300 31.73500
C  47.36300 37.14500 30.34900
C  45.47100 38.15100 31.88100
C  47.74900 35.11600 33.10100
C  49.20100 35.77100 33.06800
H  49.56700 36.61200 34.29500
N  48.59400 37.48700 27.62400
C  48.71600 38.33700 28.65800
C  49.51900 39.45400 28.23400
C  49.71600 39.32900 26.78800
C  49.07900 38.06600 26.47600
C  49.96700 40.55800 29.28400
C  50.40900 40.27400 25.88300
O  50.45500 40.05300 24.70600
C  51.33200 41.43700 26.41600
N  48.18100 35.15100 25.73300
C  48.75700 36.06200 24.93100
C  48.81100 35.44600 23.45300
C  48.72000 33.89800 23.72700
C  48.08200 33.94300 25.12200
C  47.64900 35.99300 22.51400
C  50.03800 33.01300 23.80400
C  50.00600 31.80700 22.76600
N  46.82700 33.66600 27.87800
C  46.79500 32.67100 26.98800
C  46.24400 31.56400 27.58400
C  45.82100 31.98700 28.88400
C  46.25600 33.28700 29.04100
C  45.94900 30.12300 27.06100
C  45.12000 31.65600 30.12500
O  44.58100 30.64700 30.49100
C  45.10900 32.94900 30.95700
C  45.40200 32.68800 32.36800
O  46.38900 32.10400 32.80800
O  44.37800 33.11400 33.15500
C  44.38500 32.77000 34.54500
H  48.15300 39.05700 30.56200
H  49.52900 37.98400 24.45500
H  47.49100 31.79500 25.24000
H  45.60200 35.50400 32.61400
H  47.50600 37.48400 32.38200
H  45.19500 38.13600 32.93500
H  44.63500 37.84500 31.25200
H  45.80600 39.18600 31.81500
H  47.94200 34.07100 32.85700
H  47.20200 35.28900 34.02800
H  49.43100 36.23700 32.11000
H  49.82100 34.87400 33.09000
H  49.47200 41.48500 28.99500
H  51.04600 40.58800 29.13000
H  49.79800 40.35800 30.34200
H  51.80300 41.75800 25.48600
H  52.14500 41.21600 27.10700
H  50.75700 42.33300 26.64900
H  49.75200 35.79700 23.03100
H  47.87500 33.49600 23.16900
H  46.99200 36.59500 23.14100
H  46.95800 35.24600 22.12300
H  48.03200 36.55900 21.66500
H  50.21100 32.55600 24.77800
H  50.85000 33.61600 23.39700
H  49.21400 31.91300 22.02400
H  49.92000 30.86000 23.29800
H  50.93200 31.74700 22.19500
H  45.16000 30.14000 26.31000
H  45.56100 29.47700 27.84800
H  46.81900 29.67500 26.58000
H  44.09800 33.34200 31.06100
H  44.79900 33.59000 35.13200
H  44.89800 31.81700 34.67100
H  43.35100 32.53100 34.79300

