158

Mg 48.73500 46.78700 42.61600
C  45.47300 47.39800 41.60500
C  48.59000 43.78900 41.19400
C  52.06800 46.69600 43.17400
C  48.80400 50.25900 43.57500
N  47.16600 45.72500 41.59000
C  45.93500 46.16400 41.26700
C  45.18300 45.14100 40.47400
C  46.07700 43.87600 40.61500
C  47.35300 44.49900 41.12500
C  45.62200 42.67200 41.55000
C  44.83900 45.54400 39.04400
C  43.43600 45.13500 38.52700
H  43.42300 44.67600 37.00200
N  50.22300 45.42900 42.10000
C  49.91400 44.27400 41.51500
C  51.17400 43.61000 41.27900
C  52.23100 44.50500 41.73700
C  51.55700 45.60800 42.42600
C  51.39000 42.24700 40.63400
C  53.72700 44.43700 41.44100
O  54.18000 43.51300 40.76200
C  54.73000 45.45200 41.96100
N  50.21700 48.23700 43.44400
C  51.55200 47.91900 43.60400
C  52.38900 49.08800 44.19000
C  51.34400 50.30200 44.20000
C  50.07400 49.59900 43.66600
C  53.14600 48.99100 45.67800
C  51.87000 51.49300 43.36200
C  52.00400 52.82200 44.07900
N  47.39800 48.46100 42.74300
C  47.59700 49.79600 43.18800
C  46.42500 50.56800 43.03600
C  45.53600 49.63400 42.44700
C  46.20100 48.38000 42.26200
C  46.15200 51.97600 43.42400
C  44.15000 49.49400 42.05500
O  43.17100 50.22600 42.17300
C  44.07800 48.09000 41.39100
C  42.96300 47.36800 42.08900
O  42.97700 47.03900 43.25400
O  41.96700 47.05700 41.20100
C  40.73400 46.41400 41.61400
H  48.42700 42.78500 40.79700
H  53.08600 46.77000 43.56400
H  48.80000 51.28800 43.94000
H  44.30800 44.73700 40.98300
H  46.21000 43.39000 39.64800
H  44.62500 42.91700 41.91700
H  46.34600 42.55200 42.35600
H  45.52100 41.80100 40.90300
H  45.55500 44.99400 38.43300
H  45.05700 46.59000 38.83100
H  42.88300 46.07000 38.43600
H  42.86200 44.40200 39.09500
H  51.91800 41.55000 41.28500
H  51.94400 42.30500 39.69700
H  50.38800 41.89000 40.39300
H  54.25400 46.37200 41.62100
H  55.72600 45.32500 41.53700
H  54.84700 45.45500 43.04500
H  53.13800 49.23700 43.41200
H  51.28100 50.65100 45.23100
H  53.93000 49.73600 45.54600
H  53.68500 48.06000 45.84900
H  52.58800 49.15200 46.60000
H  51.16800 51.55400 42.53000
H  52.85000 51.32300 42.91500
H  51.49200 53.66300 43.61100
H  53.06800 53.05900 44.07000
H  51.65900 52.70000 45.10600
H  46.40900 52.74800 42.69800
H  46.70200 52.13100 44.35300
H  45.09600 52.16400 43.61700
H  43.87000 48.18300 40.32600
H  40.33500 46.93500 42.48400
H  40.91500 45.35800 41.81900
H  39.96900 46.59100 40.85900
Mg 26.79000 50.37200 25.94600
C  24.82600 51.55300 28.66500
C  29.06000 49.31000 28.09600
C  28.90300 49.94000 23.26600
C  24.57900 52.02300 23.76900
N  26.91500 50.55400 28.14000
C  26.00100 50.92500 29.06100
C  26.40000 50.49400 30.46800
C  27.89500 49.92300 30.25100
C  27.92000 49.87200 28.73000
C  29.02500 50.83900 30.91800
C  25.37600 49.51900 31.17200
C  24.71600 49.94700 32.44100
H  25.58200 50.53700 33.55800
N  28.72600 49.58000 25.73400
C  29.53000 49.24500 26.76100
C  30.77200 48.77600 26.24500
C  30.75100 48.98100 24.82800
C  29.45400 49.56700 24.60100
C  31.98900 48.22000 27.10700
C  31.82600 48.82200 23.76000
O  31.69600 49.06000 22.56900
C  33.23100 48.19900 24.07600
N  26.82600 50.96400 23.80200
C  27.70100 50.47900 22.89300
C  27.21000 50.76700 21.42000
C  25.78500 51.36300 21.67000
C  25.68200 51.37700 23.21300
C  28.15000 51.53300 20.51100
C  24.56600 50.76600 20.89500
C  23.86400 51.65100 19.86800
N  25.08800 51.61300 26.07800
C  24.25100 52.13800 25.14500
C  23.20400 52.87400 25.76000
C  23.28400 52.62400 27.16500
C  24.49900 51.90500 27.29400
C  22.21200 53.54500 24.96800
C  22.66800 52.83000 28.47600
O  21.73300 53.52400 28.80900
C  23.72100 52.14100 29.51600
C  24.25200 53.09900 30.47400
O  25.29400 53.75200 30.29700
O  23.45900 53.12100 31.61700
C  23.85100 53.98800 32.68900
H  29.67500 48.83200 28.86100
H  29.45300 49.49500 22.43400
H  23.91200 52.53600 23.07300
H  26.43100 51.46200 30.96800
H  28.09900 48.93700 30.66800
H  29.42900 51.43800 30.10100
H  29.82000 50.28900 31.42200
H  28.48900 51.43500 31.65600
H  25.76100 48.52700 31.40600
H  24.55400 49.22100 30.52100
H  24.28700 48.99900 32.76700
H  23.83600 50.58900 32.39600
H  31.81100 48.30800 28.17900
H  32.89700 48.78300 26.89500
H  32.16200 47.14500 27.06200
H  33.89900 47.94600 23.25200
H  33.05700 47.22700 24.53700
H  33.78400 48.82300 24.77900
H  27.09400 49.72200 21.13300
H  25.84300 52.43300 21.47000
H  27.75500 52.46100 20.09600
H  28.43300 50.90900 19.66400
H  29.01500 51.92300 21.04700
H  23.77000 50.55000 21.60800
H  24.80900 49.79200 20.47000
H  23.36700 50.89200 19.26400
H  24.63600 52.18000 19.31000
H  23.07200 52.34400 20.15200
H  22.64000 54.38100 24.41700
H  21.43100 54.05400 25.53200
H  21.67800 52.83800 24.33200
H  23.32600 51.31800 30.11200
H  23.80600 55.02100 32.34600
H  24.84300 53.79500 33.09800
H  23.11600 54.01800 33.49300

