158

Mg 0.78700 7.24400 25.59400
C  1.92500 9.27900 28.26800
C  0.80600 4.56500 27.82500
C  0.08300 5.08500 23.02800
C  1.49300 9.71400 23.37700
N  1.46600 6.99800 27.82700
C  1.72900 7.92500 28.73200
C  1.62300 7.39500 30.12700
C  1.51000 5.84000 29.88900
C  1.28800 5.76100 28.39500
C  2.57900 5.04400 30.43400
C  0.40300 7.99300 30.93800
C  0.66500 8.21100 32.45400
H  1.76700 7.42000 33.16400
N  0.46500 5.17700 25.45200
C  0.43400 4.31200 26.48700
C  0.06300 2.98900 26.03400
C  -0.13000 3.06000 24.58800
C  0.12300 4.45200 24.32200
C  -0.11800 1.87300 26.93600
C  -0.57000 1.97000 23.65300
O  -0.89400 2.14200 22.48700
C  -0.61500 0.53900 24.19600
N  0.80400 7.38600 23.56600
C  0.38200 6.39600 22.67300
C  0.16900 6.92500 21.27100
C  0.61800 8.41600 21.33400
C  0.95300 8.53400 22.81200
C  0.75900 6.06700 20.10600
C  -0.40800 9.46300 20.78000
C  0.34100 10.62700 20.10200
N  1.53900 9.06300 25.74100
C  1.85400 9.93800 24.72600
C  2.40900 11.17900 25.30800
C  2.30900 10.94300 26.70700
C  1.89000 9.65800 26.89900
C  2.66500 12.45300 24.54600
C  2.52400 11.62500 28.03500
O  2.97700 12.73400 28.27800
C  2.18300 10.52300 29.08400
C  3.32600 10.52000 30.14200
O  4.53900 10.62800 29.91000
O  2.77800 10.61800 31.37100
C  3.53800 10.93000 32.60100
H  0.89600 3.79700 28.59600
H  -0.28000 4.41300 22.24800
H  1.54300 10.57400 22.70600
H  2.49900 7.68500 30.70800
H  0.70000 5.47500 30.52000
H  3.02200 4.58000 29.55300
H  2.29400 4.25900 31.13500
H  3.33400 5.65600 30.92900
H  -0.47200 7.37400 30.73700
H  0.29400 9.02000 30.59100
H  -0.30500 8.07600 32.93200
H  0.76000 9.26400 32.71700
H  0.72600 1.19200 26.81600
H  -1.05000 1.38200 26.65600
H  -0.12200 2.05300 28.01100
H  -1.58400 0.30600 24.63800
H  0.24300 0.35200 24.84200
H  -0.57600 -0.19800 23.39400
H  -0.90500 7.02200 21.11700
H  1.59700 8.59800 20.88900
H  1.27900 5.20300 20.51800
H  1.49400 6.53600 19.45300
H  0.00100 5.60800 19.47100
H  -1.00800 9.81200 21.62000
H  -1.00800 8.93000 20.04300
H  -0.01500 10.87800 19.10300
H  1.42800 10.59400 20.18300
H  0.02700 11.48800 20.69200
H  1.86700 12.61900 23.82200
H  3.59500 12.14300 24.07100
H  2.72200 13.40200 25.08100
H  1.28400 10.93600 29.54100
H  4.62500 10.87000 32.54600
H  3.21500 10.27300 33.40800
H  3.39800 11.94200 32.98200
Mg 24.80100 -6.65300 47.75300
C  27.30000 -4.58700 46.75400
C  22.69600 -5.45500 45.30800
C  22.72600 -9.34800 48.18800
C  27.27500 -8.38900 49.75800
N  24.94500 -5.25600 46.28700
C  26.04600 -4.43300 46.09500
C  25.81700 -3.41500 44.89100
C  24.25100 -3.53000 44.68600
C  23.94000 -4.84200 45.40800
C  23.35300 -2.24800 44.99800
C  26.66500 -3.78700 43.67300
C  27.29000 -2.53700 42.99800
H  26.87800 -2.31000 41.52400
N  22.98200 -7.30200 46.88400
C  22.29600 -6.62600 45.95900
C  20.98700 -7.20900 45.72500
C  20.91100 -8.32600 46.64800
C  22.25900 -8.34900 47.26600
C  19.81800 -6.52100 44.88500
C  19.73100 -9.21200 46.87100
O  18.75500 -9.19000 46.19400
C  19.63400 -10.14300 48.06000
N  25.01900 -8.67600 48.73000
C  23.93000 -9.47900 48.85600
C  24.21900 -10.74400 49.62400
C  25.61000 -10.37000 50.19500
C  26.01600 -9.03600 49.55800
C  23.16400 -11.24900 50.70400
C  26.73200 -11.44900 50.11600
C  27.09400 -11.76500 48.68900
N  26.79600 -6.46000 48.25700
C  27.68000 -7.23400 49.01700
C  28.92200 -6.54200 49.14400
C  28.85100 -5.56300 48.17300
C  27.51700 -5.53800 47.70800
C  29.99100 -6.98000 49.97900
C  29.54300 -4.43600 47.61900
O  30.61400 -3.93700 47.82900
C  28.56800 -3.71300 46.61100
C  28.37000 -2.32300 47.04700
O  28.22300 -1.96900 48.20700
O  28.41800 -1.55800 45.93000
C  27.98300 -0.14100 46.17800
H  21.94300 -4.93100 44.71600
H  21.97100 -10.04500 48.55800
H  28.03400 -8.81500 50.41700
H  26.02800 -2.41400 45.26700
H  24.05700 -3.68500 43.62500
H  23.93600 -1.33400 45.11400
H  22.94300 -2.35700 46.00200
H  22.49400 -2.19800 44.32900
H  26.02200 -4.28800 42.94800
H  27.40800 -4.54800 43.91500
H  28.37200 -2.60900 43.11000
H  27.02900 -1.73000 43.68300
H  18.86400 -6.65400 45.39600
H  19.79500 -6.88500 43.85800
H  19.81400 -5.43200 44.84400
H  20.15000 -11.06300 47.78700
H  18.57900 -10.40600 48.13700
H  19.90400 -9.73600 49.03400
H  24.37100 -11.55100 48.90700
H  25.54400 -10.13500 51.25700
H  22.20600 -10.79400 50.45300
H  23.46500 -10.85600 51.67500
H  23.05100 -12.33300 50.67200
H  26.35400 -12.35800 50.58300
H  27.59000 -11.06200 50.66500
H  28.14500 -11.53200 48.52100
H  26.47800 -11.14100 48.04200
H  26.86500 -12.80000 48.43300
H  30.86400 -6.39600 49.68600
H  30.16500 -8.03700 49.77700
H  29.83900 -6.77800 51.03900
H  28.98900 -3.71700 45.60500
H  28.45600 0.28400 47.06300
H  26.90100 -0.01700 46.21900
H  28.06400 0.46900 45.27900

