158

Mg -0.67600 -3.08400 43.63200
C  2.94600 -3.19500 43.39300
C  -0.53400 -0.33200 41.87400
C  -4.00500 -3.26400 43.56300
C  -0.50800 -6.34600 45.06800
N  1.07100 -1.85500 42.78900
C  2.40200 -2.03800 42.76700
C  3.13700 -0.79500 42.13400
C  1.93900 0.19800 41.86000
C  0.76300 -0.70200 42.26400
C  1.96500 1.54800 42.79200
C  4.02900 -1.20200 40.89700
C  5.23000 -0.22400 40.80300
H  5.37500 0.68900 39.55700
N  -2.07200 -1.93900 42.80500
C  -1.82700 -0.80500 42.08000
C  -3.02500 -0.27600 41.64000
C  -4.03900 -1.22100 42.00500
C  -3.33800 -2.24700 42.82500
C  -3.32000 1.03300 41.03500
C  -5.52800 -1.14000 41.67500
O  -6.02000 -0.06300 41.22500
C  -6.44900 -2.22300 41.96700
N  -2.12200 -4.71700 44.04400
C  -3.45500 -4.43400 44.11300
C  -4.22500 -5.55000 44.80800
C  -3.07400 -6.41800 45.35300
C  -1.79700 -5.81100 44.80700
C  -5.12500 -5.00000 45.98200
C  -3.20000 -7.89200 45.03200
C  -3.66400 -8.73900 46.19400
N  0.82100 -4.53500 44.04900
C  0.67600 -5.80500 44.64500
C  1.95200 -6.27300 44.97200
C  2.87700 -5.35100 44.40000
C  2.15800 -4.29700 43.92000
C  2.19500 -7.56000 45.74600
C  4.30500 -4.95300 44.26900
O  5.32100 -5.37400 44.75500
C  4.35200 -3.67200 43.42700
C  5.35100 -2.71400 44.02300
O  5.37700 -2.31000 45.18800
O  6.33100 -2.41500 43.12800
C  7.39700 -1.57800 43.59700
H  -0.71700 0.59200 41.32200
H  -5.09400 -3.21400 43.63200
H  -0.51700 -7.29900 45.60100
H  3.81400 -0.41900 42.90200
H  1.71300 0.41200 40.81500
H  1.16300 1.54200 43.53000
H  2.05100 2.43100 42.15800
H  2.79400 1.38900 43.48100
H  3.54300 -1.13000 39.92400
H  4.32300 -2.24900 40.98100
H  6.10800 -0.86600 40.86400
H  5.34000 0.34500 41.72600
H  -4.27900 1.52200 41.20700
H  -3.16000 0.97000 39.95900
H  -2.52000 1.73600 41.26900
H  -5.95700 -3.18200 41.80600
H  -7.15000 -2.20900 41.13300
H  -6.92300 -2.14600 42.94600
H  -4.78800 -6.08400 44.04200
H  -2.94000 -6.19700 46.41200
H  -5.34600 -3.94200 45.83900
H  -4.63200 -5.08500 46.95100
H  -6.12100 -5.42800 46.09300
H  -2.18200 -8.21400 44.81200
H  -3.89000 -8.04800 44.20300
H  -3.98800 -8.16700 47.06300
H  -2.87100 -9.32400 46.66100
H  -4.52300 -9.34000 45.89600
H  3.22100 -7.65300 46.10200
H  1.98900 -8.33200 45.00500
H  1.49100 -7.54900 46.57800
H  4.60000 -3.96800 42.40700
H  6.96200 -0.59100 43.43900
H  8.30600 -1.60500 42.99700
H  7.70000 -1.76500 44.62700
Mg 8.29500 2.52000 27.81300
C  9.68100 1.00300 30.49700
C  6.52700 4.50900 29.93100
C  6.64400 3.78500 25.10800
C  9.64900 0.11000 25.66400
N  8.27800 2.85200 29.94000
C  9.00500 2.14400 30.88900
C  8.79300 2.75300 32.29700
C  7.56700 3.72600 32.06000
C  7.51200 3.73000 30.53400
C  6.24200 3.15900 32.67000
C  10.07900 3.39500 32.95400
C  10.39700 2.95200 34.37900
H  10.32000 4.03800 35.42600
N  6.70300 3.97500 27.55200
C  6.14300 4.71200 28.53400
C  5.17400 5.65000 27.93300
C  5.19700 5.42800 26.54600
C  6.30400 4.39400 26.33000
C  4.30300 6.61900 28.76000
C  4.36800 6.08200 25.45800
O  4.38500 5.84400 24.23000
C  3.37800 7.04600 25.85700
N  8.11500 2.01900 25.66400
C  7.49000 2.76800 24.77300
C  7.74200 2.32700 23.32000
C  8.79400 1.15800 23.44700
C  8.85900 1.07400 24.99700
C  6.42300 2.02200 22.50800
C  10.13700 1.38000 22.80400
C  10.75000 0.09400 22.21500
N  9.28800 0.77900 27.93400
C  9.80900 -0.10600 27.00200
C  10.63100 -1.10800 27.60900
C  10.52600 -0.74400 28.99500
C  9.70600 0.43300 29.15300
C  11.39500 -2.29000 27.01600
C  10.92800 -1.15900 30.31700
O  11.55800 -2.11000 30.67500
C  10.48800 -0.05100 31.34300
C  9.76100 -0.65300 32.44400
O  8.86500 -1.44700 32.29700
O  10.27000 -0.25800 33.64400
C  9.73100 -0.89600 34.86300
H  5.93200 5.20300 30.52800
H  6.18200 4.32900 24.28200
H  10.17500 -0.56700 24.98800
H  8.48200 1.95700 32.97300
H  7.68400 4.72800 32.47200
H  5.71700 2.49600 31.98100
H  5.48100 3.90600 32.89800
H  6.41800 2.56800 33.56800
H  10.04400 4.46300 32.74000
H  10.91900 3.02100 32.36800
H  11.45000 2.68000 34.31200
H  9.75200 2.10200 34.60100
H  4.72300 6.62600 29.76600
H  3.26000 6.30500 28.75200
H  4.44400 7.63000 28.37800
H  3.77100 8.03600 26.09000
H  2.72700 6.69000 26.65600
H  2.71500 7.21400 25.00800
H  8.24000 3.12300 22.76500
H  8.43500 0.15600 23.21100
H  5.61600 2.12000 23.23300
H  6.55200 1.03400 22.06700
H  6.20000 2.82200 21.80200
H  10.81600 1.67900 23.60200
H  10.11600 2.17400 22.05600
H  10.87000 0.36200 21.16500
H  10.05300 -0.74400 22.20400
H  11.64600 -0.25300 22.73000
H  12.26700 -2.36000 27.66700
H  11.60800 -1.90800 26.01800
H  10.85200 -3.23000 26.91500
H  11.33500 0.32900 31.91300
H  9.16200 -0.10600 35.35300
H  10.56700 -1.17000 35.50600
H  9.05600 -1.73800 34.70800

