158

Mg 8.72900 4.08400 27.06100
C  10.37900 2.68900 29.98300
C  7.11600 6.11600 29.28000
C  7.07000 5.26200 24.49800
C  10.41000 1.65000 25.19700
N  8.65200 4.17000 29.47900
C  9.40200 3.59500 30.40200
C  9.21700 4.20700 31.79100
C  8.12400 5.30400 31.51100
C  7.97800 5.23000 29.93800
C  6.82300 5.29700 32.37400
C  10.55000 4.84500 32.49000
C  10.87900 4.34200 33.91900
H  11.01600 5.38200 35.03700
N  7.31800 5.61600 26.81100
C  6.79500 6.32500 27.85600
C  5.88200 7.30800 27.30900
C  5.86100 7.09400 25.87200
C  6.77200 5.95100 25.68300
C  5.05900 8.26900 28.16400
C  5.14900 7.81300 24.71800
O  5.18400 7.46700 23.52400
C  4.53900 9.10000 24.94700
N  8.73700 3.52700 25.10300
C  7.96600 4.14900 24.24700
C  8.20800 3.54100 22.84700
C  9.29900 2.44600 23.06400
C  9.47900 2.47800 24.53500
C  6.94400 2.89300 22.16800
C  10.55400 2.78300 22.29100
C  11.37100 1.52200 21.75400
N  10.03800 2.46000 27.47200
C  10.62900 1.56600 26.60300
C  11.47600 0.62000 27.31600
C  11.48300 1.14100 28.65000
C  10.58600 2.22800 28.65900
C  12.18900 -0.53900 26.71100
C  11.99900 0.91400 29.97900
O  12.76500 0.03400 30.37800
C  11.36500 1.96700 30.87900
C  10.77400 1.18900 32.09200
O  9.79300 0.45900 32.06500
O  11.50600 1.36800 33.21400
C  11.19700 0.73500 34.53800
H  6.64600 6.82500 29.96500
H  6.53200 5.53900 23.58900
H  10.96000 0.85800 24.68500
H  8.71100 3.42400 32.35600
H  8.63500 6.25900 31.63400
H  5.94900 5.27300 31.72300
H  6.78000 6.22900 32.93900
H  6.89100 4.39800 32.98700
H  10.53100 5.93400 32.50200
H  11.46000 4.68600 31.91200
H  11.78200 3.73300 33.93600
H  10.15200 3.58100 34.20500
H  5.51200 9.24100 27.97000
H  5.07900 8.00400 29.22100
H  4.04500 8.46400 27.81300
H  3.80400 8.96900 25.74100
H  4.02700 9.35600 24.01900
H  5.36400 9.76700 25.19600
H  8.64600 4.23600 22.13100
H  8.93900 1.43900 22.85400
H  6.17000 2.60300 22.87900
H  7.20200 2.07300 21.49800
H  6.48100 3.67200 21.56300
H  11.14200 3.19100 23.11300
H  10.39600 3.42500 21.42400
H  11.70300 1.80000 20.75400
H  10.75900 0.63300 21.60400
H  12.21600 1.36600 22.42500
H  13.15300 -0.20600 26.32700
H  11.58900 -0.99300 25.92200
H  12.26300 -1.37800 27.40300
H  12.15400 2.60200 31.28300
H  10.15000 0.81800 34.83000
H  11.79500 1.30700 35.24800
H  11.56300 -0.28800 34.45500
Mg 17.16000 52.45800 26.21500
C  19.11700 50.78500 28.78200
C  14.84000 53.05000 28.58900
C  15.37900 53.54700 23.83900
C  19.53700 51.07900 23.95200
N  16.98100 51.84600 28.40500
C  17.91900 51.31700 29.25800
C  17.60000 51.61000 30.70400
C  16.04200 51.90000 30.58000
C  15.96800 52.35800 29.13900
C  15.01300 50.81400 30.90800
C  18.60000 52.67500 31.41500
C  19.08900 52.37100 32.80800
H  18.06400 51.67600 33.67000
N  15.39700 53.30100 26.17900
C  14.51800 53.47000 27.28600
C  13.34300 54.11300 26.88200
C  13.54100 54.34400 25.42000
C  14.76000 53.70600 25.07400
C  12.20400 54.53000 27.81100
C  12.66700 55.23800 24.53200
O  12.93700 55.51600 23.35900
C  11.44600 55.74800 25.07400
N  17.21300 52.05300 24.14000
C  16.42800 52.79800 23.35300
C  17.05000 53.02800 21.92600
C  18.38800 52.24700 22.09300
C  18.42200 51.85200 23.53800
C  16.03800 52.51900 20.84500
C  19.65900 52.98400 21.45000
C  20.01900 54.40700 21.93900
N  18.97600 51.28900 26.29900
C  19.72900 50.80600 25.31500
C  20.99900 50.22300 25.83700
C  20.70100 50.14200 27.15000
C  19.52300 50.85500 27.48100
C  22.12600 49.61000 24.95700
C  21.25100 49.70800 28.38800
O  22.30800 48.99900 28.54900
C  20.25500 50.08700 29.48100
C  19.74600 48.93700 30.28100
O  18.64100 48.39500 30.12800
O  20.55400 48.73900 31.35500
C  20.08200 47.76700 32.39300
H  13.97700 53.23900 29.23100
H  14.85000 54.07800 23.04500
H  20.39300 50.73800 23.36500
H  17.69000 50.62600 31.16400
H  15.77500 52.78100 31.16400
H  14.68100 50.89700 31.94300
H  15.41700 49.81800 30.72800
H  14.19800 50.85700 30.18500
H  18.11000 53.64500 31.32400
H  19.42900 52.70700 30.70900
H  19.44100 53.23600 33.37100
H  20.00400 51.78900 32.69700
H  12.18200 55.56100 28.16200
H  12.32800 54.17200 28.83400
H  11.21400 54.34000 27.39700
H  11.78500 56.44000 25.84500
H  10.83500 54.92000 25.43400
H  10.92600 56.28500 24.28000
H  17.19400 54.10400 21.82800
H  18.29800 51.27900 21.60000
H  15.58100 53.39700 20.38800
H  15.35500 51.78900 21.28000
H  16.60600 52.12100 20.00500
H  19.38800 53.04400 20.39600
H  20.57200 52.38900 21.49100
H  20.08200 55.10700 21.10600
H  21.05500 54.44900 22.27600
H  19.42700 54.77400 22.77800
H  22.44500 50.31600 24.19000
H  21.88400 48.63500 24.53400
H  22.94500 49.38000 25.63900
H  20.73100 50.73400 30.21700
H  19.99100 46.74400 32.03000
H  19.13800 48.23200 32.67600
H  20.80500 47.69600 33.20600

