158

Mg 24.23700 -7.30400 47.04100
C  26.77300 -5.20900 46.11000
C  22.04400 -5.57300 44.93800
C  22.00300 -9.79000 47.41900
C  26.64400 -9.28600 48.76700
N  24.41800 -5.52100 45.63200
C  25.57700 -4.89000 45.38100
C  25.36000 -3.74400 44.34300
C  23.82200 -3.73100 44.18900
C  23.38000 -5.02200 44.97400
C  23.06300 -2.41700 44.67300
C  26.22300 -3.98200 43.13200
C  26.71700 -2.60900 42.54900
H  25.89400 -2.00900 41.42100
N  22.25600 -7.58600 46.41200
C  21.59600 -6.76300 45.53300
C  20.24800 -7.26000 45.46000
C  20.13700 -8.44000 46.30800
C  21.49100 -8.64700 46.77000
C  19.16400 -6.51400 44.62700
C  18.87800 -9.16600 46.62600
O  17.74400 -8.77300 46.21700
C  18.87600 -10.38100 47.58400
N  24.30800 -9.27300 48.08400
C  23.21300 -10.02900 48.14300
C  23.50700 -11.27000 48.98300
C  24.93000 -11.08000 49.45200
C  25.34200 -9.82000 48.72400
C  22.44000 -11.70400 50.13500
C  25.87800 -12.21000 49.12700
C  26.32500 -13.01600 50.30800
N  26.32200 -7.26700 47.40800
C  27.15400 -8.08600 48.13400
C  28.50100 -7.55800 48.11600
C  28.41400 -6.35800 47.37300
C  27.06200 -6.31400 46.97800
C  29.72200 -8.18200 48.67700
C  29.07400 -5.22500 46.82300
O  30.18800 -4.76900 47.00300
C  28.04200 -4.51200 45.93900
C  28.08800 -3.02800 46.24600
O  27.73800 -2.53400 47.34300
O  28.64000 -2.37600 45.19200
C  28.82300 -0.91500 45.50900
H  21.30300 -4.98200 44.39600
H  21.36900 -10.65500 47.62700
H  27.39100 -9.82100 49.35800
H  25.68700 -2.84200 44.86000
H  23.66600 -3.86100 43.11800
H  23.76900 -1.87400 45.30300
H  22.20600 -2.64200 45.30800
H  22.79500 -1.86900 43.77000
H  25.72500 -4.43400 42.27400
H  27.05100 -4.65200 43.36300
H  27.76800 -2.70300 42.27500
H  26.65100 -1.90900 43.38200
H  18.30300 -7.15200 44.42700
H  19.52800 -6.10200 43.68500
H  18.93000 -5.68500 45.29500
H  17.83100 -10.68600 47.63700
H  19.19100 -10.18700 48.61000
H  19.44600 -11.22200 47.19000
H  23.46600 -12.05300 48.22500
H  25.11000 -10.92000 50.51500
H  22.64300 -11.12300 51.03500
H  22.77100 -12.73300 50.27400
H  21.41500 -11.62400 49.77200
H  26.79500 -11.87100 48.64300
H  25.34300 -12.88300 48.45700
H  27.19700 -12.58700 50.80000
H  26.56800 -14.01400 49.94300
H  25.58900 -13.09800 51.10800
H  29.87200 -9.18500 48.27700
H  29.64500 -8.26900 49.76100
H  30.58700 -7.57900 48.39800
H  28.38800 -4.67600 44.91900
H  27.92900 -0.30300 45.40000
H  29.46000 -0.42900 44.77000
H  29.17800 -0.73800 46.52500
Mg -2.02000 34.77000 25.96400
C  -3.63900 33.06700 28.62600
C  -0.69100 36.89300 28.20000
C  -1.06100 36.50800 23.43100
C  -3.89700 32.58900 23.79400
N  -2.40500 35.00500 28.18500
C  -2.92500 34.17700 29.10500
C  -2.57600 34.61900 30.57400
C  -1.75400 35.96500 30.33500
C  -1.61600 36.00400 28.79100
C  -2.46700 37.18300 30.84900
C  -1.76200 33.51000 31.24400
C  -2.50200 32.45400 32.18400
H  -2.01700 32.31900 33.59000
N  -0.82300 36.37500 25.86100
C  -0.30500 37.13500 26.88300
C  0.69200 38.10900 26.32800
C  0.55600 38.00200 24.88500
C  -0.51100 36.95200 24.65200
C  1.57800 39.07500 27.21700
C  1.32900 38.76200 23.69600
O  1.04400 38.67300 22.51000
C  2.44000 39.74700 24.16700
N  -2.46700 34.61300 23.95500
C  -1.88700 35.51900 23.04700
C  -2.37600 35.21400 21.61100
C  -2.81000 33.70300 21.78300
C  -3.11500 33.62400 23.27200
C  -3.45300 36.17600 21.12100
C  -1.78900 32.66800 21.34200
C  -0.42100 32.45300 22.03700
N  -3.51400 33.09500 26.14700
C  -4.12600 32.33100 25.18000
C  -4.88100 31.29100 25.77500
C  -4.75400 31.47400 27.08000
C  -3.86200 32.65300 27.30400
C  -5.75800 30.28700 25.00000
C  -5.02400 31.04600 28.39600
O  -5.74100 30.07800 28.76400
C  -4.41500 31.99200 29.37700
C  -5.53400 32.64900 30.27400
O  -6.03300 33.73000 30.02300
O  -5.82700 31.92600 31.37800
C  -6.88300 32.47200 32.26100
H  -0.02600 37.41100 28.89400
H  -0.76300 37.20600 22.64500
H  -4.31800 31.85200 23.10700
H  -3.45800 34.80700 31.18700
H  -0.78900 35.85900 30.83200
H  -2.03900 37.27600 31.84700
H  -3.55100 37.06800 30.85600
H  -2.27400 38.06700 30.24200
H  -0.98700 33.99900 31.83400
H  -1.15900 32.96200 30.52000
H  -2.23900 31.49800 31.73000
H  -3.57500 32.63700 32.23700
H  2.64200 38.90700 27.04900
H  1.40700 38.91500 28.28200
H  1.39900 40.13000 27.01100
H  3.06600 39.97600 23.30500
H  3.08800 39.09300 24.75000
H  2.12500 40.58100 24.79400
H  -1.42000 35.34000 21.10200
H  -3.81100 33.56100 21.37500
H  -3.03900 36.53800 20.17900
H  -3.55200 37.05500 21.75800
H  -4.40900 35.68400 20.94300
H  -1.45400 32.97100 20.34900
H  -2.26100 31.69200 21.23300
H  0.45500 32.44800 21.38800
H  -0.59200 31.52500 22.58300
H  -0.17200 33.31500 22.65500
H  -6.46500 30.78500 24.33600
H  -6.33700 29.61600 25.63500
H  -5.00200 29.76200 24.41700
H  -3.84700 31.39400 30.09000
H  -6.28400 32.71100 33.14000
H  -7.55700 31.69600 32.62600
H  -7.51000 33.27700 31.87800

