158

Mg 25.68000 1.65700 29.14600
C  27.63200 1.23400 32.17300
C  22.95000 1.76000 31.15100
C  24.00400 1.61200 26.37100
C  28.64100 0.86600 27.20600
N  25.30500 1.42800 31.42300
C  26.25700 1.37500 32.40700
C  25.64200 1.57400 33.79800
C  24.11000 1.71600 33.46000
C  24.08000 1.57300 31.93300
C  23.08200 0.94100 34.32900
C  26.24100 2.64600 34.76500
C  25.38200 3.18800 35.85400
H  26.05700 3.37900 37.21800
N  23.73000 1.58800 28.79400
C  22.72100 1.62800 29.76200
C  21.50400 1.66500 29.04000
C  21.79000 1.70700 27.62500
C  23.24700 1.56600 27.53800
C  20.15100 1.64600 29.71700
C  20.83600 1.84000 26.39600
O  21.25400 1.78100 25.25300
C  19.32800 1.94600 26.58100
N  26.27700 1.23300 27.04900
C  25.36200 1.42500 26.08300
C  25.98300 1.61100 24.68800
C  27.49700 1.18100 24.91500
C  27.49200 0.99400 26.46300
C  25.31700 0.72700 23.57200
C  28.44400 2.42400 24.45600
C  28.50300 2.73100 22.98300
N  27.70000 1.33900 29.55700
C  28.79700 1.02500 28.66200
C  29.95000 0.82100 29.48700
C  29.57300 0.87400 30.79400
C  28.17900 1.19500 30.83500
C  31.32800 0.55600 28.87700
C  30.03200 0.81700 32.19500
O  31.13400 0.65200 32.74000
C  28.83900 1.26600 33.08100
C  28.80200 0.38900 34.27100
O  28.49200 -0.78100 34.18600
O  29.23500 1.10300 35.38300
C  29.25500 0.34800 36.64000
H  22.06200 1.89200 31.77200
H  23.40200 1.83800 25.48800
H  29.47400 0.57100 26.56500
H  25.66900 0.59400 34.27600
H  23.91400 2.76600 33.67800
H  22.60000 1.63600 35.01600
H  23.42300 0.16500 35.01400
H  22.25100 0.59800 33.71300
H  26.74000 3.43000 34.19500
H  27.10200 2.17200 35.23700
H  24.51500 2.58200 36.11600
H  25.05700 4.18100 35.54400
H  19.59700 2.58500 29.70200
H  20.31100 1.40500 30.76800
H  19.51000 0.86200 29.31400
H  19.28100 2.51800 27.50800
H  19.01200 0.91000 26.70400
H  18.75900 2.43800 25.79200
H  25.84700 2.62400 24.30900
H  27.79900 0.27000 24.39800
H  24.50200 0.11600 23.95900
H  26.05400 0.08900 23.08500
H  24.92200 1.36500 22.78100
H  29.44400 2.20600 24.83300
H  28.09900 3.29000 25.02000
H  28.94700 3.69200 22.72300
H  27.56200 2.47800 22.49500
H  29.20600 2.12100 22.41400
H  31.26800 0.63000 27.79100
H  31.59300 -0.45400 29.19000
H  31.99400 1.30800 29.30100
H  28.93600 2.28300 33.46100
H  28.33200 0.49000 37.20200
H  29.95700 0.68100 37.40400
H  29.36400 -0.72100 36.46000
Mg 29.61300 57.18600 40.20200
C  26.77900 55.24000 39.73900
C  31.59500 54.44100 39.62600
C  32.23500 59.26000 39.34400
C  27.56800 60.02200 40.43700
N  29.16900 55.06000 39.71400
C  27.95400 54.50600 39.52300
C  28.19100 52.94000 39.35500
C  29.69900 52.70800 39.71500
C  30.24900 54.14100 39.70300
C  30.10400 51.92000 40.97900
C  27.64900 52.35800 37.98900
C  28.20400 53.08700 36.77500
H  27.14900 53.70000 35.72600
N  31.60000 56.85800 39.42300
C  32.20800 55.64400 39.46900
C  33.56700 55.74100 38.99700
C  33.83400 57.21000 38.88000
C  32.50600 57.87500 39.18700
C  34.55600 54.61900 38.98200
C  35.15700 57.91400 38.45200
O  36.17500 57.26600 38.28400
C  35.20900 59.43300 38.21000
N  29.79800 59.32500 39.69700
C  30.97700 59.87600 39.65000
C  30.92900 61.40600 39.84400
C  29.41100 61.61500 40.12600
C  28.92400 60.24000 40.10700
C  31.82700 61.94000 41.03800
C  28.73600 62.56400 39.04400
C  28.47500 64.03600 39.34300
N  27.53500 57.58300 40.25500
C  26.82900 58.76700 40.48400
C  25.44200 58.45000 40.52700
C  25.35200 57.09900 40.15900
C  26.64100 56.59700 39.99300
C  24.25000 59.46000 40.80300
C  24.40500 56.04900 39.95800
O  23.13400 56.04900 40.00300
C  25.32000 54.77500 39.58900
C  24.90200 53.67000 40.40800
O  25.30900 53.48300 41.56100
O  24.08600 52.93600 39.61600
C  23.19800 51.97800 40.31200
H  32.18400 53.52200 39.59900
H  33.03400 59.99300 39.47400
H  27.07100 60.95900 40.69800
H  27.69000 52.37100 40.13800
H  30.23700 52.32300 38.84800
H  29.26100 51.40500 41.44100
H  30.41300 52.57800 41.79200
H  30.91600 51.27200 40.65100
H  26.55900 52.33600 38.01700
H  27.96100 51.32200 37.85200
H  28.86700 52.38300 36.27300
H  28.87200 53.90200 37.05500
H  35.55500 55.05300 38.94100
H  34.37000 54.00100 38.10400
H  34.40600 53.98800 39.85800
H  35.44300 60.05200 39.07700
H  34.27200 59.59800 37.67800
H  35.90600 59.38800 37.37300
H  31.30200 61.77700 38.89000
H  29.14700 61.92000 41.13900
H  32.59600 62.56000 40.57700
H  32.46500 61.25200 41.59200
H  31.19300 62.51400 41.71500
H  27.76900 62.09600 38.86100
H  29.32900 62.56100 38.12800
H  29.32800 64.53300 38.88200
H  28.39000 64.27700 40.40300
H  27.60800 64.25700 38.72200
H  23.63100 59.05700 41.60500
H  23.73600 59.59700 39.85200
H  24.62600 60.44700 41.07300
H  25.19000 54.62800 38.51700
H  23.43900 51.95400 41.37400
H  23.11200 50.98300 39.87300
H  22.17900 52.35600 40.22300

