158

Mg 24.23900 -7.31200 48.28300
C  26.61700 -4.97500 47.04500
C  21.98500 -6.18000 45.73900
C  22.10600 -9.47300 49.33600
C  26.83500 -8.61900 50.18000
N  24.31600 -5.78900 46.70500
C  25.37600 -5.00400 46.35100
C  24.99600 -3.93900 45.34800
C  23.41500 -4.09700 45.24700
C  23.19500 -5.44800 45.97200
C  22.62000 -2.87600 45.81200
C  25.77300 -4.03900 43.97000
C  26.45400 -2.76300 43.52300
H  25.87300 -2.10800 42.30500
N  22.31500 -7.83800 47.55500
C  21.48900 -7.24600 46.55200
C  20.23300 -7.89700 46.51100
C  20.14700 -8.73600 47.59600
C  21.56200 -8.76900 48.22500
C  19.14900 -7.50300 45.46600
C  18.90700 -9.57600 48.00600
O  17.85500 -9.46400 47.37600
C  18.91400 -10.59700 49.09900
N  24.42300 -8.95300 49.44100
C  23.35300 -9.60200 49.90200
C  23.72500 -10.75400 50.91400
C  25.31400 -10.53300 51.03400
C  25.55200 -9.27500 50.17200
C  22.93100 -10.70300 52.32000
C  26.28000 -11.71200 50.69100
C  26.82100 -11.80300 49.22200
N  26.33200 -6.86100 48.70000
C  27.28200 -7.49000 49.43200
C  28.59700 -6.82700 49.35300
C  28.38200 -5.71200 48.45400
C  27.01800 -5.83700 48.04700
C  29.84900 -7.25700 50.07800
C  28.96200 -4.58000 47.73400
O  30.13700 -4.19600 47.67300
C  27.85200 -4.11100 46.75500
C  27.73600 -2.66500 47.09100
O  27.11000 -2.19400 48.06100
O  28.18400 -1.90600 46.07100
C  27.72700 -0.51900 46.19200
H  21.29200 -5.81500 44.97800
H  21.36500 -10.17100 49.73300
H  27.63400 -9.13400 50.71800
H  25.20700 -2.94000 45.72800
H  23.03500 -4.23000 44.23400
H  23.26600 -2.02300 46.02100
H  22.04400 -3.35000 46.60700
H  21.90700 -2.50500 45.07700
H  24.96000 -4.10900 43.24800
H  26.44800 -4.89400 43.92500
H  27.46900 -3.08500 43.29000
H  26.52000 -1.96200 44.26000
H  18.50400 -6.68100 45.77600
H  18.55000 -8.38400 45.23500
H  19.48000 -7.26900 44.45500
H  17.95400 -11.07100 49.30000
H  19.14100 -10.05400 50.01600
H  19.71200 -11.32900 48.97800
H  23.57600 -11.69500 50.38600
H  25.44000 -10.09100 52.02300
H  22.43200 -9.74600 52.46900
H  23.61700 -10.83600 53.15700
H  22.23600 -11.54200 52.33000
H  25.91900 -12.68100 51.03600
H  27.05200 -11.71100 51.46000
H  26.88800 -12.88100 49.07900
H  27.76800 -11.27000 49.13800
H  25.98300 -11.47200 48.60800
H  30.26000 -8.20800 49.73700
H  29.51100 -7.51300 51.08200
H  30.61300 -6.48100 50.04000
H  28.21600 -4.14000 45.72800
H  28.15400 0.02300 45.34800
H  28.17200 0.03500 47.01900
H  26.64200 -0.56400 46.10400
Mg 26.79600 50.38000 26.82700
C  24.59500 51.40700 29.40100
C  29.03200 49.32800 29.15100
C  28.73100 49.72200 24.25500
C  24.48500 51.95700 24.52200
N  26.73300 50.45400 28.98100
C  25.76800 50.90000 29.86600
C  26.14000 50.55300 31.38100
C  27.64900 50.06300 31.24500
C  27.81600 49.90600 29.71900
C  28.66500 51.01000 31.85700
C  25.11400 49.46500 31.94300
C  24.37100 49.88900 33.26100
H  24.16500 48.97100 34.46100
N  28.57800 49.62300 26.66100
C  29.31500 49.15900 27.77800
C  30.56900 48.64300 27.27300
C  30.52800 48.72100 25.82900
C  29.29900 49.40100 25.49600
C  31.62200 48.08400 28.16800
C  31.58900 48.17100 24.86100
O  31.51100 48.27000 23.65400
C  32.74500 47.40700 25.31400
N  26.62500 50.90800 24.68700
C  27.57900 50.42800 23.85000
C  27.07500 50.52400 22.38800
C  25.61600 51.00400 22.53300
C  25.54300 51.32100 24.04600
C  28.04000 51.44000 21.57300
C  24.43100 50.04500 22.18300
C  23.41200 50.53300 21.13100
N  24.90000 51.47200 26.91700
C  24.09700 51.95700 25.90700
C  22.87200 52.55500 26.50900
C  23.00500 52.29600 27.89400
C  24.27900 51.68700 28.08300
C  21.77700 53.31300 25.71000
C  22.32500 52.45700 29.16400
O  21.29700 52.97300 29.52400
C  23.41900 51.99000 30.20400
C  23.93100 53.13000 31.04300
O  25.04200 53.71000 30.91400
O  23.09700 53.37500 32.02800
C  23.40300 54.48100 32.98200
H  29.72100 48.91300 29.89000
H  29.32700 49.35600 23.41600
H  23.73500 52.26300 23.79000
H  26.20100 51.53100 31.85800
H  27.75400 49.10600 31.75600
H  29.20300 50.42900 32.60600
H  28.24800 51.94100 32.24200
H  29.28700 51.38600 31.04400
H  25.69100 48.55400 32.10400
H  24.40000 49.22400 31.15500
H  23.41600 50.22700 32.85900
H  24.85200 50.81300 33.58100
H  31.51000 48.19800 29.24700
H  32.62100 48.50500 28.05600
H  31.86500 47.03100 28.02500
H  32.41700 46.70000 26.07700
H  33.43600 48.04700 25.86200
H  33.16100 46.94300 24.42000
H  27.21600 49.51800 21.99300
H  25.47400 51.93500 21.98400
H  29.02100 51.46600 22.04600
H  27.54600 52.36800 21.28600
H  28.15400 50.95400 20.60400
H  23.89900 49.78600 23.09800
H  24.94800 49.14000 21.86300
H  23.64800 50.15400 20.13700
H  23.54700 51.61000 21.02700
H  22.39200 50.26100 21.40000
H  21.86600 53.30800 24.62300
H  21.94900 54.33500 26.04900
H  20.80200 53.06700 26.12900
H  22.89400 51.30000 30.86400
H  23.98800 54.08200 33.81100
H  22.51400 54.86500 33.48200
H  23.80800 55.36800 32.49500

