158

Mg 40.48200 9.47900 29.55200
C  42.32400 11.06500 32.12000
C  38.12700 8.41400 31.71000
C  39.06300 7.93200 26.90300
C  43.34800 10.16100 27.53700
N  40.33100 9.64300 31.61500
C  41.14500 10.41200 32.53900
C  40.41600 10.49200 33.81800
C  39.35000 9.38200 33.72200
C  39.27400 9.09200 32.24900
C  39.39400 8.07800 34.56100
C  39.88800 11.92900 34.12000
C  39.44400 12.10700 35.60000
H  40.39600 12.89000 36.53600
N  38.65200 8.52700 29.24900
C  37.83400 8.11800 30.34200
C  36.70300 7.45700 29.76100
C  36.94900 7.40200 28.38200
C  38.21900 7.93700 28.07500
C  35.59300 6.90700 30.66400
C  36.11800 6.71300 27.31100
O  36.51300 6.71100 26.14900
C  34.74800 6.10900 27.71500
N  41.19400 9.07600 27.53200
C  40.36900 8.46200 26.60500
C  40.93400 8.39000 25.17700
C  42.29600 9.24700 25.42800
C  42.29600 9.59100 26.92700
C  41.11600 6.99200 24.64500
C  42.56700 10.46900 24.42500
C  42.00700 11.92000 24.66000
N  42.54200 10.43800 29.70300
C  43.52000 10.60300 28.85600
C  44.51200 11.47000 29.31100
C  44.13900 11.63900 30.69500
C  42.91000 10.93900 30.83800
C  45.60300 12.07100 28.57100
C  44.48700 12.28400 31.94800
O  45.38000 13.06900 32.13500
C  43.28300 11.88800 32.96400
C  43.94300 11.05200 34.05700
O  44.78200 10.18300 33.82300
O  43.64100 11.59400 35.31900
C  44.04000 10.73000 36.46200
H  37.41600 8.10000 32.47700
H  38.64300 7.56600 25.96400
H  44.15800 10.47000 26.87300
H  41.06600 10.21400 34.64800
H  38.42900 9.86900 34.04100
H  40.26800 7.51200 34.24000
H  38.52800 7.44900 34.35700
H  39.36400 8.34600 35.61700
H  38.99200 12.12700 33.53100
H  40.63000 12.68900 33.87600
H  39.32900 11.13500 36.08100
H  38.45000 12.55400 35.60300
H  34.58000 7.03200 30.28100
H  35.54700 7.25700 31.69500
H  35.82100 5.84200 30.62200
H  34.09900 6.94100 27.99100
H  34.85400 5.36300 28.50200
H  34.37400 5.67300 26.78900
H  40.23500 8.99000 24.59500
H  43.15100 8.61200 25.19900
H  42.06800 6.83700 24.13500
H  40.30100 6.78000 23.95300
H  41.06000 6.23200 25.42400
H  42.29000 10.13400 23.42600
H  43.65600 10.42900 24.38500
H  41.12900 11.80800 25.29600
H  41.61400 12.36200 23.74500
H  42.77900 12.57000 25.07100
H  45.35500 12.40700 27.56500
H  46.31700 11.26100 28.42100
H  46.02700 12.97100 29.01700
H  42.78400 12.76900 33.36800
H  44.01200 9.70900 36.08300
H  43.25200 10.77000 37.21400
H  45.06200 10.93300 36.78000
Mg 50.17900 35.71700 28.09200
C  47.70200 34.14900 30.03700
C  50.38200 38.23400 30.33700
C  52.21400 37.22500 25.97900
C  49.48000 33.33200 25.45000
N  49.21500 35.98700 30.05700
C  48.29200 35.23700 30.72300
C  48.16300 35.65900 32.27800
C  48.81900 37.06000 32.18400
C  49.53500 37.12400 30.78700
C  47.74600 38.21800 32.34100
C  49.12400 34.71400 33.12000
C  48.75600 34.33100 34.60700
H  47.72300 35.19800 35.29100
N  51.13900 37.42700 28.16800
C  51.20900 38.35100 29.22700
C  52.18700 39.39800 28.91900
C  52.74800 39.15700 27.68000
C  52.03600 37.88000 27.19200
C  52.57500 40.39600 29.96700
C  53.69600 40.03400 26.89800
O  54.02200 39.74400 25.73600
C  54.06800 41.36100 27.50800
N  50.63000 35.32900 25.90600
C  51.57600 36.15000 25.36500
C  51.76200 35.78600 23.83400
C  51.05000 34.41200 23.74700
C  50.33900 34.37300 25.05300
C  51.32200 36.84100 22.82100
C  52.02400 33.25600 23.60200
C  51.89100 32.37200 22.41700
N  48.96700 33.98400 27.79200
C  48.76500 33.17400 26.71400
C  47.70100 32.19700 26.94200
C  47.27100 32.52300 28.26400
C  48.08000 33.62000 28.77700
C  47.09200 31.26800 25.93200
C  46.26700 32.25200 29.27500
O  45.45200 31.29900 29.27900
C  46.50000 33.28600 30.51900
C  46.68000 32.44300 31.77600
O  47.34800 31.41600 31.79000
O  46.03800 33.01600 32.86500
C  46.00700 32.20000 34.09100
H  50.38800 38.98300 31.13200
H  52.87200 37.77900 25.30500
H  49.16600 32.49600 24.82100
H  47.12800 35.71600 32.61500
H  49.58700 37.17600 32.94900
H  47.82700 38.96200 31.54900
H  47.84800 38.73500 33.29500
H  46.76600 37.75700 32.22200
H  50.15200 35.07300 33.17100
H  49.12900 33.70600 32.70600
H  49.69800 34.27600 35.15300
H  48.29900 33.34800 34.71700
H  52.14700 40.21000 30.95200
H  52.39400 41.43200 29.68100
H  53.64000 40.26400 30.15900
H  54.71200 41.22100 28.37600
H  53.13700 41.84800 27.79900
H  54.70000 41.90800 26.80700
H  52.82700 35.73600 23.61100
H  50.34300 34.29300 22.92600
H  50.88500 37.67100 23.37700
H  50.54700 36.44200 22.16700
H  52.12900 37.25300 22.21500
H  51.81700 32.61500 24.45900
H  53.01800 33.70100 23.64400
H  51.16100 32.77500 21.71500
H  51.52500 31.36300 22.60700
H  52.85900 32.23200 21.93400
H  47.78700 30.43900 25.80000
H  46.84500 31.85300 25.04600
H  46.14200 30.93000 26.34500
H  45.63800 33.91100 30.75100
H  46.91600 31.63800 34.30500
H  45.13000 31.55200 34.09100
H  45.92300 32.89100 34.93000

