158

Mg 7.74900 2.73400 27.44300
C  9.07600 0.90100 30.16400
C  5.86900 4.57700 29.47800
C  6.24100 3.96400 24.73700
C  9.11800 0.26800 25.31300
N  7.53600 2.75800 29.53300
C  8.28100 2.06500 30.48900
C  8.11100 2.73500 31.87700
C  6.94600 3.74400 31.66200
C  6.69100 3.67900 30.12700
C  5.81700 3.65700 32.62900
C  9.39500 3.40800 32.42400
C  9.18600 3.95100 33.82300
H  10.10600 3.51500 34.95700
N  6.21500 4.15400 27.10200
C  5.54500 4.81500 28.12900
C  4.67600 5.81900 27.56400
C  4.78400 5.67900 26.17700
C  5.80300 4.55600 25.95100
C  3.70200 6.62400 28.37600
C  4.00200 6.41500 25.07800
O  4.06200 6.11600 23.88800
C  2.96100 7.45400 25.45000
N  7.55100 2.01600 25.30400
C  6.92100 2.84800 24.44300
C  7.02200 2.29600 23.02500
C  8.01500 1.10100 23.22000
C  8.21700 1.07100 24.71900
C  5.69100 1.70800 22.47000
C  9.32200 1.37900 22.47100
C  9.98000 0.05400 22.13800
N  8.93500 1.07000 27.65600
C  9.41400 0.12300 26.68100
C  10.24800 -0.88600 27.30300
C  10.26600 -0.53200 28.66600
C  9.28100 0.54100 28.85000
C  11.00000 -1.99800 26.63200
C  10.80000 -0.85500 30.00200
O  11.59300 -1.68600 30.44000
C  10.03300 0.15200 31.03400
C  9.33200 -0.67400 32.08100
O  8.44600 -1.44500 31.86100
O  9.84400 -0.34400 33.28900
C  9.49900 -1.19500 34.50000
H  5.34800 5.28700 30.12400
H  5.91600 4.54000 23.86800
H  9.67700 -0.46900 24.73200
H  7.78400 2.01900 32.63100
H  7.41300 4.72100 31.77900
H  4.98200 3.15600 32.14100
H  5.46800 4.68100 32.76400
H  6.10300 3.12100 33.53300
H  9.73500 4.15600 31.70800
H  10.17500 2.64700 32.45600
H  8.15600 3.64000 33.99700
H  9.26100 5.03600 33.74700
H  3.90800 7.69400 28.34500
H  3.75600 6.41600 29.44500
H  2.64500 6.51100 28.13400
H  2.15300 6.93100 25.96200
H  2.58700 8.11600 24.66900
H  3.40000 8.16100 26.15300
H  7.38800 3.08600 22.37000
H  7.53200 0.20000 22.84000
H  4.93400 1.93700 23.22000
H  5.60800 0.64400 22.24900
H  5.39700 2.25800 21.57600
H  9.98000 1.95900 23.11800
H  9.13200 1.94400 21.55800
H  9.34000 -0.79500 22.37900
H  10.95200 0.03500 22.63100
H  10.03100 -0.04400 21.05400
H  11.44500 -1.75600 25.66700
H  10.54700 -2.97700 26.47400
H  11.84900 -2.06000 27.31300
H  10.75500 0.73400 31.60600
H  9.25500 -0.49800 35.30100
H  10.40200 -1.68800 34.85900
H  8.64800 -1.81700 34.22200
Mg 1.94700 42.46800 25.53900
C  2.85600 42.55400 28.96300
C  -1.13800 41.18300 26.48400
C  1.46700 41.53400 22.32600
C  5.31400 43.34300 24.70800
N  0.96000 42.01400 27.55000
C  1.51400 42.30000 28.78900
C  0.45200 41.96000 29.93800
C  -0.71600 41.30100 29.15000
C  -0.31600 41.48600 27.60900
C  -1.01800 39.84000 29.54400
C  0.03200 43.37300 30.63300
C  -0.22800 43.30300 32.15900
H  -1.02500 42.12900 32.72800
N  0.30100 41.61100 24.57700
C  -0.85700 41.16200 25.09700
C  -1.67200 40.59300 24.06200
C  -0.93000 40.68800 22.80300
C  0.32500 41.31200 23.18500
C  -3.07100 40.01600 24.34300
C  -1.42100 40.35700 21.35900
O  -0.73800 40.48200 20.40400
C  -2.83200 39.99900 21.11100
N  3.15300 42.52200 23.78600
C  2.75200 42.04800 22.58100
C  3.72800 42.31300 21.40700
C  4.81700 43.20200 22.16200
C  4.42300 43.05200 23.67800
C  4.20100 41.05800 20.66000
C  4.87300 44.59000 21.65000
C  3.61100 45.44200 21.75600
N  3.69000 42.86000 26.55500
C  5.03600 43.14900 26.11900
C  5.89200 43.31300 27.22900
C  5.09200 43.04300 28.34600
C  3.72800 42.85700 27.86900
C  7.40100 43.64600 27.25000
C  5.19400 42.91200 29.78600
O  6.18500 42.98200 30.48700
C  3.64200 42.68400 30.24100
C  3.70700 41.43100 31.06000
O  3.98500 40.35300 30.56600
O  3.43800 41.63000 32.38900
C  3.72200 40.50400 33.25400
H  -2.10600 40.72500 26.69600
H  1.32400 41.21200 21.29300
H  6.36900 43.57500 24.55000
H  0.96900 41.26400 30.59900
H  -1.61500 41.90300 29.28300
H  -0.36500 39.48300 30.34100
H  -0.86900 39.30500 28.60600
H  -1.99700 39.74400 30.01300
H  -0.90700 43.68500 30.17700
H  0.81500 44.13100 30.60100
H  -0.75400 44.18100 32.53200
H  0.73800 43.30000 32.66300
H  -3.85500 40.74400 24.13700
H  -3.13500 39.58400 25.34100
H  -3.22600 39.11300 23.75200
H  -2.95000 38.93600 21.31800
H  -3.02000 40.06700 20.04000
H  -3.51100 40.67200 21.63400
H  3.26300 42.98400 20.68500
H  5.78700 42.77800 21.90200
H  3.49900 40.83300 19.85800
H  4.28400 40.28000 21.41800
H  5.16400 41.20800 20.17000
H  5.10800 44.43300 20.59700
H  5.66100 45.02500 22.26500
H  2.67800 44.87900 21.78400
H  3.57700 45.95000 20.79300
H  3.62900 46.11800 22.61100
H  7.78400 43.27600 28.20100
H  7.47200 44.72800 27.35800
H  7.98100 43.23200 26.42400
H  3.35600 43.56400 30.81600
H  4.78300 40.57600 33.49000
H  3.49800 39.49800 32.89800
H  3.05600 40.71200 34.09200

