158

Mg -0.43900 7.72900 27.66200
C  0.27400 9.89100 30.16200
C  -0.55300 5.03500 29.89300
C  -1.34500 5.78700 25.06000
C  0.13200 10.40100 25.38700
N  -0.05500 7.46300 29.74800
C  0.04100 8.53500 30.60200
C  -0.11500 8.06000 32.03600
C  0.17600 6.46700 31.88600
C  -0.26000 6.28100 30.42900
C  1.65400 5.97200 32.18400
C  -1.50400 8.48100 32.63700
C  -1.64400 8.57500 34.20000
H  -0.37900 8.43600 35.01200
N  -0.98300 5.71200 27.48100
C  -0.96600 4.75600 28.55500
C  -1.33700 3.45000 28.00600
C  -1.43900 3.66600 26.56500
C  -1.32100 5.08700 26.30100
C  -1.35200 2.14800 28.83400
C  -1.57200 2.60100 25.48900
O  -1.51700 2.87100 24.27900
C  -1.72800 1.16000 25.80400
N  -0.60000 8.05200 25.49800
C  -1.04600 7.04000 24.67700
C  -0.95300 7.51200 23.20900
C  -0.73100 9.07100 23.41900
C  -0.41500 9.25700 24.85600
C  0.08800 6.71000 22.36900
C  -1.85500 10.06000 22.92800
C  -1.58100 10.88400 21.64600
N  0.30400 9.72700 27.68900
C  0.47400 10.67300 26.73500
C  0.91800 11.92100 27.32500
C  0.83800 11.66200 28.72800
C  0.33400 10.31800 28.87200
C  1.30300 13.22600 26.69100
C  1.09400 12.13400 30.06600
O  1.49400 13.19700 30.39300
C  0.71000 11.00700 31.04400
C  1.90600 10.67200 31.88500
O  2.83900 9.99800 31.51400
O  1.80100 11.25600 33.13600
C  2.89900 11.05600 34.00900
H  -0.41000 4.19300 30.57300
H  -1.69000 5.21900 24.19400
H  0.33600 11.17800 24.64800
H  0.70600 8.51400 32.59200
H  -0.56000 5.91000 32.46600
H  2.07100 6.87900 32.62300
H  2.09600 5.63800 31.24500
H  1.60800 5.16300 32.91200
H  -2.12800 7.63400 32.35400
H  -1.86100 9.39200 32.15700
H  -2.46600 7.99800 34.62300
H  -2.06000 9.56600 34.37400
H  -0.62300 1.49700 28.35200
H  -2.36800 1.75300 28.81300
H  -1.04100 2.37100 29.85400
H  -2.55500 1.25700 26.50700
H  -0.77400 0.68700 26.03800
H  -2.18100 0.59100 24.99200
H  -1.91100 7.36500 22.71000
H  0.24600 9.31300 23.00000
H  -0.29600 6.18000 21.49700
H  0.59700 5.94600 22.95600
H  0.73600 7.43700 21.87900
H  -2.02200 10.84200 23.66800
H  -2.82900 9.57400 22.97500
H  -1.16600 11.85200 21.92600
H  -2.48300 10.83900 21.03500
H  -0.77700 10.39900 21.09200
H  1.39000 13.02400 25.62300
H  2.32800 13.51600 26.92000
H  0.54200 13.94600 26.99200
H  -0.16100 11.20600 31.66800
H  3.84600 10.85300 33.51000
H  2.56100 10.39000 34.80300
H  3.09700 12.05000 34.41100
Mg 47.48800 25.32500 28.21700
C  48.96300 27.22800 30.70900
C  46.14500 23.35400 30.62000
C  46.83700 23.00100 25.87000
C  48.86000 27.39800 25.85500
N  47.51400 25.37400 30.40700
C  48.21400 26.18600 31.17300
C  47.88500 25.89100 32.68400
C  47.08900 24.56400 32.64500
C  46.90500 24.44100 31.13500
C  47.92700 23.34200 33.12100
C  47.10600 27.04100 33.44200
C  47.58000 27.06800 34.91600
H  46.61300 27.54700 36.02400
N  46.62200 23.48100 28.26800
C  45.99100 22.85100 29.30300
C  45.39200 21.57400 28.85700
C  45.73200 21.49100 27.47500
C  46.44100 22.67500 27.11800
C  44.71400 20.58700 29.87400
C  45.45500 20.19400 26.58800
O  45.89400 20.19000 25.43800
C  44.56800 19.04800 27.03900
N  47.88200 25.17100 26.18700
C  47.50400 24.12800 25.36000
C  47.89400 24.32000 23.91800
C  48.26900 25.86100 23.92900
C  48.32400 26.15600 25.43900
C  49.04600 23.32400 23.47300
C  47.32900 26.71100 23.03000
C  47.84500 26.85100 21.57500
N  48.66000 27.13000 28.21900
C  49.07400 27.86900 27.18300
C  49.73800 29.03900 27.65400
C  49.87700 28.81000 29.08900
C  49.08700 27.61300 29.39800
C  50.28500 30.23300 26.93200
C  50.44300 29.26600 30.35700
O  51.07300 30.26300 30.61800
C  49.83000 28.31400 31.49500
C  50.96700 27.78400 32.22000
O  51.90100 27.22500 31.68700
O  50.87300 28.03200 33.56700
C  52.04400 27.66900 34.37100
H  45.73000 22.64300 31.33700
H  46.82300 22.27600 25.05300
H  49.18000 28.07700 25.06300
H  48.85200 25.79500 33.17700
H  46.15400 24.56700 33.20400
H  48.72400 23.65700 33.79400
H  48.43600 22.76200 32.35100
H  47.39700 22.51800 33.59800
H  46.08600 26.66200 33.37300
H  47.34000 27.98800 32.95600
H  48.49500 27.65400 35.00600
H  47.86600 26.03000 35.08200
H  43.84900 20.08400 29.44300
H  44.42600 21.08300 30.80100
H  45.38400 19.76700 30.13300
H  45.08200 18.48600 27.81800
H  44.38900 18.39800 26.18200
H  43.55800 19.40800 27.23900
H  47.09900 24.18800 23.18400
H  49.28700 25.93600 23.54600
H  49.07800 23.02800 22.42400
H  49.04200 22.46900 24.14900
H  50.03400 23.76100 23.62200
H  47.31300 27.70500 23.47700
H  46.35900 26.21500 23.01600
H  47.03700 26.63100 20.87700
H  48.72700 26.24600 21.36600
H  48.13900 27.88700 21.40500
H  51.22300 29.93300 26.46400
H  50.46900 30.99500 27.69000
H  49.51600 30.65000 26.28100
H  49.18000 29.04100 31.98100
H  52.70600 26.92600 33.92700
H  51.59700 27.24600 35.27000
H  52.63800 28.58100 34.43200

