158

Mg 24.42500 -8.37900 47.22600
C  26.69400 -6.01200 46.22900
C  22.41300 -7.35200 44.64200
C  22.36600 -11.10800 47.62000
C  26.79200 -9.84000 49.09400
N  24.52800 -6.68700 45.74400
C  25.51000 -5.80100 45.58200
C  25.13400 -4.75300 44.52800
C  23.75700 -5.25100 43.95200
C  23.51200 -6.52000 44.84100
C  22.57600 -4.20700 44.16900
C  26.20900 -4.66200 43.38300
C  26.85600 -3.26300 43.24800
H  26.60500 -2.68500 41.86200
N  22.60200 -9.00100 46.40400
C  21.95400 -8.42900 45.35700
C  20.64700 -9.05300 45.16100
C  20.59100 -10.21500 46.00100
C  21.89500 -10.21500 46.70100
C  19.65200 -8.47400 44.21100
C  19.41000 -11.21100 46.00300
O  18.40000 -10.86500 45.37900
C  19.46000 -12.46900 46.85500
N  24.61000 -10.26200 48.12700
C  23.58300 -11.14800 48.29200
C  23.93300 -12.25000 49.30900
C  25.36400 -11.79500 49.88800
C  25.58000 -10.53200 48.96100
C  22.85200 -12.56800 50.41000
C  26.51600 -12.82300 49.94600
C  26.35600 -14.21600 49.15500
N  26.35200 -8.02000 47.74800
C  27.23700 -8.70300 48.49900
C  28.45900 -7.94500 48.58400
C  28.30600 -6.90000 47.64700
C  26.98600 -7.00400 47.18800
C  29.64900 -8.27000 49.38700
C  29.04400 -5.75400 47.02700
O  30.18300 -5.34300 47.17900
C  27.98300 -5.08900 46.13400
C  27.73100 -3.65600 46.58400
O  27.07100 -3.29000 47.55100
O  28.42000 -2.81400 45.71700
C  28.32400 -1.45900 46.09900
H  21.73400 -7.00400 43.86000
H  21.73400 -11.97600 47.82200
H  27.60300 -10.19300 49.73500
H  24.95000 -3.86900 45.13800
H  23.86100 -5.51000 42.89800
H  21.90100 -4.63600 44.90900
H  22.09100 -4.08200 43.20100
H  22.92800 -3.21100 44.43700
H  25.88200 -4.95300 42.38500
H  26.99200 -5.39600 43.57200
H  27.94200 -3.31400 43.33600
H  26.44400 -2.58900 43.99900
H  18.67200 -8.85500 44.49900
H  19.77200 -8.82900 43.18700
H  19.66900 -7.38500 44.23200
H  19.67200 -12.10100 47.85900
H  20.15200 -13.20500 46.44700
H  18.48500 -12.95600 46.87700
H  23.90000 -13.15000 48.69600
H  25.09900 -11.30100 50.82300
H  23.27200 -12.52400 51.41400
H  22.47800 -13.56300 50.16700
H  22.04900 -11.83200 50.35000
H  26.60700 -13.15900 50.97800
H  27.53100 -12.47100 49.75900
H  27.35500 -14.56600 48.89600
H  25.87700 -14.13900 48.17900
H  25.88000 -14.96900 49.78300
H  29.75100 -7.63700 50.26900
H  30.51800 -8.16900 48.73700
H  29.52200 -9.28500 49.76500
H  28.36600 -5.10100 45.11400
H  28.81800 -1.25300 47.04900
H  27.29200 -1.15100 46.26600
H  28.67100 -0.77600 45.32300
Mg 46.18300 45.88900 43.96400
C  42.85800 44.74600 43.34500
C  47.22800 42.85200 42.94600
C  49.09600 47.30500 43.18100
C  44.73000 49.16800 44.08100
N  45.19000 44.05800 43.21200
C  43.84400 43.81400 42.98200
C  43.62500 42.37800 42.55500
C  44.94600 41.68000 42.94400
C  45.89100 42.90400 43.12900
C  44.82700 40.85900 44.37200
C  43.24400 42.56100 41.10400
C  41.88600 41.98100 40.70500
H  41.81900 41.16200 39.43100
N  48.01900 45.15800 43.27500
C  48.22300 43.89600 42.94200
C  49.65500 43.68600 42.53000
C  50.25700 45.02700 42.49500
C  49.14600 45.92500 42.99300
C  50.26200 42.34700 42.12700
C  51.62700 45.38800 41.94600
O  52.39800 44.44600 41.71100
C  52.10400 46.73000 41.66800
N  46.83500 47.94400 43.53500
C  48.13200 48.25800 43.40500
C  48.45500 49.74300 43.70600
C  47.03200 50.32800 43.93600
C  46.11900 49.05300 43.82400
C  49.44300 49.77600 44.89300
C  46.38300 51.50900 43.15400
C  47.23200 52.64600 42.46100
N  44.17500 46.75600 44.08600
C  43.77000 48.07900 44.09600
C  42.29800 48.11500 44.12600
C  41.90800 46.79200 43.80700
C  43.09500 46.05100 43.74800
C  41.40100 49.30700 44.24800
C  40.78300 45.93600 43.53800
O  39.60200 46.21700 43.35200
C  41.37900 44.57500 43.22600
C  40.81000 43.74300 44.29600
O  40.18300 42.69400 44.12300
O  41.30900 44.18500 45.48100
C  40.93300 43.39300 46.66500
H  47.61600 41.85000 42.75000
H  50.06900 47.78200 43.04800
H  44.27500 50.13400 44.30500
H  42.77400 41.87800 43.01800
H  45.27600 41.06600 42.10700
H  45.08900 39.84100 44.08700
H  43.76900 40.94600 44.62000
H  45.39300 41.27700 45.20500
H  43.95300 41.97200 40.52100
H  43.24200 43.58100 40.71900
H  41.14400 42.74800 40.48100
H  41.58300 41.31800 41.51500
H  50.55100 42.44000 41.08100
H  49.46900 41.59900 42.11100
H  51.12400 42.00700 42.70100
H  51.38700 47.25000 41.03300
H  53.07000 46.67100 41.16600
H  52.28400 47.28300 42.59000
H  48.99100 50.07100 42.81500
H  46.99400 50.55300 45.00100
H  50.42500 49.46700 44.53300
H  48.94200 49.05400 45.53800
H  49.30300 50.71600 45.42500
H  45.65100 51.91400 43.85300
H  45.97600 51.03100 42.26200
H  47.47200 53.28500 43.31100
H  46.76500 53.10500 41.59000
H  48.22400 52.36500 42.10700
H  41.29900 49.53400 45.30900
H  40.39600 49.05700 43.90900
H  41.75800 50.21700 43.76400
H  41.02300 44.24300 42.25100
H  41.08000 43.99000 47.56500
H  41.56900 42.51100 46.73600
H  39.86300 43.21200 46.56100

