158

Mg 16.78200 -0.97900 27.63600
C  16.11000 1.00200 30.54100
C  18.80900 -2.93400 29.72400
C  18.13500 -2.24900 24.93300
C  15.06500 1.37900 25.79300
N  17.39300 -0.88000 29.74800
C  16.96500 -0.01900 30.85100
C  17.45500 -0.42100 32.22300
C  18.45200 -1.60000 31.82700
C  18.23800 -1.83300 30.34100
C  19.90300 -1.44100 32.21700
C  16.31500 -0.71800 33.30800
C  16.33400 0.10400 34.66800
H  17.75700 0.63900 35.17300
N  18.22200 -2.42300 27.31400
C  18.80700 -3.22800 28.33800
C  19.58500 -4.23000 27.69100
C  19.40800 -4.09900 26.23100
C  18.54100 -2.88300 26.07700
C  20.32500 -5.33300 28.48900
C  19.91700 -4.83100 24.97800
O  19.62000 -4.62100 23.82500
C  21.04600 -5.87600 25.21300
N  16.66300 -0.52700 25.57700
C  17.38000 -1.14500 24.67900
C  17.16200 -0.49200 23.26800
C  15.98400 0.54900 23.56000
C  15.83700 0.42200 25.05200
C  18.48400 0.18300 22.65900
C  14.64700 0.19300 22.82200
C  14.73200 0.23900 21.23600
N  15.70200 0.74100 28.01700
C  15.03100 1.58800 27.19800
C  14.44700 2.66700 28.01100
C  14.80800 2.41800 29.30400
C  15.66600 1.32300 29.26300
C  13.68500 3.89500 27.43600
C  14.64200 2.85200 30.66200
O  13.91300 3.74600 31.04100
C  15.58000 2.03100 31.49400
C  16.44600 3.07700 32.08500
O  17.44500 3.55200 31.54600
O  15.90300 3.54100 33.24700
C  16.57700 4.64000 33.96600
H  19.45700 -3.55900 30.34100
H  18.76000 -2.58900 24.10400
H  14.45700 2.09100 25.23000
H  18.11100 0.32300 32.67400
H  18.19400 -2.59200 32.19700
H  20.58300 -1.90800 31.50500
H  20.16000 -2.05800 33.07800
H  20.11700 -0.38900 32.41000
H  16.41000 -1.80000 33.40100
H  15.42700 -0.41200 32.75500
H  15.88700 -0.51500 35.44600
H  15.62700 0.91400 34.49000
H  20.27900 -6.30000 27.98800
H  19.84700 -5.36600 29.46800
H  21.37100 -5.06000 28.63300
H  20.64800 -6.77100 25.69100
H  21.87200 -5.55200 25.84600
H  21.41800 -6.15900 24.22800
H  16.82900 -1.31500 22.63500
H  16.32300 1.50300 23.15500
H  18.40800 1.26800 22.72600
H  18.56900 -0.13200 21.61900
H  19.40800 -0.18200 23.10800
H  13.84500 0.77900 23.27100
H  14.40800 -0.83800 23.08300
H  14.95100 1.30100 21.12500
H  13.77700 0.09500 20.73200
H  15.54600 -0.36500 20.83600
H  13.79100 4.10800 26.37300
H  14.16000 4.75100 27.91500
H  12.65400 3.81200 27.78300
H  14.89600 1.62300 32.23800
H  16.80700 5.52500 33.37200
H  17.54800 4.21800 34.22700
H  16.10000 4.88400 34.91500
Mg 26.85000 50.39400 26.95400
C  24.79300 51.65600 29.46700
C  29.06100 49.54500 29.58000
C  28.77900 49.24000 24.68900
C  24.47800 51.55500 24.60300
N  26.96200 50.71400 29.31000
C  25.82500 51.04800 30.01800
C  26.05200 50.79600 31.52200
C  27.56300 50.37200 31.58200
C  27.92700 50.20300 30.09500
C  28.51900 51.27100 32.42900
C  25.17200 49.67200 32.19100
C  24.58900 49.92100 33.62100
H  25.46400 50.83000 34.53000
N  28.67500 49.49900 27.11000
C  29.34000 49.15500 28.28500
C  30.50300 48.46500 27.84400
C  30.54500 48.35400 26.45800
C  29.31500 49.06800 26.03500
C  31.61000 47.91100 28.74800
C  31.55100 47.67100 25.46800
O  31.47200 47.80200 24.25200
C  32.59900 46.77900 26.01600
N  26.70500 50.52800 24.88500
C  27.58100 49.81700 24.12600
C  27.18500 49.65800 22.64700
C  25.75400 50.42200 22.68500
C  25.62700 50.87500 24.12400
C  28.06600 50.22400 21.54700
C  24.52900 49.52900 22.23900
C  23.53900 50.13000 21.19800
N  25.10800 51.57700 26.99900
C  24.18700 51.86200 25.97000
C  23.01900 52.45500 26.60400
C  23.33800 52.52900 27.95400
C  24.53400 51.86500 28.19900
C  21.79600 52.82800 25.82000
C  22.82800 52.86000 29.22300
O  21.81000 53.45000 29.48000
C  23.70900 52.27600 30.30100
C  24.26600 53.47400 31.04700
O  24.91500 54.38200 30.59300
O  23.73400 53.40300 32.32900
C  24.09600 54.51500 33.16500
H  29.64300 49.09800 30.38900
H  29.41900 48.98200 23.84300
H  23.75700 51.86800 23.84500
H  25.83100 51.73300 32.03300
H  27.76100 49.35000 31.90400
H  29.07400 50.70100 33.17400
H  27.97900 52.08300 32.91500
H  29.30700 51.71200 31.81800
H  25.63800 48.68700 32.20300
H  24.31800 49.64900 31.51300
H  24.17500 48.97700 33.97500
H  23.61800 50.39700 33.48400
H  32.45000 48.57600 28.54900
H  31.83100 46.85900 28.57200
H  31.34100 47.96600 29.80300
H  33.38100 46.55900 25.28900
H  32.19100 45.82400 26.34900
H  33.22400 47.25900 26.76900
H  27.01800 48.63600 22.30500
H  25.66800 51.40100 22.21400
H  29.08500 50.42900 21.87500
H  27.71900 51.13600 21.06200
H  28.13600 49.58200 20.66900
H  24.10500 49.24300 23.20100
H  25.01300 48.67000 21.77500
H  22.56500 50.22400 21.67900
H  23.39700 49.38400 20.41500
H  23.90700 51.06200 20.77000
H  21.81500 53.82300 25.37700
H  20.92500 52.80800 26.47500
H  21.61400 52.02800 25.10200
H  23.19100 51.58700 30.96800
H  25.13600 54.83900 33.14200
H  23.77300 54.30600 34.18500
H  23.55400 55.38800 32.80100

