158

Mg 24.68100 -4.80800 45.91900
C  26.34300 -2.34300 43.80700
C  21.87500 -4.04700 44.03100
C  23.47600 -7.73300 46.87400
C  27.84500 -5.71600 47.07100
N  24.18500 -3.31100 44.14900
C  25.00000 -2.44800 43.55800
C  24.23400 -1.68600 42.44900
C  22.71200 -2.06300 42.75800
C  22.95200 -3.24300 43.69800
C  21.98900 -0.92700 43.50500
C  24.79100 -2.17600 41.06800
C  25.37100 -1.17100 40.10300
H  25.58400 -1.59100 38.60200
N  22.96100 -5.66500 45.61400
C  21.90300 -5.24500 44.83800
C  20.80400 -6.13000 44.99000
C  21.20000 -7.20300 45.87200
C  22.62000 -6.91100 46.15600
C  19.50700 -5.97500 44.17900
C  20.38800 -8.46700 46.18000
O  19.29000 -8.63300 45.75000
C  20.83000 -9.46700 47.18900
N  25.50800 -6.36600 46.96100
C  24.80800 -7.54000 47.20600
C  25.67800 -8.57000 47.84600
C  27.00200 -7.91400 48.07800
C  26.77800 -6.53000 47.43100
C  25.05500 -9.50100 48.92300
C  28.25400 -8.68800 47.72000
C  29.32000 -8.67800 48.82600
N  26.65200 -4.15600 45.71000
C  27.80300 -4.61300 46.25900
C  28.94500 -3.79600 45.77800
C  28.34800 -2.92200 44.91600
C  27.01100 -3.22400 44.80300
C  30.35200 -3.75800 46.17800
C  28.77300 -1.85700 43.98000
O  29.88500 -1.44000 43.75800
C  27.46400 -1.46900 43.22300
C  27.24100 -0.06000 43.62700
O  26.58300 0.27500 44.57700
O  27.79100 0.83400 42.73700
C  27.63200 2.28200 42.99900
H  20.91700 -3.78700 43.57400
H  23.11100 -8.74500 47.05900
H  28.86600 -6.03900 47.28300
H  24.32500 -0.60900 42.58600
H  22.07400 -2.43200 41.95500
H  22.34200 0.07900 43.27900
H  22.12000 -0.94400 44.58700
H  20.91300 -1.06500 43.40000
H  23.95800 -2.64800 40.54700
H  25.56300 -2.94300 41.13800
H  26.24200 -0.71200 40.57200
H  24.58100 -0.42800 40.20900
H  19.76400 -6.16700 43.13700
H  19.08100 -4.97300 44.22900
H  18.73100 -6.68200 44.47400
H  19.87800 -9.92800 47.45400
H  21.22900 -8.86100 48.00300
H  21.54200 -10.19500 46.80000
H  25.66200 -9.30400 47.04100
H  27.08600 -7.71700 49.14700
H  24.10600 -9.12500 49.30400
H  25.78900 -9.40300 49.72400
H  24.98700 -10.55600 48.65500
H  28.78300 -8.31700 46.84300
H  27.90900 -9.70400 47.52800
H  30.29500 -8.24700 48.59800
H  29.53200 -9.70800 49.11500
H  28.93700 -8.22800 49.74100
H  31.04800 -4.08000 45.40400
H  30.41100 -4.29100 47.12700
H  30.60800 -2.73800 46.46500
H  27.65200 -1.58600 42.15600
H  28.40100 2.62100 43.69300
H  26.69900 2.60100 43.46400
H  27.92400 2.94600 42.18600
Mg 40.50500 9.53800 29.08000
C  42.03400 10.32600 31.99600
C  37.80000 8.28100 30.82000
C  39.26100 8.72400 26.09300
C  43.52700 10.54200 27.36100
N  39.96100 9.31600 31.14200
C  40.77900 9.75300 32.10200
C  40.10700 9.61400 33.47500
C  38.88600 8.71500 33.19000
C  38.80600 8.79000 31.61900
C  38.94500 7.26600 33.75000
C  39.87800 10.88200 34.31400
C  40.53900 10.70400 35.72800
H  40.97900 11.87300 36.62400
N  38.80200 8.65400 28.53700
C  37.79100 8.18200 29.39100
C  36.69100 7.62800 28.54700
C  37.21200 7.65500 27.21900
C  38.50600 8.43700 27.23700
C  35.34400 7.07300 29.11600
C  36.45400 7.25100 25.87100
O  36.88500 7.38400 24.72700
C  34.88800 6.90100 26.03900
N  41.19500 9.79500 26.93500
C  40.46800 9.34400 25.93600
C  41.26300 9.34100 24.61000
C  42.54400 10.13500 25.03300
C  42.40900 10.19000 26.58200
C  41.58100 7.84200 24.21100
C  42.63300 11.55900 24.40500
C  41.78200 12.77200 24.99100
N  42.42300 10.27700 29.46800
C  43.45700 10.67800 28.74100
C  44.43200 11.30200 29.63700
C  43.95800 11.15000 30.90600
C  42.71100 10.44200 30.78700
C  45.74200 11.92400 29.05900
C  44.12800 11.39300 32.35300
O  44.99000 11.97200 32.95700
C  42.96800 10.83000 33.08500
C  43.56000 9.74500 33.93600
O  43.83800 8.61600 33.47800
O  43.89900 10.09800 35.21000
C  44.79600 9.22600 36.00300
H  36.91100 7.93800 31.35300
H  38.94200 8.43500 25.08900
H  44.50700 10.65600 26.89300
H  40.85800 8.96700 33.93000
H  37.97400 9.11400 33.63300
H  38.05200 7.16600 34.36800
H  39.78400 6.99300 34.39000
H  38.92900 6.58100 32.90200
H  38.80600 11.06300 34.39700
H  40.25000 11.73600 33.74700
H  41.43400 10.11600 35.52400
H  39.83800 10.08800 36.29100
H  35.17200 7.40700 30.13900
H  35.40400 5.98900 29.21700
H  34.58800 7.44300 28.42300
H  34.80200 6.03600 26.69800
H  34.36300 6.66500 25.11400
H  34.43000 7.84000 26.34900
H  40.57400 9.78600 23.89300
H  43.45700 9.55700 24.89000
H  41.32200 7.17400 25.03200
H  42.63000 7.63200 24.00300
H  41.04200 7.51600 23.32100
H  42.42200 11.57900 23.33600
H  43.62300 11.95400 24.63300
H  41.31500 12.40100 25.90400
H  40.94500 13.11800 24.38500
H  42.44300 13.57900 25.30600
H  46.48000 11.14900 29.26300
H  46.15700 12.82500 29.51000
H  45.57900 12.17500 28.01100
H  42.46700 11.55400 33.72800
H  44.22600 8.46300 36.53300
H  45.25100 9.94800 36.68100
H  45.45100 8.63400 35.36400

