158

Mg 8.98900 2.62000 26.92800
C  10.52000 1.00700 29.70400
C  7.07500 4.49800 29.23700
C  7.68000 4.22900 24.38900
C  10.59900 0.44300 24.81800
N  8.79500 2.66600 29.25800
C  9.60600 1.99000 30.12600
C  9.23000 2.33400 31.58000
C  8.13300 3.55000 31.42100
C  7.86900 3.53600 29.89500
C  6.84600 3.41800 32.26400
C  10.46100 2.76200 32.42500
C  10.32900 3.79200 33.55300
H  11.33800 3.65100 34.70900
N  7.61100 4.20000 26.83200
C  7.04800 4.80800 27.86600
C  6.43500 6.03500 27.36600
C  6.51200 6.04900 25.93900
C  7.23100 4.78700 25.64000
C  5.70200 6.95800 28.36800
C  5.93400 6.96900 24.84800
O  6.12800 6.75300 23.66800
C  5.20300 8.21400 25.21900
N  9.01100 2.26600 24.88400
C  8.35700 3.05100 24.01200
C  8.58800 2.60000 22.53100
C  9.75500 1.58200 22.74900
C  9.71800 1.31000 24.22200
C  7.36700 2.05600 21.77600
C  11.18400 1.98600 22.24300
C  11.28600 2.11300 20.65900
N  10.21400 0.94000 27.19900
C  10.77400 0.13900 26.19000
C  11.65700 -0.72800 26.81800
C  11.56700 -0.43800 28.22500
C  10.66200 0.61500 28.38900
C  12.45500 -1.67200 26.13000
C  12.00000 -0.85800 29.57600
O  12.77800 -1.73900 29.88900
C  11.45000 0.14300 30.50400
C  10.77700 -0.64700 31.56400
O  9.71200 -1.25800 31.46900
O  11.64700 -0.63800 32.68800
C  11.00200 -0.94400 33.98300
H  6.53500 5.14200 29.93500
H  7.40500 4.88300 23.55900
H  11.07700 -0.24400 24.11600
H  8.77200 1.45400 32.03000
H  8.57100 4.51200 31.68700
H  6.88000 2.52700 32.88900
H  5.96800 3.47700 31.62000
H  6.74000 4.33300 32.84800
H  11.27400 2.93100 31.71900
H  10.77500 1.82100 32.87600
H  9.31700 3.79800 33.95700
H  10.70500 4.77200 33.25700
H  6.34300 7.29400 29.18300
H  4.77800 6.57900 28.80600
H  5.63100 7.89800 27.82100
H  4.96500 8.67800 24.26200
H  5.94600 8.78100 25.78000
H  4.31200 7.97700 25.80200
H  8.98400 3.45900 21.98900
H  9.58900 0.66600 22.18100
H  6.57000 2.02700 22.51900
H  7.63400 1.16200 21.21400
H  7.09300 2.74800 20.98000
H  11.92700 1.26300 22.57800
H  11.45200 2.96500 22.63900
H  10.37700 1.97800 20.07300
H  11.90500 1.28300 20.31600
H  11.74900 3.03700 20.31300
H  13.34200 -2.01900 26.66000
H  12.77600 -1.35700 25.13700
H  11.94100 -2.61600 25.94900
H  12.22900 0.76100 30.95000
H  10.59400 -1.94700 33.85900
H  10.15000 -0.28700 34.15800
H  11.85700 -0.78000 34.63900
Mg 47.45600 16.31600 27.93100
C  45.27000 15.69800 30.68900
C  49.54400 17.77800 30.34300
C  49.09700 17.80700 25.51300
C  45.12300 15.09300 25.87300
N  47.35400 16.76700 30.26000
C  46.46100 16.30700 31.13200
C  46.80900 16.56800 32.61500
C  48.02500 17.57300 32.41100
C  48.38100 17.33900 30.95500
C  47.73100 19.06000 32.73400
C  47.02800 15.23100 33.44000
C  46.69800 15.30600 34.91500
H  46.27600 16.62900 35.62600
N  49.19700 17.41700 27.92800
C  49.96800 17.81100 29.00000
C  51.22100 18.29900 28.48600
C  51.02800 18.47700 27.04600
C  49.69000 17.87600 26.78400
C  52.39200 18.69400 29.34000
C  51.97000 18.99700 25.91700
O  51.68200 19.10200 24.70600
C  53.34300 19.29600 26.31800
N  47.13500 16.51700 26.02700
C  47.90800 17.26700 25.14300
C  47.44900 17.17300 23.63100
C  46.41600 15.98600 23.80000
C  46.15800 15.87000 25.34000
C  46.73700 18.48600 23.14100
C  46.97000 14.62700 23.19600
C  45.94400 13.71600 22.61300
N  45.58300 15.53600 28.14500
C  44.76100 14.96400 27.21800
C  43.58900 14.39800 27.80600
C  43.74100 14.64900 29.19200
C  44.99200 15.35400 29.35000
C  42.43100 13.70800 27.14400
C  43.11500 14.50600 30.48000
O  42.09100 13.91200 30.78500
C  44.05500 15.19900 31.48000
C  43.32200 16.24100 32.29100
O  42.75200 17.19400 31.86500
O  43.31200 15.77700 33.59700
C  42.65200 16.72200 34.55100
H  50.31700 18.32900 30.88300
H  49.49700 18.29300 24.62100
H  44.47700 14.60800 25.13800
H  45.93600 17.07300 33.02900
H  48.90400 17.20800 32.94200
H  46.70900 19.29500 33.03000
H  48.05300 19.64800 31.87500
H  48.33200 19.48500 33.53800
H  48.09900 15.05700 33.33600
H  46.43400 14.42500 33.00800
H  47.63600 15.03400 35.39900
H  46.02600 14.52400 35.26800
H  53.21700 18.04700 29.04200
H  52.20700 18.49400 30.39600
H  52.70800 19.73700 29.33000
H  53.75200 18.37200 26.72900
H  53.46900 20.06000 27.08500
H  53.84900 19.67100 25.42800
H  48.27800 16.86600 22.99300
H  45.42700 16.19100 23.39100
H  47.09500 19.34000 23.71600
H  45.64900 18.42600 23.16800
H  47.00700 18.67800 22.10300
H  47.59100 14.14600 23.95200
H  47.59200 14.96200 22.36500
H  46.19500 13.36500 21.61200
H  45.02300 14.30000 22.60000
H  45.89400 12.84400 23.26500
H  42.22200 14.09200 26.14500
H  41.52300 13.86300 27.72700
H  42.66200 12.64200 27.13400
H  44.41300 14.48400 32.22100
H  42.94200 17.73700 34.28000
H  42.89700 16.47500 35.58400
H  41.58200 16.54800 34.43500

