158

Mg 36.03800 0.95300 30.33700
C  33.96500 2.35500 32.83800
C  38.56700 1.14000 32.66300
C  38.15900 0.16500 27.92100
C  33.45500 1.51400 28.01900
N  36.18500 1.45200 32.54500
C  35.24400 2.05500 33.33000
C  35.70500 2.27600 34.76900
C  37.22800 2.05300 34.58900
C  37.29400 1.41700 33.21100
C  38.07600 3.34200 34.81000
C  34.98000 1.21000 35.60600
C  34.57600 1.62900 37.04700
H  35.33000 2.84000 37.63100
N  38.15800 0.61600 30.27200
C  39.03500 0.73900 31.34700
C  40.31400 0.34400 30.98200
C  40.17900 0.01900 29.59400
C  38.79500 0.25200 29.19800
C  41.50700 0.24800 31.92700
C  41.25300 -0.53100 28.65000
O  41.01100 -0.81100 27.47700
C  42.69300 -0.75000 29.10300
N  35.73500 0.73000 28.25400
C  36.80900 0.39700 27.44800
C  36.40800 0.33000 26.01700
C  34.88500 0.63900 26.03100
C  34.60000 0.89500 27.53900
C  37.20000 1.35700 25.18600
C  33.85200 -0.41800 25.37300
C  32.94800 -0.01200 24.20200
N  34.10900 1.74200 30.33100
C  33.19800 1.92300 29.28100
C  31.98100 2.47900 29.87100
C  32.25000 2.70700 31.23400
C  33.56400 2.26800 31.45400
C  30.68100 2.84000 29.08200
C  31.71200 3.17300 32.46200
O  30.63200 3.67500 32.56600
C  32.78200 3.02200 33.55500
C  33.11500 4.38800 34.14700
O  33.99000 5.12100 33.79600
O  32.42300 4.56900 35.29900
C  32.74400 5.58800 36.20900
H  39.34400 1.36600 33.39500
H  38.82300 0.02400 27.06500
H  32.72100 1.86700 27.29200
H  35.35700 3.29300 34.94900
H  37.70300 1.38300 35.30600
H  38.84000 3.21900 35.57800
H  37.41800 4.18600 35.01800
H  38.66100 3.60000 33.92800
H  35.74200 0.43700 35.70400
H  34.15400 0.73900 35.07500
H  34.74300 0.72400 37.63100
H  33.51700 1.89000 37.05800
H  42.27300 -0.46400 31.62000
H  41.10600 -0.19100 32.84100
H  42.00900 1.19800 32.10700
H  43.33100 -1.09800 28.29100
H  42.59600 -1.51500 29.87400
H  43.11000 0.21600 29.38900
H  36.64100 -0.66100 25.62800
H  34.72800 1.55700 25.46600
H  37.85600 1.97000 25.80500
H  36.56200 2.03500 24.62000
H  37.89300 0.85600 24.51000
H  33.17400 -0.75600 26.15700
H  34.46300 -1.24600 25.01600
H  33.10600 1.04900 24.01300
H  31.90100 -0.30200 24.29200
H  33.30100 -0.56900 23.33300
H  30.84400 2.84100 28.00400
H  30.24400 3.81600 29.29200
H  29.92700 2.11200 29.38300
H  32.27000 2.50800 34.36900
H  33.74400 6.00200 36.07500
H  32.62500 5.02100 37.13300
H  32.01700 6.39500 36.12100
Mg 46.23600 34.51800 27.05300
C  44.80800 33.08000 29.89100
C  47.13000 37.35600 29.05000
C  47.38800 36.15000 24.34600
C  45.54400 31.70700 25.36500
N  45.81100 35.12700 29.22000
C  45.25900 34.33700 30.21600
C  45.63900 34.96600 31.61100
C  45.94000 36.48300 31.20100
C  46.33900 36.33500 29.74300
C  44.73400 37.38700 31.48900
C  46.74900 34.21400 32.33100
C  46.86400 34.20400 33.82600
H  45.82900 34.90900 34.66100
N  47.25500 36.44700 26.80300
C  47.54400 37.40800 27.73100
C  48.31400 38.42100 27.09000
C  48.35100 38.20500 25.68400
C  47.57800 36.91800 25.57400
C  49.03100 39.47500 27.91300
C  48.94500 39.04900 24.50500
O  48.97500 38.63400 23.34100
C  49.66900 40.37400 24.78900
N  46.27000 34.09800 25.11300
C  46.84600 34.86500 24.16400
C  46.95700 34.17000 22.84100
C  46.51500 32.70700 23.24300
C  46.10000 32.80000 24.67200
C  46.35800 34.88600 21.65700
C  47.38900 31.43400 22.86000
C  48.42100 31.04500 23.89000
N  45.30400 32.76800 27.44700
C  45.15600 31.61100 26.64600
C  44.60400 30.58000 27.36500
C  44.37100 31.13600 28.65300
C  44.83700 32.46000 28.62500
C  44.34300 29.20300 26.93200
C  43.89500 30.97200 29.99200
O  43.39100 29.97500 30.51100
C  43.96200 32.28800 30.73400
C  44.23900 31.98100 32.13800
O  45.23500 31.43900 32.53700
O  43.04900 32.15100 32.80900
C  42.93300 31.87700 34.25000
H  47.37000 38.24300 29.64000
H  47.87800 36.52300 23.44400
H  45.24700 30.85200 24.75400
H  44.70100 34.85400 32.15500
H  46.82600 36.83500 31.72800
H  43.78100 36.86000 31.54600
H  44.71300 38.14700 30.70800
H  44.91700 37.77400 32.49100
H  47.60400 34.82300 32.03700
H  46.83500 33.19500 31.95300
H  47.89200 34.42300 34.11200
H  46.79500 33.14500 34.07500
H  50.11200 39.39300 27.79600
H  48.89900 39.23000 28.96700
H  48.91000 40.51900 27.62200
H  49.89700 40.77700 23.80200
H  50.54100 40.16500 25.40900
H  49.07800 41.11300 25.32900
H  48.02200 34.20600 22.61300
H  45.55600 32.47900 22.77900
H  47.07800 35.18200 20.89500
H  45.96700 35.81900 22.06400
H  45.60300 34.19600 21.28100
H  48.02200 31.73200 22.02500
H  46.78200 30.54800 22.67200
H  49.37700 30.76700 23.44800
H  48.02000 30.13900 24.34400
H  48.66800 31.89500 24.52700
H  45.22300 28.79600 26.43500
H  43.67500 29.31100 26.07800
H  43.96000 28.67300 27.80400
H  42.97200 32.74100 30.69100
H  42.59300 30.85800 34.43400
H  42.24100 32.62100 34.64300
H  43.85200 31.99300 34.82500

