158

Mg 9.32600 3.45900 28.25800
C  11.00900 2.14200 31.12700
C  7.59700 5.61800 30.42900
C  7.70000 4.71000 25.66300
C  10.66000 0.87400 26.40500
N  9.33800 3.84900 30.54000
C  10.11800 3.19400 31.49800
C  9.84000 3.71500 32.90200
C  8.49200 4.59100 32.62000
C  8.38400 4.61500 31.11800
C  7.21700 4.13000 33.39300
C  11.02800 4.54600 33.41100
C  11.62900 4.07300 34.76100
H  10.64100 4.01200 35.97500
N  7.96900 5.00300 28.06600
C  7.42200 5.82800 29.02900
C  6.77400 6.96700 28.37500
C  6.76700 6.63300 26.99500
C  7.48300 5.41200 26.82200
C  6.05300 8.08400 29.19400
C  6.21500 7.48100 25.74100
O  6.36200 7.20100 24.52100
C  5.51600 8.81600 25.98500
N  9.09400 2.79700 26.27500
C  8.50500 3.55500 25.36200
C  8.52600 2.80900 23.96700
C  9.56000 1.70700 24.19900
C  9.71200 1.72800 25.68400
C  7.10600 2.35700 23.45500
C  10.89900 1.83600 23.26700
C  10.80200 1.20800 21.94900
N  10.55500 1.90000 28.63300
C  11.01700 0.91900 27.79500
C  11.83700 -0.03600 28.51900
C  11.92700 0.52800 29.78600
C  11.09300 1.64700 29.87500
C  12.51900 -1.21900 27.97400
C  12.58700 0.33500 31.10000
O  13.38300 -0.52500 31.48300
C  11.89000 1.31500 32.07800
C  11.13200 0.41700 33.03600
O  10.39900 -0.50200 32.74700
O  11.47800 0.77300 34.31700
C  10.65600 0.09000 35.36800
H  7.03100 6.36200 30.99300
H  7.15900 4.99100 24.75700
H  11.02900 -0.02100 25.90100
H  9.56100 2.86300 33.52200
H  8.86700 5.55700 32.95700
H  7.55900 3.52800 34.23500
H  6.60100 3.44200 32.81500
H  6.59500 4.99100 33.63800
H  10.88000 5.61900 33.29000
H  11.81500 4.31300 32.69400
H  12.36800 4.84600 34.97100
H  12.29300 3.21100 34.72100
H  5.02700 8.03700 28.83000
H  6.48900 9.03100 28.87500
H  6.19000 8.07200 30.27600
H  6.31000 9.44900 26.38200
H  4.77800 8.67200 26.77400
H  5.01200 9.25100 25.12200
H  8.98500 3.49400 23.25500
H  9.15500 0.70000 24.10000
H  6.82600 2.83600 22.51700
H  6.41900 2.70100 24.22800
H  7.02400 1.28000 23.30700
H  11.66600 1.37400 23.88900
H  11.15700 2.87900 23.08200
H  11.26800 0.22400 21.89000
H  11.19900 1.83200 21.14900
H  9.73100 1.08700 21.78800
H  13.29700 -0.80000 27.33500
H  11.83600 -1.82400 27.37800
H  12.91600 -1.85200 28.76800
H  12.68000 1.75600 32.68600
H  11.31400 -0.71300 35.69900
H  9.71900 -0.33700 35.01300
H  10.41600 0.79900 36.16100
Mg 6.64100 57.17200 41.87800
C  5.75600 53.65700 41.65800
C  9.53600 56.50000 40.48400
C  7.05400 60.51100 41.65000
C  3.60000 57.68600 43.55800
N  7.42900 55.22900 41.02800
C  6.92100 53.99000 40.96900
C  8.06600 53.05600 40.46900
C  9.35400 54.02200 40.40100
C  8.75100 55.36300 40.74100
C  10.54600 53.66500 41.27600
C  7.83200 52.29700 39.02300
C  8.54000 50.93600 38.93700
H  8.03600 49.84500 37.92900
N  8.09600 58.40300 41.02500
C  9.22800 57.91200 40.54200
C  10.08600 59.02300 40.19700
C  9.35500 60.25500 40.45500
C  8.10500 59.74400 41.07800
C  11.51000 58.98400 39.51000
C  9.76600 61.67300 39.98200
O  10.87900 61.80700 39.50100
C  8.81800 62.84400 39.97000
N  5.47300 58.90500 42.27700
C  5.78400 60.19500 42.18500
C  4.77700 61.15000 42.77400
C  3.65800 60.22400 43.27200
C  4.23200 58.83000 43.04700
C  5.39000 62.08500 43.86800
C  2.23300 60.44000 42.71200
C  1.16900 60.72600 43.78600
N  5.00600 55.96400 42.55700
C  3.86600 56.26900 43.30600
C  3.12500 55.15900 43.70300
C  3.79000 54.09300 43.04000
C  4.93500 54.61100 42.37900
C  1.91800 55.10000 44.60000
C  3.81300 52.69100 42.74400
O  2.94700 51.83900 42.96100
C  5.17500 52.35400 42.06500
C  4.93100 51.37900 40.98100
O  4.36300 51.61400 39.94600
O  5.37500 50.20700 41.44500
C  5.21200 49.10700 40.52400
H  10.54000 56.21100 40.16700
H  7.16900 61.59300 41.56300
H  2.75700 57.91400 44.21400
H  8.21900 52.31100 41.25000
H  9.70300 54.11800 39.37300
H  10.44500 52.74100 41.84600
H  10.67800 54.50100 41.96400
H  11.39700 53.43500 40.63500
H  8.19500 52.93500 38.21700
H  6.83100 52.21200 38.60000
H  8.60200 50.65200 39.98700
H  9.59600 51.03500 38.68400
H  11.42400 59.41700 38.51400
H  11.88200 57.96200 39.43200
H  12.22600 59.54800 40.10700
H  7.87200 62.65800 39.46100
H  9.20900 63.64900 39.34700
H  8.50500 63.21100 40.94800
H  4.35300 61.77900 41.99100
H  3.54500 60.35000 44.34900
H  4.87800 61.89500 44.81100
H  5.16200 63.07600 43.47500
H  6.47100 62.01400 43.98900
H  1.99500 59.49000 42.23400
H  2.24500 61.25600 41.98900
H  0.22600 60.42000 43.33400
H  0.99400 61.78800 43.95600
H  1.38100 60.19100 44.71200
H  2.14800 54.44900 45.44300
H  1.13400 54.53400 44.09600
H  1.59500 56.09600 44.90300
H  5.76400 51.98100 42.90400
H  4.22000 48.72100 40.75400
H  5.97800 48.37000 40.76300
H  5.19800 49.27600 39.44700

