158

Mg 43.13400 41.55300 26.34500
C  41.97800 43.87100 28.54200
C  44.29100 39.50600 28.82000
C  44.68000 39.72100 23.93000
C  42.42400 43.93100 23.78500
N  43.24000 41.79900 28.46100
C  42.47000 42.69400 29.12800
C  42.36200 42.41900 30.66100
C  43.16500 41.01100 30.69700
C  43.62700 40.74500 29.24500
C  44.47200 41.01200 31.51200
C  40.85200 42.25400 31.27500
C  40.72400 41.47300 32.57100
H  39.91900 42.05000 33.71100
N  44.18300 39.78200 26.37000
C  44.49600 39.07400 27.47300
C  45.09000 37.81800 27.06600
C  45.19300 37.81600 25.68300
C  44.70300 39.16600 25.26300
C  45.53600 36.83800 28.08500
C  45.64200 36.77500 24.67300
O  45.71900 37.00300 23.45300
C  46.04700 35.42800 25.11000
N  43.73200 41.88700 24.13200
C  44.23900 40.89900 23.40700
C  44.25200 41.25900 21.86700
C  43.47000 42.63200 21.80300
C  43.21300 42.90000 23.32400
C  45.64000 41.27200 21.24700
C  42.19300 42.54300 20.98300
C  42.01100 43.61000 19.88700
N  42.33500 43.50100 26.14200
C  42.08500 44.25800 25.06000
C  41.46100 45.50800 25.48200
C  41.30800 45.43100 26.89100
C  41.86300 44.19500 27.19200
C  41.01400 46.61200 24.59700
C  40.83100 46.02300 28.12000
O  40.28400 47.11000 28.23500
C  41.20100 45.01200 29.28100
C  42.17400 45.71800 30.13000
O  43.38400 45.82300 30.03600
O  41.55000 46.11300 31.29600
C  42.44400 46.56200 32.46700
H  44.38500 38.78500 29.63500
H  45.14200 39.13300 23.13400
H  42.04800 44.61000 23.01700
H  42.90900 43.19400 31.19700
H  42.51200 40.22200 31.07000
H  44.24700 41.81400 32.21400
H  45.31500 41.32500 30.89500
H  44.72600 40.09700 32.04700
H  40.20100 41.92800 30.46400
H  40.59800 43.25000 31.63700
H  41.66300 41.07200 32.95400
H  40.20600 40.53200 32.38800
H  44.99300 35.90200 27.95300
H  45.46900 37.13100 29.13300
H  46.55100 36.57500 27.78800
H  45.31700 34.99200 25.79300
H  46.99600 35.55400 25.63100
H  46.28500 34.78600 24.26200
H  43.78900 40.42300 21.34300
H  44.13000 43.43900 21.48400
H  46.33300 40.95100 22.02500
H  45.88100 42.23600 20.80100
H  45.71400 40.46700 20.51600
H  41.33700 42.68300 21.64300
H  42.05900 41.58300 20.48500
H  41.89800 43.09300 18.93400
H  42.91400 44.13500 19.57500
H  41.19600 44.33400 19.92900
H  40.51800 47.37000 25.20400
H  40.43200 46.17800 23.78400
H  41.87100 47.18000 24.23500
H  40.31700 44.49500 29.65300
H  43.51000 46.68400 32.27200
H  42.27900 45.74500 33.17000
H  42.03700 47.48100 32.88700
Mg -12.58000 16.24900 41.17700
C  -9.69300 14.30400 40.91000
C  -10.84600 18.93600 39.93300
C  -15.46500 17.83800 40.66700
C  -14.29700 13.33300 41.88400
N  -10.45300 16.53100 40.50400
C  -9.45700 15.58100 40.40700
C  -8.18400 16.26700 40.00500
C  -8.62700 17.84000 39.89100
C  -10.07500 17.76600 40.19800
C  -7.89200 18.96600 40.64600
C  -7.50100 15.68900 38.72500
C  -5.91600 15.83700 38.69000
H  -5.29300 16.55200 37.51800
N  -13.08400 18.15800 40.48700
C  -12.26400 19.16200 40.09200
C  -13.06400 20.35900 39.74000
C  -14.40100 20.08200 40.04900
C  -14.36400 18.62700 40.42800
C  -12.38600 21.67700 39.29200
C  -15.57800 21.15700 40.07100
O  -15.32500 22.29600 39.83000
C  -17.02500 20.78700 40.39000
N  -14.60000 15.68300 41.21900
C  -15.64000 16.55000 41.03500
C  -17.00300 15.88100 41.20700
C  -16.69500 14.45500 41.62400
C  -15.13000 14.46900 41.53200
C  -18.03000 16.69300 42.15800
C  -17.33000 13.37000 40.76100
C  -18.24300 12.50500 41.61600
N  -12.11800 14.22200 41.57900
C  -12.90700 13.17900 41.88300
C  -12.14500 12.02700 42.24200
C  -10.82800 12.40600 41.92100
C  -10.88600 13.75500 41.33400
C  -12.59900 10.80300 42.95700
C  -9.36600 11.95800 41.88800
O  -8.77500 10.89600 42.03300
C  -8.68500 13.20700 41.09300
C  -7.54000 13.67100 41.94800
O  -7.62400 14.14700 43.04300
O  -6.38500 13.36500 41.29300
C  -5.19500 14.01200 41.89300
H  -10.27700 19.78800 39.55300
H  -16.36200 18.29600 40.24400
H  -14.88700 12.48000 42.22500
H  -7.50300 16.12700 40.84500
H  -8.60100 18.11700 38.83700
H  -6.93600 18.58700 41.00800
H  -8.47400 19.26000 41.51900
H  -7.64700 19.83000 40.02800
H  -7.88800 16.26800 37.88600
H  -7.86500 14.66600 38.63200
H  -5.39900 14.90300 38.90700
H  -5.63700 16.43400 39.55800
H  -11.97900 22.28300 40.10200
H  -13.05600 22.25700 38.65800
H  -11.47400 21.63000 38.69700
H  -17.64900 20.48100 39.55000
H  -17.47900 21.69300 40.79200
H  -17.10800 20.08900 41.22200
H  -17.44800 15.92900 40.21300
H  -17.01200 14.32200 42.65800
H  -17.51500 17.57200 42.54600
H  -18.31100 16.09200 43.02300
H  -18.94700 17.03400 41.67600
H  -16.51100 12.71600 40.46100
H  -17.92700 13.67000 39.90000
H  -18.65700 13.02400 42.48100
H  -17.72600 11.61200 41.96600
H  -19.03400 12.20300 40.93000
H  -13.59000 10.87600 43.40600
H  -11.87900 10.40800 43.67500
H  -12.60800 10.00300 42.21600
H  -8.39900 12.77600 40.13400
H  -5.30100 15.09400 41.80800
H  -4.24200 13.78200 41.41700
H  -5.15200 13.84300 42.96900

