158

Mg 17.31400 -1.61500 28.30800
C  16.81200 0.74000 30.89800
C  19.12600 -3.51900 30.62800
C  18.53600 -3.60700 25.83000
C  16.48900 0.79300 25.98100
N  17.78700 -1.49300 30.64300
C  17.57300 -0.32500 31.42700
C  18.27600 -0.48100 32.75500
C  19.12900 -1.79200 32.61200
C  18.65100 -2.27600 31.24600
C  20.65100 -1.47000 32.60500
C  17.14000 -0.65300 33.75900
C  17.47000 -0.78300 35.22500
H  18.68700 -0.09900 35.81700
N  18.38200 -3.49200 28.30800
C  19.02400 -4.04600 29.32500
C  19.67900 -5.26400 28.93500
C  19.46200 -5.41900 27.49600
C  18.75500 -4.12900 27.14000
C  20.39800 -6.27400 29.84300
C  19.83800 -6.52700 26.37700
O  19.53000 -6.49800 25.20900
C  20.70700 -7.61000 26.84500
N  17.42600 -1.42000 26.12800
C  18.01700 -2.36000 25.34600
C  18.07600 -1.87300 23.93200
C  17.37400 -0.46800 23.92700
C  17.02200 -0.34600 25.42600
C  19.54900 -1.77400 23.45700
C  16.03600 -0.33100 23.06800
C  14.69700 -0.78400 23.63100
N  16.53900 0.24500 28.32100
C  16.22800 1.12600 27.34700
C  15.70000 2.38500 27.89200
C  15.85000 2.18300 29.30800
C  16.39900 0.91100 29.51700
C  15.18700 3.54500 27.10700
C  15.60200 2.82700 30.57900
O  14.99100 3.88000 30.79100
C  16.26300 1.88900 31.65100
C  17.25300 2.67200 32.37500
O  18.37000 2.69100 32.02000
O  16.66000 3.36400 33.42800
C  17.49500 4.28500 34.08500
H  19.66600 -4.16400 31.32500
H  19.03900 -4.23700 25.09300
H  16.52100 1.65300 25.31000
H  18.93800 0.38000 32.85000
H  18.91100 -2.60600 33.30400
H  21.30700 -2.28200 32.29200
H  20.95000 -1.10400 33.58700
H  20.69700 -0.53400 32.04900
H  16.61800 -1.57600 33.50500
H  16.50500 0.23300 33.76200
H  17.37100 -1.83100 35.50700
H  16.61800 -0.26600 35.66500
H  21.47200 -6.09400 29.78000
H  20.25500 -7.33400 29.63000
H  19.95600 -6.12000 30.82700
H  21.62200 -7.17100 27.24300
H  20.93200 -8.25600 25.99600
H  20.11600 -8.18200 27.56000
H  17.56700 -2.56300 23.25900
H  18.02100 0.39500 23.77200
H  19.76400 -0.78600 23.05100
H  19.71100 -2.54200 22.70100
H  20.32700 -1.99500 24.18800
H  16.36200 -0.72000 22.10300
H  16.00000 0.74600 22.90300
H  14.06100 0.08400 23.80000
H  14.79000 -1.27400 24.60100
H  14.16800 -1.43900 22.93900
H  14.60500 4.13700 27.81200
H  14.52000 3.31900 26.27500
H  16.02200 4.16800 26.78500
H  15.52100 1.49500 32.34500
H  18.06400 4.92500 33.41000
H  18.20000 3.78200 34.74800
H  16.93700 4.96500 34.72900
Mg 45.66600 3.67400 47.07800
C  43.56200 6.71000 46.86500
C  42.67200 1.90700 46.75600
C  47.40800 1.02700 46.36600
C  48.33500 5.77600 46.66600
N  43.38900 4.23700 46.73700
C  42.81600 5.50200 46.81800
C  41.27700 5.40300 46.45700
C  40.98900 3.87300 46.61100
C  42.43400 3.28400 46.74000
C  40.00800 3.49800 47.75700
C  40.84000 6.03300 45.09100
C  41.88900 6.02400 43.94600
H  41.50500 6.09600 42.49200
N  45.15600 1.63900 46.84800
C  43.89200 1.13800 46.77000
C  44.04800 -0.26300 46.45500
C  45.43100 -0.62300 46.37100
C  46.06800 0.71200 46.50400
C  42.81700 -1.17000 46.36000
C  45.94500 -2.00300 46.07800
O  45.15700 -2.87900 45.86800
C  47.39000 -2.38600 46.03100
N  47.57900 3.42100 46.70900
C  48.11400 2.23300 46.51100
C  49.66500 2.27100 46.34900
C  49.94000 3.82300 46.25500
C  48.51700 4.43100 46.60300
C  50.38500 1.52500 47.45700
C  50.49200 4.27600 44.87700
C  52.02000 4.60500 44.79400
N  45.96600 5.84500 46.87000
C  47.12800 6.54200 46.70800
C  46.91400 7.96600 46.72200
C  45.50000 8.03500 46.82900
C  44.97200 6.74800 46.88900
C  47.97500 9.03800 46.52400
C  44.38800 9.01400 46.84900
O  44.36900 10.26000 46.81500
C  43.05200 8.12900 46.73000
C  42.20400 8.51000 47.84300
O  42.27800 8.00700 48.93800
O  41.19400 9.36400 47.46800
C  40.01700 9.59000 48.27000
H  41.85600 1.18100 46.75200
H  48.07700 0.19300 46.14300
H  49.21600 6.41900 46.60500
H  40.78000 5.95500 47.25500
H  40.54400 3.44600 45.71200
H  39.35800 4.34800 47.96500
H  40.47900 3.20400 48.69500
H  39.46800 2.57600 47.54300
H  40.47000 7.04100 45.28000
H  40.19600 5.30900 44.59200
H  42.58000 5.18300 44.00700
H  42.43100 6.96100 44.07000
H  42.71300 -1.47300 45.31800
H  41.87800 -0.78400 46.75800
H  43.01500 -2.11500 46.86500
H  47.91400 -1.97600 46.89500
H  47.79300 -1.95000 45.11700
H  47.45600 -3.47400 46.03700
H  49.79900 1.76800 45.39200
H  50.67300 4.05300 47.02900
H  49.87900 1.65700 48.41400
H  51.42000 1.85500 47.55100
H  50.45800 0.48200 47.15000
H  49.98000 5.22600 44.72400
H  50.21500 3.53900 44.12400
H  52.06000 5.65400 44.50100
H  52.61600 4.07700 44.04900
H  52.42800 4.39300 45.78200
H  48.46900 9.05900 47.49500
H  47.45500 9.98600 46.38200
H  48.70300 8.89900 45.72500
H  42.44500 8.16600 45.82600
H  39.65400 10.61200 48.16400
H  40.16800 9.56400 49.34900
H  39.30700 8.85900 47.88400

