158

Mg 17.50800 -2.83200 28.19900
C  16.31400 -0.73800 30.91700
C  19.33400 -4.59000 30.51400
C  18.80600 -4.33800 25.70400
C  15.66100 -0.76100 25.99600
N  17.69700 -2.73000 30.45300
C  17.08600 -1.78000 31.33500
C  17.57500 -2.11400 32.79300
C  18.65600 -3.15700 32.60600
C  18.65300 -3.49800 31.07900
C  20.02900 -2.66200 33.07000
C  16.36700 -2.43600 33.72000
C  16.28000 -1.68400 35.08800
H  17.52100 -1.18900 35.79600
N  18.79100 -4.39200 28.07600
C  19.38200 -5.01200 29.11000
C  20.13600 -6.14800 28.55200
C  20.05100 -6.07100 27.10200
C  19.18100 -4.85900 26.91300
C  21.16000 -7.01600 29.36400
C  20.71100 -6.94400 26.07500
O  20.66000 -6.72700 24.88600
C  21.42200 -8.21600 26.41200
N  17.48400 -2.39200 26.18700
C  18.03000 -3.27700 25.31100
C  17.74500 -2.89500 23.84800
C  16.53400 -2.04800 24.02400
C  16.56200 -1.68500 25.46900
C  18.96400 -2.19900 23.22300
C  15.23100 -2.78100 23.57100
C  14.08600 -1.97900 23.06100
N  16.30000 -1.01900 28.37500
C  15.53600 -0.36200 27.39800
C  14.63600 0.58100 27.99100
C  15.00100 0.56600 29.36700
C  15.97200 -0.45300 29.54600
C  13.69000 1.35700 27.22900
C  14.66600 1.14400 30.64600
O  13.77200 1.97300 30.97600
C  15.51700 0.27600 31.78200
C  16.48900 1.27100 32.44400
O  17.63900 1.55400 32.09800
O  15.81400 1.82100 33.50200
C  16.44300 2.74900 34.43400
H  19.94700 -5.27700 31.10100
H  19.12600 -4.91600 24.83500
H  15.20100 -0.15100 25.21600
H  18.00400 -1.17500 33.14200
H  18.33400 -4.12600 32.98700
H  20.76700 -3.39600 32.74800
H  20.10800 -2.53500 34.14900
H  20.17600 -1.70400 32.56900
H  16.46300 -3.48200 34.01200
H  15.41000 -2.24400 33.23500
H  15.77900 -2.40400 35.73400
H  15.49400 -0.97500 34.82500
H  22.00900 -7.25400 28.72300
H  20.81600 -7.93800 29.83200
H  21.52300 -6.45400 30.22400
H  21.00300 -8.61900 27.33400
H  22.45200 -7.93200 26.63100
H  21.48500 -8.95200 25.61100
H  17.64900 -3.89800 23.43100
H  16.67400 -1.11600 23.47700
H  19.90400 -2.05400 23.75500
H  18.65500 -1.18700 22.96200
H  19.23800 -2.78000 22.34200
H  14.93100 -3.26400 24.50100
H  15.34900 -3.39900 22.68000
H  14.14700 -1.01900 23.57400
H  13.20700 -2.55300 23.35500
H  14.17500 -1.88100 21.97900
H  13.11900 0.74800 26.52700
H  14.25100 1.99300 26.54500
H  13.07200 1.95100 27.90200
H  14.81600 -0.11800 32.51700
H  17.21900 3.33800 33.94500
H  16.74300 2.30700 35.38400
H  15.67200 3.46600 34.71800
Mg 46.79900 45.01000 43.31700
C  43.45700 44.27400 42.84400
C  47.48800 41.65200 42.54900
C  49.90400 45.80000 42.89000
C  45.73500 48.48300 43.52000
N  45.57500 43.14700 42.66300
C  44.24100 43.09200 42.67100
C  43.73600 41.64700 42.43100
C  45.03600 40.74100 42.59800
C  46.12400 41.89700 42.57400
C  45.08700 39.86200 43.80500
C  42.90200 41.32700 41.18300
C  43.19300 42.19100 39.93800
H  43.23400 41.47500 38.58700
N  48.53400 43.86600 42.72000
C  48.62300 42.54700 42.56300
C  50.01300 42.14500 42.59300
C  50.77000 43.37800 42.51100
C  49.75300 44.42600 42.61700
C  50.52900 40.67300 42.63200
C  52.22100 43.53600 42.39400
O  52.90600 42.50900 42.40500
C  52.96400 44.84900 42.31100
N  47.70100 46.85300 43.19700
C  49.05100 46.88500 43.35400
C  49.56400 48.35100 43.44200
C  48.25000 49.17100 43.62600
C  47.14200 48.09300 43.42900
C  50.56000 48.54200 44.55000
C  48.05300 50.35400 42.73100
C  47.66400 50.01700 41.25800
N  44.98100 46.14000 43.34200
C  44.72400 47.46800 43.39800
C  43.30300 47.69300 43.38100
C  42.76700 46.44200 43.12600
C  43.81600 45.55000 43.14600
C  42.61800 49.07300 43.51700
C  41.52000 45.77400 42.85300
O  40.39500 46.18200 42.79700
C  41.95900 44.32000 42.74200
C  41.38400 43.50600 43.81400
O  40.75500 42.44400 43.66400
O  41.62800 44.01900 45.05300
C  41.36500 43.16000 46.16900
H  47.87200 40.63100 42.60100
H  50.91600 46.20900 42.94800
H  45.46700 49.52400 43.71000
H  43.11000 41.49900 43.31100
H  45.14700 40.15600 41.68500
H  45.91900 40.16500 44.44000
H  45.31000 38.83900 43.49800
H  44.14200 39.78200 44.34100
H  41.86700 41.47400 41.49200
H  43.09700 40.27700 40.96700
H  44.13100 42.71500 40.12900
H  42.41000 42.93400 39.78600
H  50.52200 40.39100 41.57900
H  49.85300 40.05400 43.22200
H  51.55700 40.55900 42.97400
H  52.44400 45.53700 41.64400
H  53.96300 44.68900 41.90600
H  53.03700 45.28100 43.30900
H  50.11500 48.38800 42.50200
H  48.06200 49.54200 44.63300
H  51.60400 48.57800 44.23800
H  50.46900 47.63200 45.14300
H  50.29900 49.45800 45.08000
H  49.01700 50.84500 42.60000
H  47.27900 51.05200 43.05000
H  46.80500 50.57700 40.88700
H  47.38400 48.97500 41.10400
H  48.46800 50.23800 40.55600
H  43.12100 49.63200 44.30500
H  41.54000 48.95200 43.62500
H  42.77000 49.70900 42.64500
H  41.64800 43.92500 41.77400
H  41.96700 42.25600 46.07500
H  40.29300 42.98000 46.25200
H  41.71500 43.50800 47.14100

