158

Mg -2.04900 16.98500 26.35600
C  -2.35400 14.69700 29.04500
C  -2.41400 19.55700 28.56600
C  -1.99800 18.94700 23.80200
C  -2.11400 14.14800 24.20300
N  -2.31800 17.03600 28.52600
C  -2.42700 16.03700 29.39500
C  -2.62700 16.53200 30.84500
C  -2.52800 18.10200 30.68700
C  -2.38000 18.28300 29.15200
C  -3.71100 18.91800 31.32200
C  -1.59600 16.15500 31.94300
C  -1.38600 17.05300 33.17800
H  -2.02600 16.57900 34.42100
N  -2.23500 18.99700 26.19800
C  -2.37800 19.93000 27.22500
C  -2.29300 21.26200 26.61800
C  -2.20500 21.06400 25.20400
C  -2.09200 19.59300 25.01100
C  -2.56300 22.53600 27.39300
C  -2.08100 22.04000 24.03300
O  -2.09500 21.69900 22.85100
C  -1.96500 23.50000 24.29900
N  -2.10900 16.60400 24.28800
C  -2.08300 17.63200 23.36000
C  -2.09800 17.10300 21.87800
C  -2.11500 15.56900 22.09000
C  -2.02700 15.43600 23.60700
C  -3.24700 17.66400 21.06700
C  -1.05200 14.74400 21.31600
C  -0.84700 15.15900 19.86500
N  -2.24000 14.84800 26.51900
C  -2.20500 13.85000 25.57700
C  -2.28500 12.58300 26.23300
C  -2.34900 12.82900 27.62100
C  -2.27500 14.26400 27.69700
C  -2.18700 11.26100 25.55900
C  -2.52900 12.26900 28.87900
O  -2.71900 11.10100 29.23700
C  -2.51800 13.42900 29.89600
C  -1.45900 13.05000 30.77800
O  -0.29200 13.51000 30.87200
O  -1.97500 12.12700 31.67700
C  -1.08500 11.72700 32.83600
H  -2.26300 20.33900 29.31300
H  -1.95800 19.55700 22.89600
H  -1.89100 13.26200 23.60500
H  -3.58500 16.19700 31.24100
H  -1.51600 18.45600 30.87900
H  -4.52300 19.04300 30.60400
H  -3.35600 19.88600 31.67600
H  -4.11900 18.40900 32.19500
H  -0.57900 15.98800 31.58600
H  -2.00100 15.20400 32.29100
H  -1.72000 18.07800 33.01800
H  -0.30800 17.12700 33.31700
H  -3.46800 23.06300 27.09200
H  -1.60200 23.04800 27.35800
H  -2.62900 22.34300 28.46300
H  -1.43300 23.64500 25.24000
H  -2.99600 23.81000 24.46500
H  -1.37400 23.99700 23.52900
H  -1.08600 17.37400 21.57800
H  -3.10600 15.22500 21.79500
H  -2.95300 18.31800 20.24600
H  -3.85400 18.39000 21.60800
H  -3.86200 16.91300 20.57000
H  -1.35900 13.70100 21.39500
H  -0.08600 14.78100 21.81800
H  0.21800 15.08800 19.64300
H  -1.14400 16.17000 19.58700
H  -1.40300 14.45400 19.24700
H  -3.16500 10.99400 25.15600
H  -2.02100 10.42600 26.23900
H  -1.53500 11.36600 24.69100
H  -3.53200 13.29000 30.27000
H  -0.70000 10.78800 32.43900
H  -1.58200 11.56200 33.79200
H  -0.29600 12.44500 33.05800
Mg 44.31400 4.52000 47.07600
C  42.25100 7.26600 46.41400
C  41.60500 2.45500 46.48800
C  46.37700 1.88800 46.81200
C  46.96100 6.74600 47.23600
N  42.26200 4.87100 46.41800
C  41.60800 6.06100 46.25500
C  40.13500 5.88700 45.87300
C  39.90600 4.42300 46.37900
C  41.39700 3.86000 46.51400
C  39.26500 4.39300 47.77800
C  40.06300 5.93000 44.31100
C  39.23600 7.02900 43.66800
H  39.48100 7.28100 42.20600
N  44.00900 2.40700 46.83200
C  42.83500 1.78600 46.62000
C  43.10800 0.31500 46.59900
C  44.48900 0.13600 46.38700
C  45.06300 1.50800 46.63800
C  42.06600 -0.75300 46.44900
C  45.22500 -1.09000 46.14000
O  44.54100 -2.08000 45.91100
C  46.76000 -1.24100 46.10200
N  46.37300 4.34300 46.93200
C  46.94800 3.13100 47.06600
C  48.49100 3.23200 47.19300
C  48.73500 4.81800 47.25700
C  47.26900 5.36300 47.13600
C  49.02200 2.37600 48.35800
C  49.74000 5.43900 46.28100
C  51.10700 5.97300 46.82500
N  44.59900 6.58500 47.02400
C  45.70800 7.33200 47.11000
C  45.42200 8.72800 47.10100
C  44.01500 8.79900 46.82200
C  43.61200 7.41300 46.72700
C  46.36300 9.82000 47.36000
C  42.87200 9.71400 46.56500
O  42.69700 10.92200 46.42300
C  41.68500 8.70900 46.25400
C  40.71900 9.05300 47.31500
O  40.95700 9.00100 48.49000
O  39.46800 9.42600 46.81300
C  38.43300 9.66800 47.75800
H  40.72300 1.81300 46.54500
H  47.17000 1.15100 46.66900
H  47.76100 7.47500 47.38200
H  39.48800 6.69000 46.22500
H  39.39700 3.83000 45.61900
H  39.20400 5.41900 48.14000
H  39.80400 3.84900 48.55500
H  38.24600 4.01400 47.70000
H  39.59400 5.07000 43.83200
H  41.08800 5.91900 43.94000
H  39.30000 7.98000 44.19600
H  38.20200 6.68800 43.61400
H  42.19900 -1.31900 45.52800
H  41.03500 -0.44200 46.27800
H  42.21000 -1.46300 47.26300
H  47.32400 -0.94700 46.98700
H  47.20400 -0.88100 45.17400
H  46.93600 -2.31400 46.02600
H  49.07400 2.95000 46.31700
H  49.04600 5.07400 48.27000
H  48.28100 2.21500 49.14100
H  49.91300 2.82500 48.79700
H  49.34700 1.36300 48.12300
H  49.22300 6.36400 46.02300
H  49.89700 4.82700 45.39300
H  51.87800 5.39800 46.31200
H  51.17100 5.80500 47.90000
H  51.13400 7.05600 46.70900
H  46.23200 10.06700 48.41400
H  46.07000 10.66100 46.73300
H  47.38000 9.49100 47.14100
H  41.18800 8.91700 45.30600
H  38.59900 10.64300 48.21700
H  38.45300 8.89700 48.52800
H  37.47700 9.77400 47.24500

