158

Mg 29.36300 58.00800 40.79500
C  26.36700 56.38100 39.69700
C  31.09500 55.52800 39.17800
C  32.21300 60.03400 40.73700
C  27.45600 60.84100 41.60200
N  28.75000 56.10800 39.63100
C  27.48800 55.66700 39.33700
C  27.59100 54.36100 38.50300
C  29.11900 54.00800 38.47900
C  29.70400 55.26600 39.12200
C  29.58700 52.66800 39.22600
C  26.93600 54.48800 37.14800
C  27.05900 55.79200 36.40600
H  26.85300 55.80700 34.91700
N  31.34300 57.74100 40.25500
C  31.90500 56.63000 39.68400
C  33.33000 56.71600 39.47600
C  33.74800 57.98800 40.07900
C  32.44500 58.65000 40.41600
C  34.17200 55.67100 38.82500
C  35.15900 58.54100 40.20200
O  36.08500 57.99700 39.58500
C  35.49500 59.71200 41.02200
N  29.73900 60.13000 41.07000
C  30.99300 60.67600 41.08500
C  30.95000 62.16900 41.41000
C  29.39700 62.41300 41.70500
C  28.80400 61.02800 41.39000
C  32.07300 62.61300 42.41500
C  28.82200 63.57500 40.87600
C  28.71200 64.96200 41.60700
N  27.29800 58.47700 40.84400
C  26.66700 59.70500 41.22200
C  25.22400 59.52500 41.21100
C  25.04600 58.17100 40.66700
C  26.33600 57.64900 40.36400
C  24.22000 60.53500 41.69100
C  24.08700 57.26500 40.12900
O  22.84100 57.29900 40.11900
C  24.88600 56.10000 39.36900
C  24.45500 54.82600 40.05000
O  23.82700 54.00200 39.42700
O  24.95200 54.60000 41.27500
C  24.94200 53.21700 41.78200
H  31.71000 54.74000 38.74000
H  33.06600 60.70700 40.63100
H  26.85500 61.71000 41.87700
H  26.94600 53.67100 39.04800
H  29.35700 53.99400 37.41500
H  28.68900 52.22600 39.65600
H  30.29100 52.89900 40.02600
H  29.95200 51.92900 38.51200
H  25.89900 54.18200 37.28800
H  27.39100 53.77600 36.46000
H  28.01100 56.24400 36.68500
H  26.29300 56.47600 36.77000
H  33.73100 54.69300 38.63500
H  35.03400 55.61500 39.49000
H  34.63100 56.04100 37.90800
H  34.73200 59.80200 41.79500
H  35.54300 60.59200 40.38000
H  36.49100 59.51300 41.41900
H  31.22100 62.63600 40.46300
H  29.19300 62.64800 42.75000
H  31.55400 62.92800 43.32100
H  32.65700 63.49300 42.14900
H  32.74800 61.84600 42.79400
H  27.91800 63.25500 40.35600
H  29.52800 63.74900 40.06400
H  27.79700 64.96400 42.20000
H  28.70200 65.71800 40.82200
H  29.58500 64.98500 42.26000
H  24.23400 61.49500 41.17400
H  24.49100 60.81200 42.70900
H  23.20700 60.13500 41.73000
H  24.59900 56.22800 38.32600
H  24.34900 53.30400 42.69200
H  25.96200 52.92000 42.02600
H  24.42300 52.41300 41.26000
Mg -12.72500 14.68300 41.88300
C  -9.29300 13.81700 41.63600
C  -11.98200 17.47000 40.15300
C  -15.92800 15.10100 41.62100
C  -13.19600 11.42500 43.39700
N  -10.83100 15.51100 41.04500
C  -9.55000 15.02500 41.02300
C  -8.59000 15.92000 40.15900
C  -9.46500 17.13600 39.85700
C  -10.89000 16.67600 40.37900
C  -8.91300 18.53800 40.37800
C  -8.03600 15.13800 38.87900
C  -6.44500 15.16500 38.76400
H  -6.03400 16.19700 37.60200
N  -13.81000 16.11200 40.97800
C  -13.38800 17.15400 40.27100
C  -14.54000 17.82000 39.65900
C  -15.69400 17.11200 40.06300
C  -15.19900 16.02900 40.93500
C  -14.43400 19.02000 38.68800
C  -17.09800 17.48600 39.65500
O  -17.26900 18.62400 39.23000
C  -18.26000 16.55000 39.79000
N  -14.36400 13.29600 42.30000
C  -15.58100 13.83300 42.17500
C  -16.58900 12.92700 42.95800
C  -15.75200 11.62300 43.22600
C  -14.36800 12.10200 43.01200
C  -17.03800 13.64700 44.25800
C  -16.02500 10.44900 42.28200
C  -16.02100 9.06100 42.85400
N  -11.51400 12.86300 42.42000
C  -11.83000 11.71300 43.06700
C  -10.59900 10.92800 43.26400
C  -9.64200 11.73500 42.73100
C  -10.20900 12.86900 42.21200
C  -10.65100 9.57600 43.90200
C  -8.20500 11.81300 42.46700
O  -7.29500 11.03200 42.73500
C  -7.97500 13.19500 41.73800
C  -7.08500 13.97400 42.58200
O  -7.42200 14.67200 43.54200
O  -5.79600 14.00500 42.01100
C  -4.87500 14.90000 42.74700
H  -11.80200 18.38300 39.58100
H  -17.00800 15.21300 41.73900
H  -13.23600 10.40700 43.79000
H  -7.75600 16.07500 40.84300
H  -9.77400 17.24100 38.81700
H  -8.01400 18.26600 40.93200
H  -9.64600 19.02200 41.02400
H  -8.56500 19.16600 39.55800
H  -8.39800 15.65700 37.99100
H  -8.26100 14.07200 38.83300
H  -6.02200 14.16100 38.74000
H  -6.00300 15.64500 39.63700
H  -14.33000 20.03300 39.07700
H  -15.25600 18.98600 37.97300
H  -13.53900 18.79200 38.10900
H  -17.95800 15.60600 39.33400
H  -19.04500 17.19300 39.39300
H  -18.49100 16.37900 40.84200
H  -17.43600 12.65400 42.32800
H  -15.81300 11.22800 44.24100
H  -16.77700 13.03500 45.12200
H  -18.08700 13.89900 44.41200
H  -16.39900 14.52400 44.35700
H  -15.37600 10.34600 41.41200
H  -17.02100 10.62000 41.87400
H  -17.08400 8.81800 42.84200
H  -15.57700 9.10200 43.84800
H  -15.50900 8.34800 42.20800
H  -11.53800 9.01100 43.61600
H  -10.71000 9.58100 44.99000
H  -9.76800 8.99200 43.64400
H  -7.48600 12.95600 40.79400
H  -5.22300 15.92300 42.60400
H  -3.86000 14.80700 42.36100
H  -4.73200 14.76300 43.81900

