158

Mg 1.73300 7.52600 25.58900
C  2.21100 9.59800 28.33700
C  2.22300 4.84700 27.77200
C  1.16700 5.56900 23.00400
C  1.71400 10.43000 23.55300
N  2.07500 7.25600 27.82400
C  2.19900 8.26200 28.77300
C  2.22400 7.74600 30.19600
C  2.75500 6.22400 29.96000
C  2.47200 6.09000 28.42000
C  4.22700 5.86200 30.33500
C  0.85300 7.86800 30.98500
C  0.84300 7.70000 32.52700
H  2.08800 7.02200 33.15400
N  1.68300 5.48400 25.42900
C  1.76300 4.54700 26.45100
C  1.58600 3.18100 25.89500
C  1.21900 3.41400 24.49800
C  1.37800 4.88400 24.24500
C  1.59400 1.87100 26.78900
C  0.85300 2.35400 23.34900
O  0.59800 2.66300 22.16700
C  0.71800 0.96900 23.74600
N  1.78900 7.90600 23.46300
C  1.35500 6.92900 22.65000
C  0.92500 7.44400 21.26900
C  0.80200 8.98100 21.56500
C  1.46200 9.14200 22.95200
C  1.95800 7.06300 20.08200
C  -0.65600 9.59600 21.52400
C  -0.92300 10.41100 20.22500
N  1.99100 9.55600 25.82500
C  2.02500 10.56400 24.89900
C  2.31300 11.82400 25.58100
C  2.47800 11.51200 26.93100
C  2.19000 10.07600 27.03200
C  2.30300 13.20700 25.04000
C  2.60600 12.02700 28.28700
O  2.84300 13.15600 28.73700
C  2.41400 10.83800 29.21300
C  3.67800 10.74200 30.03800
O  4.72100 10.13700 29.74500
O  3.35000 11.20800 31.28900
C  4.53500 11.15800 32.17200
H  2.50200 3.99400 28.39400
H  0.93100 4.97100 22.12200
H  1.63500 11.36900 23.00100
H  2.99100 8.26500 30.77100
H  1.95300 5.64900 30.42500
H  4.79500 6.72100 30.69300
H  4.73600 5.47500 29.45200
H  4.32300 5.16400 31.16700
H  0.18600 7.23700 30.39800
H  0.54400 8.87800 30.71700
H  -0.05800 7.18600 32.86300
H  0.89900 8.70100 32.95500
H  0.65800 1.37100 26.53800
H  1.58200 1.92500 27.87700
H  2.40700 1.20500 26.50200
H  0.24700 0.39100 22.95000
H  -0.01600 1.04300 24.54800
H  1.64000 0.58500 24.18300
H  -0.07300 7.11000 20.98600
H  1.39700 9.49100 20.80700
H  2.46000 7.97300 19.75300
H  1.49000 6.49900 19.27500
H  2.73400 6.42100 20.49900
H  -0.75200 10.25700 22.38500
H  -1.37800 8.78700 21.63400
H  -1.91600 10.23700 19.81000
H  -0.30100 10.04000 19.41100
H  -0.74500 11.45800 20.47100
H  2.33700 13.22400 23.95000
H  3.21000 13.66800 25.43100
H  1.46100 13.76600 25.44800
H  1.44500 10.98600 29.69100
H  4.89500 10.13400 32.27500
H  4.29300 11.61300 33.13200
H  5.34400 11.76400 31.76500
Mg 41.52400 7.35900 29.55300
C  43.32200 9.08400 32.04200
C  39.02200 6.64300 31.81000
C  39.79100 5.87100 27.07300
C  44.15700 7.98200 27.39700
N  41.20300 7.86100 31.68000
C  42.14500 8.47600 32.50900
C  41.58100 8.55400 33.94600
C  40.15700 7.90700 33.80100
C  40.12000 7.41500 32.38400
C  39.80400 6.79300 34.85100
C  41.63400 9.99800 34.50600
C  40.66000 10.34900 35.57500
H  41.01100 11.41200 36.63300
N  39.73800 6.30400 29.48800
C  38.84200 6.13800 30.54600
C  37.61600 5.53300 30.06100
C  37.89600 5.19500 28.73500
C  39.20000 5.84100 28.33700
C  36.42400 5.25100 30.89700
C  37.04100 4.43900 27.71000
O  37.39600 4.17000 26.54900
C  35.70000 3.93900 28.15500
N  41.96100 6.80000 27.52600
C  41.05000 6.30900 26.67700
C  41.63900 6.14800 25.29900
C  42.88500 6.97900 25.33300
C  43.05300 7.29600 26.83300
C  41.78400 4.64800 24.82600
C  42.82900 8.31700 24.46000
C  41.93300 9.36700 25.07500
N  43.40100 8.33400 29.65300
C  44.31300 8.58500 28.64700
C  45.34100 9.43900 29.09500
C  45.06100 9.58500 30.49600
C  43.78100 8.99100 30.71600
C  46.48000 9.90300 28.27900
C  45.53500 10.16800 31.74900
O  46.55600 10.83600 31.96200
C  44.41700 9.89600 32.78800
C  44.97000 9.09500 33.98600
O  45.05500 7.90300 34.00200
O  45.20900 9.92100 34.96900
C  45.39400 9.36400 36.29900
H  38.19300 6.65600 32.52000
H  39.21900 5.50800 26.21700
H  44.93700 8.15100 26.65200
H  42.26600 7.93800 34.52900
H  39.50700 8.77500 33.91200
H  38.86500 7.05800 35.33700
H  40.51500 6.55900 35.64400
H  39.72900 5.81600 34.37400
H  41.58400 10.68400 33.66100
H  42.58600 10.12100 35.02100
H  40.53400 9.44400 36.16900
H  39.78900 10.75400 35.06100
H  36.31500 4.16800 30.96200
H  35.53700 5.77300 30.53700
H  36.45800 5.58800 31.93300
H  35.65200 3.25700 29.00400
H  35.16800 3.50700 27.30900
H  35.13000 4.81000 28.48100
H  40.90700 6.57200 24.61100
H  43.68400 6.31000 25.01400
H  41.43600 3.91800 25.55600
H  42.82100 4.42000 24.57700
H  41.13800 4.44900 23.97100
H  42.40600 7.92300 23.53600
H  43.85300 8.68900 24.50000
H  42.51700 10.27500 25.21900
H  41.52200 9.06700 26.03900
H  41.10500 9.52500 24.38400
H  46.96600 10.70400 28.83600
H  46.15500 10.31300 27.32300
H  47.24800 9.13900 28.16300
H  43.89500 10.79500 33.11600
H  45.39700 8.27600 36.36200
H  44.62800 9.66500 37.01400
H  46.38000 9.64100 36.67400

