158

Mg -1.63400 17.24800 27.33700
C  -2.27900 14.83300 29.80600
C  -2.44300 19.71200 29.60200
C  -1.55900 19.47600 24.86800
C  -1.70900 14.65000 25.00400
N  -2.31900 17.21000 29.49000
C  -2.36500 16.15700 30.33600
C  -2.58700 16.67400 31.71400
C  -2.79300 18.20200 31.59200
C  -2.50000 18.44300 30.12100
C  -4.21700 18.77500 32.04600
C  -1.45800 16.36700 32.77900
C  -1.39100 17.15600 34.16300
H  -0.66500 16.55800 35.30700
N  -1.85500 19.39000 27.30400
C  -2.10200 20.19800 28.30100
C  -2.04700 21.55700 27.90100
C  -1.89800 21.56200 26.49800
C  -1.77200 20.11800 26.16200
C  -2.19800 22.71800 28.84100
C  -1.82600 22.68900 25.52200
O  -1.72800 22.53800 24.30900
C  -2.01700 24.07600 25.91600
N  -1.57600 17.06700 25.27100
C  -1.45600 18.13800 24.44900
C  -1.13100 17.78700 23.03000
C  -1.11400 16.20800 23.05800
C  -1.48200 15.93100 24.54100
C  -2.17700 18.34600 22.07400
C  0.18100 15.54000 22.54600
C  1.41000 15.92400 23.42600
N  -1.93200 15.19400 27.33800
C  -1.91200 14.22500 26.29900
C  -2.06700 12.93500 26.86200
C  -2.24600 13.14800 28.21800
C  -2.17700 14.54100 28.46300
C  -2.16700 11.66400 26.08700
C  -2.48500 12.44600 29.46300
O  -2.61700 11.23700 29.76800
C  -2.44200 13.53200 30.57100
C  -1.23600 13.26800 31.48900
O  -0.08200 13.53300 31.21700
O  -1.61900 12.70000 32.62800
C  -0.59400 12.52300 33.65500
H  -2.69600 20.42900 30.38600
H  -1.33200 20.08400 23.99000
H  -1.67800 13.84200 24.27100
H  -3.54400 16.39400 32.15600
H  -1.95100 18.70900 32.06300
H  -4.99300 18.08400 32.37400
H  -4.60400 19.28900 31.16600
H  -4.04700 19.48500 32.85500
H  -0.46800 16.26800 32.33400
H  -1.78000 15.40100 33.16800
H  -2.36600 17.44300 34.55600
H  -0.70500 17.96000 33.89500
H  -2.81800 23.48800 28.38200
H  -1.23300 23.13500 29.13000
H  -2.59800 22.38000 29.79700
H  -1.66000 24.26000 26.92900
H  -3.10000 24.17200 25.99200
H  -1.65700 24.82700 25.21300
H  -0.13400 18.14500 22.77600
H  -2.01100 15.82300 22.57400
H  -1.91000 19.35000 21.74600
H  -3.14300 18.42300 22.57300
H  -2.23500 17.58800 21.29300
H  0.39200 15.86300 21.52600
H  -0.00600 14.46600 22.55800
H  2.06100 16.67200 22.97300
H  1.98900 15.01800 23.60700
H  1.06100 16.34200 24.37000
H  -1.73300 10.90600 26.73800
H  -1.60800 11.70400 25.15200
H  -3.23500 11.47300 25.98000
H  -3.39500 13.65000 31.08700
H  0.12100 11.79000 33.28400
H  -0.90600 12.12900 34.62200
H  0.01700 13.42500 33.70800
Mg 17.41800 -0.93500 27.92900
C  16.34400 0.92200 30.63300
C  19.37800 -2.67100 30.16700
C  18.93000 -2.35700 25.29200
C  15.44300 1.00700 25.82400
N  18.05400 -0.70700 30.18800
C  17.43500 0.07600 31.05600
C  17.85600 -0.28400 32.51800
C  19.01200 -1.34300 32.33800
C  18.82400 -1.58500 30.80200
C  20.40500 -0.73400 32.70700
C  16.65800 -0.79500 33.39400
C  16.55500 -0.18300 34.80000
H  17.79000 0.39300 35.46600
N  18.87900 -2.38200 27.78100
C  19.48800 -3.04200 28.81100
C  20.17700 -4.23100 28.24800
C  20.13300 -4.11600 26.80100
C  19.27300 -2.91300 26.55300
C  20.86200 -5.27800 29.20300
C  20.76200 -4.97300 25.71700
O  20.47500 -4.85500 24.55100
C  21.65700 -6.11800 26.07400
N  17.30600 -0.65300 25.89400
C  18.08000 -1.31800 24.98800
C  17.70800 -0.95000 23.61200
C  16.45200 -0.01100 23.75700
C  16.38900 0.16600 25.31700
C  18.90100 -0.33300 22.86100
C  15.06400 -0.44300 23.18200
C  14.47700 0.22100 21.94500
N  16.18700 0.62800 28.13500
C  15.34900 1.26700 27.24400
C  14.52400 2.30900 27.90000
C  14.86000 2.13100 29.22200
C  15.94400 1.16400 29.34400
C  13.60700 3.23300 27.20200
C  14.53600 2.64100 30.47900
O  13.69000 3.43900 30.81300
C  15.48400 1.90800 31.49000
C  16.25700 2.89000 32.21700
O  17.10400 3.56600 31.64100
O  16.03000 2.90700 33.56900
C  16.51200 4.10000 34.30300
H  20.02500 -3.19500 30.87300
H  19.32100 -2.96300 24.47100
H  14.81100 1.59200 25.15300
H  18.38000 0.54800 32.98900
H  18.82800 -2.25300 32.90800
H  21.19200 -1.20400 32.11800
H  20.56800 -0.94800 33.76300
H  20.50700 0.33600 32.52500
H  16.81700 -1.86600 33.52100
H  15.74500 -0.62200 32.82500
H  16.40900 -1.00900 35.49600
H  15.74800 0.54700 34.85900
H  21.86500 -5.45700 28.81700
H  20.35200 -6.23500 29.31900
H  20.86000 -4.88400 30.21900
H  22.64300 -5.71700 26.31100
H  21.63900 -6.73800 25.17800
H  21.33000 -6.71000 26.92900
H  17.53900 -1.84700 23.01700
H  16.70500 0.98800 23.40300
H  19.79900 -0.27000 23.47600
H  18.67500 0.66400 22.48300
H  19.08000 -1.03900 22.05000
H  14.27900 -0.42200 23.93800
H  15.13700 -1.51100 22.97900
H  13.53300 0.65400 22.27700
H  14.24200 -0.45000 21.11900
H  15.12700 1.00200 21.55000
H  12.61300 2.80600 27.06400
H  13.96100 3.70300 26.28500
H  13.54200 3.92900 28.03800
H  14.71000 1.53400 32.16000
H  17.45800 3.82900 34.77000
H  15.78000 4.34800 35.07200
H  16.55300 4.96300 33.63900

