158

Mg 8.99600 3.26200 27.07800
C  10.13100 1.76900 30.00800
C  7.13000 5.47700 29.01500
C  7.34400 4.22000 24.27400
C  10.46700 0.69300 25.21200
N  8.52500 3.46800 29.25300
C  9.22500 2.76500 30.25400
C  8.95500 3.39000 31.62600
C  7.87600 4.38000 31.35700
C  7.81400 4.50300 29.78000
C  6.42500 4.14100 31.90100
C  10.22100 4.09500 32.18400
C  10.76100 3.58000 33.50300
H  10.94900 4.46500 34.71600
N  7.49300 4.64500 26.68400
C  6.93000 5.53800 27.59700
C  6.13300 6.54500 26.91000
C  6.34900 6.30600 25.54800
C  7.06000 5.00100 25.43900
C  5.16000 7.51500 27.53900
C  5.95700 7.19600 24.27200
O  6.20600 6.89200 23.11800
C  5.32400 8.55500 24.48000
N  8.80500 2.47200 25.01200
C  8.12600 3.10600 24.06400
C  8.29000 2.46900 22.70800
C  9.46900 1.50000 23.01000
C  9.58700 1.55000 24.46600
C  6.97200 1.66000 22.32000
C  10.78700 1.77500 22.24300
C  11.25600 0.55700 21.36600
N  10.14000 1.63100 27.47700
C  10.73100 0.72700 26.61700
C  11.48500 -0.24100 27.40600
C  11.33200 0.18700 28.76400
C  10.41300 1.27500 28.65200
C  12.39700 -1.39800 26.93700
C  11.75300 -0.04000 30.11800
O  12.70100 -0.74800 30.53900
C  10.93400 1.02800 31.00800
C  10.18100 0.30300 32.04200
O  9.06500 -0.13200 31.96700
O  10.98500 0.22200 33.15800
C  10.36600 -0.57500 34.24200
H  6.54500 6.17000 29.62300
H  6.82800 4.62600 23.40200
H  11.02400 -0.07300 24.66800
H  8.70600 2.51400 32.22500
H  8.05000 5.39500 31.71300
H  6.48000 3.14500 32.33900
H  5.68400 4.12400 31.10200
H  6.26900 4.97600 32.58400
H  10.07100 5.15000 32.41500
H  11.00200 3.93000 31.44200
H  11.79100 3.37900 33.20600
H  10.31200 2.71000 33.98100
H  4.21100 6.97900 27.53600
H  5.09600 8.47800 27.03300
H  5.42300 7.77900 28.56400
H  5.19000 9.13600 23.56700
H  5.96700 9.18600 25.09400
H  4.37000 8.45300 24.99700
H  8.61700 3.26200 22.03500
H  9.03900 0.50800 22.87300
H  6.71000 2.05900 21.34100
H  6.07200 1.84500 22.90700
H  7.11700 0.58000 22.32400
H  11.53500 1.85500 23.03200
H  10.55900 2.69000 21.69600
H  10.45400 -0.13800 21.11500
H  11.95500 0.01000 22.00000
H  11.72200 0.91800 20.44900
H  13.44000 -1.08100 26.89800
H  12.11300 -1.74900 25.94500
H  12.33600 -2.30500 27.53800
H  11.58600 1.73800 31.51600
H  9.66900 0.09700 34.74300
H  11.16200 -0.69000 34.97700
H  9.89700 -1.54500 34.07500
Mg 6.66800 54.10300 41.49200
C  6.06500 50.58600 41.77300
C  9.87400 53.41900 40.34600
C  7.00300 57.28900 40.78600
C  3.45100 54.58400 42.68300
N  7.72900 52.14300 40.96100
C  7.30100 50.89900 41.14900
C  8.41500 49.92300 40.67100
C  9.66900 50.82600 40.71800
C  9.07300 52.26800 40.63500
C  10.50400 50.57700 41.92900
C  8.02700 49.23000 39.26600
C  8.38100 50.13300 38.04800
H  7.17000 50.44200 37.17800
N  8.21900 55.17300 40.57900
C  9.48800 54.75800 40.29200
C  10.35000 55.86900 39.89300
C  9.53900 57.04000 40.11500
C  8.17200 56.53100 40.49000
C  11.78100 55.85800 39.47800
C  10.10000 58.42700 40.04200
O  11.26200 58.65300 39.74200
C  9.19100 59.67500 40.26900
N  5.33500 55.67900 41.52700
C  5.75600 56.92700 41.26300
C  4.74900 57.99000 41.68900
C  3.64500 57.16500 42.42400
C  4.09000 55.70100 42.09600
C  5.25400 59.21500 42.57200
C  2.07800 57.36700 42.09300
C  1.20900 57.89400 43.23700
N  5.03900 52.92800 42.14600
C  3.80500 53.25800 42.58600
C  3.10400 52.07000 43.06600
C  4.02700 51.01100 42.76000
C  5.15100 51.59400 42.21600
C  1.68500 52.03300 43.57300
C  4.22500 49.60400 42.88100
O  3.39900 48.81100 43.34600
C  5.46400 49.26100 42.13700
C  5.15300 48.45300 40.90800
O  4.22300 48.72900 40.10500
O  5.90600 47.28600 40.92000
C  5.53400 46.24800 40.03200
H  10.96300 53.40800 40.26000
H  7.08500 58.37000 40.65500
H  2.57700 54.82400 43.29200
H  8.60900 49.08800 41.34400
H  10.28900 50.70900 39.82800
H  10.09900 49.74600 42.50800
H  10.41700 51.42300 42.61100
H  11.51900 50.26400 41.68500
H  6.96400 49.00000 39.20000
H  8.53300 48.26400 39.26300
H  9.08100 49.62400 37.38600
H  8.79100 51.10700 38.31800
H  11.75100 56.60200 38.68200
H  12.15200 54.86900 39.20500
H  12.43900 56.15700 40.29400
H  8.41200 59.71800 39.50800
H  9.82900 60.54600 40.11600
H  8.74000 59.76700 41.25700
H  4.30300 58.37000 40.77000
H  3.83900 57.36700 43.47700
H  4.56400 59.38900 43.39800
H  5.34100 60.09600 41.93600
H  6.21200 59.04600 43.06300
H  1.65800 56.43100 41.72700
H  2.19200 58.04200 41.24400
H  1.72300 57.71700 44.18300
H  0.21900 57.44500 43.16700
H  1.10100 58.97800 43.21400
H  0.91800 52.03100 42.79900
H  1.57900 52.87800 44.25400
H  1.65400 51.12600 44.17700
H  6.10000 48.63800 42.76600
H  5.99300 46.41900 39.05900
H  4.47000 46.19900 39.80400
H  5.91800 45.29700 40.40200

