158

Mg -1.93400 17.19900 26.24300
C  -2.14200 14.92500 28.97000
C  -2.47600 19.84700 28.54600
C  -2.37800 19.23900 23.66500
C  -2.44500 14.44000 24.20600
N  -2.04400 17.36700 28.50200
C  -2.07000 16.32000 29.39100
C  -2.41200 16.88100 30.84100
C  -2.49000 18.44800 30.66500
C  -2.35800 18.58700 29.11600
C  -3.84700 19.09800 31.13000
C  -1.37900 16.38800 31.91500
C  -1.08900 17.32800 33.08600
H  -0.41100 16.75000 34.21300
N  -2.27400 19.17700 26.13300
C  -2.44500 20.12700 27.15500
C  -2.55800 21.40500 26.60400
C  -2.40000 21.31400 25.16600
C  -2.35500 19.85300 24.92800
C  -2.88300 22.61300 27.44600
C  -2.61400 22.32200 24.09200
O  -2.62100 22.12900 22.88700
C  -2.82500 23.68700 24.49200
N  -2.46300 16.86400 24.17200
C  -2.46700 17.87000 23.30200
C  -2.63400 17.44700 21.83600
C  -2.63500 15.89200 22.04300
C  -2.51400 15.69200 23.60300
C  -3.96800 18.00400 21.29800
C  -1.56900 15.18400 21.29900
C  -1.78300 15.21900 19.76200
N  -2.31300 15.14500 26.45800
C  -2.32500 14.15200 25.55700
C  -2.40000 12.84500 26.11700
C  -2.29200 13.10800 27.52700
C  -2.27700 14.50200 27.64900
C  -2.69300 11.54400 25.41100
C  -2.27800 12.48600 28.80800
O  -2.20800 11.28100 29.05900
C  -2.26300 13.69100 29.83100
C  -1.20900 13.30800 30.78300
O  -0.02500 13.45600 30.58600
O  -1.83900 12.78100 31.91900
C  -0.92100 12.35700 32.96900
H  -2.65800 20.60800 29.30800
H  -2.48400 19.85300 22.76800
H  -2.52700 13.66200 23.44400
H  -3.35700 16.36000 30.99600
H  -1.72200 18.96000 31.24500
H  -4.46500 19.37600 30.27600
H  -3.58100 20.01800 31.65000
H  -4.33600 18.38000 31.78900
H  -0.54400 16.14100 31.26100
H  -1.78100 15.46700 32.33900
H  -1.95100 17.94700 33.33400
H  -0.37400 18.10200 32.80900
H  -3.92400 22.88600 27.27300
H  -2.32600 23.50400 27.15600
H  -2.81100 22.48400 28.52600
H  -2.96500 24.36600 23.65100
H  -1.90100 24.00500 24.97300
H  -3.68300 23.76500 25.16000
H  -1.82600 17.81600 21.20500
H  -3.64700 15.52400 21.87100
H  -4.17400 18.91700 21.85800
H  -4.69900 17.19800 21.25000
H  -3.69500 18.37800 20.31200
H  -1.31900 14.14900 21.53100
H  -0.67100 15.78500 21.43600
H  -1.17900 16.04200 19.37800
H  -2.83200 15.45400 19.58100
H  -1.45800 14.33500 19.21400
H  -2.09200 11.41700 24.51100
H  -3.74400 11.64600 25.13900
H  -2.48200 10.66200 26.01500
H  -3.25100 13.76900 30.28600
H  -0.26000 13.19000 33.20800
H  -0.36100 11.49900 32.59600
H  -1.52400 12.27400 33.87300
Mg 53.85100 24.83000 44.89400
C  51.02100 26.92000 44.07700
C  51.95800 22.05300 43.48600
C  56.54900 22.89700 44.78400
C  55.62800 27.68700 45.61200
N  51.96000 24.62700 43.71600
C  50.96300 25.60400 43.64000
C  49.71400 24.98100 42.96300
C  49.94700 23.53900 43.29700
C  51.41800 23.34600 43.48200
C  49.10400 22.77900 44.33900
C  49.38000 25.28200 41.52800
C  50.25000 24.78100 40.38500
H  50.88500 25.69900 39.33300
N  54.22200 22.72700 44.25900
C  53.29300 21.81100 43.79000
C  53.93700 20.48400 43.78900
C  55.28200 20.64500 44.19300
C  55.42700 22.12800 44.45300
C  53.27100 19.15000 43.53900
C  56.34900 19.50200 44.23300
O  56.06300 18.29500 43.98800
C  57.68500 19.81400 44.84500
N  55.82100 25.33800 44.89500
C  56.76000 24.33000 45.06200
C  58.14300 24.84800 45.37900
C  57.84900 26.39900 45.59800
C  56.34000 26.56300 45.28900
C  59.00000 24.08600 46.46200
C  58.69700 27.39900 44.80100
C  59.28500 28.53400 45.58700
N  53.38800 26.84300 45.08800
C  54.25800 27.91500 45.37100
C  53.46100 29.16300 45.51400
C  52.11800 28.81800 45.08500
C  52.18600 27.36900 44.76800
C  53.97900 30.51700 46.04000
C  50.77200 29.29700 44.82000
O  50.33100 30.41900 44.77300
C  50.02600 28.15300 44.12200
C  49.65200 28.68200 42.79400
O  50.38000 28.73200 41.78100
O  48.38400 29.27800 42.76800
C  47.92600 29.68200 41.44000
H  51.37400 21.16200 43.24600
H  57.56300 22.49300 44.76200
H  56.19900 28.48200 46.09500
H  48.89400 25.35900 43.57400
H  49.78600 22.98000 42.37600
H  49.75700 22.12800 44.92100
H  48.42600 22.11800 43.79900
H  48.60800 23.54300 44.93600
H  49.21000 26.34800 41.37800
H  48.35400 24.94600 41.37300
H  49.67200 24.07300 39.79200
H  51.12300 24.28300 40.80600
H  53.59700 18.67500 42.61300
H  52.19800 19.21000 43.35700
H  53.46700 18.36500 44.27000
H  57.51100 20.42500 45.73100
H  58.37400 20.33500 44.18000
H  58.16200 18.88700 45.16300
H  58.59800 24.73000 44.39500
H  57.96900 26.64100 46.65400
H  58.52500 23.16700 46.80500
H  59.19600 24.71900 47.32800
H  59.95900 23.70900 46.10600
H  58.08000 27.78200 43.98900
H  59.58300 26.88500 44.42900
H  60.34900 28.31900 45.68100
H  58.73900 28.72300 46.51100
H  59.26400 29.40600 44.93400
H  53.19800 31.10800 46.51900
H  54.45600 31.09700 45.25100
H  54.72700 30.38600 46.82200
H  49.10400 27.89000 44.64000
H  47.07700 30.36500 41.46500
H  47.55200 28.86300 40.82600
H  48.74000 30.19300 40.92600

