158

Mg -2.45900 17.31300 26.59500
C  -2.55200 15.36200 29.43800
C  -2.69500 20.09400 28.57500
C  -2.68800 19.17000 23.81800
C  -2.83700 14.32100 24.66100
N  -2.54500 17.68300 28.76100
C  -2.55400 16.73300 29.76000
C  -2.58600 17.31100 31.13500
C  -2.47400 18.82800 30.86100
C  -2.63000 18.85900 29.32700
C  -3.51600 19.65200 31.59400
C  -1.49000 16.81000 32.16400
C  -0.69300 17.63600 33.24900
H  -0.41700 17.00800 34.60500
N  -2.53700 19.32100 26.22700
C  -2.65000 20.33700 27.14200
C  -2.52700 21.61800 26.50000
C  -2.36700 21.35700 25.08900
C  -2.56000 19.87600 24.97700
C  -2.74800 22.92700 27.26300
C  -2.00900 22.27600 23.98100
O  -2.03700 21.87500 22.83000
C  -1.78300 23.78100 24.18900
N  -2.77200 16.82300 24.55600
C  -2.82300 17.77000 23.61200
C  -2.90100 17.16900 22.20800
C  -3.12000 15.67700 22.48700
C  -2.82200 15.56700 23.99400
C  -4.07200 17.84600 21.35300
C  -2.10900 14.77000 21.72000
C  -0.58800 14.90200 22.17000
N  -2.47300 15.20000 26.84500
C  -2.64600 14.09800 26.02200
C  -2.76200 12.87300 26.73800
C  -2.77700 13.37300 28.09200
C  -2.58000 14.80000 28.12500
C  -2.76800 11.53900 26.15100
C  -2.91900 12.95300 29.48600
O  -3.14300 11.83300 29.89500
C  -2.70100 14.11900 30.42900
C  -1.47100 13.77500 31.22100
O  -0.28300 13.91700 30.83300
O  -1.85200 13.33300 32.43800
C  -0.81600 12.98700 33.44200
H  -2.67900 20.95700 29.24400
H  -2.84200 19.79500 22.93500
H  -3.07300 13.37500 24.16900
H  -3.61300 17.11100 31.43900
H  -1.49200 19.26700 31.03900
H  -4.07800 20.25000 30.87600
H  -2.96600 20.36800 32.20500
H  -4.13800 18.99700 32.20500
H  -0.73600 16.32300 31.54600
H  -1.98900 16.09900 32.82200
H  -1.34300 18.50600 33.34700
H  0.28600 17.86000 32.82700
H  -1.74300 23.32700 27.40000
H  -3.23600 22.87700 28.23700
H  -3.30900 23.59200 26.60700
H  -1.08100 23.90200 25.01400
H  -2.69400 24.18300 24.63100
H  -1.55600 24.36500 23.29600
H  -1.90600 17.28100 21.77800
H  -4.13200 15.35700 22.23800
H  -4.51200 17.16100 20.62900
H  -3.62400 18.54700 20.64900
H  -4.80000 18.42200 21.92500
H  -2.29000 15.12300 20.70400
H  -2.51600 13.76200 21.80100
H  -0.33700 14.08900 22.85100
H  -0.40900 15.84500 22.68700
H  -0.08100 14.88400 21.20500
H  -1.94800 11.39400 25.44800
H  -3.76000 11.48000 25.70300
H  -2.72100 10.85000 26.99400
H  -3.56800 14.24300 31.07800
H  -0.99300 13.60100 34.32500
H  0.20900 13.10200 33.08900
H  -0.85400 11.99000 33.87900
Mg 26.89100 49.50000 26.39200
C  24.83500 50.59200 29.23500
C  29.01100 48.29000 28.69400
C  28.57800 48.62300 23.85700
C  24.41200 50.94000 24.36000
N  26.88900 49.54400 28.67300
C  25.96500 49.89300 29.61400
C  26.38700 49.54000 31.07100
C  27.84900 49.10300 30.82300
C  27.92600 48.98900 29.31000
C  28.81500 50.15400 31.46100
C  25.45600 48.46800 31.73500
C  24.93400 48.78300 33.17100
H  25.96600 49.42700 34.13700
N  28.56300 48.59400 26.34000
C  29.36700 48.16300 27.33800
C  30.64000 47.68000 26.73600
C  30.53500 47.91700 25.32100
C  29.21100 48.37300 25.11400
C  31.76300 47.12000 27.61700
C  31.54400 47.74400 24.23700
O  31.38200 47.98800 23.03800
C  32.97600 47.44300 24.61100
N  26.53000 49.73400 24.41700
C  27.37500 49.20200 23.56900
C  26.89300 49.29300 22.12100
C  25.51600 50.07500 22.22800
C  25.40400 50.27300 23.77300
C  27.86800 49.68100 20.98100
C  24.33000 49.26100 21.69700
C  23.08500 50.03800 21.38100
N  25.07900 50.74400 26.65300
C  24.13100 51.16000 25.68500
C  23.00200 51.71400 26.35900
C  23.20000 51.61000 27.76900
C  24.51700 50.94200 27.89500
C  21.77300 52.29900 25.74200
C  22.65000 51.69100 29.10000
O  21.63600 52.17400 29.54100
C  23.64900 51.05200 30.09700
C  24.05900 52.07900 30.98400
O  24.94300 52.93000 30.81400
O  23.28800 52.06700 32.14800
C  23.66100 53.11700 33.16800
H  29.75000 47.92200 29.40800
H  29.19900 48.35000 23.00100
H  23.68900 51.36400 23.65900
H  26.33300 50.45900 31.65600
H  28.10000 48.12900 31.24100
H  29.84800 49.87400 31.25900
H  28.67700 50.07300 32.53900
H  28.56500 51.14800 31.08800
H  25.98000 47.53000 31.91800
H  24.52400 48.39300 31.17400
H  24.61000 47.81300 33.54900
H  23.98000 49.31000 33.15900
H  31.64500 47.46000 28.64600
H  32.69800 47.64800 27.42800
H  31.68800 46.03300 27.60300
H  33.65700 47.24500 23.78300
H  32.86300 46.44100 25.02400
H  33.32600 48.16500 25.34800
H  26.50200 48.30300 21.88800
H  25.53600 51.10600 21.87600
H  28.75600 50.19800 21.34300
H  27.29100 50.38200 20.37900
H  28.07500 48.85100 20.30500
H  24.12900 48.59600 22.53700
H  24.61800 48.60100 20.87900
H  22.37700 49.53500 22.04000
H  22.73000 50.10900 20.35300
H  23.26500 51.04800 21.75000
H  21.33400 51.44300 25.22900
H  21.97400 53.09000 25.02000
H  21.07100 52.71800 26.46200
H  23.18500 50.18100 30.55900
H  23.68800 54.01000 32.54400
H  24.62200 52.99600 33.66900
H  22.84600 53.16200 33.89100

