158

Mg 0.89300 -0.63100 43.97900
C  4.19400 0.43500 43.61900
C  -0.06000 2.47800 42.64300
C  -2.07700 -1.97200 43.63100
C  2.14100 -3.87700 44.62100
N  1.96200 1.28300 43.23300
C  3.32700 1.45000 43.21400
C  3.63700 2.71800 42.48400
C  2.30000 3.50200 42.60500
C  1.27400 2.36900 42.87100
C  2.31200 4.69500 43.66900
C  4.22800 2.47700 41.05500
C  5.68000 3.08300 40.93800
H  6.60400 2.19600 40.07500
N  -0.90200 0.18600 43.21400
C  -1.05200 1.49700 42.80800
C  -2.46000 1.55300 42.45900
C  -3.09600 0.28500 42.77700
C  -2.05000 -0.56400 43.21900
C  -3.03400 2.79800 41.82900
C  -4.64000 0.02500 42.57200
O  -5.34800 0.86800 41.99900
C  -5.22200 -1.34500 42.86300
N  0.17600 -2.64100 44.08400
C  -1.12800 -2.86100 43.94200
C  -1.50300 -4.26300 44.45900
C  -0.11800 -4.94700 44.42200
C  0.76700 -3.75100 44.48700
C  -2.35300 -4.25300 45.80100
C  0.14500 -5.80300 43.13700
C  -0.16000 -7.30200 43.29200
N  2.74300 -1.50300 44.30800
C  3.05500 -2.84900 44.51400
C  4.53300 -2.94600 44.57100
C  5.05800 -1.67000 44.30200
C  3.86100 -0.91300 44.03500
C  5.43900 -4.11200 44.94100
C  6.17900 -0.79200 44.16800
O  7.34000 -1.09600 44.32900
C  5.74200 0.61600 43.75400
C  6.15000 1.65400 44.78900
O  5.56600 1.85100 45.80600
O  7.20500 2.40200 44.41700
C  7.86100 3.32400 45.37600
H  -0.42400 3.44000 42.27400
H  -3.06200 -2.44400 43.64300
H  2.32400 -4.92800 44.85700
H  4.34000 3.23500 43.13800
H  2.07200 3.99400 41.65900
H  3.35500 4.77700 43.97600
H  1.77900 4.56600 44.61100
H  2.04700 5.64600 43.20700
H  3.57900 2.90300 40.28900
H  4.24800 1.43400 40.73700
H  6.15700 3.23000 41.90700
H  5.73700 4.05600 40.44900
H  -3.93400 2.59900 41.24800
H  -2.29500 3.30900 41.21200
H  -3.20500 3.44900 42.68700
H  -4.64700 -2.13500 42.37900
H  -6.23700 -1.27900 42.47200
H  -5.27400 -1.51800 43.93800
H  -2.22300 -4.61700 43.72100
H  0.00000 -5.46300 45.37500
H  -1.90400 -4.84200 46.60100
H  -3.34100 -4.63200 45.54000
H  -2.42400 -3.20100 46.07500
H  1.20600 -5.82400 42.88800
H  -0.34800 -5.37600 42.26400
H  0.61100 -8.01100 42.99000
H  -0.96900 -7.43200 42.57300
H  -0.43900 -7.53400 44.31900
H  4.99900 -5.05200 44.60800
H  5.64500 -4.21200 46.00700
H  6.40200 -4.11400 44.43000
H  6.15000 0.87100 42.77500
H  8.30200 2.75800 46.19600
H  7.07300 3.94100 45.80700
H  8.60000 3.94700 44.87200
Mg 41.73500 41.12500 26.67900
C  40.65400 43.21800 29.29500
C  42.66100 38.89700 29.30700
C  43.06800 39.12400 24.41000
C  41.16200 43.66000 24.33300
N  41.70400 41.11900 29.06900
C  41.10900 42.05600 29.86300
C  41.25200 41.67300 31.35900
C  42.12300 40.43600 31.36600
C  42.21700 40.13200 29.81200
C  43.55200 40.66700 32.03400
C  39.88700 41.65700 32.17400
C  39.57600 42.70300 33.30400
H  38.74400 42.45600 34.53400
N  42.70900 39.30500 26.81500
C  43.00100 38.53000 27.95300
C  43.59000 37.30600 27.58700
C  43.79100 37.31000 26.15000
C  43.19100 38.65100 25.73200
C  44.00500 36.26100 28.58300
C  44.28300 36.22500 25.21300
O  44.17300 36.26700 23.98300
C  44.74200 34.96100 25.84000
N  42.13400 41.37600 24.64700
C  42.49100 40.28100 23.90100
C  42.44400 40.66600 22.37700
C  41.87100 42.08000 22.38500
C  41.69100 42.45700 23.87200
C  43.85200 40.63800 21.66200
C  40.50000 42.03900 21.80100
C  39.98900 43.43000 21.38000
N  40.94100 42.99600 26.72200
C  40.80300 43.92400 25.69400
C  40.27100 45.11100 26.31400
C  40.18400 44.88100 27.67800
C  40.70000 43.57600 27.91400
C  39.95300 46.36300 25.70200
C  39.99000 45.48000 28.93900
O  39.60400 46.65100 29.24000
C  40.16400 44.39000 30.06000
C  41.08900 44.94800 31.04000
O  42.29400 44.91900 30.87500
O  40.43000 45.64700 32.04800
C  41.35900 46.35200 32.95600
H  42.87300 38.29200 30.19100
H  43.61300 38.56500 23.64700
H  40.89700 44.54700 23.75300
H  41.82500 42.49800 31.78300
H  41.55600 39.62600 31.82400
H  44.38500 40.61300 31.33300
H  43.56800 39.89900 32.80800
H  43.67600 41.66900 32.44300
H  39.82400 40.73400 32.75000
H  39.07200 41.74500 31.45500
H  38.89500 43.37500 32.78100
H  40.51400 43.22600 33.48700
H  43.63500 35.28900 28.25600
H  43.84200 36.43400 29.64600
H  45.07500 36.08900 28.46000
H  45.17600 34.32300 25.07100
H  43.94600 34.31500 26.21000
H  45.57200 35.19900 26.50500
H  41.94000 39.94500 21.73400
H  42.65400 42.76700 22.06400
H  44.07200 39.63800 21.28900
H  44.55400 41.02000 22.40300
H  43.79900 41.20200 20.73100
H  39.90800 41.59700 22.60200
H  40.44100 41.34500 20.96300
H  39.75600 43.35600 20.31800
H  40.75300 44.20500 21.32500
H  39.07500 43.77000 21.86700
H  38.87800 46.51400 25.79800
H  40.24300 46.46000 24.65600
H  40.51600 47.08500 26.29400
H  39.21000 44.33700 30.58500
H  42.02200 45.54400 33.26500
H  40.84000 46.64100 33.87000
H  41.90400 47.18000 32.50300

