158

Mg 1.43800 43.05200 25.18100
C  2.91200 43.12800 28.40500
C  -1.47100 42.03000 26.55100
C  0.09100 42.70500 22.01000
C  4.52600 43.87700 23.83600
N  0.83500 42.69800 27.28000
C  1.53600 42.78900 28.44600
C  0.58600 42.40900 29.67400
C  -0.75100 41.87600 28.95000
C  -0.45400 42.17800 27.50900
C  -1.09700 40.36700 29.07500
C  0.44500 43.66500 30.57100
C  0.88500 43.54600 31.98100
H  0.29000 42.28600 32.71100
N  -0.38800 42.52000 24.42100
C  -1.46100 42.09100 25.17200
C  -2.55800 41.80700 24.30500
C  -2.12100 42.00900 22.98400
C  -0.78300 42.42600 23.10700
C  -3.95500 41.43100 24.79500
C  -2.84500 41.89300 21.60900
O  -2.34900 42.08900 20.50100
C  -4.36500 41.47300 21.57700
N  2.19200 43.49700 23.23900
C  1.45700 43.15500 22.10300
C  2.33800 43.18400 20.84200
C  3.56800 43.85100 21.45200
C  3.43600 43.83200 22.94800
C  2.76000 41.76000 20.35500
C  3.89400 45.22600 20.80700
C  2.72600 46.23800 20.81000
N  3.38300 43.46800 25.91300
C  4.56900 43.74500 25.21500
C  5.65100 43.70900 26.21500
C  5.04700 43.53400 27.46800
C  3.67200 43.42200 27.26000
C  7.03700 44.23700 26.05400
C  5.28200 43.46200 28.90700
O  6.30800 43.48600 29.51100
C  3.92000 43.25000 29.57600
C  4.12800 42.04100 30.35600
O  4.17900 40.92600 29.87500
O  4.01800 42.33000 31.68800
C  4.11100 41.06700 32.59400
H  -2.40500 41.72600 27.02700
H  -0.18400 42.49700 20.97300
H  5.42500 44.12200 23.26600
H  1.01100 41.62800 30.30400
H  -1.58900 42.51500 29.22800
H  -0.56700 39.79200 29.83400
H  -0.93300 39.97400 28.07200
H  -2.16700 40.24900 29.25100
H  -0.50200 44.19800 30.48300
H  1.15300 44.40400 30.19800
H  0.51800 44.38500 32.57300
H  1.96800 43.46600 32.06700
H  -4.60500 42.29300 24.94100
H  -3.87000 40.95400 25.77200
H  -4.38800 40.69800 24.11400
H  -4.39200 40.47500 22.01300
H  -4.74000 41.39400 20.55600
H  -4.87800 42.24000 22.15700
H  1.83100 43.79500 20.09500
H  4.48100 43.33200 21.16100
H  1.83500 41.24200 20.10300
H  3.21500 41.18900 21.16500
H  3.38200 42.00500 19.49400
H  4.16100 44.93300 19.79200
H  4.77300 45.63000 21.30900
H  2.34600 46.46600 19.81400
H  2.90200 47.16400 21.35600
H  1.86000 45.79300 21.29900
H  7.73100 43.44700 25.76900
H  7.32000 44.70900 26.99500
H  6.84500 45.03800 25.34000
H  3.67300 44.13800 30.15900
H  3.40700 40.32900 32.21000
H  3.98800 41.24200 33.66300
H  5.04500 40.52900 32.43300
Mg -5.37900 26.02100 26.31200
C  -3.71400 27.18900 29.28000
C  -7.16300 23.81900 28.49700
C  -6.43200 24.25700 23.67800
C  -3.33700 27.82800 24.49600
N  -5.47300 25.65200 28.67700
C  -4.76100 26.30600 29.66800
C  -5.34400 25.92500 31.06200
C  -6.12100 24.67700 30.68400
C  -6.28700 24.69000 29.14700
C  -5.39900 23.28100 31.02100
C  -6.23900 26.99100 31.75000
C  -6.28600 27.13400 33.23300
H  -5.64300 25.96300 33.95700
N  -6.69100 24.36900 26.06700
C  -7.35600 23.66100 27.12000
C  -8.31400 22.70700 26.45100
C  -8.03100 22.75500 25.07900
C  -6.99800 23.80800 24.86600
C  -9.33200 21.90800 27.17300
C  -8.60600 21.96000 23.99600
O  -8.27800 22.01400 22.84300
C  -9.84700 21.16300 24.21600
N  -4.95000 26.03500 24.29400
C  -5.47000 25.20300 23.40900
C  -4.78900 25.38400 22.00500
C  -4.03700 26.78400 22.25600
C  -4.07000 26.87300 23.76900
C  -3.89900 24.11400 21.78400
C  -4.70400 27.93300 21.47500
C  -4.01900 28.35400 20.25500
N  -3.93500 27.33500 26.77600
C  -3.17700 28.01900 25.84900
C  -2.18900 28.81400 26.49900
C  -2.35400 28.54700 27.86800
C  -3.42700 27.63600 27.96500
C  -1.27500 29.80700 25.84200
C  -1.87600 28.92400 29.20300
O  -0.94900 29.60700 29.63600
C  -2.79900 28.07200 30.13800
C  -1.99700 27.22900 31.05200
O  -1.35500 26.26500 30.60800
O  -1.89300 27.82900 32.28700
C  -1.42100 26.75600 33.23100
H  -7.78400 23.14100 29.08600
H  -6.69100 23.74400 22.75000
H  -2.65600 28.30900 23.79000
H  -4.60300 25.62500 31.80300
H  -7.10400 24.59100 31.14800
H  -6.11500 22.63600 31.52800
H  -4.49800 23.50400 31.59200
H  -5.17800 22.75100 30.09500
H  -7.25700 26.96600 31.36300
H  -5.78900 27.86400 31.27800
H  -7.32500 27.14200 33.56400
H  -5.73500 28.01400 33.56300
H  -10.27400 22.38600 26.90300
H  -9.07000 22.04300 28.22200
H  -9.38500 20.82800 27.04200
H  -10.38500 21.09000 23.27100
H  -10.51500 21.61600 24.94800
H  -9.56700 20.14600 24.49400
H  -5.52900 25.60300 21.23600
H  -3.01900 26.62000 21.90100
H  -4.06700 23.68600 20.79600
H  -4.06100 23.30000 22.49200
H  -2.84300 24.36400 21.88200
H  -4.79500 28.81400 22.11000
H  -5.75300 27.69000 21.30700
H  -3.42200 29.23500 20.49300
H  -4.68700 28.55900 19.41900
H  -3.43500 27.63100 19.68600
H  -1.64800 30.83100 25.86900
H  -0.94000 29.39600 24.88900
H  -0.36100 29.93900 26.42100
H  -3.40900 28.80300 30.66900
H  -2.12600 25.92700 33.18300
H  -1.29400 27.09600 34.25900
H  -0.46100 26.36800 32.88900

