158

Mg 27.91200 56.66200 39.46400
C  25.38300 54.23000 39.04600
C  30.15100 54.25000 38.60300
C  30.27600 58.96700 39.08900
C  25.48600 59.15100 39.81300
N  27.67500 54.50800 38.56300
C  26.63400 53.67900 38.63900
C  27.04100 52.27900 38.13900
C  28.56800 52.30200 38.22400
C  28.82300 53.79000 38.50100
C  29.19900 51.42300 39.40900
C  26.51300 52.02800 36.64000
C  26.65400 53.23300 35.66400
H  27.03900 53.06500 34.20200
N  29.98900 56.62200 39.00300
C  30.70900 55.49400 38.82300
C  32.08800 55.88400 38.82600
C  32.14500 57.29000 38.91900
C  30.78700 57.69300 38.99900
C  33.33700 54.90200 38.79300
C  33.43800 58.11900 39.00300
O  34.56000 57.62300 38.95800
C  33.51300 59.62000 39.21000
N  27.78900 58.78700 39.26100
C  28.97100 59.46500 39.26200
C  28.76700 61.00000 39.28900
C  27.19300 61.03200 39.66400
C  26.78000 59.58100 39.47400
C  29.63400 61.64500 40.40300
C  26.36700 62.14900 38.93300
C  26.00200 63.42800 39.82200
N  25.87000 56.72800 39.47900
C  24.96600 57.75600 39.66800
C  23.67600 57.24200 39.85300
C  23.83900 55.87500 39.67900
C  25.18700 55.56300 39.40500
C  22.38900 57.98900 40.16600
C  23.05300 54.62300 39.70600
O  21.84300 54.38000 39.79300
C  24.03000 53.52000 39.09300
C  23.83300 52.21200 39.85900
O  23.19400 51.24400 39.45800
O  24.46700 52.39500 40.99900
C  24.76300 51.14900 41.79800
H  30.87900 53.44200 38.51800
H  30.97400 59.78500 38.89800
H  24.84200 60.00400 40.03700
H  26.70800 51.43300 38.74000
H  28.90300 52.07800 37.21200
H  30.21200 51.12800 39.13600
H  28.50500 50.58600 39.49200
H  29.23400 52.02400 40.31700
H  25.46300 51.74900 36.72700
H  26.96500 51.08700 36.32300
H  27.35400 53.92900 36.12700
H  25.70300 53.76500 35.69500
H  33.84600 54.88200 37.82900
H  33.01000 53.87100 38.93300
H  33.95700 55.14300 39.65700
H  32.94100 59.95900 40.07400
H  33.09700 60.15700 38.35800
H  34.50700 60.01900 39.41600
H  28.99300 61.31200 38.27000
H  27.20500 61.26500 40.72800
H  29.86800 60.94100 41.20100
H  29.00300 62.45400 40.77400
H  30.54900 62.08300 40.00300
H  25.45600 61.78200 38.45900
H  26.90000 62.53200 38.06300
H  26.45000 63.34900 40.81200
H  24.94400 63.56900 40.04200
H  26.33400 64.29300 39.24700
H  21.61100 57.26000 40.39700
H  22.32000 58.58400 39.25500
H  22.60700 58.71500 40.94800
H  23.65000 53.42100 38.07600
H  25.75200 51.05600 42.24500
H  24.63100 50.22600 41.23300
H  24.06600 51.12900 42.63600
Mg 9.53500 48.08100 25.93500
C  7.75200 48.33100 28.93300
C  12.37500 49.17800 27.58900
C  11.31000 47.80100 23.08800
C  6.62300 47.51800 24.17900
N  9.98800 48.69300 27.86500
C  9.15400 48.58500 28.99200
C  9.88300 48.87800 30.29500
C  11.20100 49.63600 29.78600
C  11.19100 49.14100 28.30600
C  11.27100 51.19700 30.00600
C  10.12800 47.65100 31.21500
C  9.66000 47.83600 32.65400
H  10.11500 46.70500 33.60300
N  11.64200 48.38000 25.43600
C  12.62200 48.83500 26.27200
C  13.88500 48.76300 25.61800
C  13.64900 48.21800 24.35000
C  12.16100 48.07100 24.22500
C  15.16500 49.04800 26.31700
C  14.59500 47.86800 23.24300
O  14.22900 47.50800 22.15000
C  16.08300 47.99500 23.42000
N  9.07000 47.73500 23.96100
C  9.93100 47.74400 22.90900
C  9.29800 47.26700 21.62200
C  7.84700 47.65600 21.90000
C  7.81300 47.59000 23.42500
C  9.91000 47.79700 20.28100
C  6.83400 46.71600 21.08600
C  5.80500 47.37000 20.19700
N  7.51500 48.05300 26.38900
C  6.49700 47.71800 25.57000
C  5.26600 47.68900 26.37800
C  5.65900 47.83700 27.73900
C  7.06900 48.08200 27.67900
C  3.83300 47.56000 26.01900
C  5.21600 47.89700 29.11800
O  4.10500 47.82100 29.63800
C  6.56900 48.11100 29.90700
C  6.73800 46.83200 30.67000
O  7.31300 45.83600 30.25500
O  6.21900 46.87600 31.90700
C  6.43700 45.72300 32.88500
H  13.22100 49.54300 28.17500
H  11.88700 47.54400 22.19700
H  5.67000 47.15400 23.79100
H  9.22400 49.53100 30.86600
H  11.98300 49.13300 30.35400
H  12.13800 51.50300 30.59200
H  10.34500 51.58500 30.42900
H  11.48700 51.86300 29.17100
H  11.17300 47.34300 31.18100
H  9.46000 46.87900 30.83300
H  8.57800 47.90000 32.76500
H  10.09600 48.77600 32.99300
H  15.15700 48.97000 27.40400
H  15.57800 49.99800 25.97700
H  15.96000 48.33900 26.08400
H  16.31800 47.18000 24.10500
H  16.54000 48.89700 23.82700
H  16.53100 47.84000 22.43900
H  9.33700 46.17900 21.67200
H  7.62900 48.67100 21.56900
H  10.74200 48.44800 20.55000
H  9.29300 48.45200 19.66400
H  10.35500 46.99300 19.69500
H  6.28000 46.06200 21.75900
H  7.30000 46.00600 20.40300
H  6.04500 47.14000 19.15900
H  5.88100 48.43700 20.40500
H  4.83500 46.96000 20.47700
H  3.67000 46.61600 25.49800
H  3.49700 48.42800 25.45200
H  3.16600 47.60500 26.88000
H  6.42000 49.01000 30.50600
H  5.49700 45.23800 33.14700
H  6.80400 46.14100 33.82300
H  7.20400 45.04200 32.51600

