158

Mg 34.90800 2.49000 29.58800
C  32.84300 3.73000 32.11000
C  37.42600 2.32000 31.81200
C  37.10800 1.93200 26.97800
C  32.40700 3.38700 27.23400
N  35.10000 2.85500 31.70300
C  34.08200 3.27300 32.55900
C  34.56800 3.33500 33.99300
C  36.16600 3.19400 33.79000
C  36.22700 2.76600 32.35300
C  37.03700 4.46400 34.06300
C  33.83600 2.45900 34.97300
C  33.52300 3.03100 36.37100
H  34.59100 3.89900 37.04800
N  37.00500 2.02700 29.39300
C  37.79600 1.93800 30.53300
C  39.13100 1.59100 30.05800
C  39.09700 1.48500 28.60600
C  37.72200 1.74300 28.23300
C  40.31000 1.50300 31.01500
C  40.27700 1.28100 27.67600
O  40.18700 1.46700 26.47400
C  41.61500 0.84200 28.21900
N  34.79900 2.57400 27.46200
C  35.78400 2.30300 26.60600
C  35.37600 2.43600 25.19100
C  33.77500 2.41300 25.27500
C  33.61600 2.79000 26.73700
C  35.88600 3.74800 24.49600
C  33.12500 1.00100 25.03100
C  31.88000 0.86000 24.05300
N  32.95700 3.28400 29.65600
C  32.07800 3.58900 28.63200
C  30.82700 4.08400 29.19000
C  31.10600 4.09800 30.58900
C  32.39600 3.69400 30.79000
C  29.61600 4.58300 28.42200
C  30.53700 4.48600 31.81600
O  29.38800 4.93900 31.99800
C  31.69400 4.31200 32.94000
C  31.94500 5.65900 33.55700
O  32.88000 6.37900 33.20300
O  31.11300 5.97500 34.56400
C  31.46600 7.10400 35.45800
H  38.24600 2.31900 32.53300
H  37.86400 1.74000 26.21400
H  31.59100 3.49400 26.51500
H  34.47900 4.37800 34.29700
H  36.68900 2.41600 34.34700
H  37.54500 4.78300 33.15200
H  37.82900 4.11100 34.72300
H  36.51300 5.31700 34.49400
H  34.24500 1.44900 35.00000
H  32.87400 2.26100 34.50200
H  33.49100 2.25600 37.13700
H  32.62900 3.65000 36.30500
H  40.06900 1.75500 32.04800
H  41.24000 2.03500 30.81800
H  40.54100 0.44000 30.95200
H  42.27400 0.73900 27.35700
H  41.74300 -0.06500 28.81000
H  42.10200 1.63600 28.78400
H  35.63000 1.55600 24.60000
H  33.28600 3.20300 24.70500
H  36.40600 4.40300 25.19400
H  34.98600 4.25300 24.14600
H  36.65400 3.49500 23.76500
H  32.83400 0.53400 25.97200
H  33.89200 0.29700 24.70800
H  31.06100 0.31100 24.51600
H  32.33400 0.31300 23.22700
H  31.52500 1.83800 23.72700
H  29.20800 3.75400 27.84500
H  30.03000 5.26100 27.67400
H  28.89100 5.09300 29.05600
H  31.32800 3.65800 33.73200
H  30.81500 7.97800 35.45100
H  32.47500 7.44300 35.22000
H  31.35600 6.68700 36.45900
Mg -13.07800 16.50400 41.82300
C  -10.00600 14.85600 41.22900
C  -11.91900 19.06500 39.83000
C  -16.16500 17.72100 41.78500
C  -14.40200 13.29900 42.69600
N  -11.08800 16.99500 40.82800
C  -10.02900 16.19600 40.71200
C  -8.89200 16.88600 39.89800
C  -9.47500 18.31900 39.63800
C  -10.93700 18.10500 40.12300
C  -8.65100 19.47500 40.30600
C  -8.44700 16.07500 38.61700
C  -6.92800 15.92800 38.64400
H  -6.21900 15.51200 37.31800
N  -13.89800 18.26100 41.15200
C  -13.29600 19.12600 40.26900
C  -14.10500 20.30800 40.12600
C  -15.35000 19.92800 40.74900
C  -15.20900 18.56800 41.21900
C  -13.69800 21.53500 39.28700
C  -16.53500 20.80800 40.69000
O  -16.52700 21.82900 40.04800
C  -17.83700 20.36000 41.41300
N  -15.04000 15.59200 42.14400
C  -16.11600 16.37600 42.20100
C  -17.35100 15.62400 42.68000
C  -16.81100 14.27200 43.12700
C  -15.33500 14.36400 42.67800
C  -18.25100 16.33900 43.75200
C  -17.61600 13.08700 42.61700
C  -17.55300 12.83700 41.09400
N  -12.35800 14.58900 42.11900
C  -13.02300 13.42100 42.42900
C  -12.04700 12.34500 42.40400
C  -10.89800 12.86700 41.98000
C  -11.13800 14.21600 41.82800
C  -12.25600 10.92100 42.80900
C  -9.54300 12.49100 41.63600
O  -8.94400 11.40800 41.54500
C  -8.86900 13.81200 41.28300
C  -7.75200 14.06200 42.23100
O  -7.89400 14.50600 43.37500
O  -6.46400 13.84000 41.70900
C  -5.32700 13.99200 42.58000
H  -11.59600 19.89100 39.19400
H  -17.15700 18.17800 41.81000
H  -14.71600 12.31800 43.05700
H  -8.02300 17.05500 40.53300
H  -9.57600 18.43200 38.55900
H  -7.99100 20.00000 39.61600
H  -7.95700 19.10400 41.06100
H  -9.37900 20.13900 40.77100
H  -8.79100 16.54500 37.69500
H  -8.86700 15.07200 38.54700
H  -6.56200 15.49300 39.57400
H  -6.59700 16.96600 38.67900
H  -14.10500 22.46600 39.68200
H  -14.23700 21.49200 38.34000
H  -12.63600 21.61400 39.05200
H  -18.50500 21.22100 41.44500
H  -17.57300 20.14900 42.44900
H  -18.28900 19.65400 40.71600
H  -17.97300 15.59300 41.78500
H  -16.81800 14.19500 44.21400
H  -18.04300 16.03700 44.77900
H  -19.29300 16.30100 43.43500
H  -17.90800 17.36900 43.65500
H  -18.62200 13.17000 43.02700
H  -17.22300 12.20100 43.11600
H  -17.39000 11.76000 41.06800
H  -16.77000 13.42800 40.61900
H  -18.57700 13.06300 40.79500
H  -12.46900 10.93200 43.87800
H  -11.38500 10.36500 42.46300
H  -13.07500 10.48500 42.23600
H  -8.53200 13.70600 40.25200
H  -4.35100 13.94000 42.09600
H  -5.31100 13.11500 43.22600
H  -5.36300 14.87100 43.22400

