158

Mg 0.28200 -0.80900 43.92000
C  3.51500 0.32800 43.02900
C  -1.05800 1.87500 42.10700
C  -2.77700 -2.25500 44.16300
C  1.79100 -3.65200 45.32300
N  1.18200 0.85400 42.67500
C  2.50400 1.16500 42.51800
C  2.72900 2.42100 41.69900
C  1.26100 3.03300 41.92000
C  0.37500 1.86900 42.34800
C  1.22800 4.14800 42.97900
C  3.19300 2.10500 40.23500
C  4.47200 2.93700 39.80900
H  4.21000 3.80600 38.62400
N  -1.63100 -0.22600 43.35800
C  -1.93400 0.89000 42.56500
C  -3.37200 0.98500 42.36400
C  -3.89700 -0.15500 42.98200
C  -2.75200 -0.97200 43.55200
C  -4.10400 2.05800 41.57900
C  -5.39100 -0.60000 43.01400
O  -6.27100 0.09000 42.51600
C  -5.91800 -1.96000 43.44600
N  -0.38300 -2.71800 44.46600
C  -1.72600 -3.00900 44.67200
C  -1.93800 -4.28200 45.36300
C  -0.52300 -4.81000 45.78700
C  0.37500 -3.66700 45.19100
C  -2.97400 -4.35600 46.47900
C  -0.10300 -6.23800 45.31300
C  0.04100 -7.23300 46.38400
N  2.27300 -1.50900 44.15800
C  2.71900 -2.70100 44.79400
C  4.15400 -2.76500 44.66100
C  4.47200 -1.53700 44.07100
C  3.28700 -0.85700 43.74100
C  5.18700 -3.75600 45.04900
C  5.58000 -0.80400 43.61300
O  6.79100 -1.10000 43.55600
C  4.96800 0.49000 42.87900
C  5.53300 1.74500 43.54700
O  5.14100 2.16300 44.62400
O  6.70000 2.18700 42.89900
C  7.65500 2.96600 43.64100
H  -1.45900 2.80000 41.68700
H  -3.67600 -2.84500 44.34900
H  2.24300 -4.59900 45.62500
H  3.45000 3.06300 42.20500
H  0.80900 3.37700 40.99000
H  0.26400 4.10200 43.48500
H  1.43100 5.13400 42.56200
H  2.04800 3.90800 43.65600
H  2.32600 2.34600 39.62000
H  3.27000 1.01700 40.24400
H  5.23100 2.21100 39.51700
H  4.89000 3.51900 40.63000
H  -3.56800 2.97300 41.32900
H  -4.88700 2.41300 42.24900
H  -4.54600 1.62100 40.68400
H  -6.98500 -2.15100 43.33800
H  -5.87500 -1.98600 44.53500
H  -5.38400 -2.77400 42.95400
H  -2.28300 -5.04400 44.66400
H  -0.40700 -4.77900 46.87100
H  -3.28100 -3.35900 46.79200
H  -2.46600 -4.83900 47.31400
H  -3.90300 -4.87000 46.23100
H  0.81500 -6.15000 44.73100
H  -0.72300 -6.58700 44.48700
H  0.03300 -6.67900 47.32200
H  0.99500 -7.75100 46.29100
H  -0.85700 -7.84600 46.30200
H  5.34000 -4.01000 46.09800
H  6.18000 -3.44700 44.72200
H  4.93200 -4.69100 44.55100
H  5.27200 0.54800 41.83400
H  7.62400 2.54500 44.64600
H  7.33100 4.00100 43.53200
H  8.60400 2.75100 43.15100
Mg 0.01600 43.24800 25.97800
C  1.83000 43.42800 28.92500
C  -2.95000 42.99000 27.95100
C  -1.78600 42.50900 23.19000
C  2.92100 43.31800 24.22300
N  -0.50700 43.10700 28.17300
C  0.47700 43.34200 29.21300
C  -0.21700 43.28500 30.55300
C  -1.70700 43.07400 30.22400
C  -1.76600 43.03600 28.69900
C  -2.29000 41.79500 30.88300
C  -0.03000 44.48000 31.54900
C  0.43100 44.24200 33.06000
H  -0.07000 42.88400 33.62300
N  -2.04800 42.72600 25.62900
C  -3.09400 42.85500 26.48800
C  -4.34100 42.76300 25.77700
C  -4.05400 42.54700 24.38500
C  -2.55500 42.58400 24.33300
C  -5.68700 42.98300 26.52600
C  -4.96500 42.44700 23.22500
O  -4.56200 42.51600 22.08600
C  -6.45000 42.35400 23.47600
N  0.61000 42.81500 24.05000
C  -0.39100 42.64500 23.07500
C  0.32500 42.42500 21.63300
C  1.79200 42.76800 22.02100
C  1.78900 43.01600 23.51000
C  0.11000 41.07600 20.89300
C  2.21200 43.97300 21.27600
C  1.47600 45.25400 21.63200
N  2.01400 43.35000 26.47000
C  3.08900 43.54400 25.60000
C  4.34100 43.84600 26.37800
C  3.86500 43.64600 27.73600
C  2.44500 43.47500 27.70100
C  5.73100 44.01400 25.88400
C  4.36400 43.48500 29.12900
O  5.48800 43.47800 29.61800
C  2.97400 43.43900 29.96400
C  3.05500 42.16100 30.75300
O  2.75000 41.03200 30.37200
O  3.51500 42.49100 31.92600
C  3.61300 41.36000 32.92600
H  -3.84000 42.91300 28.57900
H  -2.36200 42.47600 22.26200
H  3.88500 43.46300 23.73100
H  0.13900 42.35100 30.98700
H  -2.32700 43.92600 30.50300
H  -3.07300 42.12700 31.56500
H  -1.50000 41.13400 31.24200
H  -2.81400 41.30800 30.06100
H  -0.87500 45.16200 31.45900
H  0.75000 44.96300 30.96100
H  -0.01900 45.00600 33.69500
H  1.47600 44.48000 33.25800
H  -5.60000 43.67800 27.36200
H  -6.03200 42.08100 27.03200
H  -6.44400 43.31700 25.81700
H  -7.06800 41.86900 22.72000
H  -6.72000 43.40700 23.55800
H  -6.59700 41.93600 24.47200
H  -0.13600 43.20400 21.02700
H  2.39100 41.89100 21.77600
H  -0.31400 41.29500 19.91300
H  -0.64700 40.37800 21.24900
H  1.05300 40.58100 20.66100
H  2.21400 43.72600 20.21400
H  3.27400 44.06500 21.50600
H  2.10400 45.73900 22.37900
H  0.54500 45.18100 22.19400
H  1.45400 45.83900 20.71300
H  6.01300 45.05400 25.72400
H  5.88400 43.35100 25.03300
H  6.48500 43.69000 26.60200
H  2.80800 44.32200 30.58200
H  3.39000 40.35700 32.56100
H  2.94000 41.55600 33.76000
H  4.62500 41.32500 33.33100

