158

Mg 48.96700 35.21600 28.48400
C  46.68000 33.87800 30.95000
C  49.12700 38.01600 30.61800
C  50.15500 37.03700 25.96200
C  48.20800 32.58100 26.44300
N  48.01400 35.78800 30.63000
C  47.24300 35.04200 31.47000
C  47.27900 35.56900 32.89600
C  47.71100 37.08400 32.61200
C  48.37200 36.98700 31.18400
C  46.51100 37.98700 32.61600
C  48.11400 34.66800 33.84600
C  49.09500 35.44700 34.96400
H  48.55500 36.54500 35.85300
N  49.73000 37.13400 28.34800
C  49.70100 38.08700 29.30700
C  50.46500 39.18100 28.88200
C  50.75700 39.01100 27.50900
C  50.16700 37.70800 27.19100
C  50.87300 40.18100 29.86200
C  51.36400 39.80700 26.46400
O  51.45500 39.45800 25.29600
C  52.16400 41.03800 26.85900
N  49.12500 34.90000 26.47400
C  49.70500 35.77100 25.62700
C  49.67200 35.22400 24.14800
C  49.16500 33.72900 24.32900
C  48.80800 33.69000 25.83800
C  48.85700 36.03500 23.06400
C  50.27800 32.64300 24.15800
C  49.98000 31.44300 23.25500
N  47.81800 33.57000 28.62500
C  47.68000 32.54600 27.74700
C  46.90700 31.46000 28.24300
C  46.44900 32.03400 29.41100
C  47.05900 33.29100 29.66600
C  46.52700 30.23000 27.57500
C  45.52400 31.69300 30.53000
O  44.89400 30.71000 30.78200
C  45.53800 32.96600 31.46900
C  45.71700 32.61700 32.91300
O  46.63400 31.95800 33.33500
O  44.65100 33.03100 33.68500
C  44.48600 32.64000 35.07400
H  49.01400 38.93300 31.19900
H  50.58900 37.54500 25.09800
H  48.06400 31.66600 25.86500
H  46.23500 35.69700 33.18400
H  48.42200 37.51200 33.31900
H  45.92200 37.60300 31.78300
H  46.80800 39.03000 32.50300
H  46.09200 37.90800 33.62000
H  48.81500 34.08500 33.24800
H  47.49600 34.12400 34.56100
H  49.95300 35.91800 34.48400
H  49.46400 34.71600 35.68400
H  51.15600 39.64800 30.76900
H  50.08400 40.86900 30.16800
H  51.63200 40.89700 29.54800
H  52.43500 41.78600 26.11400
H  53.02300 40.79000 27.48300
H  51.43300 41.64400 27.39400
H  50.73700 35.26200 23.92000
H  48.21500 33.45200 23.87400
H  49.57200 36.22300 22.26300
H  48.32600 36.93600 23.36900
H  48.20400 35.23700 22.71100
H  50.48700 32.24300 25.15000
H  51.17500 33.05400 23.69500
H  49.08400 31.66400 22.67500
H  49.51300 30.57900 23.72700
H  50.76300 31.26200 22.51900
H  46.67600 29.41400 28.28300
H  47.13900 30.05400 26.69000
H  45.47300 30.42200 27.37200
H  44.60600 33.52900 31.43700
H  44.78100 33.49000 35.68800
H  45.17400 31.82500 35.29800
H  43.45500 32.40400 35.33800
Mg -12.91600 16.77800 40.91800
C  -9.90900 15.07800 40.52600
C  -11.45600 19.61000 39.62400
C  -15.95300 18.21600 40.75800
C  -14.40000 13.65600 41.82400
N  -10.91300 17.29900 40.02700
C  -9.83600 16.42800 40.10300
C  -8.52700 17.20100 39.63400
C  -9.05400 18.71700 39.44800
C  -10.53000 18.54300 39.73700
C  -8.32200 19.72500 40.38700
C  -7.89100 16.51700 38.40000
C  -6.35100 16.28600 38.45300
H  -5.57600 16.62400 37.20200
N  -13.68100 18.60800 40.22500
C  -12.89700 19.66800 39.78300
C  -13.75700 20.85000 39.58000
C  -15.07400 20.42200 39.84600
C  -14.95900 18.98000 40.30500
C  -13.30800 22.25900 39.15700
C  -16.31200 21.35800 39.69700
O  -16.16300 22.48200 39.27600
C  -17.74100 20.81100 39.96000
N  -14.96800 15.96500 41.11900
C  -16.00200 16.87200 41.19500
C  -17.30800 16.04600 41.50800
C  -16.71700 14.62600 42.14600
C  -15.24100 14.74500 41.69900
C  -18.51500 16.72000 42.28900
C  -17.49000 13.37100 41.67300
C  -18.02100 12.30200 42.71400
N  -12.31700 14.66600 41.13500
C  -13.05300 13.54800 41.44100
C  -12.14400 12.43800 41.56800
C  -10.86000 12.97200 41.23800
C  -11.08400 14.35400 40.90100
C  -12.56600 11.08300 41.88600
C  -9.45900 12.65600 41.11900
O  -8.76800 11.63900 41.24200
C  -8.77700 14.03200 40.67300
C  -7.71800 14.42600 41.63600
O  -7.85100 15.13600 42.62900
O  -6.48500 14.03200 41.22100
C  -5.25200 14.67900 41.84200
H  -10.96900 20.55100 39.36100
H  -16.97000 18.60400 40.66700
H  -14.79700 12.72200 42.22700
H  -7.93300 17.09000 40.54100
H  -8.99700 19.06800 38.41800
H  -9.05500 20.30300 40.94900
H  -7.69600 20.34400 39.74400
H  -7.65700 19.18000 41.05700
H  -8.03400 17.20400 37.56600
H  -8.46400 15.60000 38.25800
H  -6.09800 15.25100 38.68600
H  -5.90900 16.91700 39.22400
H  -13.79800 22.63100 38.25700
H  -12.25500 22.40900 38.91900
H  -13.53500 22.92100 39.99200
H  -18.40000 21.54400 39.49500
H  -17.88800 20.93000 41.03400
H  -18.06700 19.88400 39.49000
H  -17.78700 15.70700 40.58900
H  -16.66400 14.64500 43.23400
H  -19.43100 16.88000 41.72000
H  -18.19000 17.74900 42.43800
H  -18.79200 16.23300 43.22400
H  -16.85700 12.86300 40.94600
H  -18.34900 13.63400 41.05600
H  -17.93600 12.78400 43.68800
H  -17.37500 11.42500 42.73300
H  -19.07500 12.04000 42.61400
H  -11.65000 10.50800 41.75000
H  -13.34200 10.67100 41.24200
H  -12.96300 10.98200 42.89600
H  -8.34500 13.88900 39.68200
H  -5.40400 15.67000 42.26800
H  -4.45800 14.72900 41.09600
H  -4.89100 14.06000 42.66400

