158

Mg 48.56300 25.13100 27.97100
C  49.43100 27.26300 30.70800
C  47.55600 22.83100 30.50700
C  48.01500 22.84100 25.54300
C  50.10500 27.19000 25.80300
N  48.39900 25.15300 30.36500
C  48.85800 26.12200 31.22300
C  48.62800 25.72300 32.68000
C  48.00500 24.24600 32.56900
C  47.97600 24.05600 31.04000
C  48.73900 23.16100 33.44400
C  47.70100 26.79100 33.41700
C  47.15700 26.36400 34.82300
H  47.58500 27.15800 36.06900
N  47.77800 23.20300 27.97900
C  47.37700 22.40700 29.10500
C  46.83000 21.12200 28.60200
C  46.83600 21.15700 27.14400
C  47.59100 22.40900 26.81200
C  46.42000 19.95000 29.45900
C  46.42800 20.14800 26.08200
O  46.58600 20.10900 24.85000
C  45.61600 18.95900 26.70500
N  49.03500 24.94700 25.92000
C  48.76500 23.94000 25.09400
C  48.95000 24.36700 23.56000
C  49.32000 25.86900 23.72100
C  49.58600 26.02500 25.23300
C  50.20500 23.58100 22.99800
C  48.18200 26.80500 23.30400
C  48.48100 27.56600 22.01500
N  49.58700 26.78400 28.11900
C  50.08800 27.65800 27.16100
C  50.65200 28.76900 27.76800
C  50.57600 28.63300 29.10900
C  49.77500 27.46700 29.34000
C  51.33200 29.88900 27.02000
C  50.89300 29.27500 30.39800
O  51.57000 30.25800 30.61500
C  50.16800 28.40800 31.51100
C  51.24900 27.78900 32.25300
O  51.84200 26.76700 31.95800
O  51.50800 28.58000 33.32000
C  52.70300 28.36600 34.10600
H  47.14300 22.08900 31.19300
H  47.80400 22.18600 24.69600
H  50.32100 28.04700 25.16100
H  49.56800 25.61200 33.22000
H  46.95200 24.14100 32.83100
H  49.08400 22.29300 32.88300
H  47.99000 22.89700 34.19100
H  49.66900 23.53600 33.87100
H  46.84700 26.97300 32.76400
H  48.38000 27.63900 33.50800
H  47.32800 25.32200 35.09200
H  46.07100 26.35200 34.72900
H  46.72700 18.99500 29.03300
H  45.38600 20.10100 29.77100
H  46.91100 19.97600 30.43200
H  46.33200 18.21600 27.05700
H  44.96900 18.51200 25.95000
H  44.98100 19.36600 27.49100
H  47.97000 24.22900 23.10300
H  50.28300 26.11100 23.27100
H  50.37700 22.70000 23.61700
H  51.13500 24.14900 23.01500
H  49.92000 23.27200 21.99300
H  48.12400 27.55900 24.08800
H  47.19000 26.35500 23.26200
H  47.72000 27.45600 21.24300
H  49.40100 27.14300 21.60900
H  48.61900 28.59500 22.34600
H  50.62400 30.17100 26.24000
H  52.18000 29.53200 26.43600
H  51.60600 30.70300 27.69100
H  49.53200 29.04200 32.12900
H  53.60400 28.29600 33.49800
H  52.61000 27.44600 34.68400
H  52.82900 29.17700 34.82400
Mg -12.15300 39.06700 41.45100
C  -10.17400 36.27600 40.54100
C  -9.68400 41.10000 40.01300
C  -14.34000 41.49000 41.49800
C  -14.78400 36.74400 42.16200
N  -10.21100 38.64200 40.27600
C  -9.58800 37.46300 40.10100
C  -8.14300 37.66100 39.53600
C  -7.94900 39.19000 39.71100
C  -9.36400 39.69900 39.99000
C  -6.89600 39.74500 40.76400
C  -8.01300 37.03800 38.11300
C  -7.26500 35.72300 37.92000
H  -6.08600 35.77900 36.91500
N  -12.01100 41.07200 40.95000
C  -10.95100 41.72600 40.38000
C  -11.30000 43.17900 40.27800
C  -12.66000 43.23900 40.81900
C  -13.08000 41.88800 41.01900
C  -10.42800 44.25400 39.81800
C  -13.39400 44.57000 41.00100
O  -12.87600 45.59600 40.49000
C  -14.81900 44.65800 41.56800
N  -14.26000 39.07700 41.66600
C  -14.90700 40.27400 41.77700
C  -16.42000 40.01900 41.90100
C  -16.57000 38.51200 42.05600
C  -15.10600 38.06000 42.00400
C  -17.07100 40.93800 42.98100
C  -17.39900 37.69300 41.01000
C  -18.49200 36.82600 41.73600
N  -12.42200 37.01000 41.58300
C  -13.53100 36.17800 41.95300
C  -13.14300 34.80500 41.92400
C  -11.82900 34.84000 41.44200
C  -11.44300 36.14100 41.16800
C  -14.00700 33.62100 42.31500
C  -10.77400 33.99500 41.09000
O  -10.60300 32.77900 41.31500
C  -9.70600 34.91900 40.43700
C  -8.38200 34.69500 41.09900
O  -7.50500 33.90400 40.75900
O  -8.18300 35.52100 42.17000
C  -6.98900 35.31900 43.10000
H  -8.84300 41.75100 39.76300
H  -15.17600 42.18200 41.37600
H  -15.56800 36.00600 42.34500
H  -7.45100 37.19700 40.24000
H  -7.53100 39.48100 38.74700
H  -7.25100 40.71800 41.10300
H  -5.91900 39.75400 40.27900
H  -6.90800 38.98800 41.54800
H  -7.60100 37.75300 37.40100
H  -9.05800 36.93900 37.82200
H  -8.00200 34.96800 37.64700
H  -6.78300 35.36900 38.83200
H  -10.46300 45.11000 40.49100
H  -10.66900 44.29500 38.75600
H  -9.39700 43.90800 39.74200
H  -15.61900 44.37500 40.88500
H  -15.04400 45.64400 41.97400
H  -14.84600 44.02400 42.45400
H  -16.72600 40.23800 40.87800
H  -16.93600 38.24700 43.04800
H  -17.71400 41.59700 42.39700
H  -16.29700 41.50800 43.49500
H  -17.58700 40.41400 43.78500
H  -16.85200 36.97500 40.39900
H  -17.98800 38.33600 40.35600
H  -19.43100 37.33900 41.52700
H  -18.40300 36.74500 42.82000
H  -18.53400 35.86500 41.22400
H  -14.87800 33.88900 42.91300
H  -13.45700 32.78700 42.75100
H  -14.43800 33.25400 41.38300
H  -9.47400 34.73600 39.38800
H  -7.31600 35.67900 44.07500
H  -6.07300 35.82700 42.79800
H  -6.76500 34.25200 43.10400

