158

Mg 24.91500 1.29400 29.40000
C  27.15900 0.93900 32.13100
C  22.31500 1.23400 31.58600
C  23.10300 1.84000 26.69900
C  27.70500 1.15100 27.20200
N  24.77300 0.92100 31.65700
C  25.81300 1.05200 32.56800
C  25.24200 1.16300 33.98800
C  23.71500 1.12300 33.83300
C  23.54700 1.07500 32.24000
C  22.96100 -0.04800 34.57000
C  25.66100 2.46600 34.72400
C  26.09000 2.35900 36.21700
H  25.84200 3.55300 37.14300
N  23.01600 1.37900 29.17300
C  22.07800 1.39400 30.17400
C  20.81900 1.67900 29.60200
C  20.98300 1.70300 28.17300
C  22.42500 1.66700 27.95700
C  19.50700 1.92200 30.35600
C  19.95300 1.93600 27.05300
O  20.20100 1.83000 25.87400
C  18.53300 2.26000 27.43400
N  25.28200 1.29000 27.15200
C  24.37900 1.68800 26.35500
C  24.91400 2.02200 24.95700
C  26.46800 1.94500 25.14900
C  26.53000 1.48200 26.62700
C  24.39000 1.06600 23.86500
C  27.36800 3.23500 24.86600
C  26.98800 4.57400 25.39700
N  26.97100 0.87100 29.56200
C  27.94200 0.92300 28.60300
C  29.13200 0.47900 29.21000
C  28.91400 0.53700 30.63100
C  27.56200 0.80200 30.76100
C  30.45700 0.21300 28.46800
C  29.54800 0.49400 31.92900
O  30.71900 0.28200 32.13200
C  28.40900 0.73100 32.96200
C  28.43900 -0.30000 33.98200
O  28.16700 -1.50800 33.72200
O  28.96500 0.13200 35.12100
C  29.11800 -0.72600 36.29000
H  21.56500 1.39500 32.36400
H  22.46300 1.90600 25.81700
H  28.62800 1.10900 26.62000
H  25.66800 0.32000 34.53200
H  23.28400 2.08100 34.12200
H  23.67100 -0.75500 34.99900
H  22.24000 -0.60600 33.97200
H  22.27200 0.37100 35.30400
H  24.78500 3.11400 34.75000
H  26.49500 3.01500 34.28700
H  27.15700 2.14900 36.29600
H  25.51000 1.55900 36.67600
H  19.13400 2.88800 30.01600
H  19.61300 2.04700 31.43300
H  18.75200 1.15600 30.18100
H  17.98700 1.49200 27.98100
H  17.93000 2.43500 26.54300
H  18.48500 3.23400 27.92200
H  24.70700 3.07300 24.75600
H  26.98200 1.20300 24.53800
H  23.69700 0.30400 24.22200
H  25.20400 0.56300 23.34200
H  23.89200 1.65300 23.09300
H  27.49200 3.26400 23.78400
H  28.39900 3.15300 25.21300
H  26.85300 5.30300 24.59900
H  27.71200 4.97900 26.10500
H  26.16400 4.55500 26.11000
H  31.11000 1.08500 28.48800
H  30.37400 -0.15600 27.44600
H  31.06100 -0.58500 28.89900
H  28.71000 1.67100 33.42400
H  29.93500 -0.32000 36.88600
H  29.24700 -1.79900 36.14800
H  28.27500 -0.54900 36.95800
Mg -1.49000 34.78000 26.76600
C  -3.19100 33.31900 29.49100
C  0.16700 36.85700 29.16100
C  -0.19900 36.52200 24.30100
C  -3.07700 32.64500 24.58500
N  -1.61900 35.13800 29.08600
C  -2.36600 34.33200 29.94400
C  -2.13400 34.80100 31.39900
C  -1.00000 35.91000 31.27500
C  -0.80800 35.97200 29.72600
C  -1.34100 37.31100 31.87600
C  -1.93100 33.60000 32.36500
C  -0.96900 33.70500 33.50700
H  -1.06900 32.75600 34.62500
N  -0.21600 36.40200 26.74400
C  0.48000 37.02800 27.77500
C  1.30400 38.03100 27.24900
C  1.10100 37.96600 25.83600
C  0.15500 36.97100 25.59000
C  2.05600 38.98800 28.22700
C  1.77100 38.85000 24.72300
O  1.54300 38.71200 23.52100
C  2.90400 39.75100 25.12500
N  -1.79000 34.72000 24.77800
C  -1.03200 35.42900 23.95800
C  -1.15700 34.87900 22.54400
C  -1.96700 33.60800 22.59900
C  -2.24900 33.61400 24.06100
C  -1.78600 35.93600 21.55500
C  -1.27900 32.28300 21.97100
C  -0.33600 31.43100 22.82200
N  -2.96300 33.30600 26.94800
C  -3.51300 32.49700 25.94400
C  -4.43600 31.52700 26.55700
C  -4.35500 31.82600 27.93400
C  -3.41700 32.94300 28.10800
C  -5.36900 30.52900 25.83200
C  -4.80700 31.47500 29.24900
O  -5.58500 30.62800 29.54800
C  -4.10200 32.33200 30.32700
C  -5.21100 32.97500 31.04700
O  -5.50200 34.19000 31.08100
O  -5.66800 32.17400 32.07700
C  -6.49000 32.76000 33.07400
H  0.69200 37.39600 29.95200
H  0.40600 36.80100 23.43700
H  -3.34400 31.86900 23.86500
H  -3.05000 35.29700 31.72000
H  -0.06900 35.59000 31.74300
H  -0.61000 37.65200 32.61000
H  -2.30600 37.28000 32.38300
H  -1.31100 38.11100 31.13700
H  -1.50400 32.84300 31.70700
H  -2.87200 33.23500 32.77700
H  -1.00900 34.69400 33.96400
H  0.06100 33.62000 33.16200
H  1.39600 39.85200 28.30300
H  3.00300 39.29200 27.78200
H  2.33700 38.54300 29.18200
H  3.81900 39.20300 25.35100
H  2.62600 40.40700 25.95000
H  3.12500 40.35500 24.24400
H  -0.18400 34.66300 22.10400
H  -2.97600 33.72400 22.20300
H  -2.08500 36.75500 22.20800
H  -2.57500 35.51100 20.93500
H  -1.01400 36.37800 20.92500
H  -0.84700 32.43000 20.98100
H  -2.14100 31.73100 21.59600
H  0.57500 31.17600 22.28100
H  -0.91900 30.51700 22.93400
H  -0.10300 31.81600 23.81500
H  -4.79000 29.88100 25.17400
H  -6.13300 31.12600 25.33400
H  -5.94900 30.07400 26.63600
H  -3.56700 31.63900 30.97600
H  -7.40500 33.19600 32.67300
H  -5.92800 33.54600 33.57800
H  -6.59600 31.96400 33.81200

