158

Mg 53.56500 24.91400 43.92500
C  50.59200 26.82300 43.19500
C  52.16200 22.28100 42.34400
C  56.51800 23.51000 44.03100
C  54.94800 28.03100 45.14700
N  51.74200 24.76800 42.76000
C  50.66400 25.62100 42.55800
C  49.50600 24.85100 41.94400
C  49.87900 23.41700 42.16200
C  51.37600 23.47600 42.39800
C  49.19400 22.61700 43.35000
C  49.04500 25.32600 40.47900
C  47.60700 24.89000 40.08800
H  47.46100 23.47000 39.56500
N  54.28500 23.07300 43.34100
C  53.49600 22.10800 42.72600
C  54.31700 20.85900 42.71300
C  55.65000 21.12900 43.25300
C  55.53600 22.62800 43.53500
C  53.72200 19.73500 42.02400
C  56.73400 20.17400 43.51400
O  56.52300 18.98400 43.25100
C  58.11500 20.51000 44.11400
N  55.48900 25.68500 44.49900
C  56.52200 24.89100 44.39100
C  57.75100 25.51700 45.14000
C  57.34800 27.02900 45.37400
C  55.90800 26.96800 44.93600
C  58.18000 24.75200 46.41400
C  58.17700 28.13900 44.63800
C  58.22300 28.30000 43.10100
N  52.98200 26.98000 44.18800
C  53.55900 28.00800 44.84600
C  52.62200 28.99300 45.19800
C  51.48900 28.63300 44.53000
C  51.69600 27.38300 43.88100
C  52.91700 30.25200 45.97600
C  50.14700 29.00000 44.23300
O  49.49100 29.97700 44.52800
C  49.48500 27.81500 43.44400
C  48.79800 28.26100 42.22400
O  49.35800 28.61900 41.20200
O  47.42000 28.27600 42.38900
C  46.73200 28.60200 41.13900
H  51.66300 21.36300 42.03000
H  57.51800 23.15500 44.28900
H  55.33600 28.97400 45.53700
H  48.57300 24.94900 42.50000
H  49.66700 22.93300 41.20900
H  48.47400 23.27500 43.83700
H  49.94400 22.37600 44.10300
H  48.71600 21.75000 42.89500
H  49.74200 24.84100 39.79500
H  49.16900 26.38000 40.23400
H  47.20600 25.56600 39.33200
H  47.14400 25.03100 41.06500
H  54.35400 18.84700 41.98500
H  53.45600 19.89200 40.97800
H  52.75100 19.52700 42.47300
H  58.74000 21.16000 43.50100
H  58.75200 19.62600 44.10600
H  58.09400 21.09000 45.03600
H  58.60100 25.51200 44.45800
H  57.49700 27.19900 46.44000
H  57.35300 24.27200 46.93800
H  58.71800 25.43000 47.07700
H  58.88100 23.96300 46.14200
H  59.20900 27.96600 44.94300
H  57.86900 29.07800 45.09900
H  57.60100 29.11100 42.72100
H  57.82600 27.41600 42.60200
H  59.24800 28.48900 42.78300
H  52.03900 30.68400 46.45600
H  53.45100 31.07900 45.50800
H  53.59100 30.08900 46.81700
H  48.66900 27.30400 43.95500
H  46.70500 27.68100 40.55600
H  47.15900 29.31000 40.42900
H  45.68800 28.86700 41.30800
Mg 6.49400 54.36100 41.35400
C  6.19800 50.93100 41.20600
C  10.00900 53.90400 40.53800
C  6.86400 57.71800 41.00600
C  3.16500 54.69700 41.74700
N  7.85400 52.60300 40.72900
C  7.47100 51.24900 40.83700
C  8.72300 50.33900 40.63900
C  9.93200 51.34100 40.69500
C  9.22200 52.68700 40.74500
C  10.91900 51.07500 41.88600
C  8.66400 49.61200 39.27800
C  8.45700 50.49500 38.10700
H  7.49200 49.96900 37.04400
N  8.15400 55.61900 40.83900
C  9.46900 55.24500 40.59200
C  10.27900 56.46100 40.32000
C  9.39800 57.53800 40.46800
C  8.04700 56.93900 40.77800
C  11.70100 56.39100 39.86400
C  9.76400 59.03300 40.20300
O  10.90700 59.34400 39.88300
C  8.79300 60.09500 40.17100
N  5.19500 56.00100 41.14700
C  5.53400 57.27600 41.14800
C  4.42700 58.22600 41.56600
C  3.24700 57.24400 41.55200
C  3.89300 55.85900 41.42700
C  4.63100 58.78500 42.99800
C  2.18800 57.51300 40.40500
C  0.78700 57.82500 40.85700
N  4.92600 53.11700 41.49300
C  3.60800 53.34600 41.80000
C  2.98100 52.12700 42.17900
C  3.98100 51.17300 41.99300
C  5.16700 51.80100 41.47300
C  1.63200 51.95300 42.73400
C  4.20700 49.79300 42.02800
O  3.44600 48.87600 42.36100
C  5.62900 49.58300 41.49500
C  5.43200 48.70500 40.35200
O  4.86500 49.04000 39.36400
O  5.78300 47.40100 40.60700
C  5.19800 46.33300 39.75400
H  11.09600 53.84600 40.44700
H  7.04200 58.79400 41.06300
H  2.12300 54.95400 41.94800
H  8.69800 49.59300 41.43400
H  10.47100 51.36100 39.74700
H  11.18200 51.94200 42.49200
H  11.84800 50.67900 41.47500
H  10.58600 50.21900 42.47300
H  8.01700 48.73900 39.20000
H  9.64600 49.17600 39.09000
H  9.41900 50.49700 37.59600
H  8.20400 51.54700 38.23100
H  11.82800 57.01400 38.97900
H  11.88100 55.39000 39.47200
H  12.44900 56.74400 40.57400
H  7.87200 59.76800 39.68900
H  9.22800 60.89400 39.57000
H  8.67400 60.52500 41.16600
H  4.36400 59.07600 40.88700
H  2.68200 57.18100 42.48200
H  3.92300 58.28900 43.66200
H  4.41400 59.85300 43.00400
H  5.63700 58.61600 43.38100
H  2.24200 56.81700 39.56700
H  2.61600 58.40000 39.93900
H  0.63100 58.86300 40.56400
H  0.55300 57.83600 41.92100
H  0.07700 57.31300 40.20700
H  1.04300 51.52100 41.92400
H  1.13300 52.77700 43.24300
H  1.86300 51.14600 43.42900
H  6.34100 49.27200 42.26000
H  4.21000 46.24900 40.20600
H  5.72200 45.37800 39.71400
H  5.10600 46.71800 38.73900

