158

Mg 47.34600 25.95000 28.95100
C  48.80000 28.00400 31.53500
C  46.33500 23.77700 31.35900
C  46.78200 23.60900 26.60900
C  48.87900 28.00300 26.59500
N  47.57800 25.89900 31.24200
C  48.10800 26.90500 32.04700
C  47.89300 26.54000 33.49300
C  47.00500 25.28200 33.36100
C  46.98300 24.90400 31.91800
C  47.32300 23.97200 34.16400
C  47.19300 27.71400 34.31100
C  46.28200 27.38600 35.52300
H  46.85900 27.59900 36.94500
N  46.49900 24.01900 28.94600
C  46.18900 23.28000 30.02900
C  45.55800 21.99200 29.63500
C  45.58500 22.05000 28.19900
C  46.33100 23.26600 27.83300
C  44.85400 21.02300 30.55900
C  44.94700 21.00600 27.12700
O  45.04400 21.08000 25.90700
C  44.29900 19.72000 27.65600
N  47.92600 25.78400 26.94600
C  47.47400 24.76400 26.18300
C  47.79300 25.05000 24.70200
C  47.81800 26.59700 24.68700
C  48.37300 26.79500 26.14900
C  49.08100 24.33600 24.19900
C  46.40600 27.17200 24.56000
C  46.22400 28.05800 23.26700
N  48.55900 27.69400 28.99200
C  49.08900 28.41100 27.95300
C  49.78500 29.56600 28.46900
C  49.65800 29.46000 29.86000
C  48.91900 28.30300 30.12700
C  50.49400 30.50400 27.63000
C  50.06400 30.08100 31.14800
O  50.78300 31.07200 31.34600
C  49.40200 29.15300 32.28900
C  50.44900 28.75000 33.18800
O  51.36500 28.03000 32.87600
O  50.17400 29.23000 34.43500
C  50.92600 28.51200 35.47500
H  45.78400 23.14700 32.06100
H  46.56700 22.86200 25.84200
H  49.00400 28.70800 25.77000
H  48.81500 26.19200 33.96000
H  45.95900 25.53400 33.53100
H  48.02100 24.21800 34.96500
H  47.94500 23.25600 33.62900
H  46.46600 23.41000 34.53700
H  46.73800 28.46200 33.66100
H  48.01400 28.25700 34.78000
H  45.87700 26.37800 35.62100
H  45.37200 27.96300 35.36000
H  43.79600 20.96100 30.30400
H  44.80400 21.39700 31.58100
H  45.12800 19.96900 30.49900
H  45.06300 19.00600 27.96200
H  43.65300 19.25800 26.90900
H  43.74100 20.05400 28.53000
H  47.01900 24.74700 23.99700
H  48.52700 27.02200 23.97600
H  49.44700 23.69000 24.99700
H  49.75000 25.06900 23.74900
H  48.90800 23.68000 23.34600
H  46.30400 27.79600 25.44800
H  45.68900 26.37000 24.73700
H  45.14100 28.14400 23.17800
H  46.59900 27.55200 22.37700
H  46.59600 29.07500 23.39000
H  49.95700 31.45200 27.60300
H  50.71000 30.09700 26.64200
H  51.46100 30.79800 28.03900
H  48.56300 29.58100 32.83900
H  51.27500 27.54100 35.12400
H  50.26500 28.36900 36.33000
H  51.67200 29.21800 35.84200
Mg 10.66600 46.55800 25.64700
C  8.64400 46.68500 28.47200
C  13.24000 47.76400 27.48700
C  12.54400 46.14600 22.90500
C  7.75700 46.11700 23.68300
N  10.86800 47.18000 27.70500
C  9.97400 47.06200 28.74100
C  10.52900 47.65900 30.03500
C  11.82600 48.40100 29.54000
C  11.99300 47.74900 28.19300
C  11.62700 49.94300 29.45300
C  10.81600 46.47000 31.05700
C  10.35200 46.59000 32.57800
H  10.44100 45.36900 33.40800
N  12.63800 46.73400 25.24900
C  13.53400 47.21200 26.17900
C  14.88500 47.15800 25.59800
C  14.73300 46.60400 24.27200
C  13.26400 46.41300 24.08200
C  16.14700 47.54800 26.30900
C  15.75400 46.29400 23.22000
O  15.47800 45.88100 22.13600
C  17.22000 46.56100 23.57100
N  10.20800 46.21400 23.57400
C  11.16800 46.09500 22.66600
C  10.62000 45.91000 21.24500
C  9.09000 45.63500 21.57800
C  8.99900 46.07800 22.99200
C  10.90300 47.17400 20.40500
C  8.75300 44.11800 21.29300
C  9.13800 43.06900 22.41600
N  8.68300 46.30300 25.95900
C  7.61400 46.19600 25.06700
C  6.36600 46.19900 25.81800
C  6.71200 46.29900 27.13300
C  8.15100 46.44400 27.20700
C  5.00500 45.98600 25.23700
C  6.13400 46.40500 28.46100
O  4.95700 46.45200 28.79900
C  7.37800 46.84600 29.34100
C  7.28800 45.95800 30.58200
O  7.79100 44.83800 30.67500
O  6.42800 46.56100 31.45800
C  5.99600 45.77800 32.64800
H  14.07700 48.18800 28.04500
H  12.94000 45.81200 21.94400
H  6.91900 46.03000 22.98900
H  9.78800 48.14000 30.67300
H  12.61800 48.18900 30.25800
H  12.27500 50.47000 30.15300
H  10.65400 50.11800 29.91300
H  11.43800 50.31900 28.44700
H  11.89400 46.33200 30.97700
H  10.33200 45.58500 30.64300
H  9.31800 46.91300 32.69900
H  10.91800 47.41600 33.00900
H  16.03800 47.71600 27.38100
H  16.41100 48.47500 25.80000
H  16.88200 46.76000 26.14500
H  17.56500 45.97000 24.42000
H  17.56300 47.59100 23.67300
H  17.81900 46.17000 22.74900
H  11.04000 44.99400 20.82800
H  8.42100 46.22600 20.95200
H  11.65900 47.77300 20.91300
H  9.96300 47.68500 20.20000
H  11.45800 46.78800 19.54900
H  9.41400 43.84500 20.47000
H  7.75600 44.02500 20.86200
H  9.58400 43.51600 23.30500
H  9.92500 42.39100 22.08800
H  8.25400 42.48800 22.68000
H  4.50700 45.08000 25.58400
H  4.87300 46.11900 24.16400
H  4.37100 46.80100 25.58400
H  7.21300 47.89400 29.59200
H  5.15400 45.09700 32.52200
H  5.72200 46.55000 33.36700
H  6.85400 45.41100 33.21000

