158

Mg 47.69400 23.92200 28.11500
C  48.69400 25.99700 30.60100
C  46.74600 21.53000 30.42000
C  47.04800 21.84400 25.54300
C  49.12100 26.14700 25.74300
N  47.65700 23.79900 30.30500
C  48.05500 24.84500 31.10900
C  47.61900 24.51300 32.54100
C  47.28100 23.01900 32.47100
C  47.27600 22.71300 30.96100
C  48.10600 22.00600 33.25700
C  46.67600 25.52800 33.22000
C  47.32600 26.03300 34.47300
H  46.72800 27.29600 35.17600
N  46.98300 21.92000 28.00500
C  46.68900 21.11600 29.06700
C  46.22100 19.87300 28.53100
C  45.94500 20.04800 27.14400
C  46.61400 21.30700 26.82200
C  45.96700 18.72800 29.43400
C  45.30900 19.07600 26.17100
O  45.23700 19.39200 24.96700
C  44.59700 17.74200 26.47200
N  48.02300 24.01100 26.00500
C  47.58000 23.05700 25.14100
C  47.86200 23.34800 23.65200
C  48.29100 24.82900 23.67300
C  48.53300 25.00000 25.21700
C  48.99700 22.42600 23.02100
C  47.35600 25.86400 23.08900
C  47.98900 26.88200 22.06000
N  48.61200 25.66600 28.10200
C  49.13200 26.42400 27.09400
C  49.70000 27.63500 27.64100
C  49.51900 27.49700 29.02200
C  48.85600 26.29600 29.25000
C  50.42700 28.83700 26.94000
C  49.80200 28.18300 30.30100
O  50.44400 29.23200 30.56300
C  49.11800 27.33900 31.39600
C  50.13300 27.14300 32.44800
O  50.92100 26.17300 32.47800
O  50.13400 28.13300 33.36400
C  50.92400 27.97400 34.65600
H  46.34100 20.92400 31.23300
H  46.84300 21.20700 24.68100
H  49.46900 26.87200 25.00400
H  48.56900 24.60600 33.06600
H  46.32900 22.90600 32.99000
H  47.52900 21.62800 34.10000
H  49.12600 22.35300 33.42200
H  48.11800 21.15400 32.57800
H  45.75700 25.03900 33.54200
H  46.33000 26.20800 32.44200
H  48.37700 26.32400 34.47600
H  47.36600 25.30400 35.28200
H  44.88800 18.66400 29.57600
H  46.40200 18.83700 30.42800
H  46.38500 17.80800 29.02600
H  45.05500 17.33700 27.37500
H  44.59600 16.89500 25.78600
H  43.60100 17.92300 26.87700
H  46.94600 23.24800 23.06900
H  49.29300 24.95600 23.26400
H  49.67200 22.05800 23.79300
H  49.74700 22.94100 22.42100
H  48.67300 21.47600 22.59700
H  46.97400 26.46200 23.91700
H  46.37800 25.49600 22.77900
H  47.47900 26.72800 21.10900
H  49.07700 26.82000 22.08500
H  47.67800 27.89200 22.32500
H  51.43200 28.79800 27.36100
H  50.00400 29.82600 27.12000
H  50.63600 28.80200 25.87100
H  48.27300 27.91000 31.78100
H  51.65900 28.77700 34.70900
H  51.43600 27.02500 34.81600
H  50.27000 28.13600 35.51300
Mg -0.35800 43.62400 26.95000
C  1.49400 43.48800 30.00800
C  -3.20600 42.92200 28.69600
C  -1.68000 42.67500 24.13600
C  2.73700 44.25300 25.36200
N  -0.83900 43.31800 29.03700
C  0.06800 43.39800 30.12700
C  -0.69500 43.42400 31.45300
C  -2.17500 43.10300 31.01700
C  -2.10800 43.13000 29.50700
C  -2.71000 41.71400 31.64800
C  -0.56200 44.85500 32.15100
C  -0.59700 44.95200 33.69400
H  -0.72400 43.65700 34.54600
N  -2.19900 42.95100 26.37500
C  -3.23600 42.81900 27.25200
C  -4.44100 42.46500 26.43300
C  -4.04300 42.39500 25.09900
C  -2.57400 42.63900 25.12800
C  -5.82200 42.24000 27.03400
C  -4.89200 42.12500 23.91500
O  -4.28900 41.83000 22.88100
C  -6.44600 42.04500 23.90800
N  0.37600 43.56900 25.06900
C  -0.40500 43.14100 24.03700
C  0.41600 43.25000 22.71800
C  1.70800 44.05500 23.16400
C  1.58700 44.00400 24.62900
C  0.72000 41.88400 21.96700
C  1.83200 45.49400 22.52700
C  2.11100 45.47300 21.00400
N  1.76900 43.83700 27.55700
C  2.83700 44.13600 26.77300
C  4.00300 44.22100 27.60400
C  3.56700 43.93100 28.91200
C  2.14000 43.68800 28.79200
C  5.51400 44.36500 27.25400
C  3.94600 43.65400 30.23800
O  5.13400 43.55400 30.59200
C  2.60700 43.51500 31.07900
C  2.63100 42.18600 31.71400
O  2.43700 41.10600 31.09200
O  3.00900 42.26800 33.03400
C  2.65300 41.10500 33.89700
H  -4.16600 42.80300 29.20300
H  -2.02700 42.43900 23.12800
H  3.64900 44.51600 24.82300
H  -0.37300 42.58400 32.06900
H  -2.83600 43.91000 31.33200
H  -1.83800 41.20500 32.05900
H  -3.09800 41.08100 30.85000
H  -3.32200 41.89900 32.53000
H  -1.39100 45.44500 31.76200
H  0.32800 45.31600 31.72300
H  -1.41500 45.63300 33.92700
H  0.34100 45.40900 34.01100
H  -6.38200 43.06200 26.58700
H  -5.80400 42.32400 28.12100
H  -6.34200 41.32800 26.74000
H  -6.86900 42.30000 22.93600
H  -6.92200 42.83500 24.49000
H  -6.70800 41.03700 24.23000
H  -0.06100 43.88400 21.97000
H  2.63600 43.53200 22.93500
H  0.34900 41.09600 22.62200
H  1.79600 41.80900 21.81200
H  0.19200 41.95000 21.01500
H  2.58100 46.15600 22.96000
H  0.87600 46.00500 22.63800
H  2.95200 46.15500 20.88000
H  1.27500 45.89200 20.44500
H  2.25300 44.46300 20.62100
H  6.06300 43.53900 26.80100
H  6.01600 44.47500 28.21500
H  5.71100 45.27100 26.68100
H  2.65000 44.32300 31.80900
H  1.61100 40.81500 33.76900
H  2.72800 41.32400 34.96200
H  3.43000 40.34500 33.81400

