158

Mg 45.15600 4.82700 46.90400
C  42.57900 7.46300 46.55400
C  42.46900 2.57100 46.56600
C  47.37000 2.43300 46.34300
C  47.55900 7.31500 46.75400
N  42.78100 4.98700 46.41300
C  41.98100 6.16800 46.44300
C  40.52500 5.74100 46.15200
C  40.54200 4.31100 46.70300
C  42.04200 3.88900 46.51200
C  40.04800 4.05900 48.13900
C  40.03400 5.77700 44.67700
C  41.03800 5.87100 43.54600
H  40.65100 6.43400 42.12300
N  45.00100 2.76600 46.61500
C  43.79000 2.06400 46.56300
C  44.10100 0.63700 46.36900
C  45.51200 0.57900 46.14600
C  46.04100 1.92200 46.43600
C  43.19700 -0.50000 46.34400
C  46.35900 -0.63600 45.67800
O  45.81400 -1.69700 45.32900
C  47.85200 -0.60700 45.59100
N  47.10700 4.83900 46.70800
C  47.87600 3.72100 46.56400
C  49.36000 4.02400 46.72200
C  49.35100 5.60300 46.64700
C  47.93500 5.97500 46.63300
C  49.91800 3.44100 48.08500
C  50.20200 6.07600 45.40100
C  49.63500 5.83700 44.01800
N  45.12000 6.90500 46.72700
C  46.18000 7.79700 46.68800
C  45.65900 9.18100 46.73200
C  44.29200 9.03500 46.71200
C  43.98600 7.65400 46.69500
C  46.55800 10.39100 46.48000
C  43.08800 9.78300 46.78400
O  42.97100 11.02500 46.78500
C  41.80400 8.76200 46.72200
C  41.06300 8.72100 48.01900
O  41.06600 7.82400 48.83600
O  40.41800 9.93700 48.25800
C  39.47800 10.01800 49.35900
H  41.71800 1.77800 46.55900
H  48.16000 1.67900 46.33300
H  48.35900 8.02400 46.97300
H  39.89600 6.37700 46.77500
H  39.97900 3.69800 46.00000
H  40.82300 3.48700 48.65000
H  39.10400 3.53300 47.99600
H  39.84200 4.98600 48.67500
H  39.46500 6.70600 44.71300
H  39.29400 5.02900 44.39300
H  41.35800 4.86200 43.28500
H  41.86400 6.47700 43.92000
H  43.53800 -1.30100 46.99900
H  43.21400 -0.96700 45.35900
H  42.15200 -0.18900 46.32500
H  48.19900 -1.59500 45.28900
H  48.07000 -0.39900 46.63800
H  48.32200 0.15800 44.97300
H  49.86900 3.54700 45.88500
H  49.92600 5.94900 47.50600
H  49.22300 2.69800 48.47700
H  50.04000 4.23700 48.81900
H  50.90500 3.02900 47.87500
H  51.17100 5.58800 45.50400
H  50.32000 7.15200 45.52900
H  50.28300 5.12400 43.51000
H  49.71400 6.82500 43.56600
H  48.60200 5.51700 44.15900
H  46.27900 11.01900 47.32600
H  46.20900 10.87700 45.56900
H  47.59600 10.06100 46.44900
H  41.15300 8.96600 45.87100
H  39.96500 10.13300 50.32800
H  38.95500 9.09900 49.62900
H  38.85800 10.89300 49.16800
Mg -2.02700 34.92800 26.29900
C  -3.81300 33.61400 28.90700
C  -0.90400 37.39000 28.39900
C  -0.67000 36.15300 23.65400
C  -3.50100 32.48500 24.17400
N  -2.29300 35.42500 28.48000
C  -3.02000 34.70600 29.35400
C  -2.76100 35.13000 30.77100
C  -1.98300 36.54400 30.57400
C  -1.71200 36.48500 29.04800
C  -2.57000 37.90100 31.07400
C  -2.06900 33.95500 31.58000
C  -2.66700 33.67700 32.92400
H  -1.74200 33.50000 34.12000
N  -0.94200 36.47500 26.06700
C  -0.49800 37.40000 27.01900
C  0.26100 38.43800 26.33400
C  0.43000 37.99200 25.00200
C  -0.40400 36.84400 24.88500
C  0.88500 39.66300 27.01100
C  1.26600 38.63000 23.91400
O  1.33800 38.17500 22.76100
C  2.13000 39.88900 24.18200
N  -2.10200 34.33000 24.17600
C  -1.44000 35.10000 23.27800
C  -1.61700 34.59900 21.85600
C  -2.38900 33.24000 22.11000
C  -2.67400 33.36700 23.52600
C  -2.42300 35.64000 20.96500
C  -1.44700 32.00800 21.77400
C  -0.29400 31.70800 22.72900
N  -3.49500 33.40000 26.37100
C  -3.93100 32.44300 25.47900
C  -4.71200 31.43600 26.20300
C  -4.70600 31.82900 27.58100
C  -3.92700 33.05100 27.57700
C  -5.37500 30.20400 25.53800
C  -5.07400 31.50100 28.93000
O  -5.64200 30.52100 29.37500
C  -4.43500 32.51700 29.81600
C  -5.56800 33.06300 30.65700
O  -6.35700 33.87500 30.29900
O  -5.61700 32.40600 31.82800
C  -6.54800 32.85000 32.87900
H  -0.46300 38.11700 29.08400
H  -0.27100 36.60900 22.74500
H  -3.97100 31.71500 23.55900
H  -3.64000 35.45800 31.32600
H  -1.04600 36.39500 31.11000
H  -2.77600 38.55400 30.22500
H  -1.88700 38.35300 31.79300
H  -3.50900 37.68200 31.58300
H  -1.03900 34.21500 31.82400
H  -1.95500 33.04700 30.98800
H  -3.23700 32.75100 32.85700
H  -3.50900 34.29900 33.22700
H  1.96600 39.52900 26.97700
H  0.59200 39.76800 28.05500
H  0.73900 40.57700 26.43500
H  2.64600 39.96900 23.22500
H  2.76400 39.63400 25.03100
H  1.46400 40.73900 24.32900
H  -0.61900 34.42800 21.45400
H  -3.40000 33.13800 21.71500
H  -2.14200 36.64100 21.29100
H  -3.50500 35.58900 21.08800
H  -2.10300 35.42600 19.94500
H  -0.92900 32.16700 20.82800
H  -2.05000 31.11900 21.59100
H  -0.27700 32.46500 23.51300
H  0.58800 31.54800 22.10800
H  -0.55100 30.74800 23.17600
H  -4.72500 29.81900 24.75200
H  -6.33600 30.49200 25.11200
H  -5.51500 29.42400 26.28700
H  -3.73000 32.02200 30.48300
H  -7.34200 33.54500 32.61000
H  -6.04400 33.29000 33.74000
H  -7.01600 31.95900 33.29900

