158

Mg -2.06000 18.10900 27.35100
C  -2.63000 15.77200 29.63300
C  -2.81600 20.60100 29.55200
C  -1.62700 20.19400 24.81500
C  -1.60100 15.50200 24.94900
N  -2.79800 18.14600 29.27600
C  -2.79500 17.07800 30.17700
C  -2.88400 17.48500 31.70600
C  -3.12400 19.03000 31.57900
C  -2.89300 19.32500 30.05300
C  -4.54900 19.64600 32.09400
C  -1.79200 17.01300 32.65500
C  -1.39000 17.80600 33.92800
H  -0.77600 16.98500 35.00500
N  -2.25200 20.10600 27.20700
C  -2.56100 20.98000 28.21600
C  -2.38900 22.37000 27.72200
C  -1.82700 22.25300 26.40700
C  -1.78800 20.84100 26.08700
C  -2.69100 23.59200 28.68100
C  -1.26500 23.39700 25.60800
O  -0.72900 23.25000 24.51400
C  -1.26200 24.77100 26.14800
N  -1.82500 17.84800 25.17100
C  -1.55100 18.90300 24.43600
C  -1.35500 18.48900 22.92600
C  -1.06000 17.00500 22.99300
C  -1.49900 16.71200 24.43800
C  -2.60100 18.73600 22.05600
C  0.40900 16.64100 22.72600
C  1.52600 17.18100 23.73200
N  -1.92100 16.11000 27.27600
C  -1.86100 15.14000 26.27100
C  -1.97700 13.81300 26.84000
C  -2.33300 13.98200 28.13300
C  -2.32300 15.38100 28.30900
C  -1.80800 12.52700 26.20100
C  -2.63400 13.29900 29.31900
O  -2.66600 12.11100 29.48200
C  -2.83400 14.40100 30.39600
C  -1.79700 14.01700 31.39300
O  -0.57600 14.23300 31.32800
O  -2.35600 13.29500 32.47000
C  -1.49600 13.04200 33.61700
H  -2.66100 21.35100 30.33000
H  -1.39800 20.80300 23.93800
H  -1.27400 14.69600 24.28800
H  -3.84500 17.08000 32.02300
H  -2.33600 19.53900 32.13400
H  -4.27200 20.34600 32.88200
H  -5.15900 18.98800 32.71300
H  -5.12300 20.09800 31.28500
H  -0.84500 17.09800 32.12300
H  -1.95600 15.96100 32.88900
H  -2.25900 18.36400 34.27700
H  -0.57200 18.49600 33.71900
H  -1.75000 24.05300 28.98000
H  -3.22100 23.20800 29.55300
H  -3.35800 24.34300 28.25900
H  -2.24300 25.18800 26.37400
H  -0.80100 25.46700 25.44700
H  -0.64200 24.79400 27.04400
H  -0.51500 19.03600 22.49900
H  -1.62700 16.37400 22.30900
H  -3.32800 19.19700 22.72500
H  -3.05700 17.85300 21.60800
H  -2.31800 19.48300 21.31400
H  0.69100 16.87100 21.69800
H  0.46600 15.55800 22.61900
H  2.09500 16.38800 24.21800
H  1.05800 17.77100 24.52000
H  2.26900 17.85200 23.30000
H  -1.06200 12.57500 25.40700
H  -2.68200 11.99800 25.82200
H  -1.44100 11.85300 26.97500
H  -3.84600 14.24200 30.76800
H  -2.10500 13.43400 34.43100
H  -0.57600 13.62500 33.58300
H  -1.33200 11.96500 33.62100
Mg 10.13000 48.06100 25.89800
C  7.96100 48.42100 28.73800
C  12.59000 49.62500 27.80700
C  11.87600 48.25500 23.18200
C  7.19300 47.25100 24.02100
N  10.22700 48.87900 28.00400
C  9.29600 48.72900 29.06500
C  9.94500 49.09900 30.40600
C  11.28600 49.80700 29.96700
C  11.46400 49.30300 28.50700
C  11.34200 51.33700 30.21800
C  9.97600 47.99100 31.50400
C  9.55300 48.44400 32.89000
H  9.44700 47.28000 33.91700
N  12.09100 48.50400 25.59100
C  12.91100 49.31700 26.47800
C  14.22400 49.43400 25.84300
C  14.07600 48.95100 24.50100
C  12.64100 48.55600 24.36600
C  15.54200 49.88100 26.59900
C  15.10000 48.68200 23.43500
O  14.88800 48.22900 22.37100
C  16.57500 49.04300 23.70900
N  9.56800 47.96900 23.81300
C  10.57500 47.95700 22.87900
C  10.02500 47.59800 21.44700
C  8.52000 47.09900 21.74800
C  8.40200 47.40900 23.30900
C  10.06700 48.75700 20.40000
C  8.43600 45.57000 21.46100
C  9.00300 44.63100 22.57300
N  8.03900 47.75400 26.23900
C  7.01800 47.48600 25.34600
C  5.76100 47.38000 26.08400
C  6.09300 47.76900 27.40900
C  7.44400 48.06400 27.44400
C  4.32900 47.09000 25.47900
C  5.54900 48.04100 28.69200
O  4.37500 47.93900 29.08800
C  6.73500 48.46200 29.56800
C  6.76400 47.41700 30.63600
O  7.07200 46.27600 30.43600
O  6.22700 47.89400 31.75400
C  5.96500 46.94300 32.84200
H  13.37800 50.07700 28.41400
H  12.51000 48.17300 22.29600
H  6.30300 46.91000 23.48800
H  9.28600 49.86700 30.81200
H  12.01100 49.26900 30.57900
H  12.13900 51.73500 29.59000
H  11.53300 51.44200 31.28600
H  10.37700 51.82200 30.07100
H  11.03800 47.77500 31.62000
H  9.44300 47.08400 31.22000
H  8.67700 49.08700 32.80000
H  10.40500 49.03700 33.22200
H  16.33400 49.17200 26.35800
H  15.35100 50.04200 27.66000
H  15.82400 50.86900 26.23600
H  17.19700 48.95700 22.81900
H  16.90000 48.35500 24.49000
H  16.71700 50.01800 24.17600
H  10.56100 46.73300 21.05600
H  7.80400 47.64300 21.13200
H  10.80200 49.48600 20.74000
H  9.16500 49.36800 20.38500
H  10.31200 48.40700 19.39600
H  8.85400 45.30900 20.48900
H  7.37400 45.36000 21.33200
H  8.15100 44.48700 23.23700
H  9.74000 45.15800 23.17900
H  9.38600 43.69300 22.17000
H  4.54000 46.30600 24.75200
H  3.96300 47.95700 24.92900
H  3.69900 46.74100 26.29700
H  6.61700 49.48600 29.92400
H  4.91600 46.64800 32.84200
H  6.15400 47.46700 33.77900
H  6.62300 46.07700 32.76400

