158

Mg 24.70200 -6.57000 46.23800
C  26.59100 -3.88800 44.94900
C  22.16800 -5.72900 44.08000
C  23.25300 -9.51800 46.98400
C  27.85700 -7.78500 47.56100
N  24.49000 -5.04800 44.67600
C  25.32100 -4.02500 44.38800
C  24.79900 -3.16400 43.27400
C  23.30700 -3.63400 43.14600
C  23.31800 -4.89000 44.01700
C  22.15000 -2.55400 43.33300
C  25.59600 -3.18100 41.92000
C  25.82700 -1.77100 41.24300
H  25.57100 -1.67500 39.78200
N  22.93600 -7.47400 45.66600
C  21.99600 -6.88000 44.83000
C  20.89200 -7.77300 44.72000
C  21.10100 -8.83600 45.56400
C  22.46000 -8.72900 46.13000
C  19.78900 -7.54200 43.72600
C  20.15900 -10.04500 45.66600
O  19.03400 -10.03500 45.28100
C  20.47100 -11.20300 46.40100
N  25.44900 -8.33600 47.14600
C  24.57100 -9.38700 47.45400
C  25.28500 -10.53300 48.19700
C  26.79500 -10.10200 47.96500
C  26.70700 -8.63500 47.67500
C  24.82400 -10.83500 49.67900
C  27.44500 -10.92700 46.86400
C  28.58700 -11.88600 47.18000
N  26.76800 -5.91700 46.42000
C  27.88800 -6.45700 47.00300
C  28.96000 -5.51900 46.96300
C  28.58700 -4.49500 46.12500
C  27.20500 -4.78100 45.84000
C  30.33300 -5.73400 47.51500
C  28.93000 -3.24800 45.43500
O  29.97500 -2.62300 45.32200
C  27.67000 -2.85200 44.61200
C  27.24800 -1.48700 44.95100
O  27.02500 -0.63100 44.10000
O  27.23700 -1.31300 46.33800
C  27.41100 0.18800 46.68600
H  21.36700 -5.46300 43.38700
H  22.74800 -10.32700 47.51600
H  28.79400 -8.27300 47.83600
H  24.78800 -2.11400 43.56600
H  23.17900 -4.02600 42.13700
H  21.26700 -3.08200 43.69200
H  21.89500 -2.27100 42.31200
H  22.51900 -1.73900 43.95600
H  24.94600 -3.71500 41.22700
H  26.56900 -3.66400 42.01300
H  26.89300 -1.58000 41.36600
H  25.27200 -1.01200 41.79500
H  18.80700 -7.39900 44.17800
H  19.55000 -8.45200 43.17600
H  19.86000 -6.74700 42.98400
H  20.59400 -10.98300 47.46100
H  21.34600 -11.64600 45.92600
H  19.59100 -11.84400 46.35400
H  25.11000 -11.44000 47.61800
H  27.36700 -10.22900 48.88500
H  24.25100 -11.76000 49.75200
H  24.19100 -10.05300 50.09900
H  25.74800 -10.98800 50.23600
H  27.74500 -10.27500 46.04500
H  26.74700 -11.61000 46.38000
H  29.12100 -11.43400 48.01600
H  29.30800 -11.90400 46.36200
H  28.19500 -12.83400 47.54700
H  31.06400 -5.74100 46.70700
H  30.33600 -6.65700 48.09400
H  30.47300 -4.84400 48.12800
H  27.98700 -2.84700 43.57000
H  28.23300 0.63200 46.12400
H  27.64500 0.30000 47.74500
H  26.48600 0.73600 46.50900
Mg 35.81000 1.35500 30.04000
C  33.74800 2.07100 32.66200
C  38.44800 1.48100 32.33000
C  38.03200 0.84100 27.49900
C  33.22100 1.63800 27.76000
N  36.08700 1.73900 32.26300
C  35.01800 1.90500 33.16100
C  35.49200 1.92500 34.61800
C  37.05400 2.07600 34.46700
C  37.22700 1.73300 32.87700
C  37.66800 3.48700 34.82600
C  35.15800 0.53400 35.31500
C  34.87600 0.63100 36.90700
H  35.21700 1.97600 37.75500
N  37.95400 1.13400 29.91500
C  38.84300 1.15300 30.96900
C  40.16600 0.84000 30.51000
C  40.11700 0.66700 29.08000
C  38.68300 0.80400 28.75500
C  41.37200 0.66600 31.36800
C  41.16200 0.48900 28.03700
O  40.96200 0.26300 26.85600
C  42.60400 0.68200 28.44100
N  35.64300 1.06800 27.97000
C  36.64200 1.02400 27.10400
C  36.16500 0.93400 25.64200
C  34.61300 1.16800 25.76600
C  34.43500 1.23900 27.32500
C  36.80100 1.94000 24.59800
C  33.65800 0.07300 25.14800
C  33.52000 -1.28300 25.93300
N  33.87900 1.77200 30.13800
C  32.91800 1.86600 29.15700
C  31.63000 2.18600 29.75400
C  31.87900 2.21100 31.20300
C  33.23800 1.93800 31.33700
C  30.30500 2.36700 28.98800
C  31.30700 2.31500 32.53500
O  30.12900 2.44300 32.87100
C  32.51200 2.19700 33.57400
C  32.32700 3.31200 34.51200
O  32.76300 4.51000 34.29200
O  31.73000 2.88100 35.69200
C  31.31300 3.96700 36.60600
H  39.31900 1.52000 32.98700
H  38.69400 0.76100 26.63400
H  32.49500 1.77800 26.95700
H  35.05000 2.78000 35.12900
H  37.54200 1.35600 35.12400
H  36.87700 4.23700 34.80500
H  38.41600 3.78400 34.09100
H  38.05800 3.39400 35.83900
H  35.82800 -0.25600 34.97800
H  34.19700 0.41000 34.81500
H  35.28700 -0.26300 37.37700
H  33.80200 0.44900 36.95800
H  41.12200 0.81600 32.41800
H  42.20900 1.26800 31.01400
H  41.66200 -0.38000 31.26400
H  42.76600 -0.01700 29.26200
H  42.64900 1.73200 28.73000
H  43.37700 0.52200 27.69000
H  36.33700 -0.12800 25.46800
H  34.42500 2.15300 25.33800
H  37.44000 1.44300 23.86800
H  37.28000 2.80500 25.05700
H  36.03600 2.44800 24.01100
H  34.08800 -0.15200 24.17200
H  32.64300 0.43300 24.97900
H  34.05600 -2.01600 25.33000
H  32.49200 -1.53400 26.19200
H  34.00300 -1.23100 26.90900
H  30.52300 2.33700 27.92000
H  29.83900 3.29400 29.32200
H  29.66200 1.56200 29.34400
H  32.30200 1.28500 34.13300
H  32.15100 4.54900 36.98800
H  30.66400 3.56800 37.38600
H  30.80400 4.77100 36.07400

