158

Mg 8.01500 2.49100 27.25600
C  9.50800 1.19000 30.16700
C  6.11200 4.58100 29.31100
C  6.02300 3.53400 24.70100
C  9.40900 0.15100 25.34000
N  7.93800 2.91300 29.48600
C  8.62400 2.23700 30.48400
C  8.38200 2.90600 31.91000
C  7.13800 3.88700 31.60400
C  7.03700 3.75500 30.01600
C  5.79000 3.56100 32.26900
C  9.65200 3.57600 32.62000
C  9.43700 3.99700 33.99400
H  10.22900 3.52100 35.16000
N  6.40300 3.87000 27.00500
C  5.82400 4.69700 27.95900
C  4.85800 5.65000 27.32300
C  4.91800 5.35500 25.94100
C  5.84700 4.21800 25.81700
C  4.13200 6.67500 28.14100
C  4.09300 5.99900 24.85700
O  4.27700 5.62700 23.66000
C  3.04800 7.13000 25.15600
N  7.77800 2.00200 25.20300
C  6.88100 2.50800 24.36300
C  7.03900 1.79400 22.92200
C  8.22100 0.81200 23.16900
C  8.52200 0.97500 24.60200
C  5.80400 0.89800 22.58500
C  9.44500 1.02500 22.32100
C  10.07000 -0.20300 21.59300
N  9.25400 1.08700 27.58400
C  9.78900 0.21900 26.73500
C  10.81000 -0.58800 27.44300
C  10.65800 -0.34000 28.83600
C  9.78500 0.73800 28.84100
C  11.62500 -1.71400 26.82800
C  10.93700 -0.78300 30.17900
O  11.74000 -1.65400 30.63900
C  10.37800 0.33800 31.12900
C  9.69300 -0.27600 32.26500
O  8.73000 -1.08100 32.21000
O  10.53400 -0.09700 33.41000
C  10.07200 -0.69800 34.70100
H  5.51300 5.28500 29.89200
H  5.41100 3.75400 23.82300
H  9.94000 -0.52900 24.67000
H  8.21300 2.01400 32.51300
H  7.46500 4.86800 31.95000
H  5.02000 3.51500 31.49800
H  5.70000 4.45900 32.88000
H  5.75800 2.62200 32.82200
H  10.08600 4.33900 31.97400
H  10.49600 2.88600 32.62900
H  8.38100 3.97300 34.26300
H  9.58200 5.07600 33.94500
H  3.05600 6.57400 28.00200
H  4.58900 7.65200 27.98400
H  4.17300 6.53900 29.22100
H  2.08700 6.66500 25.37900
H  2.89700 7.82300 24.32900
H  3.35800 7.73400 26.00900
H  7.24700 2.57600 22.19100
H  7.93100 -0.23700 23.21500
H  5.01900 1.01100 23.33200
H  6.02800 -0.12800 22.29300
H  5.43400 1.13400 21.58700
H  10.19800 1.43000 22.99700
H  9.26900 1.73600 21.51400
H  10.17800 0.05700 20.54000
H  9.42500 -1.07700 21.49900
H  10.96200 -0.56100 22.10700
H  12.16000 -1.44400 25.91800
H  10.94000 -2.51100 26.53800
H  12.26000 -2.18700 27.57700
H  11.21500 0.89700 31.54900
H  9.38900 -1.53200 34.53700
H  9.58300 0.02200 35.35700
H  10.86700 -1.03000 35.36900
Mg -9.77500 40.15700 42.16900
C  -8.61700 36.82000 41.02000
C  -6.88300 41.43300 40.85800
C  -11.39600 43.08400 42.21500
C  -12.89000 38.41700 42.78100
N  -7.94900 39.20000 41.01800
C  -7.67600 37.85200 40.76800
C  -6.24700 37.72100 40.08700
C  -5.68900 39.17700 40.23300
C  -6.89300 40.01700 40.68300
C  -4.50400 39.31300 41.19500
C  -6.45100 37.08900 38.67200
C  -5.50000 35.90800 38.34300
H  -4.55600 36.25900 37.09300
N  -9.16100 41.99400 41.80600
C  -7.96600 42.31900 41.31200
C  -7.95400 43.77100 41.22100
C  -9.16000 44.27600 41.73000
C  -9.94600 43.12900 42.00600
C  -6.76600 44.52000 40.65200
C  -9.56300 45.75500 41.94400
O  -8.84100 46.70500 41.52800
C  -10.73600 46.12200 42.62500
N  -11.82300 40.62400 42.32800
C  -12.21500 41.90200 42.33900
C  -13.75700 42.04100 42.44300
C  -14.22800 40.53700 42.63100
C  -12.88700 39.79300 42.57200
C  -14.19900 43.05200 43.59400
C  -15.22600 40.02000 41.59200
C  -16.47200 39.24100 42.27600
N  -10.54700 38.09600 42.07900
C  -11.80700 37.64700 42.44600
C  -11.82300 36.17700 42.35300
C  -10.56100 35.86100 41.77800
C  -9.88000 37.03800 41.54400
C  -12.84400 35.25400 42.85000
C  -9.80700 34.73600 41.26400
O  -9.97900 33.47300 41.28200
C  -8.52900 35.34100 40.76600
C  -7.36800 34.67600 41.60400
O  -7.15800 34.63700 42.79900
O  -6.56200 34.06500 40.66000
C  -5.27300 33.53600 41.25300
H  -5.98800 41.99400 40.58200
H  -12.06100 43.95000 42.18900
H  -13.77800 37.81900 43.00100
H  -5.74100 36.97200 40.69700
H  -5.32400 39.33900 39.21800
H  -4.05200 38.35000 41.43200
H  -4.86600 39.82500 42.08600
H  -3.68200 39.92500 40.82300
H  -6.36700 37.90300 37.95200
H  -7.44600 36.66400 38.54200
H  -6.14300 35.10300 37.98900
H  -4.91900 35.67400 39.23500
H  -7.21100 45.37900 40.15000
H  -6.19500 43.84900 40.01100
H  -6.14000 44.81500 41.49400
H  -10.66200 47.10400 43.09300
H  -11.08900 45.40800 43.36900
H  -11.48400 46.23900 41.84100
H  -14.15400 42.51500 41.54500
H  -14.68600 40.32300 43.59600
H  -13.34200 43.44100 44.14300
H  -14.91000 42.58700 44.27800
H  -14.71200 43.89500 43.13100
H  -14.80600 39.37900 40.81700
H  -15.55700 40.84700 40.96300
H  -16.46700 39.09200 43.35500
H  -16.61400 38.20100 41.98300
H  -17.42600 39.69300 42.00500
H  -13.44400 35.84900 43.53700
H  -12.37200 34.43100 43.38700
H  -13.51400 34.83800 42.09800
H  -8.52600 35.02700 39.72200
H  -4.75300 32.97700 40.47500
H  -5.55300 32.80000 42.00600
H  -4.62000 34.26900 41.72700

