158

Mg 17.05700 52.63200 26.00400
C  18.66500 51.12900 28.70500
C  14.35400 53.27800 28.35100
C  15.13600 53.75000 23.50900
C  19.31400 51.38900 23.82900
N  16.54900 52.24100 28.22700
C  17.47600 51.66900 29.14000
C  16.93700 51.70100 30.60100
C  15.41300 52.06300 30.38900
C  15.41300 52.52600 28.91600
C  14.47700 50.84500 30.52500
C  17.77100 52.68600 31.50200
C  17.27900 52.96800 32.99000
H  16.29800 52.01800 33.70600
N  14.99400 53.60900 25.94200
C  14.11300 53.76200 27.01100
C  12.94600 54.47500 26.48200
C  13.10400 54.56900 25.08300
C  14.41300 53.91300 24.75500
C  11.83000 54.94900 27.29400
C  12.30100 55.26200 24.06100
O  12.63100 55.35800 22.86100
C  10.98300 56.14600 24.51800
N  17.13700 52.44500 24.00600
C  16.27200 53.04400 23.11600
C  16.81000 52.92800 21.67200
C  18.17200 52.25000 21.75200
C  18.22400 52.03100 23.25600
C  15.83900 52.49200 20.57400
C  19.42700 53.06300 21.08400
C  20.10000 52.37500 19.86100
N  18.65300 51.45700 26.16000
C  19.51600 51.03700 25.18800
C  20.63000 50.28500 25.79500
C  20.36900 50.40700 27.18600
C  19.16000 51.03200 27.37100
C  21.74900 49.60700 25.05700
C  20.88800 49.92900 28.46100
O  21.78900 49.15000 28.75800
C  19.78700 50.49700 29.49400
C  19.39100 49.32600 30.31300
O  18.78200 48.33900 29.86500
O  19.80700 49.46300 31.59700
C  19.42200 48.33900 32.47000
H  13.54800 53.37500 29.08100
H  14.56400 53.88300 22.58900
H  20.07900 51.20400 23.07300
H  17.09200 50.72100 31.05100
H  15.04500 52.91000 30.96700
H  15.14200 50.08000 30.92400
H  14.22800 50.42500 29.55100
H  13.62900 51.04600 31.18100
H  17.67700 53.62900 30.96300
H  18.84200 52.52000 31.62200
H  16.90500 53.99000 32.93800
H  18.10200 53.07400 33.69700
H  11.66200 56.02600 27.31800
H  11.99000 54.62200 28.32100
H  10.92400 54.55600 26.83300
H  11.29900 56.96600 25.16300
H  10.21700 55.53000 24.98800
H  10.56600 56.42100 23.54900
H  16.93200 53.97800 21.40600
H  18.19300 51.24400 21.33300
H  16.00200 53.20600 19.76700
H  14.85200 52.52400 21.03600
H  16.14300 51.50100 20.23900
H  20.17200 53.21200 21.86600
H  19.13300 54.05100 20.72900
H  21.05200 51.91600 20.12900
H  20.34300 53.12400 19.10700
H  19.53700 51.54400 19.43700
H  22.47700 49.51900 25.86300
H  22.04800 50.29200 24.26300
H  21.40000 48.66800 24.62900
H  20.36700 51.25600 30.01800
H  18.63400 47.66100 32.14400
H  18.99400 48.92300 33.28400
H  20.32500 47.87100 32.86200
Mg -10.96100 39.11200 40.18000
C  -10.17100 35.62200 39.98600
C  -7.78600 39.79600 39.17000
C  -12.03700 42.24700 39.87300
C  -14.32800 38.05900 41.02200
N  -9.21600 37.81700 39.51000
C  -9.09100 36.45200 39.55300
C  -7.68400 36.06600 39.05300
C  -6.85000 37.38700 39.23700
C  -8.02300 38.40800 39.32100
C  -5.85300 37.49800 40.41700
C  -7.59600 35.30500 37.69400
C  -7.00000 35.98500 36.51500
H  -7.79600 37.05500 35.72400
N  -10.01200 40.78900 39.54300
C  -8.69500 40.86700 39.32000
C  -8.41900 42.28700 39.20900
C  -9.56300 43.02500 39.36800
C  -10.60000 42.05000 39.60600
C  -6.98200 42.78200 38.98100
C  -9.70400 44.54100 39.44000
O  -8.69900 45.22500 39.29100
C  -10.90800 45.22300 39.73700
N  -12.98400 39.93600 40.22300
C  -13.06800 41.28900 40.09400
C  -14.50200 41.82300 40.29000
C  -15.20700 40.48800 40.94700
C  -14.17500 39.39500 40.57300
C  -14.63000 43.04300 41.18200
C  -16.66200 40.22800 40.48900
C  -17.73300 40.75000 41.37700
N  -12.03800 37.26200 40.59300
C  -13.35400 37.04100 41.02000
C  -13.50500 35.56700 41.31500
C  -12.26200 35.00100 40.86700
C  -11.42800 36.08800 40.45600
C  -14.67800 34.82500 41.90400
C  -11.55400 33.70600 40.69400
O  -11.83400 32.59100 41.02600
C  -10.26200 34.09700 39.90800
C  -9.07800 33.31100 40.47200
O  -8.66500 33.32000 41.57700
O  -8.40400 32.73800 39.41500
C  -7.34200 31.86900 39.76400
H  -6.74900 40.09400 39.00400
H  -12.39900 43.27500 39.80000
H  -15.35400 37.82900 41.31400
H  -7.26700 35.30000 39.70600
H  -6.30500 37.62400 38.32300
H  -6.04700 38.38000 41.02800
H  -4.92400 37.69300 39.88100
H  -5.74800 36.62700 41.06400
H  -8.59500 34.90500 37.51600
H  -6.99100 34.42300 37.90300
H  -6.86900 35.17200 35.80100
H  -5.98100 36.31500 36.71900
H  -7.21100 43.56700 38.26000
H  -6.40000 41.97400 38.53700
H  -6.50500 43.17000 39.88100
H  -11.29400 44.93100 40.71400
H  -11.51900 44.83100 38.92300
H  -10.84200 46.30700 39.64000
H  -15.00400 41.94300 39.33000
H  -15.31400 40.57100 42.02800
H  -15.14700 42.79500 42.10900
H  -15.21700 43.78300 40.63900
H  -13.69900 43.48200 41.54100
H  -16.76600 39.14400 40.44700
H  -16.85800 40.65800 39.50700
H  -17.32800 41.16900 42.29900
H  -18.41900 39.93100 41.58900
H  -18.28400 41.52700 40.84700
H  -14.72600 34.99100 42.98000
H  -14.49100 33.75400 41.82700
H  -15.54800 35.25100 41.40400
H  -10.51400 33.68200 38.93300
H  -6.64000 31.80100 38.93300
H  -7.84400 30.91000 39.89300
H  -6.82900 32.16000 40.68000

