158

Mg 46.45400 15.63100 27.46300
C  44.53100 15.47600 30.43900
C  48.64300 17.66800 29.05800
C  48.22200 16.03800 24.52900
C  43.93700 14.00300 25.73600
N  46.56200 16.46600 29.50300
C  45.69100 16.31500 30.59600
C  46.24000 16.95600 31.83300
C  47.48400 17.82300 31.30600
C  47.58000 17.28800 29.89300
C  47.29200 19.31700 31.25400
C  46.56200 15.91900 32.97200
C  46.04200 16.27400 34.37000
H  46.97900 15.96900 35.53300
N  48.32200 16.48900 26.94700
C  49.01000 17.40600 27.73800
C  50.17200 17.80900 27.04300
C  50.11500 17.31500 25.76100
C  48.88600 16.49800 25.71000
C  51.29500 18.68500 27.67000
C  51.04000 17.42400 24.47200
O  50.90000 16.72600 23.51200
C  52.26800 18.26400 24.50200
N  46.14100 15.09600 25.37100
C  46.98900 15.32000 24.32400
C  46.45900 14.71900 23.01500
C  45.24200 13.84900 23.51800
C  45.12900 14.24000 24.96700
C  46.18000 15.70900 21.95300
C  45.40100 12.31300 23.29500
C  46.56100 11.68700 24.11300
N  44.60600 14.97300 27.92600
C  43.70300 14.28000 27.11100
C  42.53400 13.86300 27.92100
C  42.88500 14.37400 29.20700
C  44.11900 15.01000 29.15900
C  41.27600 13.28500 27.45900
C  42.29600 14.58100 30.49600
O  41.17000 14.33900 30.85100
C  43.36000 15.22900 31.40700
C  42.85700 16.51700 32.03500
O  42.89500 17.62400 31.46900
O  42.35000 16.37200 33.32700
C  42.36200 17.57700 34.11600
H  49.27900 18.46200 29.45500
H  48.69500 16.49600 23.65800
H  43.17500 13.32700 25.34300
H  45.51200 17.60800 32.31600
H  48.35200 17.64600 31.94100
H  46.39100 19.57300 31.81200
H  47.20200 19.68900 30.23300
H  48.22600 19.70900 31.65600
H  47.64100 15.77100 33.00500
H  46.05300 14.98400 32.73700
H  45.13100 15.75700 34.66900
H  45.77100 17.32100 34.50900
H  51.03400 19.68400 28.01800
H  52.16700 18.65900 27.01700
H  51.60400 18.12600 28.55400
H  52.82800 18.25700 23.56700
H  52.81900 17.72200 25.27000
H  52.00900 19.27600 24.81400
H  47.27400 14.06200 22.70900
H  44.37400 14.16100 22.93800
H  45.98800 16.67700 22.41500
H  45.31100 15.45000 21.35000
H  46.99700 15.76300 21.23300
H  45.53400 12.20900 22.21800
H  44.50800 11.75200 23.57000
H  47.35100 11.38500 23.42600
H  46.14800 10.95700 24.80900
H  46.99000 12.48700 24.71600
H  41.27100 13.53800 26.39900
H  40.55300 13.87400 28.02500
H  41.11700 12.23000 27.68000
H  43.59800 14.60300 32.26700
H  41.71400 18.34800 33.69800
H  43.36900 17.98700 34.18600
H  41.94600 17.28700 35.08100
Mg 26.31800 51.73600 25.72300
C  23.89000 52.49500 28.21100
C  28.51900 51.19000 28.31200
C  28.80300 51.63400 23.48800
C  24.12600 52.52300 23.30400
N  26.27200 52.14000 28.00600
C  25.14000 52.21700 28.77900
C  25.43300 52.09600 30.27700
C  26.97700 51.82600 30.33200
C  27.32700 51.74800 28.78500
C  27.90300 52.59300 31.32600
C  24.46500 51.17600 31.07100
C  24.99900 50.33300 32.31900
H  24.20200 50.23000 33.57000
N  28.28300 51.39600 25.85800
C  29.01200 51.18600 27.02600
C  30.37300 50.91300 26.64500
C  30.54600 50.99000 25.22700
C  29.19000 51.39200 24.79400
C  31.41900 50.47600 27.60800
C  31.77200 50.89000 24.33800
O  31.77700 50.92700 23.12600
C  33.20400 50.77800 24.95900
N  26.41900 52.00400 23.69700
C  27.54700 51.86500 22.94800
C  27.29200 52.05600 21.48000
C  25.72400 52.18300 21.40500
C  25.41200 52.25300 22.88600
C  28.15000 53.20700 20.87400
C  25.03500 51.19000 20.51000
C  23.70500 51.67900 19.85500
N  24.47500 52.47000 25.72700
C  23.62000 52.69800 24.64600
C  22.35300 53.12000 25.05900
C  22.41200 53.04900 26.45000
C  23.73100 52.65400 26.82200
C  21.13200 53.51000 24.24000
C  21.60300 53.18600 27.65200
O  20.45200 53.57100 27.80200
C  22.56000 52.82500 28.85600
C  22.66400 53.96300 29.73800
O  23.30800 54.96000 29.48000
O  21.90500 53.80400 30.84700
C  21.99400 54.89700 31.85600
H  29.20200 50.99300 29.14100
H  29.43800 51.44600 22.62000
H  23.37300 52.68400 22.53000
H  25.22400 53.06900 30.72200
H  27.10600 50.78500 30.62600
H  28.57400 53.24000 30.76000
H  28.50400 51.85100 31.85000
H  27.38000 53.19300 32.07100
H  24.20100 50.37800 30.37700
H  23.49000 51.59200 31.32600
H  25.78800 51.03500 32.59200
H  25.49500 49.37200 32.18600
H  31.77200 49.47700 27.35400
H  31.09100 50.46500 28.64800
H  32.34200 51.05600 27.60700
H  33.98500 50.94000 24.21600
H  33.26100 49.78100 25.39500
H  33.27700 51.56800 25.70600
H  27.58300 51.11900 21.00500
H  25.52000 53.19500 21.05400
H  27.47200 54.02000 20.61000
H  28.75400 52.82500 20.05100
H  28.84200 53.75000 21.51700
H  24.58500 50.45300 21.17400
H  25.65200 50.74400 19.73000
H  23.56700 51.35600 18.82300
H  23.65900 52.76800 19.81300
H  22.77900 51.53900 20.41200
H  20.20600 53.06200 24.60000
H  21.11800 53.17600 23.20200
H  20.86900 54.56500 24.16800
H  22.17200 52.01400 29.47400
H  21.78800 54.41700 32.81300
H  21.24900 55.64800 31.59200
H  22.96900 55.38500 31.83900

