158

Mg 1.51600 7.50900 25.12400
C  2.01700 9.42500 28.03300
C  1.64000 4.61400 27.15500
C  1.05000 5.75600 22.38500
C  2.13000 10.37100 23.20100
N  1.95800 7.06800 27.27900
C  1.91300 8.01200 28.31500
C  1.91700 7.46800 29.70600
C  2.13000 5.95100 29.30400
C  1.82400 5.85700 27.83200
C  3.57900 5.33900 29.58600
C  0.60500 7.63000 30.51800
C  0.29100 6.77700 31.77200
H  1.50500 6.22500 32.51400
N  1.37000 5.44100 24.88100
C  1.46300 4.48000 25.72300
C  1.45300 3.19700 25.01300
C  1.28300 3.46900 23.64300
C  1.18100 4.94500 23.60900
C  1.51800 1.80300 25.66800
C  1.13400 2.56900 22.44000
O  0.97600 2.97500 21.26800
C  1.16000 1.09600 22.49000
N  1.70200 8.02200 23.06400
C  1.21400 7.08800 22.15800
C  1.14900 7.78000 20.73300
C  1.42800 9.31900 21.00600
C  1.80100 9.27200 22.53000
C  2.11300 7.18900 19.66200
C  0.12600 10.13200 20.77100
C  0.27500 11.45000 20.04900
N  2.01100 9.49600 25.48800
C  2.20400 10.58900 24.62000
C  2.34400 11.74400 25.42900
C  2.32700 11.35600 26.74900
C  2.15300 9.94900 26.73400
C  2.40700 13.18400 24.96000
C  2.49200 11.83200 28.07700
O  2.65200 12.92800 28.49800
C  2.25100 10.61100 29.00200
C  3.36800 10.67600 29.98500
O  4.48400 10.28200 29.78300
O  2.94800 11.34300 31.13200
C  3.86300 11.55100 32.20400
H  1.79500 3.75100 27.80600
H  0.80000 5.32100 21.41500
H  2.21900 11.23900 22.54300
H  2.83600 7.84400 30.15500
H  1.42000 5.31800 29.83800
H  4.18900 5.71700 30.40600
H  4.19500 5.26700 28.68900
H  3.59800 4.30200 29.92200
H  -0.16900 7.57800 29.75300
H  0.50600 8.68700 30.76700
H  -0.40200 6.00300 31.44300
H  -0.18700 7.33900 32.57400
H  0.55800 1.36200 25.93500
H  2.08600 1.89500 26.59400
H  2.15200 1.20900 25.01000
H  0.54300 0.71400 23.30400
H  2.17500 0.70000 22.45200
H  0.65000 0.81100 21.57000
H  0.12700 7.58500 20.40800
H  2.22700 9.71700 20.38000
H  2.97400 7.85700 19.68600
H  1.54200 7.25600 18.73600
H  2.38100 6.15600 19.88700
H  -0.30500 10.40100 21.73500
H  -0.54700 9.55300 20.13800
H  0.35600 11.29000 18.97400
H  1.23700 11.84100 20.38200
H  -0.56800 12.12100 20.20800
H  1.41500 13.44500 24.59100
H  3.14600 13.07300 24.16600
H  2.95400 13.92000 25.55000
H  1.29800 10.84600 29.47700
H  4.81100 11.93500 31.82900
H  4.04600 10.56300 32.62500
H  3.55100 12.23100 32.99600
Mg 17.09100 -2.32600 27.17900
C  16.17700 -0.36700 29.85900
C  18.94200 -4.26200 29.31600
C  18.36000 -3.90400 24.48500
C  15.73100 0.02300 25.00100
N  17.43800 -2.34200 29.44600
C  16.97100 -1.45100 30.31400
C  17.35000 -1.84700 31.69100
C  18.51000 -2.97400 31.49900
C  18.28900 -3.22200 30.02700
C  19.96600 -2.58000 31.98200
C  16.20600 -2.30700 32.59500
C  16.19800 -1.66000 33.99400
H  17.40300 -1.05600 34.63900
N  18.29800 -3.93400 26.92500
C  18.99400 -4.61300 27.93100
C  19.83100 -5.70200 27.31000
C  19.56700 -5.62700 25.89400
C  18.69300 -4.47000 25.71100
C  20.62900 -6.66100 28.09900
C  20.17600 -6.54200 24.76100
O  19.99300 -6.29300 23.54600
C  21.08700 -7.73700 25.15200
N  16.85500 -2.11200 25.03400
C  17.59100 -2.82000 24.14300
C  17.74300 -2.14100 22.79000
C  16.55900 -1.09600 22.87700
C  16.31800 -1.04300 24.37800
C  19.13800 -1.50100 22.44800
C  15.24700 -1.46600 22.14600
C  14.93100 -0.49200 21.02100
N  15.93600 -0.59400 27.27800
C  15.52600 0.31900 26.36100
C  14.86000 1.41800 27.00900
C  15.10100 1.23900 28.35600
C  15.74100 -0.04400 28.47600
C  14.23900 2.64700 26.30400
C  14.89400 1.83200 29.68300
O  14.25200 2.82000 29.99000
C  15.52600 0.81700 30.64100
C  16.41800 1.52900 31.56500
O  17.62200 1.64000 31.32500
O  15.81000 2.06000 32.65000
C  16.72300 2.96800 33.44300
H  19.56800 -4.84600 29.99400
H  18.78300 -4.36100 23.58800
H  15.37700 0.76700 24.28400
H  17.80000 -0.91600 32.03700
H  18.23800 -3.86800 32.06000
H  19.97400 -1.56900 32.38900
H  20.73600 -2.83200 31.25400
H  20.07000 -3.16600 32.89600
H  16.22900 -3.38100 32.78300
H  15.30400 -1.98900 32.07300
H  15.94100 -2.43600 34.71500
H  15.36600 -0.96000 34.06000
H  20.82200 -6.25800 29.09300
H  21.56200 -6.92600 27.60200
H  20.00900 -7.55100 28.20700
H  20.37500 -8.33200 25.72400
H  22.00300 -7.51600 25.70000
H  21.43800 -8.30200 24.28800
H  17.44400 -2.98000 22.16200
H  16.92400 -0.12800 22.53400
H  20.03500 -2.05100 22.73100
H  19.30800 -0.55000 22.95300
H  19.07200 -1.58700 21.36300
H  14.37800 -1.57000 22.79600
H  15.37700 -2.45800 21.71300
H  13.98000 -0.01800 21.26300
H  14.70700 -1.13400 20.16900
H  15.69200 0.26200 20.82000
H  13.23500 2.35100 25.99900
H  14.85100 2.91600 25.44300
H  14.07300 3.43700 27.03600
H  14.84600 0.37400 31.36700
H  16.22600 3.14600 34.39700
H  16.71800 3.88800 32.85900
H  17.74800 2.61400 33.55600

