158

Mg -0.96800 17.80700 27.37000
C  -1.85900 15.56600 29.85100
C  -1.84000 20.37000 29.37900
C  -0.85500 19.67800 24.60900
C  -0.62900 14.90900 25.15200
N  -1.72800 17.92200 29.44600
C  -1.79400 16.88100 30.32700
C  -2.22000 17.41100 31.75700
C  -2.14000 19.00800 31.53500
C  -1.87700 19.16500 30.00600
C  -3.44400 19.72900 32.02000
C  -1.63200 16.96000 33.07900
C  -2.56200 16.85600 34.31500
H  -1.96100 16.29200 35.58300
N  -1.23000 19.75800 27.00200
C  -1.45900 20.67100 28.00000
C  -1.40700 21.98800 27.45600
C  -1.31500 21.81500 25.99400
C  -1.13300 20.33700 25.79800
C  -1.37700 23.23100 28.31000
C  -1.17200 22.85400 24.84700
O  -1.01500 22.58200 23.65500
C  -1.08000 24.30000 25.29700
N  -0.80000 17.27900 25.18400
C  -0.67000 18.28500 24.26200
C  -0.64000 17.76200 22.84000
C  -0.21300 16.30800 23.05700
C  -0.57500 16.15500 24.54400
C  -1.92300 18.05400 21.99000
C  1.27500 15.97900 22.72200
C  2.42600 16.24600 23.71300
N  -1.15900 15.73700 27.39300
C  -0.97100 14.69200 26.46000
C  -1.25000 13.46100 27.09700
C  -1.66700 13.71300 28.38500
C  -1.55100 15.14300 28.54600
C  -1.27900 12.13100 26.44700
C  -2.06400 13.14100 29.66500
O  -2.05400 11.95700 30.04800
C  -2.30000 14.36100 30.63200
C  -1.44000 14.01600 31.91200
O  -0.21700 14.18200 32.05200
O  -2.26500 13.37400 32.87200
C  -1.45200 12.79600 33.96400
H  -1.84400 21.14500 30.14800
H  -0.88200 20.27500 23.69500
H  -0.30300 14.12700 24.46300
H  -3.23800 17.02200 31.80100
H  -1.29300 19.46300 32.04700
H  -3.15800 20.59800 32.61400
H  -4.08400 19.09600 32.63500
H  -4.11200 20.08500 31.23600
H  -0.95300 17.77600 33.32400
H  -1.01100 16.06400 33.10900
H  -3.21000 16.03000 34.02200
H  -3.12300 17.78100 34.44900
H  -0.54100 23.90700 28.13200
H  -1.37300 23.10700 29.39300
H  -2.32200 23.74800 28.14800
H  -1.00300 24.96700 24.43900
H  -0.11500 24.57500 25.72300
H  -1.91000 24.68600 25.88900
H  0.21700 18.19400 22.32400
H  -0.76500 15.57900 22.46400
H  -2.32100 17.07400 21.72800
H  -1.68600 18.64800 21.10700
H  -2.70200 18.59100 22.53200
H  1.61900 16.60100 21.89600
H  1.42800 14.93100 22.46300
H  2.06400 16.71600 24.62700
H  3.24600 16.87700 23.37000
H  2.93300 15.29500 23.87700
H  -0.71400 11.43700 27.06900
H  -0.83300 12.04800 25.45500
H  -2.31500 11.79300 26.46500
H  -3.37900 14.37400 30.78700
H  -0.53100 13.29500 34.26700
H  -1.21300 11.77000 33.68600
H  -2.08800 12.62400 34.83200
Mg -1.48900 34.84800 26.73800
C  -3.37300 33.16500 29.39800
C  0.02100 36.69200 29.04300
C  -0.37500 36.65200 24.17000
C  -3.30300 32.80800 24.45500
N  -1.70000 34.86800 28.96900
C  -2.43500 34.13700 29.81300
C  -2.17200 34.47100 31.32400
C  -1.11000 35.69700 31.13100
C  -0.86500 35.70900 29.58500
C  -1.39600 37.04800 31.84600
C  -1.52900 33.25100 32.15400
C  -2.41900 32.82300 33.35400
H  -1.64400 32.37900 34.57200
N  -0.37000 36.37200 26.62500
C  0.23000 37.02100 27.69400
C  1.05400 38.12000 27.18300
C  0.88500 38.17300 25.77500
C  -0.00900 37.06400 25.48000
C  1.78300 39.10700 28.08500
C  1.44400 39.19600 24.77800
O  1.02000 39.20300 23.62500
C  2.61700 39.94500 25.12400
N  -1.88200 34.77300 24.53500
C  -1.22600 35.60600 23.74000
C  -1.39600 35.15600 22.29200
C  -2.22300 33.81900 22.32500
C  -2.43000 33.72200 23.85400
C  -1.93600 36.23900 21.27800
C  -1.48000 32.57300 21.67400
C  -0.37800 31.94500 22.41600
N  -3.03800 33.37600 26.82600
C  -3.59600 32.63000 25.81500
C  -4.41500 31.53800 26.42200
C  -4.27900 31.79100 27.77900
C  -3.48500 32.88700 27.98700
C  -4.95300 30.40600 25.57400
C  -4.71800 31.16500 29.00100
O  -5.35800 30.12900 29.13800
C  -4.18900 32.06900 30.16900
C  -5.36300 32.60400 30.88800
O  -6.23800 33.27500 30.42200
O  -5.33800 32.24800 32.19700
C  -6.49500 32.47300 33.08300
H  0.42400 37.18800 29.92900
H  0.02000 37.20000 23.31200
H  -3.71000 32.13600 23.69600
H  -3.09200 34.90800 31.71100
H  -0.17200 35.38200 31.58800
H  -0.50400 37.42300 32.34800
H  -2.20700 36.94900 32.56900
H  -1.69900 37.71600 31.04000
H  -0.51400 33.51100 32.45500
H  -1.39900 32.39400 31.49300
H  -2.88700 31.84900 33.20500
H  -3.13500 33.61400 33.57700
H  1.35800 40.08000 27.83700
H  2.85600 38.98900 27.93900
H  1.53400 38.89400 29.12500
H  2.33700 40.68800 25.87100
H  3.04700 40.41100 24.23800
H  3.32900 39.22000 25.51700
H  -0.32800 35.04200 22.10800
H  -3.21800 33.98700 21.91200
H  -1.38400 36.25000 20.33800
H  -1.90100 37.20300 21.78400
H  -2.98400 35.98700 21.11600
H  -1.19100 32.90600 20.67700
H  -2.26000 31.83000 21.50600
H  -0.13900 32.56300 23.28100
H  0.36500 31.71900 21.65100
H  -0.70000 30.99600 22.84300
H  -4.35700 30.18400 24.68900
H  -5.84900 30.70800 25.03100
H  -4.95100 29.54900 26.24700
H  -3.57700 31.39400 30.76700
H  -7.24900 33.16800 32.71300
H  -6.07200 32.66300 34.06900
H  -7.00800 31.52200 33.22400

