158

Mg 25.67300 -0.24000 28.64600
C  27.51700 -0.68000 31.58100
C  22.76800 -0.38600 30.52200
C  23.92800 -0.31100 25.77700
C  28.62400 -0.48800 26.87200
N  25.25700 -0.72500 30.88600
C  26.11100 -0.57700 31.82700
C  25.50300 -0.23900 33.20000
C  24.01700 -0.16000 32.86800
C  23.95300 -0.49800 31.27900
C  23.02500 -1.00700 33.61000
C  26.15700 1.08200 33.86800
C  26.78800 0.93200 35.24400
H  26.32600 1.86300 36.33800
N  23.67900 -0.34800 28.20800
C  22.65600 -0.29500 29.14300
C  21.35300 -0.01200 28.42400
C  21.70100 -0.06700 26.98800
C  23.14800 -0.30300 26.92900
C  20.08200 0.23400 29.18000
C  20.77300 0.12100 25.80500
O  21.11200 0.07400 24.62100
C  19.26900 0.20800 25.95600
N  26.20000 -0.61000 26.60400
C  25.26400 -0.32300 25.63400
C  25.96200 -0.13500 24.27100
C  27.41900 -0.01100 24.62200
C  27.44700 -0.44200 26.14500
C  25.58000 -1.14000 23.15200
C  27.98300 1.45500 24.45200
C  29.51900 1.57900 24.32700
N  27.70300 -0.68500 29.11000
C  28.75900 -0.74900 28.25900
C  29.95100 -1.04100 29.08600
C  29.52700 -0.96300 30.40900
C  28.10900 -0.76300 30.34100
C  31.40200 -1.22400 28.60200
C  29.95000 -1.06300 31.77100
O  31.04400 -1.25800 32.23000
C  28.68300 -0.74100 32.50700
C  28.46700 -1.71900 33.57600
O  27.91800 -2.80400 33.42300
O  29.02300 -1.30500 34.78400
C  28.75500 -2.21300 35.92800
H  21.86300 -0.14000 31.08100
H  23.35100 -0.23200 24.85300
H  29.61200 -0.41400 26.41300
H  25.75200 -1.15400 33.73700
H  23.53200 0.81400 32.80900
H  22.88900 -0.45400 34.54000
H  23.59000 -1.91800 33.80600
H  22.08900 -1.32600 33.15200
H  25.43600 1.89800 33.91300
H  26.90800 1.46100 33.17400
H  27.80600 1.16200 34.92700
H  26.79900 -0.10300 35.58700
H  19.85600 1.26900 29.43700
H  19.99600 -0.45600 30.01900
H  19.20100 -0.01300 28.58800
H  19.03200 1.06300 26.58900
H  18.90300 -0.72900 26.37600
H  18.86600 0.23800 24.94400
H  25.55100 0.81000 23.91500
H  28.01000 -0.78500 24.13200
H  26.39400 -1.77000 22.79300
H  25.14100 -0.59900 22.31400
H  24.78000 -1.84100 23.39100
H  27.57100 2.03600 25.27700
H  27.44800 1.85700 23.59300
H  29.85900 2.27900 25.09000
H  29.80200 1.92100 23.33200
H  30.02100 0.62700 24.50200
H  31.28000 -2.11800 27.99100
H  31.96100 -1.44900 29.50900
H  31.77600 -0.38100 28.02000
H  28.77600 0.22300 33.00800
H  27.92300 -1.96800 36.58800
H  29.62900 -2.22600 36.57800
H  28.70200 -3.26300 35.63900
Mg 46.85200 46.48000 43.91000
C  43.51900 46.40200 43.04500
C  47.19100 43.35200 42.30600
C  50.08700 46.64700 44.43200
C  46.49500 49.96900 44.39200
N  45.60700 45.23500 42.68600
C  44.21400 45.26900 42.64000
C  43.67700 44.25700 41.62800
C  44.79100 43.19200 41.68800
C  46.00500 43.98800 42.22200
C  44.33600 41.93500 42.56100
C  43.34000 44.91400 40.20300
C  42.05500 44.48900 39.56400
H  42.22900 43.42200 38.50500
N  48.40900 45.12800 43.48200
C  48.40900 43.90600 42.78200
C  49.74100 43.35500 42.75600
C  50.61500 44.31600 43.31200
C  49.70500 45.41100 43.80900
C  50.08200 41.97100 42.02000
C  52.11100 44.17100 43.50700
O  52.66300 43.19000 43.10900
C  52.95100 45.37400 43.95000
N  48.08600 48.09400 44.27100
C  49.43900 47.87300 44.60200
C  50.12700 49.24300 45.05200
C  48.95800 50.28100 44.80200
C  47.73800 49.41000 44.45900
C  50.60500 49.27200 46.50200
C  49.25400 51.29700 43.66600
C  49.02800 50.90600 42.18600
N  45.24900 48.00500 43.92600
C  45.26900 49.36600 44.06800
C  43.89700 49.81400 44.05800
C  43.15400 48.68800 43.66500
C  44.01400 47.61900 43.56200
C  43.48900 51.24100 44.23200
C  41.88700 48.16900 43.26900
O  40.89600 48.76700 43.06600
C  42.01400 46.68900 42.95000
C  41.05800 45.88500 43.74600
O  40.03200 45.49400 43.29500
O  41.46000 45.76400 45.06400
C  40.57100 44.99200 45.93900
H  47.25400 42.37500 41.82300
H  51.08800 46.71800 44.86200
H  46.46600 51.04100 44.59500
H  42.71400 43.86600 41.95700
H  45.09900 42.75300 40.74000
H  44.43200 41.01100 41.99100
H  43.29900 41.94700 42.89700
H  44.88700 41.97900 43.50100
H  44.06500 44.56300 39.46800
H  43.43700 45.99600 40.28800
H  41.58800 45.32900 39.04900
H  41.32100 44.07200 40.25400
H  49.18500 41.44700 41.69000
H  50.62300 41.27100 42.65800
H  50.70400 42.28000 41.18000
H  52.75000 46.27100 43.36400
H  54.00300 45.09100 43.96900
H  52.65500 45.55700 44.98300
H  51.00100 49.48900 44.44900
H  48.67100 50.87100 45.67300
H  51.67500 49.47900 46.49700
H  50.42400 48.33600 47.03100
H  50.14300 50.06200 47.09400
H  50.15500 51.91000 43.69300
H  48.52100 52.09400 43.78400
H  47.97800 50.74600 41.94300
H  49.58600 49.99200 41.98400
H  49.41700 51.69200 41.53800
H  44.29900 51.96900 44.20500
H  42.88600 51.29200 45.13800
H  42.97400 51.41600 43.28700
H  41.67800 46.55000 41.92300
H  40.86400 45.34300 46.92800
H  40.77200 43.93000 46.07500
H  39.52500 45.06600 45.64400

