158

Mg 16.93400 53.48200 26.97600
C  19.04800 51.78200 29.33900
C  14.85400 54.14200 29.40800
C  14.85300 54.96800 24.62200
C  19.12200 52.46000 24.36000
N  16.86500 52.85400 29.02600
C  17.81400 52.28400 29.76600
C  17.38100 52.16600 31.20900
C  15.89700 52.54900 31.17100
C  15.84700 53.24100 29.79700
C  14.85000 51.40100 31.20500
C  18.29700 53.17700 32.08500
C  18.25800 53.10100 33.58800
H  17.23400 52.14200 34.17600
N  15.21000 54.55200 27.05600
C  14.50800 54.73500 28.19600
C  13.44800 55.66000 27.94900
C  13.38400 55.87000 26.53000
C  14.58800 55.14800 26.01000
C  12.47100 56.21200 29.03700
C  12.56200 56.72100 25.66300
O  12.70000 56.85000 24.51500
C  11.56500 57.59800 26.26600
N  16.96800 53.71900 24.79600
C  15.99500 54.37100 24.04700
C  16.24700 54.25300 22.52800
C  17.77900 53.73400 22.53700
C  17.98600 53.25500 23.96800
C  15.13900 53.33800 21.89400
C  18.88200 54.63600 21.78700
C  20.19400 54.91100 22.57800
N  18.79500 52.33500 26.74500
C  19.53700 52.05400 25.64100
C  20.78000 51.35700 26.19300
C  20.61400 51.26900 27.58500
C  19.38900 51.84500 27.93300
C  21.84900 50.78300 25.35500
C  21.24500 50.69700 28.84500
O  22.34400 50.22300 29.10800
C  20.28600 51.15800 30.00300
C  19.81000 50.02400 30.83300
O  19.09000 49.15300 30.33900
O  20.23700 50.04900 32.11900
C  19.85700 48.93200 32.99200
H  14.14400 54.33600 30.21400
H  14.12800 55.34400 23.89700
H  19.83200 52.04800 23.64100
H  17.45700 51.10900 31.46700
H  15.71500 53.25500 31.98100
H  14.72800 50.91500 32.17300
H  15.21200 50.69600 30.45600
H  13.84900 51.75800 30.96400
H  18.07900 54.19400 31.75700
H  19.34600 52.98200 31.86200
H  18.00500 54.14800 33.75300
H  19.25900 52.98300 34.00300
H  12.88200 55.98200 30.02100
H  11.51900 55.73000 28.81500
H  12.25900 57.27800 28.96100
H  12.17900 58.40700 26.66200
H  10.97600 57.09600 27.03300
H  10.91700 58.02300 25.50000
H  16.21600 55.22400 22.03300
H  17.79800 52.80000 21.97600
H  15.55200 52.46500 21.38800
H  14.62800 53.89600 21.10900
H  14.30500 52.96100 22.48600
H  18.36600 55.46000 21.29500
H  18.97700 53.97700 20.92400
H  19.99400 55.12700 23.62700
H  20.84400 55.68300 22.16400
H  20.80400 54.01500 22.46900
H  22.44100 49.96800 25.77000
H  22.47400 51.57300 24.93900
H  21.31000 50.35300 24.51100
H  20.73300 51.92900 30.63100
H  20.43100 48.85500 33.91600
H  20.05800 48.00600 32.45300
H  18.80000 48.93600 33.25700
Mg -11.01100 17.19700 41.24600
C  -7.47300 16.75900 41.60400
C  -10.30600 20.43800 40.67600
C  -14.11400 17.50500 40.47400
C  -11.26300 13.59000 41.44900
N  -9.10600 18.44300 41.09900
C  -7.80900 18.12600 41.34800
C  -6.84800 19.35500 41.21000
C  -7.86000 20.51900 41.44400
C  -9.20100 19.78500 41.01100
C  -7.95100 21.01500 42.93900
C  -6.15100 19.42700 39.78500
C  -4.68700 19.28700 39.83700
H  -4.10600 18.47200 38.68100
N  -12.09100 18.73100 40.51700
C  -11.60300 19.99000 40.38100
C  -12.71800 20.79100 39.95900
C  -13.90400 20.05900 39.86800
C  -13.44400 18.72800 40.31300
C  -12.54600 22.26100 39.67200
C  -15.29100 20.47100 39.37100
O  -15.55500 21.61000 38.97200
C  -16.47200 19.52200 39.47900
N  -12.34900 15.68400 40.75600
C  -13.63500 16.22800 40.80100
C  -14.61700 15.07900 40.90000
C  -13.79500 13.80900 41.20900
C  -12.34700 14.34700 41.15500
C  -15.81100 15.33800 41.81800
C  -14.01700 12.61000 40.18400
C  -14.70500 11.31200 40.67700
N  -9.73700 15.48900 41.61800
C  -10.01200 14.14200 41.64100
C  -8.77100 13.44300 41.93200
C  -7.68900 14.37400 41.96000
C  -8.34100 15.61800 41.73700
C  -8.75700 11.85900 42.19200
C  -6.28500 14.63700 42.17100
O  -5.37200 13.89000 42.48300
C  -6.06300 16.18200 41.89200
C  -5.36600 16.71200 43.13800
O  -4.14900 16.98700 43.21500
O  -6.18100 16.72800 44.26600
C  -5.61700 16.92500 45.58300
H  -10.11700 21.51100 40.76200
H  -15.18400 17.45100 40.26400
H  -11.56700 12.55000 41.59000
H  -6.17000 19.18800 42.04700
H  -7.46300 21.33300 40.83700
H  -7.38100 20.25900 43.48000
H  -8.96700 21.15700 43.30700
H  -7.43900 21.96000 43.11500
H  -6.25000 20.44900 39.42200
H  -6.49900 18.75300 39.00200
H  -4.32000 18.81100 40.74500
H  -4.09400 20.19600 39.93500
H  -12.28000 22.30100 38.61500
H  -11.75500 22.72700 40.25900
H  -13.50900 22.75300 39.80800
H  -16.31000 18.61200 38.90200
H  -17.31100 20.03500 39.00800
H  -16.55100 19.33400 40.55000
H  -15.17000 15.13200 39.96200
H  -13.96900 13.52100 42.24600
H  -16.24000 14.33600 41.82000
H  -16.48600 16.05800 41.35700
H  -15.54000 15.85700 42.73800
H  -13.07500 12.26600 39.75700
H  -14.56700 13.01700 39.33500
H  -14.70000 11.34600 41.76700
H  -14.10600 10.42700 40.46400
H  -15.77100 11.28000 40.45200
H  -8.35400 11.29400 41.35100
H  -9.71700 11.45900 42.51600
H  -8.04100 11.67600 42.99300
H  -5.29200 16.25400 41.12500
H  -6.41000 16.91300 46.33200
H  -5.27300 17.95900 45.57800
H  -4.84600 16.16800 45.72600

