158

Mg 41.39700 41.23000 27.27100
C  40.49900 43.71000 29.60500
C  42.56800 39.33200 29.81300
C  42.31700 38.91400 25.04000
C  40.88700 43.54300 24.70300
N  41.53600 41.49000 29.46600
C  40.98500 42.51500 30.23900
C  41.06800 42.23000 31.77900
C  41.87500 40.92800 31.81600
C  42.08800 40.55700 30.27800
C  43.18200 40.76100 32.68200
C  39.65200 42.10500 32.49400
C  39.48500 43.03800 33.76400
H  38.76800 42.35600 34.97200
N  42.27300 39.38000 27.43900
C  42.62800 38.74500 28.57500
C  42.91000 37.40100 28.29900
C  42.88600 37.20500 26.90100
C  42.44700 38.49000 26.38400
C  43.14800 36.42500 29.38900
C  43.29900 35.96200 26.10300
O  43.44700 35.98100 24.86000
C  43.76100 34.66600 26.78300
N  41.53400 41.15800 25.10300
C  41.81400 40.07500 24.40600
C  41.59100 40.39300 22.94000
C  41.07000 41.82200 22.93000
C  41.11000 42.22000 24.35600
C  42.75500 40.01100 21.94500
C  39.61500 41.99100 22.30100
C  38.43900 41.28500 23.03800
N  40.83700 43.21400 27.10000
C  40.78700 44.00800 25.99800
C  40.36200 45.35000 26.43900
C  40.24600 45.26000 27.86900
C  40.57300 43.94900 28.20600
C  40.12400 46.52300 25.53900
C  40.02000 46.02000 29.09100
O  39.80700 47.17300 29.29900
C  40.10400 44.94700 30.23700
C  41.09200 45.42800 31.19500
O  42.29200 45.42200 31.06800
O  40.45000 45.72100 32.34000
C  41.33000 46.25300 33.36500
H  42.69400 38.72900 30.71400
H  42.53600 38.07800 24.37300
H  40.73100 44.23500 23.87200
H  41.64000 43.00100 32.29500
H  41.15400 40.19800 32.18400
H  42.94400 40.14300 33.54800
H  43.40600 41.75000 33.08200
H  44.03600 40.33700 32.15400
H  39.44300 41.08700 32.82200
H  38.94100 42.48100 31.75800
H  38.96900 43.90400 33.34700
H  40.44900 43.39900 34.12100
H  42.51800 35.54200 29.28200
H  43.03900 36.75300 30.42300
H  44.13400 36.00500 29.19400
H  43.02800 34.28300 27.49300
H  44.74800 34.64500 27.24500
H  43.55800 33.97400 25.96600
H  40.71400 39.75900 22.81100
H  41.76900 42.42700 22.35300
H  43.71400 39.90600 22.45300
H  42.82000 40.64200 21.05900
H  42.48900 39.06300 21.47700
H  39.62900 41.57800 21.29300
H  39.51000 43.06400 22.13900
H  38.82800 41.04300 24.02700
H  38.10200 40.36600 22.55900
H  37.52300 41.82600 23.27400
H  40.63700 46.39500 24.58600
H  40.50300 47.38300 26.09100
H  39.06900 46.74000 25.37100
H  39.15800 44.77000 30.74900
H  42.28000 46.62700 32.98400
H  41.51600 45.50100 34.13300
H  40.74500 47.05400 33.81700
Mg 6.06700 55.63200 39.35500
C  5.41500 52.23300 39.77900
C  9.47000 55.03500 38.61800
C  6.45200 58.83900 38.06600
C  2.56500 56.31700 39.60400
N  7.15000 53.82800 38.98000
C  6.72900 52.53500 39.38600
C  7.93600 51.57000 39.19600
C  9.18600 52.53400 39.25900
C  8.57200 53.91900 38.94500
C  10.02300 52.49700 40.56600
C  7.86400 50.67000 37.95700
C  7.53400 51.31200 36.57000
H  6.08100 51.02500 36.12300
N  7.73700 56.75700 38.49800
C  9.04100 56.33900 38.33600
C  9.86600 57.43900 37.96700
C  8.98900 58.53700 37.69700
C  7.62400 58.06500 38.03700
C  11.42800 57.32800 37.84800
C  9.43700 59.94500 37.42100
O  10.57800 60.15600 37.05800
C  8.54300 61.13800 37.42500
N  4.67200 57.29900 38.87000
C  5.15100 58.46800 38.43400
C  3.99900 59.57500 38.41200
C  2.78100 58.67700 38.73300
C  3.40700 57.39900 39.24400
C  4.16400 60.69000 39.41300
C  1.89000 58.49300 37.44600
C  1.10700 59.76800 37.08100
N  4.28500 54.57000 39.67200
C  2.95300 54.95800 39.80700
C  2.14700 53.82900 40.23600
C  3.06000 52.75600 40.32300
C  4.31700 53.21000 39.90600
C  0.72100 53.76800 40.45700
C  3.18000 51.30100 40.62400
O  2.49000 50.42200 41.11400
C  4.67900 50.89000 40.20600
C  4.58100 49.90600 39.19300
O  3.75900 50.00600 38.27400
O  5.36000 48.77900 39.50400
C  4.96800 47.64000 38.73400
H  10.47500 54.66300 38.40700
H  6.49800 59.83100 37.61100
H  1.49400 56.51900 39.68300
H  7.91100 50.93500 40.08100
H  9.90000 52.21400 38.50000
H  9.71200 51.85500 41.39000
H  10.15900 53.51900 40.91900
H  10.99800 52.09800 40.28500
H  7.09100 49.93000 38.16200
H  8.78900 50.09900 37.87700
H  8.35900 51.03200 35.91500
H  7.62200 52.39900 36.56700
H  11.60400 57.33300 36.77300
H  11.77800 56.41500 38.32900
H  11.88400 58.17700 38.35800
H  9.08100 62.04300 37.14200
H  7.98100 61.19800 38.35700
H  7.92600 60.87700 36.56500
H  3.88600 60.03400 37.43000
H  2.07700 59.10100 39.44900
H  5.22800 60.90600 39.51200
H  3.91200 60.27200 40.38700
H  3.49100 61.54400 39.35300
H  1.17500 57.67200 37.49400
H  2.54500 58.24700 36.60900
H  0.05200 59.60600 37.30300
H  1.19100 59.90900 36.00300
H  1.49800 60.63900 37.60700
H  0.15600 53.36900 39.61400
H  0.28300 54.65000 40.92500
H  0.45600 52.91500 41.08300
H  5.15300 50.34900 41.02500
H  5.90800 47.22000 38.37600
H  4.22800 47.68000 37.93500
H  4.48300 46.94800 39.42300

