158

Mg 24.11600 -6.82400 46.22700
C  26.60800 -4.72900 45.10900
C  21.91800 -5.13700 43.90800
C  21.98800 -9.40800 46.23400
C  26.61200 -8.72100 47.84900
N  24.26500 -5.22800 44.69300
C  25.43300 -4.53800 44.44100
C  25.20600 -3.28700 43.54800
C  23.61300 -3.28800 43.42700
C  23.19800 -4.58700 44.07400
C  22.88100 -2.06400 44.11600
C  26.00800 -3.52700 42.16000
C  27.08800 -2.46900 41.80700
H  27.00700 -1.74800 40.50200
N  22.20300 -7.20600 45.18100
C  21.49500 -6.33100 44.40000
C  20.14700 -6.82100 44.13600
C  20.18100 -8.16100 44.69800
C  21.53100 -8.31800 45.41000
C  19.01900 -6.01500 43.41800
C  19.08500 -9.22400 44.44800
O  18.05400 -8.89900 43.86900
C  19.19300 -10.60000 44.99700
N  24.39300 -8.94600 46.66400
C  23.26500 -9.66600 46.76400
C  23.51900 -10.88700 47.64400
C  25.00800 -10.82000 48.04300
C  25.45900 -9.43300 47.46200
C  22.47700 -10.92900 48.80700
C  25.90900 -11.95500 47.49200
C  26.20500 -13.15300 48.35600
N  26.11600 -6.62100 46.64100
C  27.03100 -7.49600 47.29800
C  28.33500 -6.77600 47.26100
C  28.17700 -5.68200 46.43400
C  26.83100 -5.63500 46.07400
C  29.57200 -7.16400 48.03200
C  28.86600 -4.58500 45.85900
O  30.04700 -4.33600 45.96100
C  27.83700 -3.88800 44.96500
C  27.73000 -2.45800 45.43000
O  26.86600 -1.94500 46.15000
O  28.85300 -1.73000 45.00800
C  29.03600 -0.35400 45.35500
H  21.15500 -4.58100 43.36000
H  21.32900 -10.24800 46.46100
H  27.27500 -9.39100 48.40000
H  25.44100 -2.30300 43.95600
H  23.39700 -3.24700 42.35900
H  22.32400 -1.47300 43.38800
H  23.63100 -1.45500 44.62100
H  22.15800 -2.39900 44.86000
H  25.29300 -3.66300 41.34900
H  26.53500 -4.48100 42.16400
H  28.12600 -2.80200 41.81000
H  26.97300 -1.67100 42.54100
H  18.04500 -6.37500 43.75000
H  19.20000 -6.11200 42.34800
H  19.13800 -4.96100 43.66700
H  20.19200 -10.94700 44.73300
H  18.51400 -11.31500 44.53200
H  19.02000 -10.76000 46.06100
H  23.42200 -11.73000 46.96000
H  25.07500 -10.86900 49.13000
H  22.92900 -10.66900 49.76400
H  22.11600 -11.95300 48.71200
H  21.69700 -10.17600 48.69000
H  26.86400 -11.48700 47.25500
H  25.37700 -12.27800 46.59700
H  26.06300 -14.05500 47.76100
H  25.61000 -13.19600 49.26800
H  27.22500 -13.14500 48.73800
H  29.27300 -7.85300 48.82100
H  30.06100 -6.27800 48.43700
H  30.29800 -7.59600 47.34300
H  28.21700 -3.84800 43.94400
H  30.11000 -0.18800 45.26400
H  28.81800 -0.21200 46.41300
H  28.39600 0.31000 44.77400
Mg 9.13600 47.46100 25.51200
C  7.16000 47.28600 28.32100
C  11.72000 48.76600 27.44500
C  10.97100 47.88100 22.73400
C  6.31500 46.73500 23.45800
N  9.34400 47.93400 27.65900
C  8.44100 47.68000 28.68600
C  9.03900 48.08200 30.04100
C  10.32000 48.90600 29.63500
C  10.48600 48.55000 28.16800
C  10.26500 50.43400 29.77800
C  9.27900 46.91900 31.03500
C  8.53200 46.92700 32.36100
H  8.88800 45.87100 33.37700
N  11.06400 48.13700 25.17700
C  12.01200 48.44300 26.12400
C  13.33100 48.48400 25.52300
C  13.09000 48.21800 24.12100
C  11.60900 48.13300 23.98600
C  14.59000 48.72000 26.32000
C  14.10100 48.01100 23.03100
O  13.78600 47.80700 21.87400
C  15.56200 48.03900 23.34400
N  8.56600 47.67100 23.29000
C  9.64300 47.65700 22.43900
C  9.21100 47.15900 21.05600
C  7.70400 46.84900 21.30000
C  7.45300 47.04900 22.74600
C  9.36600 48.28700 19.97200
C  7.35600 45.33300 20.92700
C  6.15700 45.13400 20.03500
N  7.15800 47.06100 25.72500
C  6.09600 46.79500 24.82400
C  4.88400 46.63500 25.56800
C  5.26100 46.71500 26.93600
C  6.64400 46.99900 26.95900
C  3.57400 46.40900 25.06600
C  4.75400 46.62800 28.28500
O  3.68800 46.20600 28.70400
C  6.03600 46.83600 29.27700
C  6.18900 45.45200 29.84800
O  6.85100 44.54200 29.43500
O  5.54100 45.51200 31.06300
C  5.66200 44.42300 31.96500
H  12.51000 49.08600 28.12700
H  11.55000 47.98600 21.81400
H  5.47800 46.36600 22.86200
H  8.29900 48.72000 30.52500
H  11.13000 48.53000 30.25900
H  9.48900 50.63200 30.51700
H  10.13600 50.97600 28.84100
H  11.21700 50.72200 30.22400
H  10.34000 46.86700 31.27700
H  9.07000 45.99900 30.48900
H  7.46400 46.85200 32.15500
H  8.59500 47.94300 32.75200
H  14.48200 48.73600 27.40500
H  14.97400 49.72200 26.13000
H  15.30000 47.95600 26.00300
H  16.15800 48.06500 22.43200
H  15.65500 47.05500 23.80500
H  15.87800 48.89700 23.93700
H  9.74300 46.22200 20.89100
H  7.08300 47.56500 20.76300
H  8.91600 47.87200 19.07000
H  10.43200 48.45700 19.81800
H  8.92000 49.25200 20.21000
H  7.30600 44.70000 21.81200
H  8.16800 44.92000 20.32800
H  6.51600 44.86500 19.04200
H  5.49200 45.99500 19.97900
H  5.60100 44.36800 20.57600
H  3.48800 45.85200 24.13300
H  3.16800 47.38000 24.78400
H  2.95200 45.95400 25.83600
H  5.83500 47.57100 30.05700
H  6.22400 44.72100 32.85100
H  6.21700 43.59800 31.51700
H  4.76100 43.91900 32.31600

