158

Mg 46.68600 17.19100 27.65500
C  44.90400 16.82800 30.65000
C  49.09400 18.96700 29.48300
C  48.10200 18.21800 24.73700
C  43.98100 15.86800 25.82100
N  46.91400 17.92800 29.89300
C  46.14000 17.40900 30.88100
C  46.88100 17.53200 32.25800
C  48.09900 18.47000 31.85100
C  48.02200 18.48200 30.32000
C  48.14600 20.00100 32.44000
C  47.21000 16.19800 33.02100
C  47.13300 16.10300 34.53600
H  47.03000 17.39900 35.29900
N  48.40100 18.29600 27.15000
C  49.30000 18.93300 28.05600
C  50.40100 19.44900 27.29200
C  50.04100 19.26900 25.94700
C  48.83600 18.50000 25.87800
C  51.65200 20.00300 27.96400
C  50.74900 19.72300 24.61100
O  50.32700 19.54600 23.47500
C  52.08800 20.29000 24.65900
N  46.14900 16.94900 25.51600
C  46.89800 17.48400 24.56000
C  46.16200 17.39800 23.22800
C  45.03100 16.28800 23.51900
C  45.05400 16.31800 25.01600
C  45.61200 18.70300 22.79800
C  45.29900 14.94100 22.86100
C  44.24300 14.46700 21.86300
N  44.82700 16.54100 28.03500
C  43.91100 15.89200 27.28400
C  42.81100 15.44000 28.13600
C  43.23100 15.72400 29.41800
C  44.42500 16.42100 29.36400
C  41.48500 14.70800 27.87000
C  42.82800 15.55700 30.79700
O  41.94900 15.00600 31.31800
C  43.91600 16.26300 31.73400
C  43.22000 17.24000 32.63700
O  42.89100 18.41000 32.45400
O  43.14900 16.61800 33.82400
C  42.62800 17.45000 34.92800
H  49.88600 19.38600 30.10600
H  48.33900 18.61400 23.74800
H  43.15800 15.44800 25.23900
H  46.29600 18.16500 32.92500
H  49.02700 17.98400 32.15200
H  49.02500 20.11700 33.07400
H  47.29000 20.11200 33.10600
H  48.00700 20.64500 31.57200
H  48.21800 15.92600 32.70900
H  46.50200 15.51300 32.55400
H  47.77200 15.34000 34.98100
H  46.12900 15.69500 34.65500
H  51.51000 21.07000 28.13000
H  52.56500 19.81600 27.39900
H  51.79600 19.49700 28.91800
H  52.03600 21.15100 25.32500
H  52.34200 20.66800 23.66900
H  52.83700 19.53800 24.90500
H  46.80600 17.05200 22.41900
H  44.04400 16.59100 23.17000
H  44.53400 18.76200 22.64900
H  46.21000 19.02700 21.94600
H  45.72500 19.40700 23.62200
H  45.52800 14.21300 23.63900
H  46.22100 15.03500 22.28700
H  43.46300 15.20800 21.69100
H  43.68900 13.63900 22.30600
H  44.67500 14.12300 20.92300
H  40.68300 15.05200 28.52300
H  41.72400 13.69900 28.20500
H  41.19400 14.71800 26.81900
H  44.41000 15.53300 32.37600
H  41.55100 17.49600 35.09300
H  42.99200 18.47700 34.90100
H  42.93600 17.00700 35.87500
Mg -6.52100 25.23200 26.68200
C  -5.26500 26.58600 29.44500
C  -8.32900 22.89100 28.54400
C  -7.62400 23.85000 23.83000
C  -4.30300 27.15500 24.72700
N  -6.71400 24.72300 28.68100
C  -6.12900 25.47500 29.67300
C  -6.79900 25.19200 31.05600
C  -7.57700 23.85900 30.75800
C  -7.53800 23.77000 29.26700
C  -7.16100 22.63200 31.64400
C  -7.82300 26.32800 31.57000
C  -7.90800 26.51300 33.11500
H  -7.27600 25.40900 34.03800
N  -7.76400 23.57700 26.20900
C  -8.46500 22.81300 27.11100
C  -9.27300 21.83400 26.37000
C  -9.16900 22.17500 25.00200
C  -8.22100 23.28000 24.97500
C  -10.05500 20.81000 27.02800
C  -9.92800 21.52400 23.84200
O  -9.63000 21.83600 22.68500
C  -10.97700 20.43500 24.04400
N  -6.03600 25.52500 24.48700
C  -6.63900 24.76400 23.54100
C  -5.99500 25.02000 22.20500
C  -5.00300 26.22200 22.43500
C  -5.13900 26.37700 23.98700
C  -5.56400 23.74900 21.46000
C  -5.41200 27.50000 21.66000
C  -4.91400 27.34400 20.23700
N  -5.29800 26.75200 26.98700
C  -4.39700 27.36400 26.16200
C  -3.50600 28.23000 26.86000
C  -3.86300 27.95500 28.17000
C  -4.89900 27.05600 28.21700
C  -2.37400 29.06000 26.31000
C  -3.44600 28.16700 29.51600
O  -2.49300 28.87700 29.82400
C  -4.39400 27.31500 30.47400
C  -3.50700 26.46800 31.25600
O  -2.87600 25.43700 30.85200
O  -3.49100 27.04200 32.50100
C  -2.71600 26.32400 33.51900
H  -8.70600 22.16200 29.26400
H  -8.10100 23.36800 22.97400
H  -3.58100 27.79800 24.22000
H  -6.00400 24.98100 31.77200
H  -8.63600 23.92500 31.00700
H  -6.20500 22.70400 32.16100
H  -7.20700 21.73400 31.02900
H  -7.98900 22.37600 32.30500
H  -8.80600 26.09800 31.15900
H  -7.44900 27.24900 31.12200
H  -8.93700 26.75300 33.38300
H  -7.20900 27.32200 33.32600
H  -9.69800 19.79300 26.86400
H  -11.11600 21.01000 26.87700
H  -10.00900 20.94200 28.10900
H  -11.56800 20.37300 23.13000
H  -11.79400 20.65100 24.73200
H  -10.60800 19.43600 24.27600
H  -6.79900 25.35600 21.55000
H  -3.94200 25.98400 22.35700
H  -4.48600 23.75400 21.29900
H  -5.88100 23.82400 20.42000
H  -5.88500 22.82200 21.93600
H  -4.97200 28.40800 22.07100
H  -6.48100 27.68000 21.55100
H  -5.44800 26.52800 19.75100
H  -3.84600 27.34500 20.01900
H  -5.25400 28.27600 19.78500
H  -2.69700 29.81100 25.58800
H  -1.68300 28.36700 25.83100
H  -1.82600 29.43300 27.17500
H  -4.94600 27.98900 31.12800
H  -2.03500 27.08700 33.89500
H  -2.13900 25.41700 33.33800
H  -3.45500 26.10300 34.28900

