158

Mg 6.92600 55.56100 40.31500
C  4.34400 53.18700 39.88600
C  9.22200 52.99500 39.82900
C  9.29300 57.77400 40.14000
C  4.50100 57.99100 41.07300
N  6.75300 53.34300 39.50700
C  5.60600 52.60200 39.53700
C  5.94400 51.21800 38.99300
C  7.48900 51.14000 39.30800
C  7.85500 52.56600 39.61100
C  7.98600 50.33300 40.49900
C  5.49400 51.02900 37.49500
C  4.56100 49.83300 37.19300
H  4.77500 48.95900 35.92400
N  8.98400 55.43000 39.86600
C  9.75100 54.23700 39.81600
C  11.08400 54.58500 39.65800
C  11.16900 55.97500 39.58000
C  9.79900 56.44500 39.82700
C  12.28800 53.59600 39.46300
C  12.40200 56.77400 39.33900
O  13.44000 56.15300 39.13700
C  12.44400 58.27600 39.38800
N  6.82900 57.63200 40.44800
C  8.03800 58.27100 40.50200
C  7.88400 59.60500 41.08500
C  6.28900 59.87400 41.02400
C  5.76100 58.40500 40.82300
C  8.40900 59.71000 42.54700
C  5.95100 60.79400 39.81800
C  5.33500 62.16700 40.19900
N  4.88000 55.68600 40.46600
C  4.02800 56.70200 40.81800
C  2.69600 56.23100 40.96700
C  2.79600 54.82300 40.72800
C  4.08600 54.56300 40.23600
C  1.47600 56.98700 41.42800
C  2.06900 53.62100 40.73500
O  0.91100 53.33800 41.03900
C  2.99800 52.50200 40.12000
C  2.39500 52.08400 38.90100
O  2.66000 52.58300 37.83600
O  1.52600 51.04500 39.25500
C  0.74000 50.54600 38.21200
H  9.92100 52.17800 39.63900
H  10.09900 58.49200 40.30300
H  3.84300 58.76000 41.48200
H  5.47700 50.46900 39.63200
H  7.98300 51.00300 38.34600
H  9.01500 50.04300 40.28700
H  7.44400 49.38800 40.53000
H  7.90600 50.86900 41.44500
H  6.36300 51.06800 36.83800
H  5.02700 51.94300 37.12900
H  3.62000 50.27900 36.87200
H  4.42900 49.15300 38.03500
H  12.77200 53.66000 38.48800
H  12.23000 52.52500 39.65800
H  13.08300 54.03200 40.06800
H  11.98600 58.74100 38.51500
H  13.52100 58.44500 39.38800
H  12.18600 58.64700 40.38000
H  8.58800 60.19600 40.50000
H  5.98900 60.23100 42.00900
H  7.63400 60.05300 43.23300
H  9.36000 60.24000 42.59800
H  8.70000 58.73700 42.94300
H  5.31800 60.28600 39.09100
H  6.83500 61.01700 39.22100
H  4.74200 62.12700 41.11300
H  4.51000 62.21200 39.48900
H  5.98400 63.03600 40.30900
H  0.71400 56.21500 41.53700
H  1.06400 57.65000 40.66700
H  1.62500 57.51800 42.36800
H  3.07100 51.66800 40.81800
H  0.20300 49.66800 38.57000
H  1.28000 50.21800 37.32400
H  0.01600 51.26800 37.83400
Mg -12.51300 16.60100 41.71400
C  -9.41200 14.94100 41.20700
C  -10.98300 19.44600 40.49500
C  -15.46300 17.91200 41.47000
C  -13.83400 13.50800 42.52100
N  -10.42700 17.05200 40.79600
C  -9.28300 16.29200 40.79900
C  -7.98000 17.15600 40.57700
C  -8.58800 18.56300 40.54900
C  -10.12700 18.34800 40.58400
C  -8.00900 19.53100 41.64300
C  -7.06800 16.82000 39.33500
C  -5.57700 16.53400 39.30400
H  -5.20900 15.29000 38.51500
N  -13.13100 18.42100 41.08300
C  -12.37400 19.48300 40.58600
C  -13.27900 20.68500 40.35100
C  -14.59400 20.18000 40.63200
C  -14.41800 18.79000 41.07300
C  -12.72300 21.95100 39.87500
C  -15.88800 21.04200 40.59700
O  -15.79500 22.15600 40.14500
C  -17.23100 20.50200 40.93100
N  -14.43700 15.70400 41.74400
C  -15.45600 16.59800 41.86900
C  -16.72400 15.83900 42.16700
C  -16.23700 14.41200 42.62400
C  -14.73200 14.55000 42.41600
C  -17.88000 16.47400 42.96800
C  -16.83600 13.08800 41.87200
C  -17.43700 11.99600 42.75200
N  -11.78200 14.62200 41.94500
C  -12.47200 13.45100 42.25800
C  -11.56300 12.32100 42.28900
C  -10.33800 12.87300 41.91600
C  -10.52800 14.22500 41.67900
C  -12.00000 10.87700 42.60200
C  -8.93000 12.58900 41.69000
O  -8.28600 11.54900 41.68800
C  -8.21200 13.91000 41.27300
C  -7.15900 14.30000 42.21200
O  -7.30800 14.90200 43.25500
O  -5.95700 13.96300 41.58600
C  -4.73800 14.25500 42.39800
H  -10.37700 20.33200 40.29200
H  -16.51100 18.22100 41.45100
H  -14.23400 12.56100 42.88900
H  -7.42700 17.07300 41.51300
H  -8.39700 19.03100 39.58400
H  -7.78000 20.46100 41.12100
H  -7.09800 19.17700 42.12400
H  -8.70300 19.77400 42.44700
H  -7.08700 17.73300 38.73900
H  -7.52700 16.04800 38.71800
H  -5.10600 16.48700 40.28500
H  -5.07600 17.34900 38.78100
H  -13.16200 22.81900 40.36600
H  -12.99200 22.01800 38.82100
H  -11.63900 21.98500 39.99200
H  -17.23600 20.24100 41.98900
H  -17.43700 19.67700 40.24900
H  -17.91400 21.30400 40.65000
H  -17.18600 15.64300 41.20000
H  -16.41000 14.29800 43.69400
H  -18.22100 15.88800 43.82200
H  -18.75900 16.61500 42.33900
H  -17.63300 17.48400 43.29800
H  -16.19000 12.78100 41.05000
H  -17.68900 13.44900 41.29800
H  -17.09400 11.07600 42.27900
H  -18.52400 12.04000 42.81900
H  -17.11000 12.22900 43.76600
H  -12.05500 10.41400 41.61600
H  -12.95600 10.78000 43.11700
H  -11.26900 10.27400 43.14000
H  -7.75200 13.77900 40.29400
H  -4.85900 15.24400 42.84100
H  -3.87700 14.29200 41.73100
H  -4.51800 13.41300 43.05500

