158

Mg 30.80400 57.73700 40.45900
C  27.80200 56.16600 39.42300
C  32.50400 54.97200 39.68100
C  33.59000 59.55700 40.52500
C  28.88400 60.74800 40.86400
N  30.26000 55.90100 39.39500
C  28.96100 55.35100 39.25300
C  29.00600 53.95300 38.59600
C  30.36600 53.52000 39.18900
C  31.11500 54.86300 39.48000
C  30.40800 52.63700 40.52900
C  28.90600 54.00300 36.96900
C  27.61100 53.37700 36.27900
H  26.73800 54.23300 35.32000
N  32.83700 57.31000 40.12900
C  33.33600 56.13100 39.91300
C  34.80700 56.23100 39.79500
C  35.09200 57.61900 40.16600
C  33.78500 58.23800 40.22600
C  35.72300 55.08200 39.41200
C  36.49300 58.17600 40.35900
O  37.47300 57.42100 40.16200
C  36.79300 59.65700 40.69000
N  31.18800 60.03300 40.40500
C  32.44800 60.40100 40.73200
C  32.41400 61.86800 41.04000
C  30.90600 62.25000 41.32300
C  30.23900 60.93800 40.81800
C  33.33900 62.34100 42.20000
C  30.38700 63.62400 40.67400
C  29.70300 64.56300 41.70500
N  28.71000 58.37500 40.24000
C  28.13900 59.56900 40.48100
C  26.71800 59.54300 40.36300
C  26.51700 58.15600 39.96800
C  27.77400 57.50200 39.90000
C  25.67600 60.57700 40.68100
C  25.51900 57.16300 39.51300
O  24.29800 57.19300 39.28900
C  26.34100 55.78800 39.24300
C  25.82000 54.62400 40.09000
O  26.42700 54.15400 41.07900
O  24.55300 54.28400 39.58800
C  23.72900 53.36100 40.44700
H  33.17200 54.12500 39.50700
H  34.43100 60.23500 40.68200
H  28.26600 61.56400 41.24500
H  28.19000 53.33400 38.96900
H  30.90400 53.05100 38.36500
H  29.41600 52.68400 40.97800
H  31.08700 53.19700 41.17200
H  30.73700 51.60700 40.38900
H  29.73300 53.42500 36.55600
H  29.14300 55.04300 36.74300
H  26.98700 52.85700 37.00500
H  28.02500 52.59500 35.64200
H  36.23800 54.82600 40.33800
H  36.46200 55.31400 38.64500
H  35.12600 54.29100 38.95800
H  36.44100 60.43300 40.01000
H  37.85800 59.68100 40.92100
H  36.29100 59.82300 41.64300
H  32.68800 62.42800 40.14600
H  30.56100 62.12800 42.35000
H  34.22700 62.79200 41.75700
H  33.69700 61.42600 42.67200
H  32.85700 62.88400 43.01300
H  29.74000 63.26700 39.87200
H  31.28600 64.14000 40.33600
H  29.14600 64.00500 42.45700
H  28.97400 65.09200 41.09100
H  30.23400 65.41600 42.12900
H  25.26600 60.48700 41.68600
H  24.86800 60.40200 39.97000
H  26.11400 61.57500 40.66100
H  26.15900 55.45300 38.22200
H  23.21600 53.98300 41.18100
H  24.32500 52.62100 40.98000
H  23.05800 52.81700 39.78300
Mg 9.72400 47.70000 25.30700
C  7.56100 47.86900 28.07300
C  12.08900 49.28700 27.34500
C  11.89700 47.47000 22.77800
C  7.07500 47.15000 23.30900
N  9.79900 48.27900 27.52800
C  8.80000 48.28500 28.48400
C  9.23500 48.76900 29.84300
C  10.47300 49.64800 29.41300
C  10.83200 49.05000 28.03100
C  10.21300 51.11700 29.28500
C  9.73700 47.62800 30.87100
C  9.46400 47.95600 32.35800
H  9.43600 46.83300 33.44700
N  11.70300 48.14900 25.18300
C  12.52800 48.72800 26.11800
C  13.89400 48.65700 25.57400
C  13.87300 48.14600 24.28700
C  12.50100 47.86600 24.01200
C  15.06400 48.98000 26.47000
C  15.00300 47.93700 23.30800
O  14.82400 47.45400 22.17100
C  16.43700 48.26700 23.64600
N  9.53500 47.46400 23.38000
C  10.53900 47.35100 22.46700
C  10.07900 46.80200 21.04500
C  8.54100 46.76000 21.28400
C  8.32700 47.11100 22.74900
C  10.62800 47.55700 19.76600
C  7.86900 45.46600 20.75900
C  6.76600 45.65100 19.69100
N  7.65900 47.45900 25.58700
C  6.73900 47.29500 24.66500
C  5.40700 47.33800 25.23100
C  5.68000 47.42500 26.56500
C  7.13300 47.56200 26.75200
C  4.09000 47.20100 24.46400
C  5.06400 47.41400 27.89500
O  3.88300 47.26700 28.15700
C  6.22000 47.91700 28.86100
C  6.13900 47.14100 30.17700
O  6.79900 46.15400 30.53700
O  5.40800 47.93900 31.01300
C  5.16500 47.40400 32.36300
H  12.74000 50.03100 27.80900
H  12.53400 47.30000 21.90700
H  6.26200 46.97100 22.60200
H  8.48400 49.39600 30.32300
H  11.36400 49.53400 30.03000
H  9.27600 51.36200 29.78500
H  10.06600 51.35000 28.23000
H  11.01100 51.67700 29.77300
H  10.75900 47.25000 30.86000
H  9.23400 46.66200 30.83600
H  8.39900 48.18200 32.32200
H  10.04000 48.80500 32.72600
H  14.62200 49.29800 27.41400
H  15.67800 49.85500 26.25600
H  15.68600 48.10800 26.67300
H  16.79600 49.08100 23.01700
H  17.06100 47.38700 23.48800
H  16.69400 48.48800 24.68200
H  10.51300 45.80700 20.95100
H  8.09000 47.59000 20.73900
H  10.59700 46.87600 18.91600
H  11.64400 47.89100 19.97500
H  9.96600 48.41300 19.63100
H  7.32600 44.87400 21.49600
H  8.65900 44.80700 20.39800
H  5.90800 44.98700 19.80200
H  7.18300 45.47700 18.69900
H  6.39400 46.66900 19.80400
H  3.22100 47.75300 24.82300
H  3.78900 46.15500 24.41300
H  4.24500 47.55600 23.44600
H  6.02900 48.96100 29.10900
H  4.76400 46.39400 32.28600
H  4.46700 48.07000 32.87100
H  6.08000 47.45500 32.95300

