158

Mg 23.82600 -5.92600 45.39900
C  26.37500 -3.92600 43.98500
C  21.61600 -4.46000 43.39400
C  21.84300 -8.46500 46.20900
C  26.57400 -7.76100 47.15200
N  24.04600 -4.40700 44.00000
C  25.09700 -3.67700 43.49600
C  24.76700 -2.68000 42.52000
C  23.21400 -2.62400 42.59800
C  22.88500 -3.90700 43.38300
C  22.65500 -1.37100 43.21800
C  25.41800 -3.12000 41.19100
C  26.19500 -2.00700 40.43100
H  25.87500 -1.79500 38.97400
N  21.94900 -6.42000 44.90200
C  21.19400 -5.61000 44.02900
C  19.88400 -6.30300 43.92200
C  19.87900 -7.39100 44.83400
C  21.28300 -7.45400 45.38100
C  18.79200 -5.89000 42.99800
C  18.65700 -8.39400 45.01300
O  17.59300 -8.35700 44.39700
C  18.67300 -9.54200 46.06300
N  24.18200 -7.81700 46.49800
C  23.13000 -8.65700 46.75200
C  23.62600 -9.99900 47.39000
C  24.99900 -9.52200 48.11800
C  25.30200 -8.23700 47.20400
C  22.78000 -10.65000 48.49700
C  26.09400 -10.51600 48.20300
C  26.97900 -10.67600 49.51000
N  26.04000 -5.77000 45.67300
C  26.90600 -6.55700 46.39400
C  28.23200 -5.90400 46.19400
C  28.08900 -4.97300 45.24400
C  26.70700 -4.92000 44.93900
C  29.45900 -6.35500 46.89200
C  28.78900 -4.04900 44.44000
O  30.00400 -3.80500 44.48500
C  27.75500 -3.26000 43.61400
C  27.87700 -1.78300 43.93300
O  27.39500 -1.24900 44.88700
O  28.63200 -1.10500 42.97300
C  28.80600 0.34000 43.22800
H  20.85500 -3.92100 42.82700
H  21.19900 -9.30900 46.46500
H  27.43700 -8.28100 47.57300
H  25.12100 -1.71700 42.88800
H  22.90500 -2.80100 41.56800
H  23.32100 -0.69000 43.74900
H  22.01400 -1.69600 44.03700
H  22.06000 -0.83000 42.48200
H  24.66000 -3.44700 40.47900
H  26.10000 -3.96300 41.30300
H  27.23200 -2.34300 40.42900
H  26.39800 -1.10100 41.00200
H  19.20400 -5.12400 42.34100
H  17.85700 -5.55300 43.44500
H  18.60900 -6.68700 42.27700
H  19.37400 -10.28200 45.67700
H  17.67000 -9.96700 46.11300
H  19.03000 -9.11500 47.00000
H  23.79800 -10.70700 46.58000
H  24.86900 -9.20600 49.15300
H  22.17000 -11.39800 47.99000
H  22.07700 -9.98600 49.00000
H  23.38600 -11.07900 49.29500
H  26.81500 -10.40200 47.39400
H  25.63500 -11.48300 48.00000
H  27.06000 -9.78100 50.12700
H  27.92800 -11.13900 49.23700
H  26.59500 -11.47700 50.14200
H  29.44500 -7.40700 47.17600
H  29.54800 -5.83800 47.84800
H  30.33300 -6.24000 46.25100
H  28.01600 -3.48700 42.58100
H  29.09400 0.91900 42.35200
H  29.54100 0.46000 44.02400
H  27.89600 0.75100 43.66500
Mg 40.89500 9.36400 29.91100
C  42.82200 10.61500 32.51700
C  38.52900 8.43400 32.02200
C  39.31000 8.07800 27.14700
C  43.57200 10.36200 27.71700
N  40.72300 9.50500 31.98200
C  41.57400 10.14800 32.90000
C  41.04100 10.00200 34.37300
C  39.66000 9.33600 34.17800
C  39.61200 9.05800 32.65800
C  39.39300 8.03400 35.03200
C  40.98400 11.44200 35.06900
C  40.07700 11.55000 36.30400
H  40.64900 12.49000 37.40500
N  39.16500 8.33000 29.64000
C  38.27300 8.14200 30.60500
C  37.07800 7.54200 30.04100
C  37.26800 7.54600 28.64800
C  38.63000 7.97500 28.44400
C  35.84000 7.21300 30.88900
C  36.36000 7.05600 27.51800
O  36.58500 7.14500 26.34700
C  35.00300 6.57600 27.77400
N  41.43600 8.98000 27.74700
C  40.61900 8.53000 26.85600
C  41.29200 8.40100 25.48400
C  42.50900 9.43300 25.65500
C  42.56300 9.55000 27.14500
C  41.60700 6.96300 25.00900
C  42.23500 10.76100 24.88400
C  41.76200 12.03700 25.71900
N  42.89300 10.25300 30.04900
C  43.80600 10.65000 29.07100
C  44.93500 11.31500 29.67800
C  44.54500 11.34700 31.01600
C  43.28000 10.65200 31.18600
C  46.09700 11.81500 28.91700
C  44.94200 11.95000 32.31900
O  45.78300 12.72300 32.62700
C  43.89800 11.38000 33.30900
C  44.67500 10.51500 34.21700
O  45.63500 9.83600 33.86200
O  44.11200 10.46000 35.41700
C  44.50500 9.48900 36.49000
H  37.66400 8.42500 32.68900
H  38.80200 7.52600 26.35300
H  44.34400 10.78300 27.06900
H  41.69200 9.31900 34.91900
H  38.88100 10.03500 34.48300
H  40.24500 7.81300 35.67600
H  39.47400 7.25300 34.27600
H  38.44900 8.07500 35.57500
H  40.51100 12.00000 34.26100
H  41.98000 11.81300 35.31100
H  39.93600 10.54800 36.70800
H  39.15900 11.98900 35.91300
H  35.88500 7.56700 31.91900
H  35.79500 6.12500 30.94400
H  34.89900 7.60000 30.49800
H  34.46200 7.43100 28.17700
H  35.27900 5.80500 28.49400
H  34.76300 6.14500 26.80200
H  40.42800 8.76800 24.93000
H  43.45300 9.04100 25.27700
H  42.64700 6.99900 24.68400
H  40.93700 6.59700 24.23100
H  41.50800 6.33100 25.89200
H  41.37800 10.52200 24.25500
H  43.14500 11.02400 24.34300
H  41.86200 11.96200 26.80200
H  40.71300 12.16600 25.45200
H  42.39700 12.84700 25.35900
H  46.85100 12.12900 29.63800
H  45.90800 12.67900 28.28000
H  46.60200 11.06800 28.30500
H  43.44200 12.24200 33.79600
H  43.64500 8.90300 36.81400
H  44.86900 10.03400 37.36100
H  45.12900 8.68000 36.11000

