158

Mg 44.00900 5.18300 47.03000
C  42.07300 7.92900 46.47500
C  41.20200 3.27100 46.06400
C  45.93900 2.38000 46.67300
C  46.83500 7.08300 46.94400
N  41.82800 5.53100 46.24600
C  41.27800 6.80000 46.18000
C  39.72500 6.77700 45.96100
C  39.42800 5.23900 46.13900
C  40.88200 4.58800 46.15900
C  38.70900 4.95300 47.46600
C  39.11800 7.34700 44.59300
C  40.12500 7.66200 43.43900
H  39.56300 7.86100 42.04800
N  43.63600 3.11100 46.50900
C  42.38300 2.55400 46.12600
C  42.56200 1.14100 45.79700
C  43.96700 0.87700 45.84200
C  44.58700 2.15400 46.33500
C  41.46200 0.28300 45.21600
C  44.58100 -0.46800 45.43700
O  43.89800 -1.39900 45.09900
C  46.08800 -0.55500 45.34800
N  46.09400 4.74700 46.85100
C  46.69600 3.57400 46.85400
C  48.24900 3.61700 46.85200
C  48.44300 5.18800 46.98700
C  47.01300 5.72900 46.92100
C  49.02700 2.75200 47.91800
C  49.33900 5.83700 45.91400
C  50.33900 6.85900 46.46700
N  44.33000 7.09100 46.88900
C  45.57300 7.77800 46.89800
C  45.34700 9.16900 46.73600
C  43.97900 9.27500 46.65800
C  43.40700 7.97400 46.71200
C  46.36700 10.16600 46.66700
C  42.90300 10.21100 46.50100
O  42.91500 11.43900 46.51300
C  41.55200 9.37100 46.40300
C  40.65200 9.65600 47.56100
O  40.86200 9.20500 48.67400
O  39.53100 10.36300 47.17500
C  38.39000 10.46600 48.22600
H  40.31100 2.70100 45.79500
H  46.64700 1.55000 46.70000
H  47.75300 7.67500 46.92900
H  39.25100 7.34800 46.76000
H  38.91900 4.88000 45.24500
H  37.81500 5.56000 47.60600
H  39.47300 5.03900 48.23900
H  38.44100 3.89600 47.47800
H  38.77000 8.32400 44.92600
H  38.37000 6.65600 44.20500
H  40.88300 6.88000 43.37400
H  40.51900 8.62500 43.76300
H  41.80800 -0.01400 44.22600
H  40.55100 0.86500 45.07700
H  41.21100 -0.66400 45.69200
H  46.31500 -1.51400 44.88200
H  46.42000 -0.55200 46.38600
H  46.51600 0.29400 44.81500
H  48.59800 3.33000 45.86000
H  48.75800 5.44200 47.99900
H  49.68800 2.03500 47.43100
H  48.25100 2.21100 48.45900
H  49.71600 3.37600 48.48600
H  48.84300 6.27800 45.04900
H  49.88900 5.04000 45.41400
H  51.32700 6.43200 46.29600
H  50.21800 6.98900 47.54200
H  50.02800 7.84200 46.11300
H  47.20500 9.78300 47.25000
H  45.93200 11.07600 47.07900
H  46.53600 10.31800 45.60100
H  41.01600 9.69500 45.51200
H  37.74500 9.59700 48.09600
H  37.75700 11.30900 47.94900
H  38.82800 10.63100 49.21000
Mg 29.36800 57.53100 40.56500
C  27.07700 55.31900 39.30600
C  31.91300 55.68500 39.47300
C  31.43100 60.26900 40.97400
C  26.61800 59.74600 41.07800
N  29.45200 55.76200 39.54900
C  28.41000 54.98400 39.14600
C  28.83300 53.56100 38.73500
C  30.37300 53.63600 38.97400
C  30.63400 55.10700 39.37400
C  30.89200 52.57600 40.05700
C  28.47800 53.18800 37.23500
C  28.71300 54.37600 36.23200
H  27.73300 54.77200 35.21400
N  31.35900 57.95700 40.37400
C  32.27800 57.01400 39.90900
C  33.62800 57.62300 39.81000
C  33.49600 58.94800 40.18600
C  32.04600 59.15600 40.53500
C  34.73200 56.84400 39.16800
C  34.65100 59.96300 40.22000
O  35.80800 59.62800 39.99800
C  34.41200 61.47100 40.39200
N  29.02900 59.74000 40.76800
C  30.10900 60.52400 41.19900
C  29.63000 61.84900 41.74300
C  28.07800 61.74600 41.49100
C  27.83600 60.31000 41.16200
C  29.90700 62.13700 43.28100
C  27.59200 62.68500 40.33700
C  27.00200 63.99700 40.87700
N  27.25800 57.54800 40.41300
C  26.28000 58.46500 40.60900
C  24.94900 57.93100 40.30700
C  25.22700 56.66100 39.83200
C  26.64600 56.47600 39.77100
C  23.62200 58.62300 40.48700
C  24.59000 55.44000 39.20500
O  23.42100 55.14900 38.97600
C  25.78800 54.52300 38.77700
C  25.46500 53.19700 39.44900
O  25.50700 52.90300 40.64100
O  25.02700 52.35700 38.46000
C  24.70000 50.99600 38.82800
H  32.73700 55.13000 39.02000
H  31.99900 61.16900 41.21900
H  25.73400 60.36000 41.26100
H  28.27500 52.90100 39.39900
H  30.86400 53.47600 38.01400
H  31.49800 53.15600 40.75300
H  31.42800 51.80900 39.49900
H  29.99800 52.12600 40.48700
H  27.50800 52.71700 37.07400
H  29.24600 52.45400 36.98700
H  29.55500 53.89900 35.73000
H  29.03500 55.29100 36.72900
H  35.54500 56.85700 39.89400
H  35.13800 57.15300 38.20500
H  34.43800 55.80000 39.05800
H  34.18100 61.86700 41.38000
H  33.61100 61.65600 39.67600
H  35.18000 62.03500 39.86300
H  30.09700 62.60800 41.11500
H  27.41700 61.86700 42.35000
H  30.94200 62.47800 43.26000
H  29.64200 61.31300 43.94400
H  29.40500 63.04300 43.62100
H  26.78800 62.18100 39.80000
H  28.36900 62.82800 39.58600
H  25.91300 63.96200 40.86700
H  27.27100 64.87000 40.28200
H  27.38000 64.27700 41.86000
H  23.56000 59.40600 39.73200
H  23.64700 59.11000 41.46200
H  22.84400 57.91200 40.20900
H  25.94800 54.41100 37.70400
H  23.67000 51.01900 39.18500
H  25.37900 50.54900 39.55400
H  24.69100 50.45700 37.88000

