158

Mg 35.61800 2.22100 29.59500
C  33.29300 3.17700 32.24200
C  38.02300 2.46400 31.85300
C  37.69400 1.51800 27.05100
C  33.09500 2.83300 27.32500
N  35.52600 2.57400 31.86400
C  34.60000 3.04500 32.67900
C  35.16800 2.99800 34.13400
C  36.70300 3.07000 33.97000
C  36.77400 2.66700 32.44600
C  37.28100 4.51900 34.20000
C  34.65700 1.85900 34.99100
C  34.89500 1.98900 36.54800
H  35.26800 3.35200 37.16200
N  37.66600 1.91100 29.47700
C  38.48300 2.12800 30.54300
C  39.77200 1.80900 30.07400
C  39.69900 1.40800 28.72900
C  38.32600 1.56300 28.36200
C  40.99100 1.97200 30.98800
C  40.69600 0.86700 27.63100
O  40.34900 0.53800 26.45300
C  42.12400 0.72400 27.94900
N  35.47700 2.29000 27.49600
C  36.39400 1.75300 26.68400
C  35.99900 1.72000 25.16900
C  34.51800 2.06500 25.30700
C  34.34100 2.37700 26.81100
C  36.73100 2.66900 24.17700
C  33.60500 0.82300 24.87500
C  32.10600 0.87800 24.77600
N  33.61300 2.87400 29.71600
C  32.67600 3.07600 28.66400
C  31.40600 3.47100 29.21100
C  31.61500 3.45200 30.64800
C  32.97300 3.13600 30.90300
C  30.17900 3.93100 28.46400
C  31.02600 3.79800 31.92700
O  29.90800 4.29200 32.03600
C  32.03400 3.52300 33.02300
C  32.05300 4.74300 33.86800
O  32.77000 5.70700 33.65400
O  31.19600 4.69200 34.89700
C  30.99300 5.81600 35.82000
H  38.89600 2.58800 32.49800
H  38.24500 1.15900 26.17900
H  32.35600 3.02000 26.54300
H  34.79700 3.92200 34.57700
H  37.34300 2.36100 34.49400
H  36.56700 5.05500 34.82600
H  37.40800 5.17700 33.34100
H  38.24500 4.56500 34.70700
H  34.97100 0.89800 34.58400
H  33.57900 1.84300 34.82800
H  35.72200 1.33300 36.82000
H  34.11600 1.68100 37.24600
H  41.86600 1.52100 30.51900
H  40.77400 1.26200 31.78600
H  41.15200 3.00500 31.29500
H  42.59800 1.69600 27.80800
H  42.50400 0.11000 27.13200
H  42.18000 0.12300 28.85600
H  36.08700 0.71400 24.76100
H  34.13700 2.87700 24.68700
H  37.64000 3.01200 24.67000
H  36.31300 3.58100 23.74900
H  36.97900 2.04100 23.32200
H  33.83400 0.07300 25.63200
H  34.04800 0.39100 23.97800
H  31.81300 0.21500 25.59000
H  31.90800 0.42200 23.80600
H  31.62400 1.85400 24.71700
H  30.29100 3.95600 27.38000
H  29.82200 4.90800 28.79000
H  29.33100 3.24700 28.48100
H  31.78700 2.63200 33.59900
H  31.02400 5.31600 36.78800
H  29.99500 6.20000 35.61100
H  31.77500 6.57200 35.75400
Mg 53.50800 24.92800 44.37300
C  50.90900 27.23600 43.63700
C  51.56000 22.47900 43.01100
C  56.22400 22.96600 44.56500
C  55.59100 27.73000 44.89100
N  51.46400 24.93600 43.33100
C  50.57400 25.96200 43.18000
C  49.25800 25.35700 42.57200
C  49.38700 23.86100 42.78900
C  50.94700 23.71800 42.98500
C  48.61000 23.24400 43.97500
C  48.75200 25.71100 41.14700
C  49.69300 25.99300 40.02700
H  49.49800 25.26000 38.73700
N  53.77500 22.99300 43.93600
C  52.90500 22.17400 43.28600
C  53.55700 20.89400 43.11200
C  54.82400 20.91600 43.84400
C  54.97000 22.34300 44.20500
C  52.89600 19.64000 42.52400
C  55.73700 19.73900 44.09400
O  55.45900 18.60700 43.62400
C  56.79900 19.75700 45.10600
N  55.73300 25.34600 44.50100
C  56.59200 24.31900 44.67700
C  58.03900 24.82900 44.76100
C  57.78800 26.39300 44.91900
C  56.26000 26.51000 44.71200
C  58.91000 24.07700 45.80700
C  58.66200 27.30800 44.15000
C  59.38300 28.41500 44.93900
N  53.33300 27.00800 44.27700
C  54.23100 27.98400 44.75300
C  53.57700 29.22900 45.04000
C  52.24100 28.95800 44.64200
C  52.20300 27.61600 44.09800
C  54.18700 30.48700 45.55000
C  50.92500 29.60200 44.38000
O  50.46500 30.74600 44.64700
C  50.03800 28.49700 43.70100
C  49.60400 28.94400 42.28300
O  50.46100 29.08200 41.40400
O  48.29200 29.21900 42.20000
C  47.86700 29.65300 40.83000
H  50.95700 21.66800 42.59700
H  57.07800 22.28600 44.59500
H  56.28400 28.48900 45.26200
H  48.44900 25.73800 43.19500
H  49.17100 23.26200 41.90400
H  47.80400 23.87800 44.34500
H  49.32000 22.92000 44.73500
H  48.07900 22.35300 43.63700
H  48.07100 26.53900 41.33900
H  48.09100 24.96400 40.70600
H  50.71100 25.77400 40.34900
H  49.58900 27.04300 39.75500
H  53.58600 19.30500 41.75000
H  51.86100 19.80600 42.22600
H  52.82500 18.80600 43.22200
H  56.76400 18.80700 45.63900
H  56.51800 20.61200 45.72200
H  57.78700 19.98400 44.70500
H  58.56800 24.66400 43.82200
H  57.96200 26.67300 45.95800
H  58.44500 23.21000 46.27700
H  59.11500 24.72600 46.65900
H  59.84300 23.70800 45.38200
H  58.07200 27.84100 43.40500
H  59.38200 26.74500 43.55500
H  59.58100 29.20600 44.21600
H  60.24500 27.95000 45.41800
H  58.67400 28.87400 45.62800
H  55.25600 30.44600 45.75800
H  53.80300 30.74800 46.53600
H  54.00000 31.39300 44.97400
H  49.12800 28.21500 44.23200
H  48.56600 29.37000 40.04300
H  47.60800 30.70200 40.68500
H  47.04300 28.95600 40.68100

