158

Mg -10.55200 39.69000 41.50900
C  -9.48300 36.41000 40.86500
C  -7.59100 40.88300 40.17800
C  -11.99700 42.69700 41.36000
C  -13.58400 38.39300 42.70000
N  -8.76100 38.75600 40.71800
C  -8.59700 37.39800 40.45500
C  -7.22700 37.12100 39.70400
C  -6.50000 38.54200 39.71100
C  -7.66800 39.45600 40.23600
C  -5.18300 38.68600 40.49400
C  -7.36700 36.51100 38.24800
C  -6.17700 35.56200 37.87000
H  -5.22900 35.94800 36.74300
N  -9.83400 41.50000 40.96600
C  -8.52900 41.83700 40.54400
C  -8.46100 43.29700 40.43000
C  -9.75300 43.81400 40.71800
C  -10.62300 42.66600 41.03100
C  -7.28800 44.05300 39.83000
C  -9.98500 45.32400 40.92400
O  -9.03600 46.08600 40.83500
C  -11.33600 45.93700 41.25100
N  -12.59900 40.36900 41.79700
C  -12.89800 41.65100 41.72300
C  -14.38400 41.97500 42.07100
C  -14.89300 40.64500 42.65900
C  -13.65700 39.69000 42.30900
C  -14.67700 43.16200 43.00300
C  -16.26300 40.13300 42.08700
C  -17.58100 40.36600 43.00300
N  -11.43000 37.77100 41.79200
C  -12.55700 37.39200 42.41200
C  -12.53900 35.93700 42.53100
C  -11.37200 35.53000 41.92600
C  -10.73600 36.70600 41.47500
C  -13.72500 35.09400 42.95900
C  -10.55200 34.34700 41.64000
O  -10.71000 33.17200 41.92800
C  -9.24300 34.92200 41.01200
C  -8.01800 34.62000 41.82300
O  -7.77900 35.11700 42.92000
O  -7.15900 33.88800 41.14000
C  -5.86500 33.69500 41.72900
H  -6.68200 41.21100 39.67000
H  -12.39500 43.71400 41.32400
H  -14.31400 38.01100 43.41600
H  -6.67000 36.48000 40.38700
H  -6.31700 38.97900 38.73000
H  -4.52900 39.31200 39.88700
H  -4.77100 37.67900 40.57000
H  -5.16700 39.13900 41.48600
H  -7.38700 37.26600 37.46100
H  -8.34900 36.06000 38.10800
H  -6.64900 34.59400 37.69900
H  -5.55600 35.47900 38.76100
H  -6.53900 43.36400 39.44000
H  -6.84100 44.69200 40.59100
H  -7.71400 44.61200 38.99700
H  -11.97600 45.85800 40.37100
H  -11.17100 47.00900 41.35300
H  -11.68800 45.55200 42.20800
H  -14.79300 42.26700 41.10400
H  -14.93900 40.82300 43.73400
H  -13.80700 43.33600 43.63700
H  -15.56700 42.98200 43.60500
H  -14.85000 44.09700 42.47000
H  -16.23700 39.04300 42.08700
H  -16.50800 40.51800 41.09800
H  -18.50600 40.05900 42.51500
H  -17.80400 41.39900 43.26900
H  -17.56600 39.79800 43.93300
H  -13.79800 34.26000 42.26100
H  -14.65800 35.65500 42.91000
H  -13.51000 34.67200 43.94100
H  -9.07100 34.36200 40.09300
H  -6.07800 33.04000 42.57400
H  -5.48000 34.68900 41.95500
H  -5.12600 33.20400 41.09500
Mg -2.10600 34.80100 26.41300
C  -3.80900 33.11200 29.09100
C  -1.20900 37.14200 28.86900
C  -0.95600 36.74900 23.92800
C  -3.73500 32.78200 24.24900
N  -2.52900 35.10600 28.67800
C  -3.08400 34.20000 29.52200
C  -2.73500 34.42200 30.99700
C  -2.08400 35.86000 30.90800
C  -1.85600 36.03800 29.40200
C  -2.84300 36.96100 31.59700
C  -1.73400 33.35000 31.67700
C  -2.04700 33.05500 33.16100
H  -0.90400 33.18700 34.15200
N  -1.04900 36.63300 26.40200
C  -0.74300 37.37800 27.47300
C  0.02900 38.50200 27.02700
C  0.09900 38.38700 25.56600
C  -0.63400 37.25500 25.21500
C  0.61900 39.58200 27.97900
C  0.94100 39.26900 24.57100
O  1.05200 38.97900 23.37700
C  1.66500 40.50600 24.97200
N  -2.38400 34.79600 24.41400
C  -1.72700 35.65700 23.56000
C  -2.00900 35.40500 22.08800
C  -2.69000 33.96900 22.24400
C  -2.97500 33.82200 23.74000
C  -2.85000 36.48000 21.35200
C  -1.76300 32.79000 21.64400
C  -0.24400 32.62000 22.00400
N  -3.52600 33.24400 26.58800
C  -4.00000 32.46300 25.58500
C  -4.71100 31.34800 26.22000
C  -4.63100 31.58900 27.58500
C  -3.92900 32.72600 27.73100
C  -5.54100 30.30900 25.51100
C  -5.07900 31.07000 28.87700
O  -5.78500 30.09000 29.09800
C  -4.44600 31.97900 29.95700
C  -5.53000 32.45100 30.86900
O  -6.58300 32.86600 30.41900
O  -5.22000 32.37400 32.25400
C  -6.34600 32.63000 33.18800
H  -0.82300 37.81500 29.63800
H  -0.54400 37.27200 23.06200
H  -4.07400 32.10000 23.46700
H  -3.73500 34.44700 31.42900
H  -1.12600 35.87000 31.42700
H  -3.81600 36.70800 32.01700
H  -2.99300 37.70700 30.81600
H  -2.19500 37.38200 32.36600
H  -0.72200 33.74500 31.58600
H  -1.76900 32.43300 31.08800
H  -2.55700 32.09200 33.16900
H  -2.83500 33.73800 33.48000
H  1.65600 39.78500 27.71100
H  0.59700 39.39800 29.05300
H  -0.00200 40.39600 27.60600
H  1.00600 41.07500 25.62700
H  1.90400 41.13900 24.11700
H  2.65000 40.32100 25.40100
H  -1.05400 35.19500 21.60500
H  -3.65300 33.80800 21.76000
H  -3.11300 37.35400 21.94900
H  -3.77100 36.13700 20.88000
H  -2.16600 36.80500 20.56800
H  -1.83600 32.89300 20.56100
H  -2.25500 31.87900 21.98500
H  -0.21200 31.92300 22.84100
H  0.24900 33.52200 22.36400
H  0.28800 32.29400 21.11000
H  -5.35900 30.22700 24.43900
H  -6.56600 30.55700 25.78700
H  -5.27600 29.29500 25.80900
H  -3.64100 31.44700 30.46300
H  -7.08200 33.31200 32.76100
H  -5.89500 32.99000 34.11200
H  -6.92100 31.74200 33.45200

