158

Mg 16.68000 -2.18100 27.71800
C  15.40900 0.02300 30.17400
C  18.77500 -3.47700 30.04800
C  18.09100 -3.99700 25.30000
C  14.80600 -0.31600 25.34700
N  16.98200 -1.79900 29.85000
C  16.31900 -0.94500 30.64000
C  16.63400 -1.17800 32.07200
C  17.93900 -2.04400 32.05100
C  17.96000 -2.49500 30.55500
C  19.30200 -1.32200 32.47600
C  15.46500 -1.71600 32.96400
C  15.11800 -0.86400 34.18000
H  16.19300 -0.05800 34.89100
N  18.10900 -3.59000 27.73100
C  18.89800 -4.03600 28.77100
C  19.80900 -5.04000 28.38700
C  19.56400 -5.23300 27.01000
C  18.52900 -4.25000 26.58800
C  20.80600 -5.71500 29.25100
C  20.24000 -6.14200 26.00000
O  20.08400 -6.10000 24.80000
C  21.04500 -7.43100 26.43200
N  16.53200 -2.07600 25.66300
C  17.20500 -2.97400 24.83400
C  16.94800 -2.75500 23.32200
C  15.75900 -1.77000 23.39600
C  15.70900 -1.27900 24.86500
C  18.16700 -2.13700 22.65800
C  14.38700 -2.20400 22.76800
C  14.21300 -2.02800 21.18200
N  15.34000 -0.50300 27.70000
C  14.68700 0.17700 26.65900
C  13.88200 1.24900 27.19600
C  14.15700 1.24800 28.57900
C  15.01100 0.19800 28.80400
C  12.86400 2.03700 26.42000
C  13.89400 1.90900 29.86400
O  13.24800 2.88900 30.12100
C  14.66900 1.10000 30.89500
C  15.54500 2.10100 31.61600
O  16.69300 2.40900 31.32100
O  14.78500 2.65500 32.59000
C  15.56300 3.78500 33.22500
H  19.44600 -3.96400 30.75900
H  18.43300 -4.53400 24.41300
H  14.28000 0.34200 24.65100
H  16.97800 -0.24400 32.51800
H  17.98700 -2.94700 32.65900
H  20.00000 -1.26400 31.64100
H  19.73200 -1.89500 33.29700
H  19.13300 -0.29400 32.79700
H  15.73400 -2.69800 33.35400
H  14.53000 -1.77300 32.40700
H  14.85100 -1.57100 34.96600
H  14.17900 -0.32400 34.05400
H  21.81200 -5.85000 28.85300
H  20.46000 -6.70400 29.55200
H  20.95200 -5.18400 30.19200
H  20.98200 -8.19000 25.65300
H  20.53700 -7.89100 27.27900
H  22.10900 -7.27400 26.60700
H  16.68700 -3.60900 22.69800
H  15.91700 -0.80300 22.91700
H  18.08800 -2.36300 21.59400
H  19.12100 -2.50500 23.03600
H  18.08600 -1.05100 22.71400
H  13.54100 -1.69400 23.22900
H  14.16600 -3.27000 22.80900
H  14.98900 -1.35700 20.81400
H  13.26600 -1.54400 20.94400
H  14.26100 -2.99900 20.68900
H  12.71500 1.66100 25.40800
H  13.11900 3.09600 26.38000
H  11.89800 1.91200 26.91100
H  13.95500 0.67800 31.60200
H  16.58500 3.52400 33.49800
H  15.06500 4.01700 34.16700
H  15.58100 4.72100 32.66600
Mg 31.51100 57.81700 39.85500
C  28.53700 56.17400 38.84900
C  33.34000 55.23500 38.55900
C  34.22300 59.94500 40.03200
C  29.43900 60.66000 40.62000
N  30.97600 56.00500 38.79100
C  29.71800 55.51300 38.49200
C  29.84500 54.24000 37.65400
C  31.29800 53.81500 38.03900
C  31.93000 55.12900 38.38100
C  31.35600 52.96400 39.26300
C  29.55300 54.36100 36.05800
C  28.49500 53.49100 35.44700
H  27.42900 54.33500 34.68100
N  33.45600 57.62300 39.34500
C  34.08300 56.43700 38.93100
C  35.49100 56.69300 38.75300
C  35.76700 57.99100 39.16000
C  34.44700 58.59000 39.54800
C  36.51700 55.68200 38.29900
C  37.17100 58.70000 39.19900
O  38.18100 58.03000 38.92800
C  37.33200 60.13400 39.34500
N  31.77800 59.94800 40.27400
C  32.98200 60.48700 40.47300
C  32.90400 61.97400 40.90800
C  31.37700 62.16000 41.03000
C  30.81500 60.86900 40.59100
C  33.70000 62.34900 42.10600
C  30.80300 63.36500 40.16900
C  30.18900 64.50000 41.10300
N  29.41800 58.25500 40.03800
C  28.74300 59.44700 40.28800
C  27.25900 59.23600 40.18500
C  27.19400 57.85100 39.78100
C  28.47400 57.38200 39.54900
C  26.04700 60.26200 40.38600
C  26.26900 56.73900 39.38700
O  25.02400 56.73400 39.37700
C  27.11200 55.59100 38.75600
C  26.88800 54.38400 39.49000
O  27.65200 53.76000 40.22500
O  25.69000 53.91800 39.02600
C  25.31300 52.63700 39.58700
H  34.02100 54.45600 38.21000
H  35.10500 60.57700 40.15800
H  28.80200 61.48200 40.95300
H  29.21900 53.43600 38.04100
H  31.92900 53.40500 37.25000
H  32.41300 52.77300 39.45000
H  30.75600 52.07900 39.05100
H  30.83800 53.34900 40.14100
H  30.49600 54.11100 35.57200
H  29.20700 55.38400 35.90900
H  27.85000 52.99600 36.17300
H  29.06500 52.86000 34.76500
H  37.47600 56.05400 37.93700
H  36.16400 54.98700 37.53800
H  36.75500 55.00900 39.12400
H  37.04300 60.49300 40.33200
H  36.78900 60.64000 38.54700
H  38.34500 60.48400 39.14500
H  33.21800 62.64100 40.10500
H  31.03200 62.32100 42.05100
H  33.10300 62.48400 43.00700
H  34.20300 63.27800 41.84000
H  34.43200 61.66700 42.54100
H  29.93100 63.09100 39.57600
H  31.62600 63.79900 39.60000
H  30.51000 65.40100 40.58100
H  30.62000 64.39900 42.09900
H  29.10400 64.57800 41.17200
H  26.34100 61.04800 41.08200
H  25.21100 59.69200 40.79100
H  25.74700 60.69800 39.43400
H  26.80000 55.35100 37.73900
H  25.03100 52.70700 40.63700
H  26.07100 51.87100 39.42600
H  24.34800 52.32200 39.18900

