158

Mg -11.26100 39.95200 41.75000
C  -10.29000 36.76400 40.87800
C  -8.23000 41.13400 40.88700
C  -12.55600 43.02100 41.77100
C  -14.60200 38.59300 42.22700
N  -9.59100 39.09300 40.76500
C  -9.33800 37.77400 40.54900
C  -7.97500 37.59400 39.91500
C  -7.25700 38.91700 40.25500
C  -8.46700 39.77400 40.62200
C  -6.03800 38.94000 41.20500
C  -8.11000 37.11700 38.44200
C  -7.12000 36.06000 38.04800
H  -5.93600 36.52300 37.16700
N  -10.46600 41.85400 41.49600
C  -9.17900 42.13200 41.18600
C  -9.00700 43.52800 41.16300
C  -10.34500 44.08300 41.23700
C  -11.20200 42.94500 41.50600
C  -7.59600 44.13800 41.00800
C  -10.61800 45.59600 41.19900
O  -9.73000 46.41600 40.97100
C  -11.95500 46.17400 41.38100
N  -13.31300 40.75800 41.94200
C  -13.52300 42.04600 41.92600
C  -15.00300 42.39500 42.25700
C  -15.60200 40.99100 42.55500
C  -14.43900 40.04600 42.23000
C  -15.21100 43.42100 43.31900
C  -16.93700 40.72300 41.90500
C  -17.96900 40.03100 42.89900
N  -12.29300 38.04400 41.65400
C  -13.61200 37.62600 41.91400
C  -13.67600 36.19200 41.90800
C  -12.38400 35.79100 41.45400
C  -11.60100 36.95600 41.34900
C  -14.87700 35.36100 42.27300
C  -11.52400 34.68800 41.12500
O  -11.70700 33.49100 41.24300
C  -10.14700 35.26700 40.64300
C  -8.98200 34.63200 41.43200
O  -8.71000 34.98900 42.54700
O  -8.50400 33.57400 40.76800
C  -7.67400 32.67500 41.60200
H  -7.21200 41.50200 40.74000
H  -12.99400 44.01900 41.69500
H  -15.57100 38.23500 42.58000
H  -7.47700 36.84200 40.52600
H  -6.94200 39.29600 39.28200
H  -6.37800 39.53000 42.05600
H  -5.17900 39.43500 40.75200
H  -5.77800 37.90500 41.42700
H  -8.03900 38.03100 37.85200
H  -9.11400 36.70100 38.35700
H  -7.61600 35.33500 37.40300
H  -6.70600 35.45300 38.85400
H  -7.50300 45.22200 40.94000
H  -7.07700 43.75700 40.12900
H  -6.95300 43.87300 41.84800
H  -12.61200 45.66600 40.67500
H  -11.85800 47.22300 41.10100
H  -12.21300 46.07700 42.43500
H  -15.43700 42.80200 41.34400
H  -15.81300 40.81000 43.60900
H  -15.50800 44.34500 42.82100
H  -14.23800 43.69600 43.72500
H  -15.96000 43.14800 44.06200
H  -16.78200 40.08400 41.03500
H  -17.41200 41.68200 41.70100
H  -18.63000 40.75300 43.37700
H  -17.51900 39.37200 43.64200
H  -18.69100 39.52900 42.25500
H  -15.59700 35.96000 42.83100
H  -14.54600 34.51900 42.88000
H  -15.49100 35.08800 41.41500
H  -9.99600 35.08600 39.57900
H  -7.40300 31.95800 40.82700
H  -8.20900 32.09400 42.35300
H  -6.80200 33.19000 42.00300
Mg 0.27900 43.67000 26.30300
C  2.39400 43.09400 29.08700
C  -2.26800 42.35300 28.12800
C  -1.60400 43.67700 23.48000
C  3.14000 44.25200 24.40100
N  0.10100 42.89500 28.37100
C  1.03500 42.90300 29.41100
C  0.29700 42.82100 30.77000
C  -1.03700 42.08800 30.41000
C  -1.11200 42.46500 28.85300
C  -0.98600 40.50300 30.69400
C  0.19200 44.22200 31.30900
C  -0.20100 44.34200 32.75300
H  -0.54900 43.07300 33.60000
N  -1.75000 43.18800 25.89000
C  -2.63800 42.74900 26.83200
C  -3.93800 42.59900 26.14700
C  -3.76500 42.99800 24.78600
C  -2.34000 43.29400 24.67800
C  -5.11500 42.19800 26.97000
C  -4.71600 42.95000 23.65600
O  -4.46000 43.27100 22.52500
C  -6.14100 42.35400 23.82500
N  0.62800 43.81300 24.22000
C  -0.30500 43.96100 23.26100
C  0.27800 44.44100 21.95100
C  1.76200 44.74900 22.30000
C  1.87000 44.30300 23.75100
C  0.01200 43.42300 20.77700
C  2.24800 46.16900 22.01000
C  2.14600 47.16700 23.22900
N  2.37400 43.64600 26.61000
C  3.40700 43.84000 25.71500
C  4.66000 43.67900 26.42600
C  4.29900 43.42300 27.73800
C  2.89800 43.31900 27.78300
C  6.06900 43.77000 25.82800
C  4.84200 43.15400 29.04000
O  5.97300 42.98700 29.36000
C  3.63000 43.10400 29.95300
C  3.72400 41.97000 30.86200
O  3.75800 40.80500 30.55400
O  3.86400 42.44900 32.08500
C  3.88500 41.47600 33.16800
H  -3.10600 41.92000 28.67800
H  -2.09000 43.75400 22.50400
H  3.96200 44.56200 23.75300
H  0.89500 42.21300 31.44900
H  -1.97400 42.47700 30.80900
H  -0.12700 40.23100 31.30700
H  -0.85000 40.07800 29.69900
H  -1.91300 40.10800 31.10800
H  -0.51700 44.75400 30.67500
H  1.19500 44.64200 31.22900
H  -1.07600 44.98900 32.69200
H  0.56100 44.88400 33.31300
H  -5.06900 42.40200 28.04000
H  -5.24200 41.12900 26.80000
H  -5.97800 42.71200 26.54600
H  -6.77200 43.07100 24.35200
H  -5.94400 41.52600 24.50500
H  -6.52600 41.99000 22.87300
H  -0.23300 45.31000 21.53500
H  2.27600 44.09500 21.59600
H  -0.42000 42.49600 21.15300
H  0.86800 43.17400 20.15000
H  -0.66500 43.85100 20.03800
H  1.55600 46.61300 21.29400
H  3.29300 46.17600 21.70000
H  2.58900 46.75300 24.13400
H  1.12300 47.45900 23.46600
H  2.80900 48.02100 23.09000
H  6.70700 43.60100 26.69600
H  5.85600 44.82300 25.64100
H  6.33000 43.26800 24.89600
H  3.68200 44.03600 30.51600
H  3.23500 41.97200 33.88900
H  4.92600 41.46100 33.49100
H  3.54100 40.45700 32.98700

