158

Mg 47.75700 25.02500 28.21100
C  48.05600 27.25300 30.93300
C  45.93400 22.98500 30.26100
C  47.73000 22.88900 25.74200
C  49.32300 27.35900 26.24700
N  47.40700 24.95700 30.40000
C  47.41800 26.08300 31.24300
C  46.80500 25.68700 32.59200
C  46.37600 24.26200 32.38800
C  46.53400 24.06200 30.89400
C  47.25700 23.28900 33.04900
C  45.63200 26.54900 33.14700
C  45.69400 26.56400 34.65600
H  44.34500 26.46600 35.52100
N  46.97200 23.21600 28.02400
C  46.15200 22.56100 28.95200
C  45.61900 21.32000 28.36300
C  46.02500 21.32800 27.03100
C  46.95700 22.54900 26.87500
C  44.78400 20.30800 29.08300
C  45.58800 20.37800 25.86000
O  45.89900 20.51000 24.70500
C  44.59500 19.25500 26.18800
N  48.54800 25.05700 26.31500
C  48.43200 24.04800 25.40400
C  48.97500 24.36600 24.00100
C  49.47900 25.81100 24.14100
C  49.11700 26.08800 25.68900
C  49.95000 23.21800 23.54200
C  48.72700 26.81900 23.11200
C  47.24900 27.04200 23.38100
N  48.54600 26.96800 28.44600
C  49.10200 27.78600 27.52700
C  49.48600 29.07000 28.12000
C  49.06300 28.92000 29.46300
C  48.48700 27.60200 29.64100
C  50.08600 30.21800 27.31400
C  48.95100 29.55700 30.70700
O  49.20600 30.70700 31.06700
C  48.24900 28.47500 31.73800
C  49.03600 28.35800 33.00400
O  50.08600 27.84300 33.13900
O  48.36700 28.90300 34.02900
C  48.91300 28.44700 35.33200
H  45.17500 22.49900 30.87800
H  47.67600 22.15100 24.93900
H  49.79900 28.10800 25.61100
H  47.63000 25.85500 33.28400
H  45.31600 24.10100 32.58700
H  47.82400 23.79100 33.83400
H  47.87400 22.64700 32.42100
H  46.52800 22.64800 33.54300
H  44.64700 26.23400 32.80300
H  45.72200 27.59100 32.84300
H  46.07700 27.54600 34.93500
H  46.45400 25.91000 35.08200
H  43.70200 20.30100 28.95700
H  44.93900 20.45800 30.15100
H  45.26000 19.34500 28.89800
H  45.12600 18.60300 26.88200
H  44.44500 18.64800 25.29500
H  43.65100 19.58900 26.62000
H  48.21700 24.26600 23.22400
H  50.55700 25.77900 23.98700
H  50.89300 23.61600 23.16800
H  49.56300 22.68200 22.67500
H  50.29400 22.59700 24.36900
H  48.88000 26.27100 22.18200
H  49.27100 27.76000 23.19300
H  47.30100 28.05800 23.77200
H  46.64800 26.38800 24.01300
H  46.68900 27.10100 22.44800
H  49.29300 30.64400 26.69900
H  50.78500 29.87500 26.55100
H  50.44700 30.97400 28.01200
H  47.24500 28.87600 31.87400
H  48.46400 27.48600 35.58000
H  48.80800 29.18200 36.13100
H  49.99600 28.32600 35.35800
Mg 8.94900 47.01500 25.42600
C  6.80900 46.86000 28.07300
C  11.49800 48.21400 27.43100
C  10.90100 47.32600 22.71400
C  6.25200 46.36700 23.25100
N  9.10100 47.54400 27.43100
C  8.15000 47.17000 28.41200
C  8.65500 47.52200 29.82400
C  10.00200 48.27000 29.61600
C  10.21300 48.02600 28.09300
C  9.96200 49.76400 29.93900
C  8.69700 46.34900 30.85600
C  9.70300 46.41500 32.04400
H  9.38900 45.63200 33.35700
N  10.91300 47.64100 25.13500
C  11.82200 48.00200 26.12800
C  13.19800 48.02700 25.52000
C  13.04800 47.66500 24.19500
C  11.59300 47.56100 23.93300
C  14.41900 48.29200 26.42200
C  14.10900 47.19600 23.15300
O  13.75500 47.01100 21.97000
C  15.51800 46.97300 23.54800
N  8.55300 47.06200 23.23900
C  9.57100 47.21100 22.36800
C  9.09700 47.04700 20.91500
C  7.54200 46.82400 21.06200
C  7.42900 46.75300 22.59300
C  9.38100 48.16500 19.87200
C  6.97100 45.59100 20.27700
C  5.61500 45.88100 19.52700
N  6.92500 46.80700 25.60800
C  5.93400 46.48400 24.65900
C  4.64000 46.39700 25.35700
C  4.97200 46.50800 26.74700
C  6.34700 46.74700 26.81600
C  3.30100 46.05900 24.71500
C  4.37000 46.50800 28.09600
O  3.26300 46.36600 28.51800
C  5.60300 46.58200 28.98400
C  5.76500 45.23300 29.73900
O  6.34900 44.26500 29.33200
O  5.25700 45.31200 30.96000
C  5.35500 44.19800 31.88500
H  12.26000 48.47300 28.16900
H  11.44000 47.35400 21.76500
H  5.33700 46.41900 22.65700
H  7.86400 48.11800 30.27800
H  10.87900 47.84200 30.10300
H  9.52500 50.37200 29.14700
H  10.96200 50.16500 30.10300
H  9.42600 49.95000 30.87000
H  8.99700 45.56600 30.15900
H  7.70600 46.30000 31.30700
H  9.87500 47.44500 32.35600
H  10.67100 46.06000 31.69000
H  14.09900 48.62600 27.40900
H  15.05800 49.04800 25.96700
H  14.98700 47.38500 26.62900
H  15.39700 46.42000 24.48000
H  16.13200 47.82800 23.83100
H  16.05300 46.42100 22.77600
H  9.56800 46.12000 20.58600
H  6.99100 47.68100 20.67500
H  9.60100 49.09400 20.39800
H  8.57400 48.20000 19.14000
H  10.28300 47.96600 19.29300
H  6.68200 44.77600 20.94000
H  7.66900 45.20800 19.53200
H  5.54300 46.94800 19.31800
H  4.77600 45.63200 20.17700
H  5.52900 45.39400 18.55600
H  3.35700 46.23900 23.64200
H  2.52400 46.61400 25.24000
H  3.18200 44.98900 24.88500
H  5.51200 47.38500 29.71600
H  6.33900 43.74500 32.00400
H  4.62700 43.42600 31.63500
H  5.39800 44.59600 32.89800

