158

Mg 35.45100 2.17500 29.17800
C  33.56500 3.40000 31.96400
C  38.10100 1.83100 31.28400
C  37.26700 1.20700 26.61900
C  32.85400 3.22000 27.09000
N  35.76800 2.56600 31.39200
C  34.87300 3.06500 32.30100
C  35.51100 3.03100 33.69200
C  37.05300 2.99800 33.27300
C  36.99900 2.46700 31.88200
C  37.62000 4.40400 33.34900
C  35.10600 1.79600 34.61800
C  34.66000 2.09500 36.07400
H  35.22400 3.34500 36.69900
N  37.37100 1.38300 28.96800
C  38.25900 1.34000 30.01300
C  39.52100 0.73100 29.48200
C  39.35100 0.58300 28.07900
C  37.96000 1.04500 27.78500
C  40.74700 0.42000 30.36600
C  40.28400 -0.07200 27.13000
O  39.92900 -0.31800 25.96800
C  41.62600 -0.63900 27.47000
N  35.08400 2.22800 27.14000
C  35.97600 1.66500 26.26000
C  35.54700 1.76000 24.81100
C  34.02200 2.21500 24.99000
C  33.93300 2.48800 26.51000
C  36.44300 2.51600 23.77200
C  32.90700 1.36500 24.43300
C  32.69300 -0.12700 24.88500
N  33.64500 3.05900 29.42900
C  32.69300 3.43900 28.44700
C  31.51500 3.94200 29.09400
C  31.74100 3.95000 30.45600
C  33.09000 3.44300 30.60700
C  30.20700 4.36700 28.58400
C  31.26200 4.17600 31.79600
O  30.18100 4.57800 32.19000
C  32.45800 3.92800 32.85600
C  32.78900 5.23700 33.56200
O  33.64000 5.98600 33.17900
O  31.86900 5.44000 34.59800
C  31.98200 6.74100 35.21200
H  38.91000 1.85100 32.01800
H  37.86800 0.87800 25.76900
H  32.00800 3.44200 26.43700
H  35.14200 3.88800 34.25500
H  37.57600 2.42200 34.03700
H  38.15000 4.65000 32.42900
H  38.34800 4.44400 34.15900
H  36.86000 5.14700 33.59000
H  35.86800 1.02200 34.70900
H  34.19000 1.38400 34.19700
H  35.14700 1.27200 36.59600
H  33.57300 2.10100 36.15500
H  40.81100 0.84200 31.36900
H  41.64300 0.75100 29.84100
H  40.92100 -0.65200 30.45300
H  41.61700 -1.45000 28.19800
H  42.11600 0.26800 27.82500
H  42.13000 -1.01300 26.57900
H  35.44300 0.75700 24.39500
H  33.90500 3.25100 24.67100
H  37.40300 2.82200 24.18800
H  35.95400 3.43700 23.45700
H  36.63200 1.91000 22.88600
H  32.87000 1.44300 23.34600
H  31.94500 1.76900 24.74600
H  32.46900 -0.70300 23.98700
H  31.82400 -0.18800 25.54000
H  33.64500 -0.46200 25.29600
H  29.97800 5.43000 28.51100
H  29.40100 3.83400 29.08800
H  30.13600 4.03500 27.54800
H  32.08500 3.12600 33.49400
H  31.76800 7.39200 34.36400
H  32.97200 6.85200 35.65200
H  31.17900 6.88700 35.93500
Mg 40.88000 9.79100 29.93400
C  42.41200 10.71500 32.88000
C  38.38200 8.31400 31.81900
C  39.75500 8.23000 27.11600
C  43.74100 10.60900 28.21100
N  40.48700 9.53100 32.08000
C  41.21600 10.06100 33.11300
C  40.52000 9.86300 34.50100
C  39.30800 8.90900 34.10500
C  39.30600 9.02100 32.57200
C  39.43500 7.44200 34.61800
C  40.08700 11.16800 35.21000
C  40.58000 11.21200 36.68000
H  41.06000 12.57000 37.08100
N  39.18200 8.67200 29.50000
C  38.28000 8.16300 30.39800
C  37.29400 7.43800 29.67500
C  37.68200 7.42500 28.32000
C  38.96100 8.14600 28.28400
C  36.16700 6.71000 30.37900
C  36.93300 6.80300 27.09900
O  37.37800 6.89600 25.94200
C  35.59100 6.21000 27.26100
N  41.69900 9.21700 27.95900
C  40.99600 8.77000 26.91700
C  41.66800 8.84900 25.53600
C  42.90100 9.74600 25.94800
C  42.80300 9.84600 27.50100
C  41.91000 7.40200 24.98100
C  42.82000 11.14400 25.17600
C  41.69700 12.14800 25.62700
N  42.62600 10.60400 30.41700
C  43.74900 10.93500 29.57600
C  44.70300 11.71300 30.33100
C  44.19500 11.63400 31.63700
C  42.99800 10.94000 31.65500
C  46.04900 12.29900 29.82400
C  44.53100 11.99600 32.98000
O  45.44300 12.66900 33.38100
C  43.39600 11.36000 33.88900
C  44.11600 10.43400 34.82500
O  44.30700 9.26900 34.56100
O  44.51800 11.14000 35.92200
C  44.99300 10.34000 37.04300
H  37.66000 7.74500 32.40800
H  39.40900 7.89600 26.13500
H  44.55500 10.89700 27.54300
H  41.25600 9.29000 35.06600
H  38.34800 9.24500 34.49800
H  39.52300 7.48200 35.70300
H  40.37500 7.05900 34.22000
H  38.68000 6.71100 34.32600
H  39.00400 11.26600 35.13100
H  40.37000 12.06900 34.66500
H  41.45100 10.58400 36.86600
H  39.87500 10.95200 37.47000
H  36.37800 6.45800 31.41800
H  35.97400 5.72300 29.96100
H  35.19000 7.19300 30.36400
H  35.40700 5.18800 26.92900
H  34.99000 6.83500 26.60100
H  35.14800 6.43600 28.23100
H  41.04400 9.45000 24.87400
H  43.86800 9.39500 25.58900
H  41.66300 6.74600 25.81600
H  42.96800 7.34400 24.72400
H  41.37600 7.17100 24.06000
H  42.56900 10.85600 24.15500
H  43.74700 11.71500 25.12900
H  41.16300 11.68700 26.45800
H  40.97400 12.41900 24.85700
H  42.19600 13.05700 25.96300
H  45.88300 13.10100 29.10500
H  46.77600 11.50100 29.67300
H  46.30600 12.80500 30.75500
H  42.91700 12.17700 34.42800
H  45.21400 10.91400 37.94200
H  45.94400 9.93500 36.69800
H  44.35600 9.52200 37.38100

