158

Mg 17.52500 -2.98500 28.75600
C  16.38400 -0.59100 30.94600
C  19.24900 -4.52700 31.28900
C  18.98500 -5.14100 26.50800
C  16.15900 -1.17800 26.05700
N  17.78300 -2.48300 30.84800
C  17.23400 -1.48300 31.62800
C  17.49000 -1.62100 33.13300
C  18.61800 -2.74300 33.07800
C  18.53600 -3.34600 31.63000
C  20.00300 -2.07800 33.44900
C  16.25400 -1.99200 34.02400
C  16.33900 -1.30700 35.39200
H  17.71300 -0.60600 35.74600
N  18.86200 -4.71600 28.88600
C  19.46400 -5.10600 30.03600
C  20.26600 -6.34800 29.77700
C  20.19100 -6.50400 28.32900
C  19.32800 -5.41700 27.84700
C  20.81600 -7.22900 30.84300
C  20.75700 -7.57600 27.45200
O  20.48400 -7.77200 26.23400
C  21.74400 -8.57300 28.06700
N  17.66600 -3.07100 26.64400
C  18.31900 -4.04500 25.91100
C  18.02500 -3.92100 24.46800
C  17.25500 -2.58500 24.29200
C  16.89200 -2.33600 25.71500
C  19.29600 -4.05300 23.40800
C  16.05700 -2.58900 23.28700
C  16.26900 -1.60000 22.02100
N  16.41200 -1.29600 28.46600
C  15.91800 -0.67100 27.37200
C  15.08700 0.45400 27.77800
C  15.21400 0.54800 29.14700
C  16.04900 -0.53300 29.52400
C  14.17800 1.31500 26.92600
C  14.83400 1.28500 30.35100
O  14.09000 2.25900 30.50600
C  15.66300 0.60600 31.59600
C  16.64000 1.56200 32.05100
O  17.75100 1.71800 31.59600
O  15.95400 2.35100 32.92900
C  16.74800 3.58100 33.29700
H  19.83200 -4.98000 32.09300
H  19.28500 -5.81000 25.69800
H  15.79200 -0.57000 25.22700
H  17.92700 -0.65900 33.40100
H  18.43400 -3.57500 33.75700
H  19.99100 -1.20100 34.09700
H  20.34700 -1.61800 32.52200
H  20.68700 -2.80100 33.89400
H  16.11900 -3.06500 34.15700
H  15.44900 -1.57400 33.42000
H  15.97800 -1.86300 36.25700
H  15.60600 -0.51800 35.22100
H  20.60500 -8.25100 30.52700
H  20.44500 -7.03200 31.84900
H  21.87500 -7.05100 31.03000
H  21.23800 -9.40200 28.56200
H  22.37500 -7.94800 28.69800
H  22.27600 -8.91300 27.17800
H  17.30700 -4.72300 24.29500
H  18.07900 -1.91100 24.05400
H  19.56000 -3.11600 22.91800
H  19.22100 -4.80300 22.62000
H  20.20200 -4.42000 23.89000
H  15.09900 -2.42300 23.78100
H  15.94700 -3.57800 22.84300
H  15.86300 -2.07100 21.12600
H  17.32000 -1.32400 21.94200
H  15.64900 -0.70400 22.05900
H  14.42600 2.37600 26.94500
H  13.11700 1.22700 27.16100
H  14.25400 0.99700 25.88600
H  14.95800 0.18200 32.31100
H  17.00600 4.16300 32.41300
H  17.59600 3.32800 33.93500
H  16.26300 4.26400 33.99400
Mg 26.82700 50.66100 27.52100
C  24.61200 51.84600 29.92000
C  28.88500 49.68000 29.94000
C  28.87300 49.72200 25.09000
C  24.57300 52.03200 25.11200
N  26.69300 50.72500 29.61500
C  25.74300 51.29500 30.46000
C  26.00400 51.05200 31.90000
C  27.51200 50.49700 31.88700
C  27.71700 50.27200 30.37500
C  28.62700 51.48900 32.36700
C  25.07600 49.97200 32.54100
C  24.44700 50.34500 33.90400
H  25.42200 50.93700 35.01100
N  28.61000 49.86300 27.46500
C  29.30600 49.51300 28.61300
C  30.60700 48.98600 28.27000
C  30.71700 49.12300 26.85600
C  29.35700 49.56400 26.38400
C  31.60400 48.52700 29.21100
C  31.88500 48.77200 25.91300
O  31.80400 48.76000 24.67500
C  33.21400 48.27500 26.34100
N  26.76100 50.84400 25.31800
C  27.69400 50.32200 24.57200
C  27.26200 50.31200 23.14100
C  25.84700 50.91000 23.16900
C  25.71200 51.32000 24.62700
C  28.21000 51.07600 22.10400
C  24.71500 49.86800 22.84700
C  23.52900 50.40900 22.07000
N  24.97000 51.80400 27.44600
C  24.19100 52.36100 26.41600
C  23.08700 53.04800 26.94500
C  23.17200 52.91100 28.31200
C  24.35200 52.15400 28.57500
C  22.01300 53.72700 26.26500
C  22.56400 53.24600 29.55500
O  21.59600 53.95500 29.72000
C  23.52300 52.66900 30.69700
C  23.92700 53.86300 31.58300
O  24.94200 54.52400 31.33600
O  23.04700 54.02100 32.60400
C  23.46200 54.90400 33.70500
H  29.42300 49.26600 30.79600
H  29.55000 49.41800 24.28900
H  23.97700 52.34100 24.25100
H  25.85300 51.96700 32.47300
H  27.61800 49.54300 32.40400
H  29.29400 51.73700 31.54200
H  29.20000 50.97000 33.13500
H  28.27900 52.42700 32.79800
H  25.66300 49.06400 32.67800
H  24.26800 49.70800 31.85800
H  23.84500 49.49900 34.23700
H  23.76000 51.14100 33.61500
H  31.75000 47.44700 29.19600
H  31.36100 48.70500 30.25800
H  32.54800 49.07100 29.21300
H  33.62700 47.79400 25.45400
H  32.90300 47.40600 26.92100
H  33.59600 49.19200 26.79100
H  27.22300 49.24700 22.91100
H  25.78400 51.85600 22.63100
H  29.10100 51.55500 22.51200
H  27.65700 51.75900 21.46000
H  28.59000 50.27300 21.47200
H  24.40300 49.38800 23.77500
H  25.11500 49.00700 22.31000
H  22.55400 50.46200 22.55500
H  23.49200 49.63300 21.30600
H  23.69800 51.35600 21.55800
H  22.32700 54.09300 25.28700
H  21.69700 54.53700 26.92200
H  21.19200 53.02000 26.14900
H  22.90000 52.01800 31.31000
H  23.47800 55.93700 33.35800
H  24.40200 54.60400 34.16900
H  22.79700 54.85800 34.56800

