158

Mg 26.11500 0.89800 29.21600
C  28.14900 0.77700 32.05800
C  23.32900 1.37000 31.39000
C  24.05400 1.07200 26.59000
C  28.73200 -0.04000 27.30500
N  25.83400 1.09000 31.48600
C  26.85200 1.14100 32.41000
C  26.19500 1.55100 33.78700
C  24.58000 1.50200 33.52700
C  24.60700 1.31700 31.99000
C  23.76500 0.47800 34.34800
C  26.73000 2.86000 34.28400
C  27.75400 2.78200 35.44000
H  27.57300 3.74100 36.60000
N  23.99800 1.28800 28.99600
C  23.06000 1.36600 29.98700
C  21.77800 1.42100 29.37300
C  21.92200 1.46900 27.94700
C  23.36800 1.27300 27.75900
C  20.48100 1.42000 30.13200
C  20.97200 1.72300 26.83300
O  21.28100 1.74000 25.61800
C  19.51400 2.04800 27.06600
N  26.37900 0.71100 27.20600
C  25.40000 0.78900 26.27100
C  26.01700 0.60400 24.87000
C  27.49800 0.21000 25.10500
C  27.56100 0.32300 26.64600
C  25.24900 -0.44500 24.05000
C  28.57100 1.07300 24.41400
C  28.54500 1.07600 22.87200
N  28.02400 0.33700 29.53500
C  29.04700 0.04500 28.66500
C  30.23300 -0.26400 29.36500
C  29.93600 0.00100 30.76500
C  28.62500 0.49500 30.77700
C  31.54100 -0.74800 28.79300
C  30.46100 0.06000 32.11200
O  31.56000 -0.31500 32.50500
C  29.38700 0.60100 32.95200
C  29.25100 -0.37800 34.04800
O  28.65500 -1.43800 34.06700
O  29.87500 0.16800 35.17900
C  29.61700 -0.48300 36.44800
H  22.48200 1.60000 32.04000
H  23.41400 1.11000 25.70700
H  29.59600 -0.32000 26.70000
H  26.46000 0.75000 34.47800
H  24.06900 2.46000 33.61500
H  24.38400 0.16000 35.18700
H  23.57900 -0.39800 33.72700
H  22.85600 0.98200 34.67700
H  25.98800 3.60300 34.57800
H  27.32800 3.23700 33.45400
H  28.75200 2.97100 35.04500
H  27.82900 1.76100 35.81400
H  20.63300 0.92800 31.09300
H  19.73700 0.81900 29.60900
H  20.32900 2.48900 30.27500
H  19.04300 1.16500 27.49900
H  19.02300 2.31200 26.12900
H  19.44200 2.82200 27.83000
H  25.93000 1.58800 24.40900
H  27.61900 -0.85500 24.90400
H  24.64300 0.15100 23.36800
H  24.63200 -1.06000 24.70500
H  25.83400 -1.05700 23.36300
H  29.55800 0.74200 24.73700
H  28.32800 2.05500 24.82000
H  29.54700 0.98700 22.45100
H  28.05400 1.93600 22.41700
H  27.88700 0.27200 22.54200
H  32.34800 -0.34700 29.40600
H  31.62100 -0.44600 27.74900
H  31.58600 -1.82200 28.97800
H  29.65500 1.53100 33.45300
H  29.57200 -1.56700 36.33500
H  28.75900 0.00200 36.91300
H  30.52600 -0.37100 37.03900
Mg 47.47900 16.01900 27.54600
C  45.52200 15.62600 30.57400
C  49.75000 17.64300 29.31200
C  49.11800 16.41300 24.66300
C  44.88800 14.49500 25.86800
N  47.61500 16.51800 29.77800
C  46.78400 16.25400 30.80300
C  47.23100 16.93200 32.12100
C  48.57700 17.61600 31.65500
C  48.71300 17.27700 30.18700
C  48.56200 19.19700 31.78900
C  47.41800 15.91300 33.20800
C  46.59200 16.09300 34.48700
H  46.38800 17.44300 35.05000
N  49.22300 16.97300 27.06400
C  50.09900 17.53900 27.94800
C  51.37400 17.72900 27.27800
C  51.22900 17.29300 25.91500
C  49.78600 16.84700 25.81200
C  52.58500 18.25600 28.02300
C  52.27800 17.30500 24.79100
O  52.05600 16.75700 23.69800
C  53.60100 17.95800 25.05100
N  47.19200 15.37000 25.59800
C  47.95400 15.70100 24.53900
C  47.35000 15.36600 23.16900
C  46.02900 14.64000 23.54500
C  46.01200 14.80500 25.12900
C  47.10300 16.59900 22.17000
C  45.92600 13.11700 23.18400
C  44.65900 12.70800 22.50200
N  45.66400 15.04300 28.09500
C  44.70500 14.62800 27.26700
C  43.59600 14.11200 28.02900
C  43.88200 14.53700 29.35400
C  45.16400 15.11300 29.34100
C  42.38900 13.39300 27.56700
C  43.35900 14.56700 30.72800
O  42.26200 14.18800 31.17900
C  44.42400 15.35800 31.56200
C  43.80300 16.48700 32.30400
O  43.78500 17.65700 32.10200
O  43.18800 15.90600 33.37500
C  42.29400 16.77400 34.15600
H  50.51200 18.11900 29.93300
H  49.72900 16.59500 23.77600
H  44.09700 14.00900 25.29300
H  46.51900 17.68100 32.46800
H  49.44300 17.34200 32.25900
H  47.73900 19.51100 32.43100
H  48.42900 19.73900 30.85300
H  49.48900 19.40900 32.32300
H  48.44300 15.83900 33.57100
H  47.04500 14.95800 32.83700
H  46.99800 15.47200 35.28600
H  45.55500 15.75800 34.53300
H  53.20800 17.38300 28.21600
H  52.50000 18.72100 29.00500
H  53.16800 18.96400 27.43500
H  53.47500 19.01400 25.29100
H  54.26300 17.93300 24.18500
H  54.00200 17.35400 25.86500
H  48.01800 14.68800 22.63700
H  45.12700 15.11800 23.16300
H  47.87300 16.58800 21.39800
H  47.26900 17.55400 22.66900
H  46.12100 16.60000 21.69600
H  46.10900 12.52700 24.08200
H  46.70400 12.91600 22.44800
H  44.65900 12.79000 21.41500
H  43.87400 13.32600 22.93700
H  44.53500 11.64400 22.70400
H  42.70300 12.43300 27.15600
H  41.98400 13.85900 26.66900
H  41.68900 13.20300 28.38100
H  44.90400 14.70700 32.29300
H  41.75700 17.48100 33.52300
H  42.83400 17.38100 34.88200
H  41.68400 16.03500 34.67500

