158

Mg -2.06000 18.10900 27.35100
C  -2.63000 15.77200 29.63300
C  -2.81600 20.60100 29.55200
C  -1.62700 20.19400 24.81500
C  -1.60100 15.50200 24.94900
N  -2.79800 18.14600 29.27600
C  -2.79500 17.07800 30.17700
C  -2.88400 17.48500 31.70600
C  -3.12400 19.03000 31.57900
C  -2.89300 19.32500 30.05300
C  -4.54900 19.64600 32.09400
C  -1.79200 17.01300 32.65500
C  -1.39000 17.80600 33.92800
H  -0.77600 16.98500 35.00500
N  -2.25200 20.10600 27.20700
C  -2.56100 20.98000 28.21600
C  -2.38900 22.37000 27.72200
C  -1.82700 22.25300 26.40700
C  -1.78800 20.84100 26.08700
C  -2.69100 23.59200 28.68100
C  -1.26500 23.39700 25.60800
O  -0.72900 23.25000 24.51400
C  -1.26200 24.77100 26.14800
N  -1.82500 17.84800 25.17100
C  -1.55100 18.90300 24.43600
C  -1.35500 18.48900 22.92600
C  -1.06000 17.00500 22.99300
C  -1.49900 16.71200 24.43800
C  -2.60100 18.73600 22.05600
C  0.40900 16.64100 22.72600
C  1.52600 17.18100 23.73200
N  -1.92100 16.11000 27.27600
C  -1.86100 15.14000 26.27100
C  -1.97700 13.81300 26.84000
C  -2.33300 13.98200 28.13300
C  -2.32300 15.38100 28.30900
C  -1.80800 12.52700 26.20100
C  -2.63400 13.29900 29.31900
O  -2.66600 12.11100 29.48200
C  -2.83400 14.40100 30.39600
C  -1.79700 14.01700 31.39300
O  -0.57600 14.23300 31.32800
O  -2.35600 13.29500 32.47000
C  -1.49600 13.04200 33.61700
H  -2.66100 21.35100 30.33000
H  -1.39800 20.80300 23.93800
H  -1.27400 14.69600 24.28800
H  -3.84500 17.08000 32.02300
H  -2.33600 19.53900 32.13400
H  -4.27200 20.34600 32.88200
H  -5.15900 18.98800 32.71300
H  -5.12300 20.09800 31.28500
H  -0.84500 17.09800 32.12300
H  -1.95600 15.96100 32.88900
H  -2.25900 18.36400 34.27700
H  -0.57200 18.49600 33.71900
H  -1.75000 24.05300 28.98000
H  -3.22100 23.20800 29.55300
H  -3.35800 24.34300 28.25900
H  -2.24300 25.18800 26.37400
H  -0.80100 25.46700 25.44700
H  -0.64200 24.79400 27.04400
H  -0.51500 19.03600 22.49900
H  -1.62700 16.37400 22.30900
H  -3.32800 19.19700 22.72500
H  -3.05700 17.85300 21.60800
H  -2.31800 19.48300 21.31400
H  0.69100 16.87100 21.69800
H  0.46600 15.55800 22.61900
H  2.09500 16.38800 24.21800
H  1.05800 17.77100 24.52000
H  2.26900 17.85200 23.30000
H  -1.06200 12.57500 25.40700
H  -2.68200 11.99800 25.82200
H  -1.44100 11.85300 26.97500
H  -3.84600 14.24200 30.76800
H  -2.10500 13.43400 34.43100
H  -0.57600 13.62500 33.58300
H  -1.33200 11.96500 33.62100
Mg 0.50900 43.19700 26.85000
C  3.17900 43.48300 29.11900
C  -1.47100 42.60200 29.56100
C  -1.89700 42.59000 24.72400
C  2.76900 43.54800 24.28300
N  0.88700 42.87000 29.13300
C  2.00600 43.26100 29.80800
C  1.75500 43.27500 31.27600
C  0.36900 42.49900 31.41700
C  -0.14100 42.68500 29.98900
C  0.44000 41.07700 31.95900
C  1.69900 44.69200 31.68500
C  1.51200 45.02300 33.18300
H  1.37100 43.95100 34.20100
N  -1.46900 42.80800 27.09500
C  -2.15200 42.59000 28.28500
C  -3.48700 42.34000 28.05800
C  -3.66000 42.29900 26.66800
C  -2.32800 42.53300 26.06200
C  -4.51700 42.03300 29.12700
C  -4.88200 42.05900 25.85300
O  -4.87100 41.96900 24.64000
C  -6.27900 41.87500 26.46100
N  0.49300 42.97700 24.84600
C  -0.64300 42.73900 24.15300
C  -0.28800 42.51700 22.67800
C  1.09900 43.14300 22.50900
C  1.51400 43.20800 23.97700
C  -0.53700 40.95100 22.29100
C  1.15200 44.45900 21.63800
C  2.29100 44.40700 20.54900
N  2.51600 43.51200 26.63300
C  3.33700 43.65400 25.50500
C  4.71600 43.64300 25.81800
C  4.65700 43.65700 27.24800
C  3.32900 43.51100 27.63400
C  5.98400 43.79800 24.95600
C  5.50400 43.66800 28.44600
O  6.76800 43.64500 28.63900
C  4.49000 43.83500 29.68400
C  4.99300 43.01400 30.80000
O  5.14300 41.79300 30.76100
O  5.31300 43.83500 31.86500
C  5.85700 43.10000 33.06400
H  -2.22200 42.33900 30.30900
H  -2.70200 42.48400 23.99400
H  3.36600 43.76100 23.39300
H  2.50500 42.60900 31.70400
H  -0.20500 42.97100 32.21500
H  0.22700 41.13800 33.02600
H  1.42200 40.61800 31.84200
H  -0.27200 40.55700 31.31800
H  1.01300 45.28600 31.08100
H  2.63500 45.15900 31.38100
H  0.71700 45.76900 33.19400
H  2.52900 45.38400 33.34000
H  -5.04700 42.89300 29.53900
H  -4.00300 41.51100 29.93300
H  -5.27700 41.31500 28.82000
H  -7.03400 42.14500 25.72200
H  -6.47700 42.61400 27.23700
H  -6.36500 40.87900 26.89500
H  -0.93400 43.16700 22.08800
H  1.67700 42.32400 22.08000
H  -1.19900 40.52700 23.04700
H  0.32800 40.29000 22.33300
H  -0.99400 40.78600 21.31600
H  1.47400 45.18500 22.38500
H  0.20700 44.86100 21.27300
H  1.73200 44.25100 19.62600
H  3.04200 43.64500 20.75500
H  2.75100 45.39500 20.58800
H  6.52000 42.85000 24.89500
H  6.66100 44.53800 25.38300
H  5.61000 43.99800 23.95200
H  4.59800 44.87900 29.97800
H  4.94200 43.03700 33.65400
H  6.61200 43.62800 33.64600
H  6.19200 42.08600 32.84400

