158

Mg 8.12600 48.19300 27.80500
C  6.05700 47.85700 30.64700
C  10.78800 48.41900 29.99400
C  10.07500 49.11400 25.27100
C  5.30700 49.12000 26.06900
N  8.42700 48.10100 30.08800
C  7.39500 48.03300 31.06000
C  7.97300 48.04700 32.47700
C  9.56100 48.38000 32.25200
C  9.62300 48.32400 30.71700
C  10.01800 49.73800 32.72300
C  7.73300 46.65400 33.30200
C  8.63900 46.40000 34.55000
H  8.11200 45.54400 35.70200
N  10.19800 48.44100 27.56100
C  11.09700 48.49000 28.58100
C  12.46200 48.44200 28.05500
C  12.32500 48.67300 26.66400
C  10.78100 48.72700 26.40500
C  13.69900 48.30700 28.86300
C  13.37100 48.84400 25.54300
O  13.07000 49.21000 24.40100
C  14.78700 48.68700 25.91400
N  7.76900 49.20700 26.00100
C  8.75900 49.43700 25.10800
C  8.21100 50.24100 23.88500
C  6.62500 50.05900 24.07300
C  6.54000 49.45200 25.48400
C  8.61900 51.76700 23.86400
C  5.86000 49.13000 23.05900
C  4.54200 49.62700 22.48700
N  6.07500 48.24000 28.20900
C  5.05100 48.60000 27.39100
C  3.81000 48.24900 27.92200
C  4.16000 47.91200 29.24800
C  5.51000 48.05500 29.41100
C  2.45900 48.30500 27.20200
C  3.61900 47.58900 30.52200
O  2.49400 47.29700 30.89900
C  4.84900 47.45500 31.49600
C  4.83200 46.01800 31.95900
O  5.09200 45.01800 31.33500
O  4.40500 46.00800 33.27300
C  4.17100 44.65200 33.86900
H  11.69500 48.56700 30.58500
H  10.61900 49.50500 24.40900
H  4.42100 49.46100 25.53000
H  7.51100 48.82700 33.08200
H  10.24400 47.64300 32.67600
H  9.23300 50.18700 33.33200
H  10.24300 50.46900 31.94500
H  10.93800 49.60200 33.29100
H  7.79000 45.75300 32.69100
H  6.79000 46.82400 33.82100
H  8.99800 47.35200 34.94200
H  9.46200 45.87900 34.06100
H  14.31700 47.49200 28.48500
H  13.42200 48.10500 29.89800
H  14.26000 49.24100 28.90400
H  15.18100 49.52200 26.49300
H  15.33300 48.63800 24.97200
H  14.84300 47.74600 26.46200
H  8.66200 49.77200 23.01000
H  6.31400 51.10400 24.08100
H  9.29000 51.99300 24.69200
H  7.80600 52.48700 23.77600
H  9.18800 52.02800 22.97100
H  5.66700 48.22600 23.63500
H  6.50500 48.81800 22.23700
H  3.89300 48.78400 22.72600
H  4.65500 49.74800 21.41000
H  4.25800 50.57700 22.93900
H  2.39100 49.31800 26.80400
H  1.76500 48.21800 28.03800
H  2.42600 47.58300 26.38600
H  4.80700 48.17700 32.31100
H  3.49500 44.75600 34.71800
H  5.06200 44.09700 34.16000
H  3.69800 43.99000 33.14400
Mg -2.39200 34.55800 26.05300
C  -3.77100 32.36000 28.39800
C  -1.10500 36.47900 28.61300
C  -1.04900 36.46800 23.68800
C  -3.95400 32.52600 23.52800
N  -2.49900 34.42800 28.27000
C  -3.01000 33.37600 29.01300
C  -2.84200 33.63500 30.49000
C  -2.27000 35.14600 30.54200
C  -1.95500 35.40500 29.06200
C  -3.23800 36.23000 31.15600
C  -1.94600 32.55000 31.14100
C  -2.49300 31.90300 32.39600
H  -1.46900 32.06600 33.55200
N  -1.24700 36.28900 26.12300
C  -0.73100 36.82000 27.34400
C  0.01100 38.05900 26.92600
C  0.16300 38.04400 25.46700
C  -0.74000 36.88700 25.01200
C  0.69800 38.95100 27.89100
C  0.81600 39.09500 24.59200
O  0.82800 38.92800 23.36000
C  1.46200 40.35400 25.14400
N  -2.70000 34.71100 23.87900
C  -1.93200 35.51500 23.19400
C  -1.95600 35.17600 21.63600
C  -2.72800 33.86700 21.56400
C  -3.14900 33.65500 23.12100
C  -2.60200 36.34700 20.84300
C  -2.01800 32.57600 20.99100
C  -0.67900 32.74900 20.30600
N  -3.65500 32.88600 25.90900
C  -4.14000 32.12700 24.88200
C  -4.91100 31.02300 25.33400
C  -4.73300 31.05100 26.76600
C  -4.02800 32.22600 27.07000
C  -5.56000 30.00500 24.42700
C  -5.02800 30.35200 27.96000
O  -5.76800 29.38900 28.16800
C  -4.39600 31.15400 29.13700
C  -5.43800 31.58200 30.12400
O  -6.15500 32.54600 29.98500
O  -5.38200 30.70300 31.17900
C  -6.14200 30.97500 32.38100
H  -0.87800 37.12500 29.46400
H  -0.65200 37.01200 22.82900
H  -4.38900 31.89000 22.75500
H  -3.83100 33.59200 30.94700
H  -1.31500 35.23600 31.06000
H  -2.71000 36.78900 31.92800
H  -4.13400 35.80700 31.61100
H  -3.59800 36.94200 30.41400
H  -1.12800 33.14800 31.54300
H  -1.62600 31.73400 30.49300
H  -2.77400 30.86600 32.21300
H  -3.37400 32.39800 32.80400
H  1.76900 39.02000 27.69900
H  0.42700 38.56200 28.87200
H  0.24300 39.94100 27.86600
H  2.34600 40.15700 25.75100
H  0.76100 40.97300 25.70400
H  1.87900 41.03100 24.39900
H  -0.93000 35.12400 21.27100
H  -3.65700 34.06800 21.03100
H  -2.78500 37.31500 21.31100
H  -3.62800 36.07200 20.59800
H  -2.02000 36.57400 19.95000
H  -2.66200 32.01300 20.31500
H  -1.80100 31.88000 21.80200
H  -0.51500 33.68300 19.76700
H  -0.50800 31.91200 19.63000
H  0.02500 32.76700 21.13800
H  -6.24800 30.46000 23.71400
H  -6.10500 29.23300 24.97000
H  -4.77300 29.52200 23.84900
H  -3.70700 30.44500 29.59600
H  -5.66500 31.83600 32.85000
H  -6.09600 30.07500 32.99300
H  -7.18300 31.22000 32.17200

