158

Mg 54.35700 24.05300 44.78000
C  51.93200 26.50400 43.34600
C  52.57000 21.61500 43.16600
C  57.02100 22.06100 44.95900
C  56.18900 26.77800 45.87800
N  52.55400 24.20300 43.29900
C  51.69900 25.21000 42.97600
C  50.56300 24.78800 42.06400
C  50.62500 23.22600 42.31600
C  52.05300 22.91000 42.92300
C  49.53700 22.84300 43.36300
C  50.73900 25.21900 40.62200
C  52.13600 25.69000 40.12500
H  52.95800 24.64700 39.41000
N  54.62800 22.05400 44.41300
C  53.78000 21.20900 43.80900
C  54.27200 19.86500 43.99400
C  55.65200 19.97300 44.37800
C  55.83900 21.38400 44.57400
C  53.42700 18.68500 43.64500
C  56.69800 18.82600 44.58900
O  56.32600 17.66400 44.55900
C  58.11700 19.11700 45.01900
N  56.46700 24.47600 45.01600
C  57.27500 23.44800 45.18800
C  58.57900 23.85600 45.86100
C  58.31200 25.34900 46.33200
C  56.89900 25.57800 45.72600
C  59.19400 22.92700 47.02300
C  59.35200 26.36500 45.69600
C  59.58300 27.66200 46.43300
N  54.18500 26.19400 44.63600
C  54.94500 27.10500 45.28200
C  54.24800 28.37800 45.29900
C  53.08700 28.16900 44.51900
C  53.10100 26.88300 44.04900
C  54.71500 29.52200 45.97600
C  51.86100 28.86100 44.08300
O  51.42100 30.00600 44.22500
C  51.09000 27.78600 43.24100
C  50.76700 28.31200 41.85400
O  51.61700 28.65900 41.02800
O  49.40700 28.36300 41.73600
C  49.09200 28.85000 40.36900
H  51.85700 20.87400 42.79900
H  57.90600 21.42700 45.04500
H  56.72500 27.59200 46.36800
H  49.74800 25.32000 42.55500
H  50.46100 22.63500 41.41500
H  48.61000 22.86400 42.78900
H  49.54000 23.52100 44.21600
H  49.76000 21.84700 43.74500
H  50.08500 26.06900 40.43000
H  50.42000 24.38900 39.99100
H  52.77900 26.20000 40.84200
H  51.97100 26.60800 39.56100
H  53.58800 18.20300 42.68000
H  52.46500 19.14900 43.43100
H  53.31800 18.05600 44.52800
H  58.52900 18.11600 45.15100
H  58.10900 19.58300 46.00500
H  58.66200 19.71600 44.29000
H  59.19900 23.74300 44.97200
H  58.24500 25.40800 47.41800
H  58.42200 22.17800 47.19600
H  59.43900 23.47700 47.93200
H  60.11400 22.45000 46.68500
H  59.00300 26.57700 44.68600
H  60.27800 25.80000 45.58900
H  60.64000 27.80300 46.66100
H  59.00000 27.57100 47.35000
H  59.30500 28.54200 45.85200
H  55.01600 30.27400 45.24600
H  55.48200 29.25300 46.70300
H  53.81900 29.90900 46.46000
H  50.19900 27.54600 43.82000
H  49.14900 29.93800 40.42000
H  48.05600 28.69200 40.06800
H  49.77700 28.32400 39.70500
Mg 46.70700 25.73800 28.75000
C  47.60900 27.86900 31.54800
C  46.13100 23.30000 31.08900
C  46.35500 23.80100 26.25400
C  47.91000 28.35200 26.62300
N  46.94400 25.63700 31.10000
C  47.23000 26.64400 31.96000
C  46.98100 26.21700 33.40300
C  46.75200 24.67000 33.28300
C  46.64800 24.49300 31.69100
C  47.84600 23.81500 33.95200
C  45.72300 26.84400 34.15300
C  46.01700 27.56300 35.51900
H  46.70800 26.73700 36.63700
N  46.15900 23.88800 28.65900
C  45.90100 23.04400 29.74300
C  45.54800 21.72900 29.21900
C  45.67800 21.83000 27.81000
C  46.04700 23.23000 27.51600
C  45.11000 20.52000 30.11500
C  45.48300 20.79000 26.77200
O  45.60100 20.94400 25.56900
C  45.32200 19.45500 27.28400
N  46.99100 26.07200 26.64000
C  46.83400 25.04000 25.81000
C  47.16900 25.41600 24.35600
C  47.44500 26.95000 24.51600
C  47.45400 27.15400 26.02000
C  48.32200 24.67300 23.65800
C  46.42000 27.90200 23.81900
C  46.64600 27.98000 22.32800
N  47.56200 27.73300 28.96600
C  47.99700 28.62100 28.00800
C  48.58100 29.70100 28.69200
C  48.39700 29.53700 30.09000
C  47.76200 28.29100 30.20000
C  49.20400 30.94200 28.12800
C  48.61000 30.11700 31.45900
O  48.99100 31.23600 31.74300
C  48.09300 29.00700 32.43600
C  49.19800 28.74900 33.37200
O  50.31500 28.32600 33.03500
O  48.90800 29.07600 34.67100
C  49.77800 28.85400 35.81800
H  46.11900 22.41400 31.72800
H  46.43100 23.11400 25.40900
H  48.06300 29.11600 25.85800
H  47.92800 26.53500 33.84000
H  45.86500 24.31100 33.80500
H  47.59400 23.38800 34.92300
H  48.73600 24.44500 33.92700
H  48.16300 23.11300 33.18100
H  44.92600 26.15300 34.43000
H  45.16900 27.52700 33.50900
H  44.97000 27.76400 35.74300
H  46.43200 28.54500 35.29500
H  44.12400 20.17000 29.81000
H  45.13000 20.79900 31.16800
H  45.83000 19.71600 29.96300
H  46.24600 19.34700 27.85200
H  45.32000 18.73000 26.47100
H  44.35700 19.49700 27.78900
H  46.29800 25.34000 23.70500
H  48.44400 27.20500 24.16200
H  48.68100 23.99800 24.43500
H  49.14300 25.32600 23.36300
H  47.93000 24.09300 22.82300
H  46.48100 28.90700 24.23700
H  45.40300 27.53600 23.96100
H  47.53000 27.46500 21.95200
H  46.68500 29.04100 22.08200
H  45.77700 27.60500 21.78700
H  50.28200 30.82900 28.01200
H  48.95400 31.74700 28.81900
H  48.70600 31.11900 27.17500
H  47.32000 29.42300 33.08200
H  49.40700 29.54300 36.57800
H  50.80500 28.96900 35.47000
H  49.72500 27.79600 36.07400

