158

Mg 2.19000 8.87700 27.96400
C  2.67800 11.03100 30.75700
C  2.33500 6.22600 30.13600
C  2.10100 6.91100 25.34500
C  2.22700 11.74500 25.93300
N  2.56400 8.65500 30.12600
C  2.53300 9.70500 31.08100
C  2.24000 9.21200 32.50600
C  2.53400 7.69200 32.32500
C  2.40300 7.51700 30.80600
C  3.90800 7.16000 32.86900
C  0.76400 9.48600 32.95400
C  0.43500 9.19100 34.39600
H  1.51800 8.72300 35.48500
N  2.12800 6.88800 27.75500
C  2.17900 5.95800 28.77600
C  1.95400 4.55400 28.20500
C  1.83000 4.77200 26.82900
C  2.05500 6.23300 26.57300
C  2.11500 3.33100 29.14000
C  1.49100 3.77700 25.68700
O  1.57500 4.06100 24.49700
C  0.98600 2.37400 26.05500
N  2.19700 9.27000 25.94500
C  2.06900 8.27200 25.10200
C  2.00300 8.79900 23.67700
C  1.63500 10.32100 23.92100
C  2.12000 10.52400 25.35900
C  3.34400 8.54900 22.90700
C  0.13100 10.57800 23.80200
C  -0.39400 11.16100 22.46400
N  2.53900 10.96100 28.20100
C  2.50200 12.06100 27.28800
C  2.75800 13.28300 28.02100
C  2.79300 12.91200 29.33700
C  2.60800 11.50900 29.39900
C  2.90000 14.69600 27.48500
C  2.93800 13.45300 30.75100
O  3.22600 14.59800 31.05800
C  2.64800 12.19300 31.68200
C  3.64900 12.19800 32.70500
O  4.81000 11.80400 32.56500
O  3.05800 12.67500 33.87200
C  3.99200 12.58200 35.01700
H  2.41600 5.42400 30.87300
H  1.96400 6.24700 24.48900
H  1.96500 12.47700 25.16600
H  3.06600 9.64500 33.07000
H  1.71900 7.11900 32.76600
H  4.68200 7.89400 32.64500
H  4.06400 6.19400 32.38900
H  3.84500 6.94100 33.93500
H  0.10000 8.84100 32.38000
H  0.43900 10.50600 32.74700
H  -0.40400 8.49600 34.36600
H  0.10400 10.12400 34.85300
H  1.42500 3.55300 29.95500
H  3.10100 3.33600 29.60400
H  1.90800 2.42900 28.56500
H  1.82600 1.76900 26.39600
H  0.52100 1.93400 25.17300
H  0.18100 2.40000 26.78900
H  1.22900 8.34700 23.05600
H  2.28200 10.97300 23.33300
H  3.48500 7.47100 22.82700
H  4.18800 8.94100 23.47400
H  3.45000 8.95700 21.90200
H  -0.18400 11.30800 24.54800
H  -0.39500 9.68500 24.13800
H  0.09700 10.73100 21.59100
H  -0.23900 12.24000 22.47900
H  -1.47400 11.02100 22.42200
H  3.90400 15.12000 27.50900
H  2.19900 15.31900 28.04000
H  2.57800 14.68900 26.44400
H  1.64100 12.30200 32.08600
H  4.40900 11.57600 34.96400
H  3.41700 12.75400 35.92700
H  4.71300 13.38300 34.85600
Mg 5.58900 55.32300 40.50000
C  5.04100 51.79400 40.47100
C  8.92100 54.62000 39.52100
C  6.03900 58.57600 39.93300
C  2.20800 55.80100 41.15900
N  6.72700 53.38500 39.96700
C  6.33300 52.11500 39.90700
C  7.36200 51.20200 39.42500
C  8.66900 52.05200 39.52000
C  8.09800 53.49800 39.64900
C  9.63400 51.69800 40.70000
C  7.09500 50.61300 37.96300
C  5.98000 51.15500 37.05400
H  6.39700 52.04400 35.84700
N  7.33000 56.48800 39.89000
C  8.55900 56.02000 39.65100
C  9.45400 57.19900 39.36500
C  8.68300 58.36500 39.54800
C  7.27700 57.86800 39.79100
C  10.90200 56.97400 38.96300
C  9.14500 59.81700 39.48000
O  10.35100 60.06300 39.41400
C  8.18400 61.01200 39.54800
N  4.23200 56.85200 40.31100
C  4.75100 58.14800 40.24500
C  3.62700 59.22300 40.41800
C  2.36000 58.30200 40.70800
C  2.94200 56.89300 40.77900
C  3.87100 60.21900 41.51600
C  1.22200 58.30200 39.55200
C  -0.25800 58.44200 39.99600
N  3.93400 54.06000 40.83100
C  2.64300 54.38000 41.19900
C  1.92300 53.23100 41.67600
C  2.84900 52.18500 41.33900
C  4.01600 52.67900 40.75700
C  0.52500 53.14600 42.11000
C  2.95700 50.81100 41.38200
O  2.13300 49.98000 41.68100
C  4.41500 50.45800 40.75600
C  4.28000 49.52900 39.65600
O  3.91500 49.86100 38.56500
O  4.67100 48.26000 39.98200
C  4.65400 47.31900 38.86000
H  9.97300 54.40000 39.32600
H  5.97800 59.66400 39.85700
H  1.26400 56.21100 41.52300
H  7.35000 50.32800 40.07700
H  9.28200 52.11900 38.62100
H  9.74000 50.61300 40.67600
H  9.27300 52.19600 41.59900
H  10.61500 52.15800 40.58100
H  6.90000 49.54900 38.10200
H  8.08800 50.45800 37.54100
H  5.23900 51.63300 37.69500
H  5.39900 50.31900 36.66500
H  11.52300 57.86900 38.91800
H  10.87400 56.46500 38.00000
H  11.43500 56.22600 39.55000
H  8.70900 61.96500 39.60600
H  7.62300 61.03500 40.48300
H  7.44900 60.94200 38.74600
H  3.61100 59.72500 39.45100
H  1.92300 58.61800 41.65600
H  2.90000 60.52200 41.90800
H  4.41900 61.04500 41.06500
H  4.43200 59.64000 42.25000
H  1.21000 57.44000 38.88500
H  1.53000 59.11200 38.89100
H  -0.36000 59.03800 40.90300
H  -0.69200 57.45400 40.15100
H  -0.83600 58.86400 39.17400
H  0.52900 52.94700 43.18100
H  0.06400 52.34100 41.53800
H  0.06500 54.12800 41.99500
H  5.01700 49.94300 41.50400
H  4.06600 46.46100 39.18500
H  5.60300 46.79500 38.74500
H  4.15900 47.55300 37.91700

