158

Mg 1.23500 8.23000 25.30700
C  1.65900 10.30200 28.15600
C  1.17300 5.46800 27.55200
C  0.90200 6.25100 22.69400
C  1.11200 10.96700 23.37100
N  1.53900 7.91300 27.63200
C  1.55900 8.93500 28.58600
C  1.51000 8.37300 29.99900
C  1.58200 6.80100 29.75400
C  1.43800 6.72400 28.21300
C  2.80600 6.12600 30.36300
C  0.23100 8.86700 30.87000
C  0.50200 9.50100 32.26200
H  1.66700 8.88700 33.05000
N  1.16200 6.18100 25.10000
C  1.13900 5.19500 26.14000
C  0.99600 3.90000 25.57200
C  0.98000 4.12100 24.13900
C  0.97000 5.60200 23.92900
C  0.97300 2.52700 26.43700
C  0.98800 3.05400 23.08800
O  0.91300 3.30500 21.89400
C  1.00800 1.67000 23.44600
N  0.94500 8.58200 23.34200
C  0.85400 7.61000 22.36100
C  0.69700 8.25900 20.88700
C  0.70500 9.71200 21.24300
C  0.93200 9.78200 22.72300
C  1.79800 7.71500 19.89000
C  -0.62400 10.45700 20.77700
C  -0.52400 11.27800 19.55800
N  1.52100 10.19900 25.67500
C  1.32200 11.22200 24.75000
C  1.45700 12.50200 25.40100
C  1.73800 12.18000 26.70800
C  1.56600 10.77200 26.87500
C  1.28300 13.86000 24.74500
C  2.01100 12.69800 28.03600
O  2.23100 13.87900 28.43900
C  1.96400 11.47900 29.06200
C  3.19900 11.43100 29.90400
O  4.30600 11.02300 29.66600
O  2.93000 12.12300 31.03200
C  3.91300 12.16400 32.06600
H  1.18700 4.68900 28.31700
H  0.82000 5.58100 21.83600
H  1.03400 11.77000 22.63600
H  2.44600 8.81500 30.34000
H  0.67500 6.27600 30.05100
H  3.40300 5.70200 29.55600
H  2.59200 5.37800 31.12600
H  3.28700 7.00000 30.80400
H  -0.56000 8.11700 30.87700
H  -0.17900 9.67500 30.26500
H  -0.36700 9.67200 32.89900
H  0.83700 10.48600 31.93700
H  1.99900 2.16900 26.34400
H  0.26200 1.84800 25.96600
H  0.75800 2.63300 27.50000
H  -0.04300 1.44400 23.62500
H  1.61400 1.46200 24.32800
H  1.33600 1.03800 22.62000
H  -0.28100 8.00400 20.48000
H  1.56700 10.14700 20.73700
H  2.48200 7.02000 20.37700
H  2.36100 8.52400 19.42400
H  1.30200 7.19300 19.07300
H  -1.01200 11.21000 21.46300
H  -1.41600 9.74900 20.53300
H  -1.33700 10.93300 18.92000
H  0.47800 11.27000 19.12900
H  -0.74200 12.33100 19.73600
H  0.73000 14.53900 25.39400
H  0.85400 13.66500 23.76200
H  2.24400 14.33800 24.55100
H  1.09000 11.65100 29.69000
H  3.49900 12.07200 33.07000
H  4.20900 13.20800 31.96900
H  4.71500 11.43000 31.98400
Mg 25.69300 50.57000 27.14600
C  23.63600 51.47100 29.70600
C  28.14700 49.76800 29.46400
C  27.74500 49.98000 24.48900
C  23.17300 51.52300 24.73700
N  25.93700 50.70400 29.40400
C  24.82600 50.95100 30.18000
C  25.20000 50.63800 31.69400
C  26.68400 50.27900 31.58700
C  26.97200 50.21200 30.05000
C  27.72800 51.12800 32.40500
C  24.27400 49.48900 32.34000
C  23.24600 49.93300 33.33600
H  23.33200 49.29000 34.72300
N  27.64300 49.95500 26.95700
C  28.44900 49.71400 28.06600
C  29.75200 49.25900 27.54800
C  29.71800 49.27900 26.08400
C  28.33500 49.76800 25.77500
C  30.89700 48.93800 28.42400
C  30.73900 48.70300 25.10200
O  30.52800 48.83000 23.88400
C  31.90200 47.72700 25.53100
N  25.51100 50.90400 24.96200
C  26.50800 50.48700 24.14700
C  26.07600 50.48600 22.63200
C  24.55200 50.92700 22.72300
C  24.40400 51.14400 24.22300
C  27.05300 51.23800 21.70400
C  23.53800 49.91700 22.15500
C  22.62800 50.35200 20.95000
N  23.89900 51.52000 27.18500
C  22.97600 51.80600 26.15700
C  21.82900 52.44900 26.79100
C  22.02000 52.29800 28.16400
C  23.28400 51.70200 28.34600
C  20.67600 53.18400 26.09600
C  21.44700 52.46300 29.48300
O  20.41900 53.01500 29.88300
C  22.44000 51.94600 30.50300
C  22.71400 53.17200 31.42400
O  23.30200 54.17300 31.06800
O  22.09600 52.94300 32.63600
C  22.22200 54.04900 33.63100
H  28.85800 49.41800 30.21600
H  28.33600 49.68500 23.61900
H  22.35400 51.87100 24.10500
H  25.08200 51.58900 32.21200
H  26.85000 49.27300 31.97300
H  28.14600 51.93400 31.80100
H  28.53200 50.48900 32.76800
H  27.27400 51.69500 33.21700
H  24.94100 48.81200 32.87400
H  23.87600 48.97500 31.46500
H  22.24000 49.85100 32.92500
H  23.50900 50.96700 33.56000
H  31.14000 47.87800 28.48800
H  30.88000 49.33500 29.43900
H  31.58800 49.46300 27.76300
H  32.56100 48.16400 26.28100
H  32.33100 47.29800 24.62600
H  31.43500 46.88200 26.03700
H  26.05200 49.45300 22.28800
H  24.35200 51.90900 22.29500
H  27.42800 50.50200 20.99200
H  27.87100 51.66600 22.28300
H  26.56600 52.04200 21.15200
H  22.91500 49.66800 23.01400
H  23.94000 48.91700 21.99200
H  22.57600 49.50200 20.27000
H  23.02400 51.24400 20.46500
H  21.65300 50.51200 21.41100
H  20.28300 53.88900 26.82800
H  20.03000 52.45500 25.60700
H  21.09800 53.69600 25.23000
H  21.91400 51.12100 30.98500
H  22.71700 54.93900 33.24200
H  22.76900 53.72700 34.51700
H  21.21100 54.35700 33.89600

