158

Mg 26.18100 1.03300 29.73100
C  28.31200 0.61800 32.55500
C  23.66900 1.60400 32.01400
C  24.09700 0.90800 27.20300
C  28.82800 -0.01100 27.76300
N  26.02700 1.08000 32.05400
C  27.02900 0.90200 32.95700
C  26.54900 1.30500 34.41700
C  25.02000 1.22700 34.17600
C  24.87200 1.38300 32.70100
C  24.28400 0.01200 34.71100
C  27.13800 2.69400 34.91100
C  27.99400 2.76400 36.20500
H  27.40200 3.42500 37.45200
N  24.21500 1.43500 29.57600
C  23.34500 1.59900 30.59200
C  21.97800 1.68000 30.06800
C  22.07500 1.50700 28.69800
C  23.53400 1.30800 28.46900
C  20.73800 1.83800 30.85600
C  20.98500 1.40000 27.70900
O  21.20200 1.28200 26.52400
C  19.59800 1.46400 28.05700
N  26.50900 0.64200 27.77600
C  25.46800 0.67600 26.84700
C  26.05400 0.68900 25.39000
C  27.56600 0.61800 25.62900
C  27.64800 0.45700 27.15400
C  25.38800 -0.37900 24.44500
C  28.40500 1.78600 25.08300
C  29.25100 1.41100 23.94300
N  28.14900 0.33000 30.05300
C  29.06700 -0.05900 29.11800
C  30.34300 -0.32600 29.82200
C  30.09200 -0.08800 31.19400
C  28.74100 0.32100 31.26400
C  31.59800 -0.79000 29.15700
C  30.60300 0.01200 32.57200
O  31.71900 -0.22600 33.05100
C  29.44400 0.46900 33.48000
C  29.33100 -0.69600 34.37500
O  28.63700 -1.68600 34.19800
O  29.99500 -0.48200 35.52200
C  29.79800 -1.31800 36.68900
H  22.83200 1.93500 32.63200
H  23.44300 0.92300 26.33000
H  29.65500 -0.36500 27.14400
H  26.99100 0.60500 35.12600
H  24.50700 2.08100 34.61800
H  25.02000 -0.66400 35.14800
H  23.81800 -0.52400 33.88400
H  23.54300 0.32000 35.44900
H  26.37800 3.45000 35.10900
H  27.66200 3.11700 34.05400
H  28.93800 3.19900 35.87900
H  28.20000 1.75400 36.55900
H  20.17600 2.70400 30.50500
H  20.94400 2.14800 31.88100
H  20.14800 0.92200 30.84800
H  19.43100 0.62600 28.73300
H  19.01300 1.41000 27.13900
H  19.30900 2.42100 28.49100
H  25.87300 1.61600 24.84500
H  27.90000 -0.29100 25.13000
H  24.53300 -0.78600 24.98400
H  25.93400 -1.30700 24.27800
H  24.92500 0.07600 23.56900
H  29.03600 2.18400 25.87800
H  27.87800 2.64900 24.67400
H  29.15300 2.15800 23.15500
H  28.93100 0.46500 23.50600
H  30.26100 1.29100 24.33400
H  32.39800 -1.06300 29.84600
H  31.89600 0.09800 28.60100
H  31.46100 -1.60900 28.45100
H  29.68400 1.37300 34.04000
H  29.88500 -2.29500 36.21300
H  28.81900 -1.07700 37.10300
H  30.56900 -1.15000 37.44100
Mg 17.01700 52.86600 26.64600
C  18.88000 51.35800 28.96500
C  14.96200 53.91400 29.26900
C  14.88200 54.34800 24.40700
C  19.01500 51.86200 24.11200
N  16.80000 52.50000 28.82100
C  17.81800 52.03100 29.56600
C  17.62100 52.29800 31.14500
C  16.15100 52.63700 31.18900
C  15.91100 53.02100 29.69000
C  15.37300 51.47300 31.60800
C  18.59100 53.35700 31.71900
C  18.88600 53.36600 33.30900
H  17.84500 52.53500 34.11400
N  15.12300 53.96900 26.76400
C  14.61300 54.43800 27.97700
C  13.62600 55.44100 27.73400
C  13.49200 55.49500 26.30900
C  14.47500 54.61000 25.72400
C  13.00100 56.20300 28.91800
C  12.52500 56.34700 25.45600
O  12.58600 56.23100 24.28700
C  11.66500 57.43900 25.99700
N  16.86300 52.91200 24.49600
C  15.90200 53.58300 23.83600
C  16.24100 53.64500 22.36700
C  17.67400 53.01400 22.27400
C  17.91200 52.60000 23.72200
C  15.20400 52.92600 21.31900
C  18.70300 54.00800 21.54400
C  19.23600 55.14500 22.41100
N  18.61600 51.77100 26.51300
C  19.42000 51.47600 25.38500
C  20.54900 50.79500 25.85400
C  20.42500 50.74000 27.22400
C  19.17200 51.30600 27.55200
C  21.70000 50.28700 25.06600
C  21.07000 50.25600 28.38600
O  22.05200 49.57700 28.48300
C  20.12600 50.73300 29.66300
C  19.82300 49.59700 30.52500
O  19.42400 48.51300 30.22400
O  20.04500 49.98400 31.81800
C  19.93400 48.94500 32.89000
H  14.38300 54.42100 30.04400
H  14.16900 54.68900 23.65400
H  19.80700 51.53400 23.43500
H  17.69400 51.37700 31.72200
H  16.11300 53.49700 31.85700
H  15.69400 51.02500 32.54800
H  15.49600 50.80600 30.75500
H  14.36700 51.81300 31.85300
H  18.19900 54.30500 31.35200
H  19.59200 53.23600 31.30300
H  18.94800 54.39100 33.67400
H  19.86400 52.99500 33.61700
H  13.58400 57.03000 29.32400
H  12.72500 55.49000 29.69500
H  12.00900 56.57400 28.65800
H  10.87000 56.93600 26.54600
H  11.34900 58.03900 25.14300
H  12.28100 58.04000 26.66600
H  16.15700 54.70400 22.12200
H  17.54000 52.07200 21.74300
H  14.53100 52.21300 21.79400
H  15.77100 52.38100 20.56400
H  14.66200 53.72000 20.80300
H  18.13400 54.53000 20.77500
H  19.56700 53.49600 21.12000
H  18.53000 55.25800 23.23300
H  19.27900 56.12200 21.92900
H  20.22400 54.88400 22.78900
H  21.62000 50.77500 24.09500
H  21.68900 49.20700 24.92400
H  22.60200 50.62000 25.57900
H  20.66500 51.48800 30.23400
H  19.04900 49.20100 33.47100
H  20.82900 49.01900 33.50700
H  19.93500 47.91600 32.52900

