158

Mg 24.84900 -5.41400 45.93900
C  26.96300 -3.25500 44.24700
C  22.31600 -4.41400 43.75500
C  23.02400 -8.14400 46.80500
C  27.71900 -6.86000 47.58900
N  24.73200 -4.00200 44.25400
C  25.71300 -3.23000 43.69100
C  25.24500 -2.69100 42.29900
C  23.66600 -2.80300 42.40700
C  23.53300 -3.73900 43.58600
C  22.95500 -1.42000 42.71700
C  25.96800 -3.57300 41.07400
C  26.86700 -2.80200 40.09400
H  26.30500 -2.76500 38.65500
N  22.87800 -6.25600 45.45300
C  21.99100 -5.59600 44.58800
C  20.65400 -6.23600 44.69600
C  20.69500 -7.25400 45.69600
C  22.16300 -7.29400 46.06500
C  19.50700 -5.71500 43.82600
C  19.61000 -8.22800 46.17400
O  18.49700 -8.33500 45.64400
C  19.88000 -9.18600 47.30100
N  25.39300 -7.27900 46.96000
C  24.45500 -8.22700 47.14800
C  24.90000 -9.38900 48.00600
C  26.36700 -8.93800 48.34600
C  26.55600 -7.64100 47.53800
C  24.08300 -9.77800 49.22600
C  27.47900 -9.95700 47.93700
C  28.20400 -10.74600 48.99300
N  26.96600 -5.08900 46.04000
C  27.97000 -5.62500 46.85900
C  29.10200 -4.85800 46.72400
C  28.81900 -3.92700 45.71100
C  27.48800 -4.06900 45.31000
C  30.29400 -5.05600 47.53200
C  29.39700 -2.84800 44.88900
O  30.46400 -2.26200 44.95300
C  28.21400 -2.37800 43.92000
C  28.05700 -0.93700 44.13000
O  27.40400 -0.42400 45.01800
O  28.74800 -0.23100 43.16000
C  28.76500 1.22600 43.29300
H  21.50200 -4.13500 43.08100
H  22.46000 -8.96500 47.25200
H  28.48400 -7.25100 48.26300
H  25.53000 -1.64000 42.34700
H  23.25200 -3.19700 41.47800
H  23.67100 -0.69400 43.10400
H  22.20400 -1.67200 43.46500
H  22.52500 -0.97300 41.82000
H  25.17300 -4.03900 40.49100
H  26.46000 -4.43000 41.53500
H  27.83000 -3.30100 40.19800
H  27.05500 -1.75600 40.33500
H  19.46000 -6.35900 42.94800
H  19.57800 -4.66400 43.54600
H  18.63700 -5.72100 44.48200
H  18.96500 -9.58500 47.73800
H  20.16200 -8.54400 48.13600
H  20.61700 -9.94700 47.04600
H  24.87900 -10.14000 47.21600
H  26.54800 -8.71600 49.39800
H  24.72700 -9.97900 50.08200
H  23.70300 -10.79100 49.09500
H  23.28900 -9.07500 49.47800
H  28.28500 -9.47600 47.38100
H  27.11200 -10.76100 47.29900
H  29.18800 -10.31900 49.18400
H  28.56500 -11.70900 48.63100
H  27.61200 -10.98000 49.87800
H  30.72400 -6.03600 47.32100
H  30.10700 -5.17700 48.59900
H  31.01000 -4.23900 47.45000
H  28.61700 -2.49100 42.91400
H  29.65300 1.54900 43.83600
H  27.87500 1.66300 43.74600
H  28.92400 1.59100 42.27900
Mg 55.30000 23.26900 43.92500
C  52.63800 25.30700 42.72300
C  53.26700 20.49800 43.12700
C  58.02000 21.23900 44.22000
C  57.18600 25.98900 44.62700
N  53.26100 22.95400 42.88400
C  52.39400 23.93100 42.48100
C  51.10300 23.41100 41.95200
C  51.19200 21.95100 42.42500
C  52.64000 21.72700 42.90000
C  50.27100 21.73100 43.65400
C  50.87800 23.53400 40.40600
C  49.50200 24.13600 39.97300
H  48.86500 23.68800 38.63000
N  55.60200 21.14100 43.76000
C  54.60400 20.19200 43.48300
C  55.23800 18.88400 43.51200
C  56.66900 19.06600 43.79700
C  56.81700 20.50300 43.99300
C  54.59600 17.50600 43.20000
C  57.63100 17.93100 43.92600
O  57.34200 16.79100 43.83200
C  59.01200 18.17800 44.40300
N  57.30000 23.56900 44.38300
C  58.18200 22.56400 44.53200
C  59.58900 23.06300 44.82200
C  59.34300 24.58300 44.99300
C  57.86000 24.74000 44.74700
C  60.37100 22.48700 46.04700
C  60.17400 25.33900 44.01000
C  61.35500 26.15200 44.67800
N  55.01600 25.32000 43.68300
C  55.90000 26.29200 44.05700
C  55.23300 27.54100 43.91100
C  53.88200 27.24100 43.48700
C  53.86700 25.86000 43.20600
C  55.86700 28.88400 44.33000
C  52.49000 27.74000 43.18800
O  51.98300 28.83800 43.39100
C  51.72700 26.58300 42.58200
C  51.54300 27.01400 41.17800
O  52.19200 26.68100 40.23400
O  50.41900 27.74300 41.12100
C  49.89100 28.29800 39.88400
H  52.64900 19.60800 42.98900
H  59.00000 20.75600 44.21000
H  57.85100 26.84300 44.77800
H  50.32700 24.01000 42.42800
H  50.89000 21.27400 41.62600
H  50.51500 20.75600 44.07500
H  49.22300 21.82700 43.37200
H  50.48000 22.50400 44.39400
H  50.99900 22.57000 39.91200
H  51.61800 24.16500 39.91500
H  49.69800 25.19300 39.79600
H  48.72100 23.95600 40.71300
H  54.89700 17.24500 42.18600
H  53.52800 17.65500 43.03800
H  54.78400 16.73600 43.94900
H  59.72700 18.51500 43.65100
H  59.39200 17.25800 44.84600
H  58.88900 18.83200 45.26700
H  60.14700 22.77600 43.93100
H  59.57500 25.01400 45.96700
H  61.16200 21.91000 45.57000
H  59.79200 21.87500 46.73900
H  60.78100 23.33500 46.59500
H  59.71700 26.02500 43.29700
H  60.69400 24.79000 43.22500
H  61.23100 26.19300 45.76000
H  61.46600 27.07500 44.10800
H  62.27500 25.57900 44.56200
H  56.87000 28.76400 44.73900
H  55.38800 29.24300 45.24100
H  55.80400 29.61500 43.52300
H  50.70800 26.43100 42.93800
H  50.70000 28.83500 39.38800
H  49.10300 28.99700 40.16400
H  49.58300 27.42300 39.31200

