158

Mg 28.80700 56.30800 40.55400
C  26.40400 53.95000 39.67800
C  31.14000 54.03900 39.64400
C  31.19500 58.78500 40.18900
C  26.23100 58.71100 40.93100
N  28.69900 54.27500 39.70700
C  27.65100 53.45400 39.46600
C  28.09000 52.11100 38.88100
C  29.56100 52.08100 39.24100
C  29.78900 53.57200 39.50600
C  29.97500 51.22100 40.51900
C  27.68500 51.81600 37.40000
C  28.23600 52.82000 36.30000
H  27.36100 53.41300 35.21800
N  30.98000 56.45200 40.10800
C  31.74800 55.31900 39.78900
C  33.07300 55.74900 39.67300
C  33.12900 57.12500 39.77600
C  31.76900 57.53600 40.03300
C  34.18300 54.68300 39.45800
C  34.33600 57.95400 39.73200
O  35.41300 57.41400 39.55300
C  34.36800 59.38400 40.02900
N  28.70500 58.42600 40.57900
C  29.86400 59.15900 40.58400
C  29.50100 60.59100 40.69700
C  27.96900 60.60200 40.98600
C  27.58700 59.17700 40.85400
C  30.35400 61.44200 41.64700
C  27.12500 61.57200 40.10700
C  26.37000 62.70000 40.82400
N  26.77000 56.37900 40.44600
C  25.80900 57.36900 40.65000
C  24.52400 56.86700 40.54000
C  24.68000 55.51900 40.17200
C  26.07100 55.29400 40.07100
C  23.20100 57.51000 40.84200
C  23.95800 54.28400 39.93000
O  22.70000 54.10600 39.90600
C  25.04600 53.22700 39.49500
C  24.84100 51.90700 40.17500
O  24.62800 50.86700 39.60300
O  25.16900 51.91700 41.47400
C  24.99200 50.65800 42.20600
H  31.88200 53.23900 39.61400
H  31.79600 59.65600 39.92100
H  25.52500 59.53700 41.03700
H  27.71300 51.41600 39.63200
H  30.21000 51.80500 38.41000
H  29.71400 50.16500 40.46200
H  29.68300 51.76700 41.41600
H  31.04200 51.32400 40.71800
H  26.59500 51.79300 37.41200
H  27.97300 50.85800 36.96700
H  28.82500 52.25300 35.58000
H  28.90000 53.55200 36.76000
H  33.71000 53.76800 39.10200
H  34.69000 54.51200 40.40800
H  34.94600 54.92000 38.71600
H  33.78900 59.48600 40.94600
H  33.90700 59.93200 39.20600
H  35.38700 59.76200 40.11600
H  29.57700 60.93500 39.66600
H  27.68600 60.97100 41.97100
H  31.12800 60.82800 42.10700
H  29.76200 61.99800 42.37500
H  30.81400 62.22700 41.04700
H  26.39300 61.07000 39.47400
H  27.79100 61.99000 39.35200
H  25.38600 62.33100 41.11300
H  26.29900 63.46100 40.04600
H  26.90900 63.04900 41.70500
H  22.45600 56.73600 41.02500
H  22.93700 58.02600 39.91900
H  23.28500 58.11700 41.74300
H  24.87700 53.03600 38.43500
H  24.86700 50.85300 43.27100
H  25.81500 49.94800 42.11900
H  24.02600 50.20400 41.98900
Mg 8.74900 48.78300 26.04600
C  7.08500 48.80700 29.09900
C  11.57700 49.87100 27.75900
C  10.51200 48.52200 23.17000
C  5.83900 48.09200 24.38000
N  9.20300 49.28900 28.17100
C  8.41900 49.14200 29.21900
C  9.12000 49.50600 30.43600
C  10.38200 50.29500 29.99700
C  10.41000 49.84400 28.53900
C  10.44700 51.85200 30.26100
C  9.41300 48.35200 31.42900
C  8.69600 48.41400 32.78100
H  8.77300 47.29300 33.74800
N  10.79200 49.30900 25.48100
C  11.78700 49.61800 26.37900
C  13.11100 49.61700 25.66900
C  12.85200 49.10600 24.35000
C  11.33900 48.89300 24.29600
C  14.39600 49.80900 26.47800
C  13.79900 48.69800 23.29500
O  13.48900 48.19900 22.23400
C  15.26800 48.79100 23.46100
N  8.22700 48.47700 24.04900
C  9.13600 48.36900 23.09000
C  8.46500 48.04600 21.75800
C  7.14200 47.48100 22.29200
C  7.02300 48.11000 23.66000
C  8.41900 49.10700 20.58500
C  7.00100 45.95800 22.17800
C  6.64100 45.15600 23.46500
N  6.81400 48.53000 26.58900
C  5.70200 48.24000 25.79500
C  4.50700 48.19400 26.64900
C  4.94900 48.38900 27.98000
C  6.37000 48.66100 27.91700
C  3.17900 47.83000 26.30000
C  4.61800 48.39700 29.38700
O  3.47800 48.24600 29.96200
C  5.99100 48.57100 30.18700
C  6.07600 47.25000 31.01300
O  6.89700 46.37500 30.88600
O  5.09400 47.32000 32.02900
C  5.00100 46.28100 33.01300
H  12.48600 50.08900 28.32300
H  10.96400 48.52600 22.17600
H  5.02500 47.62300 23.82300
H  8.53200 50.28200 30.92600
H  11.27200 49.81500 30.40200
H  10.07300 52.38800 29.38900
H  11.45600 52.20500 30.47800
H  9.75900 51.91800 31.10300
H  10.46700 48.26300 31.69300
H  9.19100 47.45900 30.84400
H  7.67800 48.77800 32.63900
H  9.27800 49.14000 33.34900
H  14.26300 50.66400 27.14100
H  15.23600 50.18900 25.89500
H  14.76200 48.91100 26.97600
H  15.60900 48.18000 24.29600
H  15.69700 49.78700 23.56600
H  15.76300 48.38100 22.58000
H  9.08400 47.22300 21.39900
H  6.29200 47.97000 21.81700
H  7.44000 49.53000 20.36100
H  8.89000 48.66600 19.70700
H  8.90100 50.05200 20.83600
H  7.85400 45.43100 21.75100
H  6.13000 45.80100 21.54300
H  6.90700 45.48900 24.46800
H  6.96600 44.11600 23.43500
H  5.56600 44.98200 23.43800
H  2.82100 46.93000 26.80100
H  3.30400 47.62600 25.23700
H  2.51800 48.67700 26.48200
H  6.04100 49.42500 30.86300
H  5.51400 46.70100 33.87800
H  5.53000 45.38700 32.68200
H  3.94200 46.08000 33.17800

