158

Mg 9.41200 3.35200 27.83500
C  10.42200 1.57500 30.68600
C  7.45200 5.35600 29.89400
C  8.77100 5.26300 25.18200
C  11.23400 1.08100 25.82400
N  8.92800 3.39600 30.06000
C  9.58100 2.69100 31.05900
C  9.36800 3.21000 32.40800
C  8.28300 4.35100 32.13000
C  8.25300 4.43900 30.59500
C  6.80800 4.26800 32.75200
C  10.66300 3.75100 33.13900
C  10.35100 4.38700 34.49900
H  11.24300 4.10400 35.74700
N  8.26400 5.07400 27.56200
C  7.43400 5.68500 28.53600
C  6.75400 6.79700 27.90100
C  7.16500 6.81000 26.55400
C  7.99100 5.59000 26.33900
C  5.66000 7.60100 28.69300
C  6.83200 7.81500 25.42800
O  7.07700 7.62700 24.24200
C  6.18100 9.11100 25.82300
N  10.00400 3.22900 25.83600
C  9.59200 4.15300 24.86800
C  10.31100 3.88700 23.50500
C  10.85300 2.38400 23.73400
C  10.67100 2.20700 25.22100
C  9.42800 3.99100 22.22300
C  12.34600 2.15700 23.27600
C  12.50000 0.84300 22.50100
N  10.52800 1.68200 28.10000
C  11.19800 0.83700 27.25700
C  11.78000 -0.21700 27.95700
C  11.55900 0.07300 29.31600
C  10.68300 1.17600 29.36700
C  12.52900 -1.37300 27.38800
C  11.84400 -0.44800 30.61200
O  12.39200 -1.44700 30.99500
C  11.15300 0.65400 31.62500
C  10.26300 -0.02200 32.57100
O  9.27900 -0.71900 32.36800
O  10.66100 0.37500 33.82300
C  9.97300 -0.28200 34.95300
H  6.96100 6.16400 30.44200
H  8.66700 5.97200 24.35700
H  11.67900 0.28400 25.22500
H  8.87600 2.52800 33.10100
H  8.63500 5.27500 32.58800
H  6.45300 5.19200 33.20900
H  6.77100 3.43100 33.44900
H  6.09500 3.98100 31.97900
H  11.26400 4.40700 32.50900
H  11.25600 2.87300 33.39200
H  9.35700 4.21900 34.91500
H  10.43900 5.46400 34.35700
H  4.79000 7.66200 28.04000
H  6.00400 8.61000 28.92100
H  5.28000 7.18700 29.62700
H  6.11500 9.77700 24.96300
H  6.82100 9.68600 26.49200
H  5.18200 8.99100 26.24300
H  11.18300 4.53700 23.44000
H  10.17600 1.66500 23.27200
H  9.33800 4.97500 21.76400
H  8.44100 3.87600 22.67100
H  9.66900 3.13900 21.58700
H  13.03200 2.19000 24.12300
H  12.55300 2.96900 22.57800
H  13.26300 0.94600 21.73000
H  11.55400 0.52400 22.06200
H  12.81300 0.14400 23.27700
H  11.82600 -2.00100 26.84100
H  13.05000 -1.89500 28.19000
H  13.28000 -0.94000 26.72700
H  11.88300 1.24000 32.18400
H  9.49400 -1.17800 34.55800
H  9.36300 0.42400 35.51500
H  10.76500 -0.60900 35.62700
Mg 30.48800 58.53500 40.60500
C  27.89700 56.28900 39.46500
C  32.70400 56.21400 39.28100
C  32.82200 60.69000 41.00400
C  27.98700 60.85000 41.16700
N  30.23500 56.55300 39.47200
C  29.17000 55.89300 39.01200
C  29.52300 54.62100 38.18900
C  31.05500 54.48300 38.47500
C  31.39700 55.79900 39.13100
C  31.54100 53.40600 39.47400
C  29.25300 54.77800 36.61800
C  28.00800 54.17600 36.05500
H  27.04700 55.00700 35.22300
N  32.48300 58.51600 40.22000
C  33.24700 57.48500 39.75000
C  34.66700 57.95700 39.62100
C  34.74900 59.11800 40.37800
C  33.33500 59.53300 40.55200
C  35.73400 57.13200 39.14500
C  36.01100 59.83700 40.85500
O  37.14300 59.41100 40.58100
C  36.02300 61.06400 41.65100
N  30.41600 60.54100 40.93600
C  31.52400 61.23200 41.22300
C  31.23700 62.69200 41.52900
C  29.66700 62.71900 41.61000
C  29.30600 61.32200 41.25100
C  32.02300 63.25700 42.77800
C  28.85700 63.79600 40.73800
C  27.56400 64.43600 41.33800
N  28.41400 58.58200 40.43000
C  27.55700 59.56300 40.82400
C  26.15900 59.12100 40.70200
C  26.29400 57.83600 40.19000
C  27.64300 57.52000 40.03600
C  25.00700 59.88900 41.17900
C  25.50300 56.73300 39.61800
O  24.31600 56.57700 39.46200
C  26.58300 55.60600 39.14400
C  26.41600 54.40400 40.04900
O  26.75200 54.32000 41.20600
O  25.58500 53.55500 39.38200
C  25.03100 52.49200 40.16600
H  33.43400 55.61200 38.73700
H  33.52300 61.49000 41.25000
H  27.25800 61.60800 41.45800
H  28.87300 53.79400 38.47600
H  31.58600 54.43300 37.52500
H  32.58300 53.15300 39.27600
H  30.86500 52.56200 39.33600
H  31.39100 53.76700 40.49200
H  30.05500 54.37800 35.99600
H  29.40400 55.83100 36.38200
H  27.36500 53.89400 36.88800
H  28.17900 53.20400 35.59300
H  35.38800 56.63300 38.24000
H  36.04600 56.36200 39.85000
H  36.64600 57.63700 38.82900
H  35.87500 61.99800 41.11000
H  36.99200 61.06600 42.15100
H  35.31800 60.99200 42.47900
H  31.63200 63.31300 40.72500
H  29.38100 62.97400 42.63000
H  32.76000 62.47200 42.95300
H  31.37700 63.34000 43.65200
H  32.57700 64.14500 42.47400
H  28.51400 63.28800 39.83600
H  29.50000 64.63200 40.46400
H  26.70700 64.46100 40.66400
H  27.73600 65.47300 41.62800
H  27.29900 63.84100 42.21100
H  24.28100 59.07900 41.25400
H  24.77300 60.66400 40.44900
H  25.17600 60.33400 42.15900
H  26.46400 55.43200 38.07400
H  25.84700 51.88600 40.55900
H  24.36700 51.78700 39.66600
H  24.51400 52.81600 41.06900

