158

Mg 23.34600 -6.39200 46.89800
C  25.73000 -3.95900 45.86100
C  21.07000 -4.84100 44.80200
C  21.51800 -9.20700 47.11800
C  25.94200 -7.97400 48.60700
N  23.45500 -4.55200 45.50400
C  24.49100 -3.67500 45.35000
C  24.07400 -2.60000 44.41500
C  22.48800 -2.73500 44.45600
C  22.32800 -4.14900 44.94100
C  21.72900 -1.73000 45.42200
C  24.69700 -2.73300 43.05900
C  25.01400 -1.45900 42.31400
H  24.23400 -1.28300 40.99700
N  21.48700 -6.88800 46.08300
C  20.68900 -6.11100 45.28100
C  19.48300 -6.86400 45.02800
C  19.53600 -8.09700 45.69300
C  20.91900 -8.09800 46.34900
C  18.35100 -6.30400 44.11300
C  18.47300 -9.13400 45.80900
O  17.43000 -8.91900 45.23700
C  18.66400 -10.38800 46.44200
N  23.72300 -8.25200 47.73800
C  22.73700 -9.28500 47.76400
C  23.15600 -10.50300 48.65000
C  24.57400 -10.07000 49.07900
C  24.81100 -8.67100 48.43300
C  22.21600 -10.64000 49.85700
C  25.60700 -11.19200 48.75200
C  26.14900 -11.25100 47.22900
N  25.44200 -5.97200 47.26200
C  26.29100 -6.73400 47.95600
C  27.56700 -6.02600 48.05600
C  27.40300 -4.89500 47.21300
C  26.09000 -5.01100 46.69500
C  28.77200 -6.55900 48.72000
C  28.07400 -3.74300 46.65900
O  29.19100 -3.29200 46.84400
C  26.96500 -3.09400 45.71500
C  26.66200 -1.66700 46.07700
O  26.43800 -1.20900 47.20700
O  26.71500 -0.86300 44.95100
C  26.44500 0.51600 45.26600
H  20.19500 -4.30000 44.43700
H  21.03300 -10.18300 47.05300
H  26.73500 -8.46100 49.17800
H  24.30700 -1.67000 44.93400
H  22.02800 -2.68700 43.46900
H  22.45200 -1.13400 45.97800
H  21.16700 -2.28700 46.17100
H  20.94200 -1.24000 44.84800
H  24.05000 -3.31800 42.40500
H  25.67600 -3.16900 43.25600
H  26.06600 -1.30000 42.07800
H  24.76400 -0.67500 43.02900
H  17.88700 -7.15400 43.61300
H  18.70700 -5.59700 43.36500
H  17.58700 -5.84300 44.73900
H  19.38000 -11.00100 45.89400
H  17.66600 -10.82700 46.45600
H  18.92300 -10.09500 47.45900
H  23.12600 -11.44600 48.10400
H  24.66100 -9.97600 50.16100
H  21.94100 -11.69200 49.93900
H  21.29100 -10.07900 49.72300
H  22.54900 -10.32100 50.84400
H  25.24300 -12.21300 48.86900
H  26.47800 -11.05400 49.39400
H  27.20900 -11.49600 47.16800
H  26.05500 -10.27800 46.74600
H  25.57900 -11.99100 46.66800
H  28.78100 -6.82700 49.77600
H  29.38800 -5.67400 48.55700
H  29.21400 -7.38300 48.16000
H  27.48400 -3.25000 44.76900
H  25.35900 0.60100 45.21200
H  26.97200 1.15200 44.55600
H  26.77000 1.07500 46.14300
Mg 25.68100 51.22500 25.65500
C  23.40000 51.91900 28.02000
C  28.04800 50.64900 28.09700
C  27.97300 50.64400 23.28600
C  23.48400 52.21500 23.09700
N  25.70000 51.20600 27.80400
C  24.57600 51.35600 28.59900
C  24.86000 51.22100 30.07700
C  26.38000 50.86700 29.98300
C  26.75100 50.93300 28.53200
C  27.25700 51.75100 30.84800
C  23.85400 50.18300 30.76900
C  23.39200 50.54500 32.24000
H  23.80000 49.42800 33.34900
N  27.69900 50.74700 25.64900
C  28.55600 50.49800 26.75400
C  29.93300 50.11600 26.33600
C  29.87600 50.11000 24.91600
C  28.43400 50.49800 24.53700
C  31.04500 49.80500 27.33100
C  30.92600 49.72100 23.93300
O  30.85700 49.92200 22.73200
C  32.25500 49.40100 24.37700
N  25.71000 51.38400 23.49000
C  26.74800 51.00700 22.68800
C  26.49100 51.08700 21.19200
C  25.00400 51.53600 21.16800
C  24.66900 51.68800 22.67300
C  27.42300 52.12000 20.43400
C  24.04800 50.49000 20.43700
C  23.36500 50.97700 19.18700
N  23.94600 51.99800 25.54500
C  23.15200 52.39000 24.48700
C  21.90800 52.99900 24.93300
C  21.97400 52.85000 26.35300
C  23.18200 52.19200 26.67100
C  20.83300 53.53100 24.15400
C  21.22500 52.96600 27.57400
O  20.07200 53.41900 27.74500
C  22.08000 52.28700 28.74600
C  22.33400 53.36800 29.67100
O  23.11300 54.25500 29.45900
O  21.49400 53.18700 30.75100
C  21.69600 54.07900 31.91300
H  28.70300 50.24900 28.87300
H  28.57500 50.37600 22.41600
H  22.75500 52.58900 22.37600
H  24.62600 52.18900 30.51900
H  26.64900 49.89600 30.39900
H  26.68600 52.57500 31.27800
H  28.09400 52.12600 30.26000
H  27.61100 51.11600 31.66000
H  24.38200 49.22900 30.75600
H  22.99400 49.95800 30.13800
H  22.30600 50.53100 32.32400
H  23.64700 51.53800 32.61000
H  31.79200 49.09000 26.98600
H  30.66200 49.23700 28.17900
H  31.46700 50.77200 27.60400
H  32.62800 50.02300 25.19000
H  33.03800 49.39500 23.61800
H  32.17500 48.37700 24.74300
H  26.54200 50.03500 20.91300
H  24.99300 52.52000 20.69800
H  27.98300 52.80500 21.07000
H  26.93600 52.72300 19.66900
H  28.16900 51.48000 19.96200
H  23.27300 50.33600 21.18800
H  24.52800 49.52500 20.27500
H  23.11000 50.11600 18.57000
H  23.93700 51.66900 18.56900
H  22.43900 51.39100 19.58600
H  19.99700 53.49600 24.85200
H  20.81300 53.12700 23.14200
H  21.05800 54.58800 24.01300
H  21.46200 51.45400 29.08200
H  22.08700 54.95200 31.39000
H  22.50200 53.74500 32.56500
H  20.77500 54.33300 32.43800

