158

Mg 8.92800 2.95000 27.12600
C  10.23600 1.48100 30.04300
C  7.28800 5.17600 29.23900
C  7.52900 4.33100 24.43900
C  10.56000 0.66500 25.20600
N  8.62500 3.18200 29.51000
C  9.41300 2.55500 30.41900
C  9.19600 3.16700 31.83800
C  8.05200 4.28200 31.58300
C  7.94900 4.26900 30.03200
C  6.69900 4.14100 32.27400
C  10.53500 3.66500 32.52700
C  10.42600 4.33900 33.86700
H  11.16300 3.66900 35.03200
N  7.59000 4.43400 26.87200
C  7.01600 5.25300 27.86200
C  6.16400 6.30200 27.22800
C  6.27500 6.15100 25.82400
C  7.12500 4.92200 25.64200
C  5.19300 7.19600 28.00800
C  5.62100 6.94300 24.74900
O  5.79600 6.65900 23.53500
C  4.86600 8.22500 25.07400
N  9.15200 2.64900 25.06000
C  8.37100 3.28600 24.18100
C  8.57100 2.67000 22.78800
C  9.68100 1.61600 22.97600
C  9.85200 1.65100 24.49900
C  7.25200 2.10400 22.24000
C  11.11000 2.02300 22.31300
C  11.31900 1.26600 20.98400
N  9.95700 1.24200 27.48300
C  10.60400 0.45600 26.63300
C  11.38400 -0.55500 27.36800
C  11.28300 -0.17800 28.73100
C  10.43900 0.99100 28.71500
C  11.94700 -1.85000 26.89000
C  11.63800 -0.54100 30.14200
O  12.30600 -1.38300 30.64000
C  11.08700 0.57600 30.94600
C  10.27100 0.00900 32.10300
O  9.13500 -0.30700 32.06500
O  11.02800 0.01100 33.26800
C  10.36300 -0.26400 34.49400
H  6.95700 6.05700 29.79300
H  7.22400 4.76600 23.48500
H  11.25200 0.04300 24.63500
H  8.73000 2.50100 32.56400
H  8.41400 5.24200 31.95100
H  5.81100 4.02600 31.65300
H  6.42100 4.98300 32.90800
H  6.81700 3.33100 32.99500
H  11.07900 4.26000 31.79400
H  11.12100 2.75700 32.67300
H  9.34900 4.40200 34.02100
H  10.84200 5.34000 33.75100
H  4.19900 6.96900 27.62300
H  5.21500 8.27800 27.87400
H  5.22700 6.97300 29.07400
H  5.45700 8.87100 25.72400
H  3.91700 7.92200 25.51500
H  4.57100 8.84300 24.22600
H  8.81100 3.43100 22.04500
H  9.21100 0.69600 22.62700
H  6.42400 2.68100 22.65200
H  7.11400 1.05400 22.50000
H  7.22100 2.30100 21.16900
H  11.99700 1.78700 22.90100
H  11.07500 3.11300 22.31400
H  11.30600 2.08700 20.26800
H  10.49500 0.65400 20.61700
H  12.33000 0.86400 20.91500
H  11.53800 -2.71200 27.41800
H  13.02400 -1.90100 27.05300
H  11.71100 -2.06000 25.84700
H  11.90900 1.10000 31.43400
H  9.32000 -0.58100 34.49000
H  10.33900 0.70900 34.98400
H  10.97800 -0.93100 35.09800
Mg 40.86700 41.22700 27.20500
C  40.24100 43.55600 29.80200
C  41.39000 38.92500 29.67900
C  42.17300 39.21000 24.92900
C  40.68300 43.81000 24.92100
N  40.79000 41.29800 29.44700
C  40.33400 42.25000 30.26500
C  40.26000 41.84600 31.76000
C  40.69200 40.35800 31.67500
C  41.01300 40.16000 30.17900
C  41.98900 39.93700 32.53500
C  38.91100 42.18500 32.50200
C  38.40900 41.21000 33.52400
H  37.87500 41.86000 34.68900
N  41.61400 39.30400 27.29400
C  41.68800 38.48000 28.35900
C  42.33000 37.21800 28.04900
C  42.63300 37.32300 26.69700
C  42.19700 38.68000 26.25500
C  42.59100 36.07600 29.03900
C  43.25200 36.22400 25.78500
O  43.66800 36.35000 24.62900
C  43.39500 34.90800 26.32800
N  41.43500 41.48900 25.19500
C  41.86800 40.46100 24.38800
C  42.01100 40.92000 22.89500
C  41.39100 42.37700 22.98900
C  41.14900 42.57900 24.44300
C  43.36900 40.88000 22.30400
C  40.17700 42.53700 22.10300
C  38.84600 41.83400 22.63700
N  40.40900 43.22400 27.26900
C  40.47100 44.17200 26.28700
C  40.15700 45.46200 26.82800
C  40.06600 45.28600 28.23300
C  40.23000 43.89400 28.40600
C  40.02000 46.75300 26.08900
C  39.80900 45.86100 29.45700
O  39.60300 47.01100 29.81700
C  39.90300 44.77300 30.58800
C  41.01400 45.14000 31.48800
O  42.19500 45.32100 31.25500
O  40.50500 45.27300 32.76400
C  41.42700 45.69500 33.82100
H  41.53200 38.20400 30.48700
H  42.67300 38.50900 24.25700
H  40.73200 44.50300 24.07800
H  41.09500 42.29600 32.29800
H  39.86400 39.69200 31.91700
H  41.68900 39.02200 33.04600
H  42.26900 40.70700 33.25500
H  42.85800 39.75900 31.90200
H  38.07300 42.24800 31.80900
H  39.02600 43.16900 32.95600
H  39.25600 40.62000 33.87300
H  37.71500 40.51100 33.05700
H  42.54000 36.39800 30.08000
H  43.50600 35.49400 28.92700
H  41.88000 35.26500 28.88200
H  42.52700 34.54900 26.88100
H  44.18000 35.06100 27.06900
H  43.61600 34.11200 25.61700
H  41.40400 40.30600 22.23000
H  42.18100 43.06700 22.69400
H  43.39200 41.75900 21.66100
H  43.37800 40.02000 21.63300
H  44.15800 40.83400 23.05500
H  40.40700 41.94900 21.21500
H  40.01000 43.59000 21.87900
H  38.57800 41.09700 21.88000
H  38.05900 42.53000 22.92500
H  39.05300 41.32500 23.57800
H  39.70900 46.55900 25.06300
H  41.01700 47.19300 26.10800
H  39.35400 47.51800 26.48900
H  39.00600 44.70200 31.20400
H  41.98200 46.57300 33.49000
H  42.20100 44.93000 33.88800
H  40.96800 45.92900 34.78100

