158

Mg 40.99300 9.11200 29.91200
C  42.88200 10.16200 32.65800
C  38.62600 7.91100 32.19900
C  39.39300 8.12300 27.32700
C  43.78400 9.90800 27.85300
N  40.84400 9.04100 32.21500
C  41.63300 9.75800 33.09300
C  41.00500 9.71200 34.53900
C  39.86300 8.69200 34.40100
C  39.79000 8.50500 32.85300
C  40.06900 7.30700 35.06800
C  40.68400 11.12500 35.07800
C  39.99200 11.17300 36.41600
H  40.61600 12.19500 37.36600
N  39.21700 8.28200 29.78200
C  38.31000 7.90400 30.74800
C  37.06900 7.50000 30.11800
C  37.35500 7.53400 28.73700
C  38.73600 7.95300 28.54600
C  35.84200 7.06000 30.83600
C  36.39100 7.06800 27.54300
O  36.69600 7.21100 26.34500
C  35.05600 6.50600 27.80100
N  41.57500 8.97000 27.88900
C  40.70400 8.46800 27.04700
C  41.14500 8.65300 25.59600
C  42.37000 9.53800 25.73900
C  42.64500 9.46200 27.25100
C  41.57100 7.38600 24.87600
C  42.20300 10.95700 25.14200
C  40.91400 11.80100 25.37300
N  43.03900 9.73600 30.15100
C  43.99000 10.05900 29.22700
C  45.06700 10.60200 29.92000
C  44.67200 10.70000 31.24400
C  43.45500 10.09000 31.33900
C  46.29500 11.16200 29.40400
C  45.05000 11.18800 32.50100
O  46.09000 11.74000 32.78000
C  43.91700 10.85800 33.46800
C  44.51100 9.98300 34.54200
O  45.38100 9.13000 34.48200
O  43.88800 10.52300 35.68300
C  44.26500 9.84100 36.93400
H  37.89500 7.45200 32.86800
H  38.78700 7.97100 26.43200
H  44.49900 10.29900 27.12500
H  41.91000 9.28900 34.97500
H  38.92700 9.05700 34.82400
H  39.72600 6.41300 34.54800
H  39.80000 7.32200 36.12500
H  41.14900 7.19800 35.17200
H  40.13100 11.48800 34.21200
H  41.61300 11.67600 35.22500
H  39.91200 10.14400 36.76800
H  38.98900 11.55000 36.21500
H  36.01100 7.41900 31.85100
H  35.82900 5.97200 30.90400
H  34.91100 7.44400 30.42000
H  34.70800 5.92800 26.94500
H  34.31200 7.28200 27.97800
H  35.17700 5.78700 28.61200
H  40.41600 9.17100 24.97400
H  43.25600 9.11900 25.26400
H  40.71200 6.75900 24.63500
H  42.14600 6.80500 25.59600
H  42.09700 7.66900 23.96400
H  42.43500 10.93200 24.07700
H  42.95600 11.55500 25.65700
H  41.12500 12.76800 25.83000
H  40.28000 11.37300 26.15000
H  40.30900 11.96100 24.48100
H  47.06000 11.07500 30.17600
H  46.06500 12.21500 29.24100
H  46.58200 10.74700 28.43900
H  43.50300 11.77800 33.88100
H  44.06400 8.79600 36.69600
H  43.64700 10.15700 37.77400
H  45.32100 9.92700 37.18900
Mg -10.13100 39.12000 39.83600
C  -9.44400 35.87900 38.58600
C  -7.12500 40.08500 39.04600
C  -11.18100 42.17400 40.37800
C  -13.43300 37.92000 40.62900
N  -8.49600 38.06700 38.92300
C  -8.40800 36.76800 38.44900
C  -7.00300 36.46500 37.90800
C  -6.24700 37.77400 38.24800
C  -7.30400 38.73500 38.78600
C  -5.01800 37.63600 39.10900
C  -6.90300 36.09700 36.32700
C  -7.33500 37.22000 35.31900
H  -8.74600 36.99700 34.74100
N  -9.16800 40.92200 39.81000
C  -7.91800 41.11900 39.48300
C  -7.63900 42.50500 39.44500
C  -8.82200 43.22000 39.79300
C  -9.78800 42.10600 40.04000
C  -6.26500 43.05500 38.99000
C  -8.87700 44.74000 39.87700
O  -7.91800 45.50200 39.71600
C  -10.21500 45.38800 39.98500
N  -12.16000 39.94600 40.37600
C  -12.23600 41.31400 40.53200
C  -13.68700 41.69000 40.80000
C  -14.38100 40.31800 41.19300
C  -13.32500 39.31800 40.68500
C  -14.06000 42.93100 41.65900
C  -15.82000 40.16500 40.63800
C  -16.94600 39.77600 41.60100
N  -11.27400 37.24800 39.72800
C  -12.54500 36.96300 40.17800
C  -12.74100 35.56400 40.05700
C  -11.53300 35.05800 39.46700
C  -10.71300 36.16500 39.22000
C  -14.00300 34.76100 40.40300
C  -10.83600 33.88100 39.02800
O  -11.18100 32.72700 39.10400
C  -9.40300 34.33400 38.45400
C  -8.33100 33.65700 39.22700
O  -8.25900 33.45100 40.42400
O  -7.46400 33.04900 38.26700
C  -6.51700 31.99500 38.73100
H  -6.10400 40.46700 38.97700
H  -11.54000 43.20200 40.44800
H  -14.41800 37.54400 40.91600
H  -6.51100 35.59500 38.34000
H  -5.91600 38.36200 37.39200
H  -5.09000 38.16200 40.06100
H  -4.16600 37.90800 38.48700
H  -4.85800 36.57800 39.31500
H  -7.49000 35.21900 36.05700
H  -5.88800 35.80700 36.05600
H  -6.61700 37.37500 34.51300
H  -7.39400 38.17300 35.84600
H  -6.26700 44.09700 38.67100
H  -5.92000 42.32400 38.25900
H  -5.57600 42.89100 39.81800
H  -10.60200 45.25700 40.99500
H  -10.91500 45.07300 39.21100
H  -10.08900 46.43900 39.72400
H  -14.00800 42.01100 39.80900
H  -14.34700 40.21300 42.27700
H  -13.48600 42.95000 42.58500
H  -15.08900 42.82200 42.00100
H  -14.06700 43.84500 41.06500
H  -15.77300 39.48300 39.78900
H  -16.07400 41.05300 40.05900
H  -17.58200 40.64800 41.75700
H  -16.60500 39.32500 42.53300
H  -17.69200 39.02800 41.33200
H  -14.77500 35.36400 40.88300
H  -13.64900 33.99800 41.09600
H  -14.46000 34.50900 39.44600
H  -9.34300 34.19900 37.37400
H  -5.95700 31.71300 37.83800
H  -6.89100 31.12300 39.26600
H  -5.84200 32.46300 39.44800

