158

Mg 1.89700 -2.52100 45.17400
C  5.29300 -1.70700 44.49300
C  0.82700 0.10500 43.41900
C  -1.16400 -3.82100 45.50700
C  3.27800 -5.57700 46.52500
N  2.98700 -1.21900 43.89700
C  4.34900 -0.95300 43.82300
C  4.62000 0.22000 42.92500
C  3.25400 0.94600 42.93100
C  2.23600 -0.18100 43.39000
C  3.31300 2.19400 43.85800
C  5.26100 -0.08300 41.53900
C  6.25800 1.02400 40.99700
H  5.74400 1.77200 39.82300
N  0.01400 -1.85800 44.62400
C  -0.20000 -0.72500 43.92000
C  -1.65100 -0.58700 43.73300
C  -2.22400 -1.80700 44.25500
C  -1.15000 -2.54100 44.82600
C  -2.31400 0.60400 43.09600
C  -3.63500 -2.11300 44.21500
O  -4.41800 -1.36200 43.64800
C  -4.16300 -3.39400 44.62300
N  1.22300 -4.41300 45.85800
C  -0.12500 -4.65400 45.98600
C  -0.44300 -5.96200 46.79900
C  0.98700 -6.61500 46.78100
C  1.90800 -5.41600 46.45500
C  -0.93600 -5.66100 48.24500
C  1.13100 -7.81800 45.77700
C  2.15700 -8.84800 46.23000
N  3.95600 -3.43900 45.65600
C  4.28400 -4.66700 46.18500
C  5.74400 -4.77200 46.14900
C  6.18700 -3.54800 45.63500
C  5.07400 -2.80400 45.26800
C  6.61300 -5.87400 46.65800
C  7.34800 -2.76500 45.24000
O  8.52300 -2.95600 45.41600
C  6.78900 -1.49600 44.44000
C  7.31100 -0.34800 45.24300
O  8.39100 0.19700 45.10300
O  6.37600 0.09300 46.07500
C  6.52000 1.43500 46.70000
H  0.58400 0.94100 42.75900
H  -2.16400 -4.23000 45.67000
H  3.66300 -6.50000 46.96300
H  5.32500 0.84400 43.47500
H  2.88400 1.22200 41.94400
H  4.27200 2.70500 43.94400
H  3.09900 1.85300 44.87100
H  2.62400 2.97700 43.53900
H  4.46600 -0.11200 40.79300
H  5.63300 -1.10700 41.57300
H  7.17200 0.49200 40.73100
H  6.44400 1.76200 41.77700
H  -2.64400 0.31800 42.09800
H  -1.62900 1.45200 43.10500
H  -3.27500 0.83200 43.55900
H  -4.13200 -3.47100 45.71000
H  -3.53800 -4.14300 44.13700
H  -5.15000 -3.63600 44.22800
H  -1.20000 -6.55900 46.29100
H  1.35100 -6.90200 47.76700
H  -0.16100 -5.52100 48.99900
H  -1.72700 -6.34400 48.55400
H  -1.48000 -4.71900 48.18300
H  1.37700 -7.40600 44.79800
H  0.16400 -8.31900 45.73400
H  2.72500 -8.37800 47.03300
H  2.88700 -9.07200 45.45300
H  1.68200 -9.75100 46.61300
H  6.01500 -6.78500 46.63400
H  7.03500 -5.78800 47.65900
H  7.41500 -6.05700 45.94300
H  7.26900 -1.34900 43.47300
H  5.52200 1.83800 46.87000
H  6.97100 2.09000 45.95400
H  7.06400 1.37600 47.64200
Mg 16.75000 -1.66000 27.73500
C  15.50100 0.39100 30.41300
C  18.53900 -3.41900 30.02200
C  18.44900 -3.32300 25.07500
C  15.05800 0.21200 25.51300
N  16.92800 -1.53800 29.96300
C  16.39100 -0.63200 30.83100
C  16.90900 -0.80100 32.27900
C  17.92500 -2.02100 32.09100
C  17.81100 -2.37200 30.60600
C  19.40600 -1.90800 32.59700
C  15.62400 -1.04200 33.17200
C  15.76000 -0.58100 34.72700
H  17.16200 -0.22200 35.28300
N  18.21000 -3.15900 27.57500
C  18.81300 -3.74200 28.63200
C  19.71500 -4.80500 28.20000
C  19.60700 -4.84600 26.76300
C  18.71400 -3.78200 26.41800
C  20.61200 -5.57700 29.18200
C  20.17500 -5.86500 25.76900
O  19.92400 -5.82700 24.59600
C  21.20400 -6.97000 26.20200
N  16.85200 -1.58900 25.57000
C  17.54400 -2.26500 24.71300
C  17.37600 -1.72400 23.19500
C  16.24500 -0.66000 23.44700
C  16.00200 -0.67500 24.95000
C  18.69500 -1.16200 22.62200
C  14.95800 -0.89600 22.56900
C  14.42900 0.35400 21.97600
N  15.57500 -0.04000 27.90400
C  14.85800 0.61900 26.87000
C  14.04000 1.73400 27.39700
C  14.26800 1.67300 28.78200
C  15.17500 0.56900 29.02300
C  13.20800 2.61000 26.55900
C  13.90900 2.33000 30.04900
O  13.21600 3.31500 30.30700
C  14.69400 1.54500 31.16400
C  15.58400 2.47700 31.96800
O  16.78500 2.73200 31.75300
O  14.85400 3.00900 32.97700
C  15.73200 3.62300 34.03500
H  19.21800 -3.83200 30.77100
H  18.96800 -3.79100 24.23500
H  14.48700 0.76600 24.76500
H  17.42700 0.02700 32.76300
H  17.46500 -2.88000 32.58200
H  19.48900 -0.98400 33.16900
H  20.12200 -1.77600 31.78500
H  19.65100 -2.81800 33.14400
H  15.38400 -2.10100 33.07400
H  14.80500 -0.51700 32.67900
H  15.44200 -1.38700 35.38900
H  15.02000 0.19800 34.90700
H  20.52000 -6.64000 28.95900
H  20.37500 -5.30300 30.21000
H  21.64200 -5.26000 29.01600
H  20.68600 -7.84200 26.60100
H  21.81200 -6.44800 26.94100
H  21.85500 -7.18200 25.35400
H  17.00600 -2.55200 22.58900
H  16.57300 0.37500 23.35000
H  18.39400 -0.51200 21.80100
H  19.28000 -1.93900 22.12900
H  19.20700 -0.44600 23.26500
H  14.19200 -1.24700 23.26000
H  15.22500 -1.66000 21.83900
H  14.30300 0.20400 20.90400
H  15.04700 1.22900 22.18000
H  13.45200 0.60200 22.39000
H  13.74700 3.54900 26.43600
H  12.28500 2.94800 27.03200
H  13.02400 2.21800 25.55900
H  13.96100 1.20700 31.89700
H  15.24100 3.66500 35.00700
H  16.04300 4.59900 33.66100
H  16.53700 2.92300 34.26000

