158

Mg 25.14400 -6.75200 48.29800
C  26.35700 -3.95600 46.55100
C  22.32500 -6.63300 46.24000
C  24.10500 -9.60900 49.61600
C  28.08200 -6.77800 50.07000
N  24.51900 -5.56800 46.45200
C  25.21000 -4.52100 45.99100
C  24.55300 -3.94600 44.69200
C  23.12300 -4.69500 44.78400
C  23.23500 -5.67700 45.89600
C  21.91000 -3.75800 44.78000
C  25.32600 -4.14700 43.42200
C  25.71900 -2.85000 42.67300
H  25.33400 -2.72600 41.13700
N  23.37800 -7.99000 48.02800
C  22.41100 -7.76200 47.14400
C  21.46100 -8.87100 47.29100
C  21.96800 -9.71100 48.29000
C  23.20800 -9.16600 48.71400
C  20.19100 -8.98900 46.50800
C  21.29500 -10.95000 48.79800
O  20.18100 -11.20300 48.35700
C  21.77000 -12.02700 49.77400
N  26.04600 -8.08800 49.60100
C  25.40600 -9.20700 50.07300
C  26.37900 -10.05000 50.92600
C  27.71800 -9.13700 50.94100
C  27.20000 -7.91400 50.17700
C  25.81200 -10.35300 52.41800
C  29.01200 -9.69700 50.35000
C  30.30000 -9.57300 51.12800
N  26.85900 -5.50000 48.43100
C  27.94100 -5.63800 49.23300
C  28.82600 -4.44300 49.00500
C  28.21100 -3.77900 47.92400
C  27.05400 -4.43400 47.63300
C  30.08200 -4.06500 49.72400
C  28.32200 -2.67500 47.06900
O  29.17600 -1.81100 46.96400
C  27.08700 -2.64000 46.14700
C  26.27200 -1.32500 46.20100
O  26.63900 -0.24900 45.78400
O  25.00500 -1.63800 46.71700
C  24.22000 -0.47600 47.12000
H  21.43200 -6.50700 45.62300
H  23.89700 -10.53800 50.15200
H  28.95800 -6.80900 50.72000
H  24.28500 -2.90600 44.87500
H  22.81300 -5.23100 43.88700
H  22.25500 -2.77500 44.46100
H  21.37600 -3.78700 45.72900
H  21.12000 -4.05000 44.08800
H  24.88400 -4.82600 42.69300
H  26.25700 -4.63600 43.70600
H  26.80300 -2.73200 42.67700
H  25.18900 -2.03000 43.15700
H  19.22000 -9.06000 46.99800
H  20.40600 -9.83700 45.85800
H  19.94500 -8.15100 45.85500
H  22.70200 -12.42600 49.37300
H  21.05700 -12.84400 49.88100
H  21.89900 -11.44900 50.68900
H  26.59900 -11.01000 50.45900
H  27.95200 -8.84300 51.96500
H  24.83300 -10.80900 52.27100
H  25.50100 -9.37500 52.78400
H  26.52700 -10.86800 53.06000
H  29.04300 -9.26700 49.34900
H  28.88800 -10.77200 50.22400
H  31.11800 -9.32000 50.45400
H  30.51400 -10.47300 51.70400
H  30.11600 -8.74900 51.81700
H  30.71600 -3.38400 49.15500
H  30.76700 -4.86000 50.01800
H  29.89400 -3.58300 50.68300
H  27.43200 -2.67900 45.11300
H  24.29700 0.32400 46.38300
H  24.56000 -0.04300 48.06100
H  23.27000 -0.91800 47.41900
Mg 6.89000 53.22600 41.58000
C  6.56200 49.78300 41.46300
C  10.00100 52.85500 40.22700
C  7.06900 56.58300 41.48100
C  3.52700 53.49800 42.62800
N  8.05600 51.53500 40.72900
C  7.71700 50.20100 40.78900
C  8.80800 49.26000 40.33300
C  10.03200 50.31200 40.22000
C  9.29600 51.64600 40.33000
C  11.16500 50.29800 41.25400
C  8.62600 48.64400 38.91600
C  7.87600 49.45800 37.84500
H  8.71700 49.78500 36.61500
N  8.42200 54.60400 40.98200
C  9.58800 54.21300 40.39200
C  10.33700 55.46300 40.07100
C  9.58000 56.57800 40.48100
C  8.30000 55.96600 40.99300
C  11.84100 55.43700 39.53400
C  9.93000 58.02500 40.31500
O  11.03900 58.46900 39.94700
C  8.94900 59.01900 40.60700
N  5.44800 54.88600 41.77300
C  5.78600 56.12100 41.84900
C  4.70300 57.14400 42.34000
C  3.60900 56.05700 42.65800
C  4.18100 54.69200 42.34100
C  5.04800 58.04400 43.60200
C  2.22600 56.29800 41.97400
C  1.85700 55.72100 40.65600
N  5.24200 51.99800 41.88100
C  4.02300 52.18700 42.48500
C  3.42800 50.95000 42.83500
C  4.42600 49.96700 42.53900
C  5.48400 50.64000 41.89400
C  2.04300 50.66400 43.39200
C  4.69200 48.47100 42.48000
O  4.03700 47.48900 42.83700
C  6.08900 48.35600 41.70300
C  5.71100 47.57900 40.42800
O  5.02200 48.01400 39.52100
O  6.07000 46.22100 40.48500
C  5.76800 45.37800 39.34700
H  11.05700 52.82000 39.95200
H  7.12900 57.67300 41.45400
H  2.54000 53.55600 43.09200
H  8.92300 48.52500 41.13000
H  10.50900 50.29000 39.24000
H  10.95700 50.91700 42.12700
H  12.09200 50.69500 40.83900
H  11.33800 49.27800 41.59800
H  8.06100 47.72000 39.03500
H  9.53500 48.18500 38.52700
H  7.59900 50.42500 38.26600
H  7.02200 48.80700 37.65900
H  11.94100 56.17300 38.73600
H  12.06100 54.47800 39.06500
H  12.57300 55.58500 40.32800
H  9.33600 60.02300 40.43400
H  8.78800 58.89500 41.67800
H  8.06200 59.01900 39.97400
H  4.37500 57.70000 41.46200
H  3.46200 56.19400 43.72900
H  4.51900 57.81100 44.52600
H  4.87000 59.10200 43.41300
H  6.13600 58.05100 43.67600
H  2.01600 57.35500 41.81300
H  1.45400 55.97000 42.67000
H  2.66000 55.11500 40.23700
H  1.67100 56.55600 39.98100
H  0.87200 55.25800 40.70100
H  2.20500 49.95100 44.20000
H  1.36200 50.40700 42.58100
H  1.68100 51.59200 43.83500
H  6.80700 47.73600 42.24100
H  6.54000 45.51900 38.59000
H  4.80500 45.59300 38.88400
H  5.72700 44.36900 39.75800

