158

Mg 47.05000 16.82400 27.59000
C  45.21300 16.75000 30.56600
C  49.51500 18.37300 29.50400
C  48.87700 17.07800 24.85800
C  44.31300 15.90100 25.84800
N  47.19800 17.74900 29.80600
C  46.37800 17.48100 30.77300
C  46.93800 17.87600 32.09800
C  48.20600 18.69300 31.67400
C  48.33300 18.20200 30.21800
C  47.97500 20.25600 31.80600
C  47.23700 16.66600 33.09100
C  47.29000 16.91200 34.60300
H  47.00500 18.33000 35.02700
N  48.94600 17.48000 27.29900
C  49.81200 18.00800 28.15400
C  51.12100 18.13900 27.56800
C  50.93800 17.70200 26.23200
C  49.50500 17.36300 26.06400
C  52.30000 18.82300 28.25600
C  51.96400 17.58600 25.20000
O  51.76900 17.03100 24.13900
C  53.30000 18.30400 25.38100
N  46.61900 16.62500 25.59500
C  47.53600 16.83300 24.61900
C  46.87000 16.66400 23.12800
C  45.46200 16.05500 23.50800
C  45.48000 16.15200 25.09900
C  46.82700 17.94600 22.31700
C  45.20300 14.54600 23.03800
C  45.34300 13.40500 24.10900
N  45.16900 16.40800 28.07800
C  44.13500 15.93400 27.25600
C  42.97900 15.54800 28.04000
C  43.35000 15.89300 29.33800
C  44.67700 16.41100 29.26700
C  41.74200 14.95700 27.46900
C  42.90300 15.82600 30.69100
O  41.87100 15.41100 31.25200
C  44.11400 16.22200 31.49100
C  43.74000 17.26200 32.52200
O  43.48500 18.44700 32.29700
O  43.69000 16.72900 33.77900
C  43.07300 17.55600 34.84600
H  50.26100 18.76800 30.19800
H  49.53700 16.87000 24.01400
H  43.42000 15.58100 25.30800
H  46.25200 18.53500 32.62900
H  49.14100 18.49700 32.19800
H  48.70900 20.77000 32.42500
H  47.01400 20.43800 32.28800
H  48.05600 20.75100 30.83900
H  48.21900 16.37400 32.72100
H  46.66100 15.75900 32.90300
H  48.29700 16.76800 34.99400
H  46.64900 16.18800 35.10700
H  53.23600 18.28200 28.11500
H  52.19000 18.88500 29.33800
H  52.30500 19.82600 27.83000
H  53.14400 19.34400 25.66800
H  53.77400 18.39200 24.40400
H  53.82500 17.77500 26.17700
H  47.61800 16.01800 22.66900
H  44.65100 16.70400 23.18000
H  47.68000 18.59800 22.50000
H  45.87400 18.46500 22.42100
H  46.94200 17.55700 21.30500
H  45.87200 14.26400 22.22400
H  44.24200 14.53600 22.52300
H  44.37300 13.12700 24.52000
H  46.03300 13.71500 24.89400
H  45.78600 12.57700 23.55500
H  41.77900 13.90400 27.18900
H  41.48500 15.48400 26.55000
H  40.94400 15.12700 28.19200
H  44.62100 15.36600 31.93700
H  43.17500 18.62300 34.65100
H  43.52400 17.45600 35.83300
H  42.04800 17.20700 34.97300
Mg 48.69500 36.10300 27.34700
C  46.84200 34.18800 29.42800
C  48.96100 38.47000 29.86800
C  50.30900 38.09700 25.08200
C  48.38200 33.61100 24.94300
N  48.08300 36.21500 29.51800
C  47.36700 35.29500 30.16200
C  47.37600 35.58300 31.66800
C  47.73500 37.10100 31.67300
C  48.33900 37.29400 30.27700
C  46.56600 38.07700 31.93000
C  48.41800 34.62900 32.32700
C  48.40500 34.42200 33.84200
H  47.54500 35.18800 34.84700
N  49.48800 38.08400 27.47300
C  49.47000 38.86900 28.60200
C  50.35900 40.06400 28.37400
C  50.59700 39.97800 26.93600
C  50.11900 38.68900 26.40400
C  50.81100 41.07700 29.43900
C  51.35800 41.06400 26.09400
O  51.70400 40.89500 24.91100
C  51.66300 42.30800 26.79400
N  49.08300 35.96600 25.30300
C  49.79000 36.87600 24.58300
C  50.27000 36.33200 23.27100
C  49.82600 34.80900 23.27300
C  49.08100 34.74200 24.58500
C  49.79500 37.20100 22.03400
C  50.99800 33.82200 22.94600
C  51.18300 33.40300 21.50700
N  47.88300 34.20300 27.14300
C  47.79400 33.34300 26.14700
C  46.98800 32.19700 26.44000
C  46.56000 32.48200 27.76600
C  47.13400 33.73800 28.12200
C  46.61000 31.04300 25.69300
C  45.71100 32.01000 28.80100
O  45.13300 30.94300 28.83700
C  45.78400 33.13700 29.91600
C  46.06400 32.37900 31.09800
O  46.85300 31.41700 31.31400
O  45.24800 32.90600 32.15000
C  45.10600 32.10100 33.39300
H  49.21900 39.10700 30.71700
H  50.90300 38.61700 24.32700
H  48.29700 32.83600 24.17900
H  46.36100 35.33500 31.98000
H  48.50100 37.26200 32.43100
H  46.72300 38.83200 32.70000
H  45.60400 37.69200 32.26800
H  46.47500 38.55600 30.95500
H  49.40300 35.00900 32.05700
H  48.44200 33.65100 31.84500
H  49.38500 34.31900 34.30700
H  48.00800 33.41300 33.95100
H  51.86200 41.35600 29.37100
H  50.59700 40.77500 30.46500
H  50.27400 42.02000 29.34300
H  50.79300 42.61400 27.37600
H  51.88100 43.06500 26.04000
H  52.42900 42.04300 27.52200
H  51.35900 36.31700 23.32700
H  49.03200 34.63400 22.54800
H  49.32600 36.56600 21.28200
H  50.62400 37.77500 21.61900
H  49.03800 37.92400 22.33800
H  50.90100 32.85800 23.44600
H  51.91300 34.24000 23.36500
H  51.38900 32.33300 21.50100
H  52.10200 33.88400 21.17300
H  50.26500 33.53100 20.93300
H  45.84300 31.35000 24.98300
H  46.15600 30.36600 26.41600
H  47.44000 30.47400 25.27300
H  44.75100 33.48300 29.92300
H  45.54600 31.11000 33.28400
H  44.06500 31.82200 33.55500
H  45.54400 32.61900 34.24600

