158

Mg -3.35900 16.96400 26.79100
C  -3.38800 14.96800 29.59000
C  -3.72000 19.83400 28.62500
C  -3.30900 18.73500 23.91000
C  -3.57400 13.94900 24.86300
N  -3.46900 17.26800 28.84300
C  -3.51300 16.34300 29.90200
C  -3.48300 16.99100 31.29600
C  -3.63200 18.49600 30.87100
C  -3.66300 18.56500 29.34700
C  -4.59100 19.37000 31.69700
C  -2.28300 16.59000 32.22600
C  -1.67700 17.45100 33.32700
H  -1.41400 16.87600 34.72000
N  -3.35200 19.02000 26.35900
C  -3.48300 20.05900 27.29600
C  -3.35400 21.37000 26.63400
C  -3.12300 21.05200 25.22200
C  -3.26200 19.57300 25.12100
C  -3.52500 22.75600 27.32300
C  -2.93400 22.02800 24.06500
O  -3.07000 21.61600 22.89200
C  -2.68300 23.43100 24.35700
N  -3.54300 16.35500 24.65000
C  -3.41900 17.36600 23.72600
C  -3.43200 16.78000 22.30400
C  -3.33300 15.21800 22.59700
C  -3.50600 15.10400 24.09500
C  -4.76400 17.30600 21.73300
C  -1.90400 14.84100 21.99400
C  -0.77000 15.33000 22.93000
N  -3.53100 14.93800 27.05200
C  -3.54700 13.83000 26.20800
C  -3.46600 12.52700 26.95800
C  -3.47400 12.97700 28.29200
C  -3.46500 14.39600 28.29000
C  -3.49000 11.14500 26.43400
C  -3.38300 12.56100 29.69100
O  -3.32000 11.45600 30.14000
C  -3.30900 13.75600 30.48400
C  -2.02500 13.60300 31.21400
O  -0.89300 14.05700 30.87500
O  -2.30700 13.11400 32.45200
C  -1.15000 12.96900 33.34500
H  -3.79300 20.67600 29.31700
H  -3.30000 19.22900 22.93600
H  -3.53000 13.06400 24.22300
H  -4.41700 16.71400 31.78500
H  -2.66700 18.94300 31.11100
H  -5.36200 19.90900 31.14600
H  -4.06600 20.21700 32.13700
H  -5.05900 18.84900 32.53300
H  -1.49100 16.44300 31.49100
H  -2.64700 15.68800 32.71800
H  -2.09500 18.45700 33.37200
H  -0.68100 17.69300 32.95900
H  -2.63900 23.36800 27.15100
H  -3.56800 22.56900 28.39600
H  -4.36700 23.31900 26.91800
H  -3.58100 23.86900 24.79000
H  -2.43800 23.95200 23.43100
H  -1.84500 23.57800 25.03800
H  -2.65800 17.20200 21.66300
H  -4.15200 14.66300 22.14000
H  -5.41400 16.49000 21.41600
H  -4.42100 17.83700 20.84400
H  -5.19700 18.07500 22.37200
H  -1.73000 15.37700 21.06100
H  -1.86600 13.77700 21.76000
H  -0.06000 14.51900 23.09300
H  -1.01200 15.60000 23.95800
H  -0.25500 16.17100 22.46700
H  -3.56800 11.08200 25.34800
H  -4.29500 10.55300 26.86900
H  -2.56000 10.59500 26.57900
H  -4.09300 13.67600 31.23600
H  -0.99400 13.81600 34.01300
H  -0.22800 12.73700 32.81200
H  -1.54100 12.15800 33.96000
Mg 16.68600 -1.12200 27.40600
C  15.26900 0.70300 30.11500
C  18.63600 -2.71800 29.67800
C  18.18200 -2.57300 24.85400
C  15.00800 1.04900 25.17800
N  16.88300 -1.00900 29.70800
C  16.23000 -0.20200 30.56400
C  16.72900 -0.45000 31.98300
C  17.96000 -1.39400 31.80400
C  17.83200 -1.74100 30.35000
C  19.27700 -0.87900 32.27600
C  15.61500 -1.06400 32.79500
C  15.61800 -0.73800 34.29500
H  16.81700 0.13500 34.88900
N  18.05000 -2.56100 27.28800
C  18.66400 -3.19700 28.34300
C  19.40900 -4.33400 27.85400
C  19.31400 -4.33100 26.41400
C  18.49700 -3.10500 26.10000
C  20.13700 -5.18500 28.76400
C  19.97800 -5.23000 25.38900
O  19.78500 -5.15300 24.14100
C  20.87400 -6.41200 25.73800
N  16.87400 -0.52900 25.35800
C  17.52600 -1.45500 24.53400
C  17.30400 -1.14600 23.03000
C  16.27200 0.01400 23.06800
C  15.99900 0.20500 24.59200
C  18.58000 -0.77900 22.19200
C  15.03400 -0.03000 22.19400
C  14.81000 1.19200 21.29800
N  15.38600 0.46000 27.52600
C  14.75700 1.23600 26.54700
C  13.76000 2.11400 27.16900
C  14.00400 1.94300 28.55800
C  14.98700 0.95300 28.71700
C  12.91400 3.05200 26.41000
C  13.54600 2.43100 29.89200
O  12.66900 3.20700 30.18800
C  14.45400 1.66500 30.87700
C  15.15600 2.63900 31.78800
O  16.29300 3.03900 31.77000
O  14.26800 3.00900 32.78200
C  14.70700 4.02300 33.69400
H  19.19900 -3.20000 30.48000
H  18.52300 -3.22300 24.04500
H  14.40600 1.62800 24.47600
H  17.09900 0.49500 32.38100
H  17.88100 -2.23500 32.49400
H  19.70300 -0.31400 31.44800
H  19.91400 -1.69200 32.62700
H  19.20300 -0.23300 33.15100
H  15.49000 -2.13500 32.63700
H  14.63900 -0.65100 32.53700
H  15.86700 -1.65200 34.83400
H  14.62500 -0.35100 34.52500
H  19.71600 -6.18000 28.90300
H  20.35800 -4.70600 29.71800
H  21.11500 -5.47800 28.38400
H  20.63100 -6.98400 26.63300
H  21.78400 -5.85300 25.95900
H  20.86800 -7.03200 24.84200
H  16.76300 -1.98600 22.59300
H  16.90000 0.83800 22.73100
H  18.40500 0.13200 21.62000
H  18.87400 -1.60300 21.54300
H  19.38900 -0.51600 22.87400
H  14.14200 -0.09600 22.81700
H  15.15600 -0.96300 21.64300
H  15.69900 1.75200 21.00500
H  14.23700 1.93600 21.85100
H  14.28100 0.75600 20.45100
H  13.58800 3.84400 26.08300
H  12.20900 3.55100 27.07400
H  12.33100 2.57800 25.61900
H  13.82400 1.11600 31.57600
H  14.80100 4.88600 33.03500
H  15.70800 3.91300 34.11100
H  13.99900 4.25800 34.48900

