158

Mg 30.66000 58.61000 41.67000
C  27.80300 56.99000 40.74000
C  32.46700 56.05700 40.17400
C  33.53300 60.50200 42.03400
C  28.81800 61.52400 42.39600
N  30.13500 56.92500 40.38600
C  28.90300 56.38700 40.28400
C  28.96000 54.98200 39.56600
C  30.44600 54.51100 39.87300
C  31.05700 55.90300 40.21600
C  30.44900 53.60800 41.06000
C  28.57000 54.98900 38.13200
C  27.39000 54.14500 37.64100
H  26.61500 54.79200 36.46300
N  32.70000 58.32900 41.09300
C  33.23400 57.15100 40.56500
C  34.66400 57.32500 40.49300
C  34.97100 58.57200 41.03100
C  33.73100 59.22600 41.40500
C  35.56800 56.23400 40.07300
C  36.37200 59.16800 41.16200
O  37.39300 58.46500 41.10200
C  36.62900 60.63900 41.41400
N  31.18000 60.69800 42.20500
C  32.36800 61.20100 42.28200
C  32.43900 62.65600 42.73400
C  30.89800 62.98200 42.79800
C  30.22400 61.66400 42.46600
C  33.43600 63.05700 43.83300
C  30.53500 64.18300 42.00800
C  29.48000 65.12700 42.62500
N  28.75700 59.16000 41.86200
C  28.10800 60.36100 42.11400
C  26.67700 60.20300 42.03000
C  26.49900 58.83600 41.41600
C  27.79700 58.28500 41.32500
C  25.60100 61.25700 42.37500
C  25.50100 57.88200 40.95700
O  24.29500 57.99700 40.95000
C  26.26400 56.57600 40.54400
C  25.99000 55.43400 41.48900
O  26.82800 55.00000 42.31000
O  24.75900 54.83200 41.25500
C  24.53100 53.63700 42.03100
H  33.06700 55.21100 39.83100
H  34.34300 61.21500 42.20200
H  28.16900 62.39500 42.51300
H  28.15700 54.38300 39.99500
H  30.93600 54.07100 39.00400
H  31.31200 53.75100 41.71000
H  30.59100 52.62800 40.60300
H  29.53800 53.50200 41.64800
H  29.38000 54.64900 37.48700
H  28.31300 56.02700 37.92000
H  26.72000 54.01500 38.49000
H  27.70300 53.18300 37.23700
H  35.86300 56.25100 39.02400
H  35.11900 55.27500 40.33200
H  36.54600 56.17200 40.55100
H  36.40200 60.96200 42.43000
H  35.93600 61.22700 40.81300
H  37.70000 60.83600 41.38100
H  32.87100 63.31200 41.97800
H  30.61600 63.15500 43.83700
H  32.91000 63.44800 44.70400
H  34.06500 63.87900 43.49300
H  34.03900 62.18700 44.09500
H  30.20400 63.83700 41.02900
H  31.34400 64.85400 41.72100
H  28.63700 65.10200 41.93400
H  29.78100 66.17200 42.70000
H  29.18200 64.85000 43.63600
H  24.58200 60.91000 42.20500
H  25.67200 62.08900 41.67400
H  25.60700 61.62900 43.40000
H  25.86000 56.20400 39.60200
H  25.31100 52.88000 41.96000
H  23.54700 53.21700 41.82000
H  24.37900 53.89800 43.07800
Mg 9.12800 48.17400 26.75500
C  6.89200 47.87400 29.48000
C  11.44500 49.22800 28.90900
C  11.05900 48.57700 24.17300
C  6.26400 47.89400 24.56700
N  8.99700 48.83500 28.98500
C  8.12000 48.33000 29.87100
C  8.60200 48.67600 31.32800
C  10.10000 49.04200 31.09900
C  10.18500 49.01500 29.57300
C  10.61100 50.38600 31.71200
C  8.23700 47.57600 32.40200
C  8.93800 47.72900 33.78900
H  8.65500 46.69800 34.92200
N  11.06500 48.69900 26.57500
C  11.84900 49.09600 27.57900
C  13.14300 49.42300 27.02800
C  13.06500 49.16000 25.63200
C  11.71100 48.72300 25.41300
C  14.34400 50.07600 27.81400
C  14.22500 49.19100 24.63600
O  14.12100 48.97900 23.49900
C  15.61000 49.58800 25.19600
N  8.66200 48.12600 24.61500
C  9.71900 48.33900 23.78800
C  9.26800 48.24100 22.29300
C  7.76100 47.86600 22.32700
C  7.51600 47.96200 23.88500
C  9.61900 49.45900 21.31500
C  7.38800 46.40600 21.85900
C  6.70100 46.26700 20.48400
N  7.03600 47.87500 26.91800
C  6.08000 47.76600 25.92600
C  4.85700 47.47800 26.60200
C  5.08500 47.47700 27.92000
C  6.45100 47.75600 28.12700
C  3.57900 47.15000 25.92600
C  4.49700 47.38300 29.21000
O  3.32600 47.29700 29.58700
C  5.63000 47.40300 30.26000
C  5.73200 46.09700 30.87500
O  6.53800 45.23200 30.49600
O  4.97400 46.07300 32.03700
C  5.29200 44.86200 32.93400
H  12.24200 49.30300 29.65200
H  11.74900 48.81400 23.36100
H  5.48800 47.77800 23.80800
H  8.17800 49.64900 31.57800
H  10.73500 48.23600 31.46700
H  10.93200 51.17900 31.03700
H  11.44600 49.99600 32.29500
H  9.95800 50.83100 32.46300
H  8.41100 46.59600 31.95600
H  7.18900 47.79400 32.60800
H  8.62700 48.66700 34.25000
H  10.01100 47.57800 33.66900
H  15.26500 49.51700 27.65000
H  14.09600 50.29000 28.85400
H  14.42000 51.05000 27.33200
H  16.10900 48.94700 25.92200
H  15.60800 50.66600 25.35900
H  16.21700 49.43500 24.30400
H  9.75200 47.33100 21.93800
H  7.04800 48.52300 21.82900
H  8.74600 49.87400 20.81000
H  10.39700 49.17500 20.60700
H  10.01400 50.30700 21.87300
H  6.65100 46.02700 22.56800
H  8.25700 45.74900 21.84600
H  7.22100 45.70000 19.71200
H  6.41100 47.15900 19.92800
H  5.84900 45.63200 20.72900
H  2.92100 47.98900 26.15000
H  3.14500 46.33500 26.50500
H  3.57800 46.89200 24.86700
H  5.49700 48.11100 31.07900
H  5.61500 45.31900 33.87000
H  6.13600 44.22600 32.66800
H  4.37300 44.33700 33.19200

