158

Mg 17.27800 -2.25200 28.28700
C  16.20300 -0.20800 30.83800
C  19.20000 -3.99100 30.40500
C  18.80000 -3.62800 25.64600
C  15.41800 -0.17100 26.00200
N  17.62400 -2.02700 30.37800
C  17.08500 -1.18200 31.25300
C  17.58100 -1.39400 32.71600
C  18.58300 -2.61000 32.47500
C  18.48700 -2.92700 30.98800
C  20.05300 -2.37100 32.90900
C  16.48800 -1.72600 33.76900
C  16.49200 -0.96800 35.07000
H  17.77300 -0.29000 35.60400
N  18.85300 -3.65800 28.09700
C  19.38000 -4.32500 29.09900
C  20.29300 -5.25200 28.58900
C  20.19500 -5.24400 27.18300
C  19.25000 -4.13100 26.86000
C  21.14800 -6.25600 29.40500
C  20.79100 -6.10100 26.07100
O  20.73000 -5.76300 24.88500
C  21.61800 -7.33300 26.44900
N  17.07000 -2.07300 26.13300
C  17.92900 -2.65100 25.26900
C  17.92600 -2.02400 23.84900
C  16.68000 -1.08900 23.98700
C  16.32500 -1.04200 25.49600
C  19.18500 -1.19000 23.33500
C  15.45600 -1.30900 23.00200
C  15.64400 -0.35700 21.75400
N  16.00100 -0.62200 28.37300
C  15.21400 0.02100 27.36000
C  14.48800 1.13100 28.03000
C  14.79500 1.09200 29.41200
C  15.75800 0.03300 29.52500
C  13.55500 1.99700 27.34600
C  14.52900 1.63500 30.76400
O  13.73700 2.51800 31.13100
C  15.52000 0.85800 31.65400
C  16.52400 1.85200 32.14700
O  17.52500 2.17700 31.53800
O  15.99200 2.51800 33.23700
C  16.83100 3.63200 33.63200
H  19.82700 -4.46400 31.16400
H  19.31900 -3.94800 24.74000
H  14.87000 0.42700 25.27000
H  18.11200 -0.50400 33.05200
H  18.19600 -3.50400 32.96400
H  20.65100 -2.30000 32.00100
H  20.25700 -3.20800 33.57800
H  20.18800 -1.51600 33.57100
H  16.48800 -2.79800 33.96600
H  15.49700 -1.59900 33.33400
H  16.18800 -1.53700 35.94900
H  15.78100 -0.15700 34.91000
H  20.69200 -7.19600 29.09400
H  21.03700 -6.14900 30.48400
H  22.18900 -6.23000 29.08300
H  21.05500 -7.93100 27.16500
H  22.44400 -6.89800 27.01100
H  22.07300 -7.82700 25.59000
H  17.65300 -2.88800 23.24300
H  16.95900 -0.07500 23.69900
H  18.96800 -0.18900 22.96300
H  19.55300 -1.69400 22.44100
H  19.92500 -1.22700 24.13400
H  14.51100 -0.99700 23.44600
H  15.32700 -2.33500 22.65700
H  16.54800 0.24800 21.81500
H  14.83100 0.36500 21.67600
H  15.60800 -1.03000 20.89800
H  12.53300 1.71700 27.60300
H  13.53600 1.86100 26.26500
H  13.79400 3.04700 27.51200
H  14.95300 0.41300 32.47200
H  16.62700 4.52500 33.04100
H  17.90000 3.47300 33.77600
H  16.28700 3.77300 34.56500
Mg -2.32800 34.91100 25.62000
C  -3.69900 33.12200 28.24800
C  -0.85600 37.11900 27.99400
C  -1.77000 37.13400 23.32900
C  -4.35300 33.07500 23.47900
N  -2.25900 35.17000 27.88100
C  -2.79400 34.11800 28.68100
C  -2.47100 34.41000 30.21000
C  -1.50000 35.64500 30.13700
C  -1.54900 36.08000 28.59600
C  -1.71200 36.79100 31.11800
C  -1.80300 33.12000 30.87700
C  -2.34700 32.68100 32.23300
H  -1.52000 32.84800 33.52400
N  -1.32900 36.72800 25.63700
C  -0.71200 37.44300 26.66200
C  0.06200 38.49800 26.13200
C  -0.05300 38.45900 24.72200
C  -1.10700 37.47100 24.49700
C  0.84100 39.45100 27.05900
C  0.61100 39.35500 23.68400
O  0.22600 39.45200 22.51500
C  1.80600 40.20600 24.13700
N  -2.92700 35.05000 23.70700
C  -2.61300 36.09000 22.94000
C  -3.21500 36.07400 21.50100
C  -3.75800 34.60300 21.45800
C  -3.60600 34.17900 22.93500
C  -4.30300 37.12500 21.30200
C  -3.02400 33.75100 20.42600
C  -1.61700 33.26000 20.79500
N  -3.72700 33.38600 25.76500
C  -4.40400 32.67400 24.79300
C  -5.22400 31.63800 25.41900
C  -4.96300 31.74500 26.80900
C  -4.08400 32.85100 26.96900
C  -6.19300 30.71300 24.74400
C  -5.33600 31.21000 28.10400
O  -6.07700 30.29600 28.45800
C  -4.52500 32.14900 29.08000
C  -5.49300 32.82800 29.91400
O  -6.17300 33.82300 29.65500
O  -5.51100 32.03200 31.06500
C  -6.27500 32.56000 32.23700
H  -0.32400 37.66000 28.77900
H  -1.66600 37.89900 22.55600
H  -5.13400 32.62800 22.86100
H  -3.39500 34.79100 30.64600
H  -0.49900 35.27700 30.35900
H  -2.36000 36.43300 31.91800
H  -2.02200 37.66600 30.54700
H  -0.73200 37.12700 31.45700
H  -0.74000 33.29500 31.03900
H  -1.72100 32.24100 30.23800
H  -2.61100 31.62500 32.16300
H  -3.24600 33.23100 32.51200
H  0.67600 40.46900 26.70600
H  1.88400 39.14700 27.15500
H  0.36400 39.38900 28.03700
H  1.44800 41.13700 24.57700
H  2.28900 40.51700 23.21000
H  2.48600 39.66300 24.79300
H  -2.48800 36.36200 20.74200
H  -4.80200 34.53700 21.15200
H  -4.60600 37.61300 22.22800
H  -5.01100 36.66000 20.61600
H  -3.84300 37.87500 20.65900
H  -2.88000 34.41700 19.57500
H  -3.67900 32.92900 20.13700
H  -1.24300 33.53300 21.78100
H  -0.94200 33.81700 20.14400
H  -1.49100 32.18400 20.67200
H  -6.08100 29.74400 25.23100
H  -5.99100 30.56400 23.68400
H  -7.18600 31.09600 24.97800
H  -3.84300 31.42900 29.53300
H  -6.58400 33.57400 31.98300
H  -5.87200 32.46600 33.24500
H  -7.20400 31.98900 32.22500

