158

Mg 17.43000 52.39500 25.30700
C  19.27800 51.01700 28.01300
C  14.83500 52.98400 27.49600
C  15.82700 53.81000 22.84400
C  20.08600 51.45700 23.24900
N  17.08000 51.78400 27.46500
C  18.06000 51.51400 28.40900
C  17.67200 51.92900 29.82700
C  16.10000 51.91800 29.65000
C  15.92400 52.26100 28.09700
C  15.32900 50.68300 30.16200
C  18.38200 53.17900 30.35800
C  18.60200 53.20900 31.89500
H  17.82600 52.36800 32.84200
N  15.59100 53.20900 25.21800
C  14.69100 53.46200 26.19900
C  13.65900 54.36000 25.68500
C  13.82300 54.40800 24.28700
C  15.17400 53.84200 24.06600
C  12.64500 55.03700 26.56600
C  12.84000 54.93400 23.20900
O  13.03900 55.00000 21.99900
C  11.53300 55.56900 23.68200
N  17.88400 52.56600 23.36700
C  17.03600 53.22700 22.47800
C  17.64300 53.40200 21.07600
C  19.00100 52.57600 21.21900
C  19.00700 52.15800 22.66800
C  16.66300 52.99800 19.91300
C  20.24400 53.40000 20.71300
C  20.76700 54.46200 21.66000
N  19.29700 51.38000 25.54200
C  20.22800 51.05600 24.57100
C  21.34800 50.41200 25.23700
C  21.04200 50.38800 26.65800
C  19.77500 50.96300 26.73700
C  22.62900 50.00000 24.60200
C  21.58300 50.08100 27.91900
O  22.61000 49.47400 28.23100
C  20.45400 50.53800 28.84500
C  20.21300 49.35700 29.69100
O  19.76000 48.30700 29.31800
O  20.40100 49.66400 31.03300
C  19.95600 48.66800 31.97600
H  14.15400 53.26600 28.30100
H  15.18100 54.36900 22.16400
H  21.00700 51.26600 22.69400
H  17.87300 51.07400 30.47100
H  15.78800 52.71600 30.32400
H  15.77800 50.25100 31.05600
H  15.14700 49.97100 29.35700
H  14.37900 51.01700 30.57700
H  17.77400 54.07400 30.22700
H  19.25400 53.37500 29.73500
H  18.54700 54.24000 32.24500
H  19.60900 52.79800 31.96700
H  12.83400 56.10900 26.51400
H  12.72700 54.75300 27.61500
H  11.61700 54.81300 26.27800
H  11.60000 56.49500 24.25200
H  11.01200 54.75400 24.18400
H  10.92900 55.87400 22.82800
H  17.85200 54.45500 20.89100
H  18.81500 51.65600 20.66400
H  15.71900 52.79200 20.41600
H  16.98300 52.11100 19.36600
H  16.76300 53.85400 19.24600
H  19.97900 53.95600 19.81400
H  21.00200 52.67500 20.41800
H  20.59900 54.12600 22.68300
H  20.32600 55.45000 21.52500
H  21.84300 54.60200 21.55900
H  22.84200 50.63200 23.74000
H  22.51900 48.99800 24.18800
H  23.39500 50.09100 25.37200
H  20.96900 51.33000 29.39000
H  20.71800 47.89300 31.89000
H  18.94300 48.33400 31.75400
H  19.88900 48.97400 33.02000
Mg -12.42200 37.75400 41.96200
C  -10.00200 35.22400 41.56600
C  -10.46100 39.88400 40.11500
C  -15.05000 39.95300 41.96200
C  -14.56000 35.50500 43.49900
N  -10.50500 37.44800 40.84000
C  -9.70300 36.36500 40.78500
C  -8.51600 36.55800 39.90400
C  -8.54700 38.16800 39.79000
C  -9.93200 38.52800 40.29200
C  -7.49500 39.03500 40.56900
C  -8.49600 35.70600 38.57000
C  -7.39500 34.64200 38.42800
H  -6.42500 34.85700 37.23400
N  -12.68100 39.70100 41.22600
C  -11.71900 40.41200 40.54000
C  -12.19900 41.81500 40.44000
C  -13.59200 41.81800 40.80900
C  -13.85400 40.47500 41.36300
C  -11.41400 42.92300 39.87700
C  -14.57300 42.97400 40.52500
O  -14.19100 43.96100 39.95500
C  -16.04200 42.81200 40.68100
N  -14.65400 37.60200 42.50500
C  -15.40700 38.67600 42.54100
C  -16.81400 38.29000 42.98100
C  -16.68300 36.77200 43.34100
C  -15.23400 36.61800 43.19000
C  -17.44000 38.97900 44.22100
C  -17.51700 35.87500 42.35900
C  -18.56900 35.02300 43.13200
N  -12.37200 35.70500 42.27500
C  -13.13100 35.01400 43.19400
C  -12.50100 33.77800 43.54000
C  -11.24500 33.86100 42.97600
C  -11.22900 35.10100 42.21400
C  -13.10900 32.68400 44.32300
C  -10.02400 33.09200 42.80400
O  -9.55600 32.01600 43.29000
C  -9.11500 33.95900 41.80500
C  -7.83900 34.21700 42.50500
O  -6.92200 33.33700 42.62500
O  -7.79500 35.54500 42.97000
C  -6.54600 35.92600 43.55900
H  -9.80800 40.59500 39.60400
H  -15.87400 40.66500 41.88100
H  -15.09300 34.73500 44.06300
H  -7.63900 36.31700 40.50400
H  -8.41500 38.47300 38.75200
H  -6.70800 38.32900 40.83300
H  -7.94100 39.48500 41.45600
H  -7.16600 39.83600 39.90800
H  -8.55800 36.38200 37.71700
H  -9.42900 35.14600 38.61900
H  -7.91600 33.69100 38.31800
H  -6.78900 34.56300 39.33100
H  -11.29000 43.70800 40.62200
H  -11.89400 43.33600 38.99000
H  -10.38400 42.62900 39.67100
H  -16.32800 42.70400 41.72800
H  -16.28700 41.91400 40.11400
H  -16.56500 43.68000 40.28000
H  -17.48800 38.45600 42.14000
H  -16.87200 36.53500 44.38800
H  -16.70100 39.67400 44.61800
H  -17.63000 38.29900 45.05100
H  -18.26900 39.62000 43.92100
H  -16.84400 35.13500 41.92700
H  -18.05700 36.38400 41.56000
H  -18.32200 35.04900 44.19400
H  -18.48800 33.99000 42.79600
H  -19.56500 35.39200 42.88700
H  -12.50600 31.80100 44.11500
H  -14.15200 32.60000 44.01700
H  -13.10200 32.82600 45.40400
H  -8.97200 33.29800 40.95100
H  -6.41700 35.33600 44.46600
H  -6.65300 36.98300 43.80500
H  -5.59800 35.69700 43.07400

