158

Mg 9.15000 3.63000 27.42800
C  10.70200 2.22500 30.26200
C  7.68400 5.95600 29.26000
C  7.93800 5.02700 24.48000
C  10.43800 1.00400 25.54700
N  9.18400 3.98100 29.53200
C  9.85800 3.32800 30.53300
C  9.62100 3.96300 31.88900
C  8.62900 5.20100 31.53100
C  8.49200 5.08100 30.00600
C  7.27000 4.97100 32.22300
C  10.95400 4.41500 32.52600
C  10.79400 5.08300 34.02000
H  11.51200 4.51800 35.26600
N  7.95400 5.26400 26.93000
C  7.33700 6.04800 27.89800
C  6.54300 7.06400 27.26900
C  6.68000 6.89900 25.82800
C  7.52800 5.70700 25.68800
C  5.54600 7.95400 28.00600
C  5.98600 7.62600 24.72400
O  6.08900 7.24000 23.55200
C  5.07200 8.79900 25.03200
N  9.17100 3.07800 25.32400
C  8.60700 3.82100 24.32400
C  8.84500 3.14900 22.99800
C  9.54200 1.83100 23.33100
C  9.77100 1.97300 24.82700
C  7.49000 2.99400 22.18000
C  10.76100 1.65900 22.51200
C  10.80400 0.45600 21.56100
N  10.28300 1.85000 27.81800
C  10.80600 0.89600 26.86800
C  11.52000 -0.08300 27.59900
C  11.55600 0.41400 28.91800
C  10.76600 1.61500 29.01200
C  12.24500 -1.32400 27.13300
C  12.03200 0.08900 30.22900
O  12.68600 -0.86800 30.63000
C  11.50400 1.28000 31.18800
C  10.66800 0.66900 32.25400
O  9.59400 0.05700 32.09200
O  11.27400 0.73600 33.48400
C  10.69000 -0.10100 34.51800
H  7.33700 6.74300 29.93300
H  7.61300 5.54900 23.57800
H  10.70100 0.17600 24.88500
H  9.23000 3.14900 32.50000
H  9.07100 6.19000 31.65200
H  6.89900 5.92800 32.58900
H  7.39300 4.30500 33.07800
H  6.46700 4.52000 31.63900
H  11.38800 5.14700 31.84600
H  11.66000 3.59400 32.65300
H  9.72700 5.10700 34.24400
H  10.95700 6.16100 34.00300
H  5.81800 9.00900 27.98800
H  5.67200 7.56300 29.01500
H  4.56100 7.76900 27.57900
H  4.05100 8.58000 25.34400
H  4.90400 9.45200 24.17500
H  5.54500 9.38600 25.81900
H  9.49400 3.83100 22.44900
H  8.88300 0.98200 23.14800
H  7.35200 3.78700 21.44400
H  6.69300 3.07800 22.91900
H  7.62700 2.05000 21.65200
H  11.67800 1.62100 23.10100
H  10.82100 2.50300 21.82500
H  10.04700 0.55800 20.78300
H  10.76100 -0.48900 22.10100
H  11.78600 0.46200 21.08700
H  12.34700 -1.84400 28.08600
H  13.21300 -1.07200 26.70100
H  11.62000 -1.90000 26.45000
H  12.32000 1.80900 31.68000
H  10.09200 -0.93700 34.15700
H  10.19400 0.51900 35.26500
H  11.44300 -0.60000 35.12800
Mg 36.15200 1.08900 29.84200
C  33.89500 1.90200 32.32000
C  38.54300 0.66800 32.39400
C  38.41700 0.30500 27.40700
C  33.67500 1.24700 27.46200
N  36.19500 1.43300 32.09300
C  35.12300 1.77600 32.82300
C  35.48300 1.73100 34.29800
C  37.01400 1.65500 34.29800
C  37.33700 1.29900 32.84500
C  37.85700 2.75100 34.85300
C  34.83000 0.51000 35.00300
C  35.07200 0.43700 36.57600
H  35.70000 1.64200 37.33800
N  38.17100 0.64800 29.91100
C  38.96200 0.50300 31.01900
C  40.33400 0.10100 30.54100
C  40.35600 0.05600 29.15400
C  38.92200 0.45500 28.73900
C  41.46800 -0.18700 31.54900
C  41.55600 -0.34600 28.18500
O  41.38500 -0.35900 26.95500
C  42.77600 -1.06700 28.74000
N  36.04900 0.63300 27.76500
C  37.08900 0.31900 26.92200
C  36.64200 0.23300 25.44100
C  35.10100 0.41500 25.51600
C  34.92400 0.78000 27.00600
C  37.40500 1.18400 24.56800
C  34.28900 -0.78500 25.06800
C  34.00100 -1.75300 26.19300
N  34.18000 1.60800 29.83000
C  33.28900 1.62700 28.77800
C  31.99700 2.08200 29.30400
C  32.18600 2.16900 30.65900
C  33.51400 1.85900 30.92400
C  30.78700 2.24900 28.40100
C  31.51100 2.51500 31.88900
O  30.38300 2.99600 32.08900
C  32.61500 2.34000 32.94000
C  32.61100 3.55600 33.75200
O  32.81200 4.65100 33.29900
O  32.44000 3.24400 35.10400
C  32.34400 4.30100 36.13800
H  39.30200 0.38400 33.12600
H  39.06500 -0.07900 26.61600
H  32.93800 1.49500 26.69500
H  35.26900 2.69900 34.75200
H  37.30200 0.73400 34.80500
H  38.62800 2.29500 35.47400
H  37.29900 3.41300 35.51400
H  38.41300 3.30600 34.09600
H  35.26000 -0.41900 34.63000
H  33.75500 0.49200 34.82300
H  35.61000 -0.48600 36.79100
H  34.04000 0.33000 36.90900
H  41.34700 -1.18100 31.97900
H  41.31800 0.50200 32.38000
H  42.51400 0.00200 31.30600
H  42.56200 -1.76900 29.54600
H  43.57700 -0.36300 28.96600
H  43.27600 -1.78700 28.09200
H  36.87500 -0.80800 25.21800
H  34.83200 1.27700 24.90500
H  37.84300 0.53500 23.80900
H  38.30900 1.61400 25.00000
H  36.79700 1.88800 24.00000
H  34.80300 -1.33700 24.28000
H  33.31100 -0.36400 24.83300
H  33.15300 -1.48300 26.82100
H  34.83000 -1.74600 26.90000
H  33.88900 -2.79000 25.87700
H  30.59900 1.25900 27.98400
H  31.05400 2.98200 27.64000
H  29.91200 2.58100 28.95800
H  32.26400 1.52900 33.57800
H  32.32700 5.24600 35.59500
H  33.22800 4.31700 36.77500
H  31.48100 4.20300 36.79700

