158

Mg 1.83400 -1.31600 43.70400
C  5.31600 -0.70900 43.14200
C  1.15800 1.66100 42.11200
C  -1.31600 -2.40300 43.42700
C  2.73400 -4.41100 45.22100
N  3.07400 0.23800 42.53300
C  4.42700 0.32300 42.57400
C  4.89800 1.48000 41.73500
C  3.65000 2.35200 41.59500
C  2.51600 1.36500 42.08700
C  3.66500 3.54600 42.52800
C  5.54600 1.00100 40.45900
C  6.81800 1.75300 39.98000
H  6.67600 2.28800 38.52600
N  0.11700 -0.51000 42.92000
C  0.08100 0.74600 42.39700
C  -1.30000 1.02900 42.18200
C  -2.05400 -0.11900 42.42000
C  -1.10400 -1.09400 42.90900
C  -1.74400 2.37100 41.73200
C  -3.56500 -0.27500 42.32100
O  -4.21000 0.66900 41.80900
C  -4.49400 -1.50200 42.54200
N  0.86100 -3.20700 44.27100
C  -0.46400 -3.35500 44.05600
C  -0.97800 -4.69600 44.46100
C  0.31000 -5.24400 45.19000
C  1.40600 -4.29300 44.81200
C  -2.20800 -4.66200 45.28200
C  0.56200 -6.70300 44.80300
C  0.54800 -7.61700 46.07500
N  3.60000 -2.37900 44.15700
C  3.78700 -3.60500 44.79700
C  5.27400 -3.78300 45.03900
C  5.90900 -2.71200 44.34600
C  4.81900 -1.87900 43.77900
C  5.94500 -4.90800 45.67000
C  7.17700 -2.11000 43.96700
O  8.30000 -2.58100 44.17500
C  6.87000 -0.68000 43.31400
C  7.21500 0.38900 44.16500
O  6.50500 0.91300 45.01600
O  8.49900 0.73000 43.86800
C  8.77200 2.13800 44.16600
H  0.98400 2.60200 41.58500
H  -2.38200 -2.64000 43.43000
H  3.05900 -5.29000 45.78200
H  5.64600 1.94100 42.37900
H  3.54100 2.71100 40.57100
H  3.05900 3.48300 43.43200
H  3.47700 4.42000 41.90400
H  4.64800 3.65200 42.98800
H  4.73900 0.99000 39.72700
H  5.95800 0.00100 40.59000
H  7.61300 1.00700 39.95400
H  7.10600 2.67200 40.49200
H  -2.77800 2.59400 41.46800
H  -1.09500 2.71500 40.92700
H  -1.50700 2.96100 42.61600
H  -5.52700 -1.43300 42.20200
H  -4.63500 -1.82700 43.57400
H  -4.20000 -2.33500 41.90400
H  -1.18400 -5.23000 43.53400
H  0.29600 -4.98500 46.24900
H  -2.28100 -5.42700 46.05500
H  -3.11700 -4.66000 44.67900
H  -2.16400 -3.67000 45.73200
H  1.49500 -6.76600 44.24300
H  -0.21800 -7.08700 44.14500
H  1.55500 -8.03000 46.13800
H  -0.05400 -8.44800 45.70800
H  0.16800 -7.12600 46.97100
H  6.73900 -4.60800 46.35400
H  6.43700 -5.28400 44.77300
H  5.21200 -5.53500 46.17900
H  7.36800 -0.61600 42.34700
H  9.29600 2.57300 43.31500
H  9.55700 2.21800 44.91800
H  7.89100 2.74000 44.38700
Mg 26.32600 51.44000 25.42300
C  23.96300 52.59100 27.77000
C  28.41400 50.79200 27.94500
C  28.41800 50.54400 23.16300
C  24.01400 52.71900 22.90600
N  26.20600 51.74100 27.58100
C  25.17800 52.12000 28.29600
C  25.36600 51.88600 29.78300
C  26.87700 51.54300 29.86000
C  27.24700 51.37200 28.34400
C  27.84900 52.67400 30.47000
C  24.41700 50.75200 30.35000
C  23.57400 51.07700 31.59000
H  23.97600 50.47100 32.94400
N  28.20100 50.78800 25.55900
C  28.91200 50.51000 26.68400
C  30.21700 50.04900 26.28700
C  30.27300 50.02300 24.86600
C  28.90400 50.39200 24.46900
C  31.23700 49.83300 27.44300
C  31.44400 49.71500 23.92100
O  31.38300 49.95500 22.69200
C  32.70700 49.22900 24.51900
N  26.25000 51.80700 23.29800
C  27.27100 51.21100 22.63800
C  26.99800 51.24300 21.12300
C  25.45000 51.75000 21.05500
C  25.21800 52.10300 22.52300
C  28.11200 52.06300 20.19600
C  24.34900 50.82900 20.51700
C  23.27700 51.40600 19.56400
N  24.35700 52.46700 25.31600
C  23.56500 52.84400 24.22800
C  22.33400 53.38400 24.65100
C  22.35000 53.31100 26.04000
C  23.65200 52.76600 26.37200
C  21.26100 53.95200 23.74100
C  21.71800 53.49300 27.35000
O  20.62400 53.86200 27.61200
C  22.71700 53.08100 28.53500
C  23.05000 54.09800 29.52000
O  23.90300 54.96300 29.44700
O  22.31300 53.88700 30.66900
C  22.24500 54.89000 31.74200
H  29.04300 50.44800 28.76900
H  28.96500 49.99400 22.39400
H  23.24600 52.84900 22.14200
H  25.29200 52.80200 30.36900
H  26.99100 50.58000 30.35800
H  27.28400 53.57500 30.70900
H  28.58100 53.01400 29.73700
H  28.17600 52.44000 31.48300
H  25.05900 49.87500 30.42000
H  23.76400 50.41200 29.54600
H  22.58700 50.66300 31.38200
H  23.36600 52.14500 31.65100
H  30.79900 49.26600 28.26400
H  31.31600 50.84500 27.84000
H  32.24300 49.45100 27.26700
H  33.01100 50.16100 24.99500
H  33.33700 48.97300 23.66700
H  32.56600 48.31100 25.08900
H  26.97800 50.21800 20.75200
H  25.42100 52.66900 20.47100
H  28.94100 52.21800 20.88500
H  27.74500 53.03700 19.87200
H  28.59100 51.51000 19.38800
H  23.74500 50.38000 21.30600
H  24.77700 49.95800 20.02100
H  23.23500 50.88700 18.60600
H  23.48800 52.46800 19.44400
H  22.30100 51.33800 20.04500
H  20.57600 54.58600 24.30400
H  20.81600 53.18200 23.11000
H  21.75300 54.72800 23.15600
H  22.17900 52.29200 29.06100
H  23.10000 55.56200 31.66000
H  22.23700 54.45100 32.73900
H  21.40500 55.58500 31.70200

