158

Mg 44.58200 5.33900 47.23000
C  42.63600 8.22800 47.01300
C  41.82300 3.52700 46.36000
C  46.62900 2.71700 46.70800
C  47.40500 7.40200 47.57600
N  42.46200 5.82900 46.66900
C  41.89800 7.11800 46.66700
C  40.40600 7.10600 46.20800
C  40.11400 5.55000 46.35100
C  41.50400 4.85800 46.49900
C  39.21600 5.25300 47.63500
C  40.01700 7.89700 44.94900
C  41.11900 7.74700 43.82200
H  40.74400 8.11500 42.38300
N  44.29200 3.37500 46.70100
C  43.03300 2.76400 46.44800
C  43.23400 1.36600 46.04000
C  44.64200 1.15800 45.97800
C  45.26000 2.40300 46.46900
C  42.20200 0.34900 45.58700
C  45.30400 -0.13900 45.30700
O  44.55900 -1.00500 44.87900
C  46.83000 -0.25200 45.29000
N  46.73400 5.15900 47.07700
C  47.29500 3.92600 46.92200
C  48.83600 4.03500 46.89000
C  49.03200 5.55200 47.20600
C  47.64300 6.06400 47.31400
C  49.58200 3.21600 47.98900
C  49.89400 6.32800 46.14600
C  51.02100 7.19900 46.69400
N  45.02600 7.37300 47.31500
C  46.19800 8.08400 47.51100
C  45.91200 9.50100 47.52600
C  44.52200 9.60800 47.36400
C  44.04200 8.27200 47.23400
C  46.86900 10.66200 47.37800
C  43.39000 10.53700 47.14800
O  43.41700 11.77500 47.00000
C  42.09800 9.63100 47.21000
C  41.46700 9.82800 48.46000
O  41.66900 9.18200 49.45400
O  40.49600 10.83200 48.34900
C  39.53700 10.77200 49.45500
H  40.87600 3.04200 46.11400
H  47.21800 1.80300 46.60500
H  48.26800 8.07100 47.58700
H  39.77900 7.62300 46.93400
H  39.68500 5.16300 45.42600
H  39.05900 6.14100 48.24800
H  39.68600 4.49000 48.25600
H  38.31800 4.85900 47.16000
H  40.04400 8.94600 45.24400
H  39.07600 7.44900 44.62800
H  41.38700 6.69500 43.72500
H  41.96200 8.33300 44.18800
H  42.08500 -0.53500 46.21400
H  42.41400 0.08100 44.55200
H  41.25700 0.88600 45.66500
H  46.97600 -1.23900 44.85100
H  47.25200 -0.30900 46.29300
H  47.19900 0.60900 44.73400
H  49.15000 3.63800 45.92500
H  49.46300 5.68600 48.19800
H  49.19900 3.35000 49.00100
H  50.61600 3.51900 47.82700
H  49.49400 2.13400 47.88700
H  49.26300 7.07900 45.67000
H  50.30900 5.65600 45.39500
H  51.91400 7.04700 46.08700
H  51.17700 6.91800 47.73500
H  50.87500 8.27500 46.60400
H  47.51200 10.55700 46.50500
H  47.47000 10.62800 48.28700
H  46.43700 11.66300 47.39500
H  41.48400 10.00800 46.39200
H  38.98300 9.83400 49.49000
H  38.66900 11.40300 49.26300
H  39.92500 10.89200 50.46700
Mg 27.58800 56.39200 40.30500
C  25.41000 53.84900 39.79200
C  30.18900 54.26600 39.56200
C  29.71400 59.09600 40.31400
C  24.94300 58.48700 40.92500
N  27.69400 54.36000 39.57700
C  26.71500 53.44100 39.48000
C  27.15800 52.12400 38.96400
C  28.72500 52.20800 39.16400
C  28.89200 53.72500 39.48100
C  29.16500 51.31000 40.34000
C  26.70300 51.80300 37.46800
C  27.30400 52.60900 36.36100
H  26.40200 53.64100 35.57800
N  29.65700 56.60100 39.84400
C  30.56000 55.61300 39.74300
C  31.88800 56.24300 39.68600
C  31.73300 57.61600 39.83900
C  30.29800 57.85800 40.00900
C  33.14600 55.45200 39.41900
C  32.92200 58.57800 39.78300
O  34.00800 58.24300 39.33500
C  32.66200 59.95400 40.18200
N  27.33200 58.54800 40.35900
C  28.35500 59.46100 40.49400
C  27.73700 60.82300 41.03700
C  26.20800 60.63700 40.87700
C  26.14400 59.11900 40.74500
C  28.19600 61.07400 42.46900
C  25.46300 61.36500 39.77700
C  24.75000 62.60800 40.25000
N  25.58500 56.22400 40.43200
C  24.62900 57.11200 40.79700
C  23.35000 56.47900 40.96400
C  23.56500 55.19100 40.47300
C  24.93400 55.12400 40.13500
C  22.04700 57.03100 41.49100
C  22.94700 53.94100 40.14100
O  21.77900 53.62600 40.19000
C  24.12300 52.99300 39.67400
C  24.14500 51.62900 40.35600
O  23.65400 50.59900 39.88000
O  24.74700 51.69800 41.59400
C  24.70200 50.39500 42.32800
H  30.96500 53.52300 39.36400
H  30.25800 60.03900 40.40300
H  24.11500 59.11100 41.26900
H  26.59600 51.45200 39.61200
H  29.26600 51.88400 38.27500
H  29.48000 50.32500 39.99700
H  28.33000 51.35600 41.04000
H  30.08100 51.73400 40.75200
H  25.61400 51.75600 37.42800
H  26.92100 50.77800 37.17000
H  27.82200 52.05300 35.58100
H  28.14700 53.18200 36.74800
H  33.03900 54.36800 39.46800
H  33.98800 55.54000 40.10500
H  33.58400 55.62000 38.43500
H  32.32700 60.10800 41.20800
H  32.10300 60.33900 39.33000
H  33.56400 60.55100 40.04200
H  28.02400 61.65900 40.39900
H  25.80500 60.72400 41.88600
H  27.59400 61.76000 43.06600
H  29.25200 61.33700 42.40800
H  28.13300 60.09400 42.94200
H  24.80800 60.73300 39.17800
H  26.17600 61.76700 39.05800
H  24.90600 62.80200 41.31100
H  23.68000 62.55800 40.04900
H  25.13100 63.51200 39.77400
H  21.33500 57.27800 40.70400
H  22.18500 57.86000 42.18600
H  21.57200 56.22800 42.05400
H  24.07200 52.64300 38.64300
H  23.77100 50.24800 42.87600
H  25.53800 50.46100 43.02400
H  24.96900 49.56000 41.68100

