158

Mg -2.62800 33.78200 25.80300
C  -4.31200 32.46800 28.58700
C  -1.02600 36.08000 27.80800
C  -1.11200 34.94700 23.04000
C  -4.56300 31.54600 23.72800
N  -2.84900 34.39200 27.91700
C  -3.48500 33.55800 28.91300
C  -2.96700 33.86000 30.32000
C  -2.15500 35.28500 30.08400
C  -2.01200 35.30900 28.49800
C  -3.01100 36.52100 30.50200
C  -2.12600 32.79900 31.15600
C  -1.71200 33.24500 32.59000
H  -2.04300 32.36000 33.82300
N  -1.33900 35.33600 25.46900
C  -0.68800 36.11200 26.44500
C  0.34400 36.80700 25.85400
C  0.42300 36.48200 24.49500
C  -0.64800 35.50900 24.30200
C  1.13100 37.88700 26.47400
C  1.39000 36.97600 23.41500
O  1.21000 36.70900 22.21800
C  2.62900 37.76800 23.73900
N  -2.95500 33.37700 23.67800
C  -2.16000 34.00100 22.77900
C  -2.41400 33.55400 21.33900
C  -3.43700 32.42700 21.57700
C  -3.58100 32.31100 23.05300
C  -2.96100 34.74600 20.54500
C  -3.19200 31.02300 20.84700
C  -2.40700 29.88400 21.57900
N  -4.03100 32.18300 26.05000
C  -4.76900 31.41000 25.11900
C  -5.66700 30.49600 25.91800
C  -5.45700 30.85900 27.24800
C  -4.48100 31.88900 27.30300
C  -6.70000 29.53500 25.37800
C  -5.88100 30.52300 28.56900
O  -6.66200 29.67300 29.00600
C  -5.05600 31.58200 29.53000
C  -6.02800 32.16000 30.44900
O  -6.84300 33.08000 30.31000
O  -6.00700 31.37600 31.60200
C  -6.95200 31.69400 32.62700
H  -0.33500 36.55900 28.50400
H  -0.56600 35.21000 22.13100
H  -5.18000 30.93800 23.06300
H  -3.74900 34.09700 31.04100
H  -1.20500 35.35700 30.61400
H  -2.41500 37.00100 31.27800
H  -4.02400 36.20000 30.74400
H  -3.24100 37.37600 29.86700
H  -1.25600 32.47000 30.58900
H  -2.76900 31.93200 31.30600
H  -2.08600 34.23300 32.86000
H  -0.62500 33.30200 32.52600
H  0.78900 38.06800 27.49300
H  1.01000 38.83300 25.94800
H  2.17100 37.57600 26.57300
H  2.47300 38.79700 24.06400
H  3.24800 37.83900 22.84500
H  3.28100 37.18300 24.38800
H  -1.52200 33.17900 20.83800
H  -4.46300 32.64400 21.28200
H  -3.49900 35.44500 21.18500
H  -3.72600 34.39800 19.85100
H  -2.12600 35.17200 19.98800
H  -2.81300 31.18700 19.83800
H  -4.15500 30.59200 20.57300
H  -1.75000 30.16800 22.40100
H  -1.63200 29.55700 20.88600
H  -3.03600 29.06600 21.93100
H  -7.64100 30.02600 25.62700
H  -6.54900 28.54200 25.80300
H  -6.71400 29.47700 24.29000
H  -4.38600 30.89300 30.04400
H  -6.92800 32.77000 32.80200
H  -6.69100 31.31400 33.61500
H  -7.93900 31.29800 32.38900
Mg -5.88500 24.31200 25.76400
C  -4.78500 25.95700 28.60300
C  -7.48900 22.06800 27.70100
C  -6.41400 22.45300 22.96200
C  -3.62400 26.37400 23.80600
N  -6.19800 24.15200 27.87000
C  -5.67300 24.96000 28.84000
C  -6.01300 24.43200 30.27400
C  -6.85000 23.09600 29.95200
C  -6.83300 23.07200 28.39700
C  -6.10700 21.83100 30.59400
C  -6.85600 25.41800 31.14000
C  -6.84700 25.26000 32.71300
H  -6.19400 23.94900 33.33700
N  -6.97500 22.55100 25.34900
C  -7.57100 21.80500 26.31800
C  -8.33300 20.68300 25.73300
C  -7.98400 20.74800 24.37100
C  -7.04600 21.92400 24.11800
C  -9.31800 19.87600 26.48700
C  -8.41400 19.89100 23.24000
O  -8.10700 20.05600 22.02700
C  -9.40900 18.72200 23.55300
N  -4.86600 24.15100 23.74900
C  -5.40500 23.35000 22.81300
C  -4.69500 23.62200 21.48600
C  -3.88300 24.93300 21.71500
C  -4.14900 25.25300 23.17300
C  -3.85500 22.46400 20.99400
C  -4.17100 26.09400 20.77600
C  -3.13500 26.50400 19.75800
N  -4.56600 25.83500 26.11800
C  -3.77700 26.64200 25.20700
C  -3.16600 27.72000 25.92900
C  -3.49600 27.50300 27.31700
C  -4.34700 26.38000 27.34300
C  -2.29700 28.67300 25.25200
C  -3.23600 27.88900 28.67200
O  -2.54500 28.75900 29.20000
C  -4.06900 26.91600 29.58300
C  -3.18200 26.19100 30.53100
O  -2.24100 25.43600 30.26200
O  -3.45700 26.53000 31.84400
C  -2.58300 25.98600 32.94500
H  -7.94500 21.31300 28.34500
H  -6.57000 21.89700 22.03600
H  -3.05000 27.10400 23.23100
H  -5.10800 24.22400 30.84500
H  -7.89800 23.15500 30.24700
H  -5.19700 22.16400 31.09200
H  -5.84400 21.11800 29.81300
H  -6.70400 21.19500 31.24800
H  -7.89300 25.39900 30.80500
H  -6.54000 26.41700 30.84000
H  -7.84400 25.31100 33.15000
H  -6.14000 25.99900 33.09000
H  -8.98500 18.84400 26.37600
H  -10.34900 19.89800 26.13400
H  -9.22700 20.16900 27.53300
H  -9.54100 18.05800 22.69900
H  -10.41600 19.04300 23.81800
H  -9.03800 18.05800 24.33400
H  -5.44400 23.74200 20.70400
H  -2.82700 24.66500 21.76100
H  -2.79900 22.72300 20.92400
H  -4.18200 22.19200 19.99000
H  -3.95700 21.70100 21.76700
H  -4.67600 26.91000 21.29300
H  -4.86600 25.56800 20.12200
H  -2.13500 26.07500 19.81700
H  -2.89200 27.56500 19.81100
H  -3.52100 26.25600 18.76900
H  -2.86900 29.45800 24.75600
H  -1.49700 28.29000 24.61900
H  -1.76400 29.23700 26.01700
H  -4.70500 27.56300 30.18800
H  -1.69900 25.46200 32.58100
H  -3.07800 25.46600 33.76500
H  -2.13800 26.90200 33.33500

