158

Mg 24.62100 -5.52800 45.36000
C  27.17900 -3.42900 44.07000
C  22.47900 -4.05100 43.26100
C  22.66000 -8.18300 45.71100
C  27.17300 -7.12600 47.24500
N  24.88400 -3.96700 43.81100
C  25.94300 -3.15700 43.49900
C  25.55700 -2.05100 42.53600
C  23.98300 -2.10100 42.54900
C  23.74700 -3.43700 43.29300
C  23.28700 -0.88800 43.34100
C  26.19300 -2.42300 41.19000
C  26.84500 -1.25600 40.38300
H  26.25900 -1.05000 38.98400
N  22.79100 -6.00700 44.60000
C  22.00100 -5.22300 43.79000
C  20.69200 -5.86200 43.60100
C  20.68300 -7.09100 44.37100
C  22.07000 -7.18200 44.95700
C  19.58600 -5.37700 42.71200
C  19.46600 -8.03500 44.53200
O  18.32400 -7.71000 44.09600
C  19.61200 -9.32500 45.20800
N  24.88600 -7.32200 46.33900
C  23.85800 -8.23600 46.35700
C  24.18100 -9.49000 47.21000
C  25.62600 -9.20100 47.61800
C  25.93700 -7.79200 47.05100
C  23.24100 -9.77400 48.42300
C  26.64000 -10.22600 47.00600
C  26.82300 -11.51100 47.85300
N  26.71000 -5.25800 45.72500
C  27.57700 -6.01300 46.50000
C  28.85000 -5.41700 46.56400
C  28.81600 -4.35000 45.59300
C  27.46500 -4.30700 45.12400
C  29.99900 -5.82800 47.32800
C  29.59200 -3.31900 45.03500
O  30.75600 -2.98900 45.12800
C  28.61600 -2.68900 43.98500
C  28.52400 -1.25900 44.23900
O  28.08500 -0.70700 45.28700
O  28.85400 -0.45900 43.17000
C  28.79000 1.00800 43.30600
H  21.73300 -3.58400 42.61500
H  22.02200 -9.05300 45.87900
H  27.86500 -7.63900 47.91600
H  25.84600 -1.06500 42.90000
H  23.61700 -2.25400 41.53400
H  22.65800 -0.41700 42.58500
H  23.87800 -0.02500 43.65000
H  22.60800 -1.23400 44.12100
H  25.46600 -3.05200 40.67700
H  26.96100 -3.17900 41.35200
H  27.90400 -1.49200 40.27400
H  26.67200 -0.35100 40.96500
H  19.25800 -6.31600 42.26700
H  20.14500 -4.90700 41.90300
H  18.85900 -4.70700 43.17000
H  18.62500 -9.77100 45.33000
H  19.97600 -8.95500 46.16700
H  20.24600 -9.91800 44.54900
H  24.04200 -10.40500 46.63500
H  25.82500 -8.96300 48.66300
H  22.71700 -10.70400 48.20300
H  22.59100 -8.92300 48.62700
H  23.94500 -9.95900 49.23400
H  27.64700 -9.80800 46.98600
H  26.34800 -10.29700 45.95800
H  27.88800 -11.45000 48.07600
H  26.49300 -12.42300 47.35600
H  26.36100 -11.40900 48.83600
H  29.77400 -5.28500 48.24600
H  30.92100 -5.39200 46.94600
H  30.06300 -6.90600 47.47700
H  29.00100 -2.67800 42.96500
H  29.70600 1.27900 43.83100
H  27.96200 1.40400 43.89400
H  28.76700 1.40400 42.29100
Mg 41.51200 8.70400 29.67800
C  43.42600 10.04200 32.05300
C  39.33600 7.47100 31.97700
C  39.54400 7.64200 27.08400
C  43.99700 9.56400 27.30300
N  41.43700 8.80100 31.79500
C  42.31800 9.43800 32.63500
C  41.82200 9.36500 34.07600
C  40.74000 8.21500 33.97400
C  40.46500 8.15300 32.45800
C  41.10800 6.80600 34.59200
C  41.36100 10.73700 34.62700
C  40.75300 10.93700 36.06400
H  41.42200 11.82700 37.11800
N  39.63300 7.80600 29.58100
C  38.87300 7.35800 30.63600
C  37.60100 6.84600 30.15300
C  37.59900 7.03400 28.73200
C  38.97500 7.50700 28.42900
C  36.72600 6.03800 31.00700
C  36.47300 6.74600 27.72800
O  36.48200 6.79900 26.49100
C  35.17800 6.24500 28.29300
N  41.70900 8.68700 27.46300
C  40.81500 8.11700 26.64900
C  41.34900 8.05000 25.16700
C  42.60100 9.00500 25.22500
C  42.82100 9.12700 26.76600
C  41.44700 6.61200 24.68200
C  42.48500 10.43600 24.55500
C  43.68700 10.89300 23.67100
N  43.36600 9.57200 29.67000
C  44.24900 9.84200 28.62200
C  45.40300 10.52200 29.16700
C  45.10000 10.66400 30.51600
C  43.87200 10.05400 30.70900
C  46.57500 11.13400 28.47000
C  45.57700 11.19100 31.82100
O  46.57300 11.79600 32.19800
C  44.42000 10.89200 32.80300
C  45.08100 10.14800 33.96400
O  45.71900 9.11500 33.87300
O  44.97500 10.89400 35.08100
C  45.51100 10.26400 36.29700
H  38.78800 7.01200 32.80200
H  38.82700 7.30300 26.33300
H  44.71300 9.71300 26.49200
H  42.66200 8.96200 34.64200
H  39.85500 8.64200 34.44500
H  42.11800 6.84100 35.00000
H  40.93900 6.00700 33.87000
H  40.49100 6.67200 35.48100
H  40.79700 11.22800 33.83500
H  42.34500 11.20300 34.57100
H  40.63700 9.98500 36.58300
H  39.79500 11.43500 35.91400
H  37.00400 6.03000 32.06100
H  36.66400 5.02800 30.60400
H  35.78800 6.59100 30.95900
H  34.37200 6.29500 27.56100
H  34.90500 6.93900 29.08800
H  35.26300 5.21000 28.62100
H  40.57400 8.53000 24.56900
H  43.50800 8.46700 24.94900
H  41.04800 5.94200 25.44400
H  42.51200 6.40900 24.56500
H  40.84300 6.50600 23.78100
H  42.39900 11.21400 25.31400
H  41.56700 10.54600 23.97800
H  43.39800 11.35000 22.72400
H  44.32200 10.00800 23.65300
H  44.21900 11.69400 24.18500
H  47.00900 10.58300 27.63500
H  47.33400 11.41800 29.19900
H  46.22200 12.08800 28.07700
H  44.00700 11.84500 33.13400
H  44.64400 9.96200 36.88400
H  45.91700 11.12600 36.82600
H  46.34600 9.56600 36.25100

