158

Mg 8.61000 3.04800 27.80200
C  9.97600 1.69800 30.75500
C  6.88900 5.19600 29.85000
C  6.95700 4.12300 25.17200
C  10.09900 0.54200 25.96600
N  8.47000 3.36900 30.13100
C  9.10100 2.69300 31.07200
C  8.80900 3.33600 32.46600
C  7.65400 4.35400 32.20000
C  7.69000 4.34200 30.65000
C  6.28500 3.82300 32.63300
C  10.08100 4.10900 32.94600
C  10.50200 3.81700 34.34700
H  10.74900 4.97100 35.41800
N  7.23800 4.51600 27.55300
C  6.66700 5.32700 28.47700
C  5.75300 6.31100 27.94900
C  5.79900 6.03000 26.51300
C  6.70300 4.86800 26.37800
C  5.15600 7.46000 28.78300
C  5.22100 6.73400 25.38600
O  5.35100 6.46800 24.22400
C  4.58900 8.07100 25.64500
N  8.42500 2.33400 25.88400
C  7.67100 2.92100 24.92100
C  8.00000 2.36300 23.51800
C  9.02800 1.26900 23.83400
C  9.20800 1.37300 25.31500
C  6.74600 1.92900 22.78000
C  10.24300 1.36100 22.89200
C  10.47000 0.01000 22.17200
N  9.72400 1.41300 28.20900
C  10.33000 0.55800 27.37300
C  11.25100 -0.28600 28.07500
C  11.05800 0.09800 29.41800
C  10.17300 1.17300 29.45100
C  12.10200 -1.28100 27.41800
C  11.62900 -0.11200 30.76300
O  12.52800 -0.86400 31.09300
C  10.94600 0.96200 31.71200
C  10.17300 0.27500 32.80200
O  9.29000 -0.56600 32.67300
O  10.68000 0.71900 33.92900
C  9.95100 0.23700 35.11600
H  6.19400 5.78500 30.45200
H  6.40600 4.30100 24.24700
H  10.64800 -0.14600 25.32000
H  8.52400 2.57800 33.19500
H  7.83500 5.39100 32.48600
H  5.57600 4.62200 32.84900
H  6.45400 3.11900 33.44800
H  5.83300 3.28400 31.80000
H  9.89900 5.18400 32.93200
H  10.85200 3.94500 32.19300
H  11.48800 3.35300 34.32800
H  9.86600 3.07500 34.83000
H  5.22600 8.45600 28.34600
H  5.64700 7.56800 29.75100
H  4.10400 7.26300 28.99000
H  5.27700 8.76700 26.12500
H  3.75900 7.95400 26.34200
H  4.19700 8.49000 24.71900
H  8.39300 3.23000 22.98900
H  8.51600 0.32200 23.67100
H  5.91200 1.90200 23.48100
H  6.92600 0.96900 22.29500
H  6.50400 2.70000 22.04900
H  11.10600 1.68400 23.47400
H  9.99300 2.12400 22.15500
H  10.30500 0.06900 21.09600
H  9.79200 -0.75600 22.54900
H  11.50500 -0.29400 22.32800
H  11.56300 -2.22900 27.39800
H  13.02000 -1.39200 27.99500
H  12.24100 -0.98600 26.37800
H  11.65900 1.58300 32.25400
H  10.32500 0.72900 36.01400
H  10.10900 -0.84000 35.16800
H  8.86300 0.24600 35.04800
Mg 47.15200 16.28600 28.58000
C  45.12600 15.78600 31.30500
C  49.32600 17.99100 30.57700
C  49.21700 16.63800 25.87300
C  44.70200 15.03500 26.42400
N  47.12500 16.81200 30.69600
C  46.30700 16.45500 31.71800
C  46.77200 16.89300 33.08700
C  47.98700 17.77100 32.70400
C  48.09300 17.60200 31.14200
C  47.86700 19.28100 33.13700
C  47.23600 15.63600 33.93900
C  47.07100 15.81100 35.48700
H  46.72100 17.16900 36.04500
N  48.97000 17.19800 28.22900
C  49.73500 17.85700 29.18000
C  50.99500 18.25400 28.64800
C  51.05800 17.78100 27.32800
C  49.74100 17.13700 27.08800
C  52.05600 19.05800 29.50300
C  52.12300 17.84300 26.38300
O  52.00300 17.50500 25.22800
C  53.45800 18.49200 26.70600
N  46.99200 15.94000 26.33000
C  47.98900 16.11500 25.47200
C  47.48700 15.98900 23.99200
C  46.12400 15.35800 24.17800
C  45.92200 15.42700 25.72000
C  47.44700 17.30200 23.20600
C  45.96100 13.94400 23.49500
C  46.06400 12.72800 24.38100
N  45.35000 15.49800 28.76500
C  44.40900 15.04500 27.81900
C  43.20300 14.60000 28.56800
C  43.49800 14.81400 29.90900
C  44.77600 15.40000 30.01900
C  41.91800 14.10000 28.02600
C  42.99700 14.72100 31.26700
O  41.89500 14.30100 31.70200
C  43.99600 15.45100 32.22000
C  43.32900 16.60400 32.88300
O  42.97800 17.63600 32.36900
O  43.02100 16.24500 34.18600
C  42.59800 17.39300 35.08400
H  50.01900 18.46100 31.27800
H  49.77000 16.94500 24.98300
H  43.92600 14.62700 25.77300
H  45.98600 17.46900 33.57600
H  48.89600 17.51400 33.24800
H  46.93900 19.42300 33.69100
H  47.89000 19.85900 32.21300
H  48.72300 19.51500 33.77100
H  48.25900 15.40200 33.64700
H  46.54900 14.81400 33.73600
H  47.96000 15.46600 36.01500
H  46.26600 15.11500 35.72300
H  52.99200 18.51000 29.39300
H  51.92500 19.11400 30.58400
H  52.02200 20.09600 29.17200
H  53.45300 19.51000 27.09500
H  53.94400 18.69900 25.75300
H  54.06400 17.89800 27.39000
H  48.04400 15.27200 23.38900
H  45.42800 16.00000 23.63700
H  47.69300 18.08300 23.92600
H  46.46000 17.64900 22.90000
H  48.02400 17.37100 22.28300
H  46.72900 13.87700 22.72500
H  45.00700 13.92100 22.96900
H  46.94800 12.18000 24.05600
H  45.24500 12.01800 24.26400
H  46.14600 13.04600 25.42000
H  42.02700 13.86300 26.96800
H  41.03300 14.72100 28.16000
H  41.74200 13.11800 28.46700
H  44.26500 14.77800 33.03400
H  41.54600 17.37500 35.36900
H  43.07300 18.35200 34.87700
H  43.07200 17.16800 36.03900

