158

Mg -2.20800 17.48400 26.57900
C  -2.65300 14.78100 28.83800
C  -3.16200 19.62200 28.97000
C  -2.62500 19.85100 24.04900
C  -2.06400 15.08900 23.91200
N  -2.93300 17.16200 28.74100
C  -2.91900 16.02300 29.47900
C  -3.19000 16.33100 30.97800
C  -3.48200 17.90000 30.87100
C  -3.14400 18.29200 29.42900
C  -4.85200 18.24400 31.44400
C  -2.04200 15.93000 31.89700
C  -1.86400 16.72900 33.20400
H  -1.48000 15.89600 34.48700
N  -2.64000 19.48000 26.56700
C  -2.97100 20.20000 27.70000
C  -3.35700 21.47800 27.31300
C  -3.24900 21.65200 25.87300
C  -2.81500 20.28400 25.40600
C  -3.90200 22.56300 28.23700
C  -3.42700 22.77500 24.84100
O  -3.35200 22.75500 23.62300
C  -3.92300 24.01500 25.46800
N  -2.28700 17.46900 24.31000
C  -2.39600 18.57600 23.57800
C  -2.16800 18.30400 22.08700
C  -1.70100 16.79700 22.07500
C  -2.03400 16.40800 23.47900
C  -3.48000 18.54100 21.20500
C  -0.22100 16.62000 21.70100
C  0.05000 16.00400 20.37000
N  -2.34600 15.43800 26.39300
C  -2.18300 14.62200 25.26600
C  -2.23700 13.19300 25.65800
C  -2.35000 13.20100 27.09300
C  -2.45500 14.60200 27.44600
C  -2.33000 12.02100 24.72400
C  -2.55900 12.29000 28.23500
O  -2.63300 11.06800 28.34200
C  -2.80900 13.35500 29.40100
C  -2.05000 12.80700 30.50400
O  -0.77700 12.80900 30.65100
O  -2.84200 12.10400 31.38200
C  -2.22800 11.54400 32.62600
H  -3.22200 20.35000 29.78200
H  -2.89700 20.50400 23.21600
H  -2.00300 14.29600 23.16300
H  -4.07600 15.79300 31.31500
H  -2.75100 18.43600 31.47700
H  -5.54600 17.40700 31.36900
H  -5.31100 19.07800 30.91200
H  -4.90400 18.57600 32.48100
H  -1.13100 16.09500 31.32100
H  -2.08900 14.87400 32.16300
H  -2.78900 17.24200 33.46500
H  -0.96000 17.33900 33.19800
H  -3.37600 23.50700 28.09800
H  -3.79700 22.24200 29.27300
H  -4.96500 22.76800 28.11200
H  -4.74200 23.66400 26.09600
H  -4.40100 24.66700 24.73700
H  -3.22000 24.60000 26.06200
H  -1.39300 18.98900 21.74200
H  -2.38300 16.27000 21.40700
H  -3.24400 19.20200 20.37100
H  -4.14100 19.26300 21.68500
H  -3.90600 17.62000 20.80700
H  0.21100 15.95800 22.45200
H  0.35000 17.54800 21.73700
H  0.90600 16.45700 19.86800
H  -0.81800 15.93100 19.71500
H  0.41700 14.98000 20.43200
H  -3.26800 11.96900 24.17100
H  -2.35500 11.09900 25.30300
H  -1.54300 11.96400 23.97200
H  -3.86400 13.32700 29.67600
H  -1.64200 12.29400 33.15800
H  -1.49200 10.78300 32.36900
H  -2.95800 11.07600 33.28700
Mg 54.65200 23.84000 44.73300
C  52.18200 26.09900 43.51300
C  53.13100 21.31300 43.01400
C  57.58900 21.98400 44.94700
C  56.48500 26.55500 45.92700
N  52.85700 23.78800 43.46600
C  51.95700 24.79500 43.10800
C  50.91900 24.22100 42.18900
C  51.04900 22.64900 42.26700
C  52.37400 22.54100 43.04100
C  49.92200 22.12200 43.13300
C  51.29400 24.74500 40.68800
C  50.12800 25.16200 39.77500
H  50.63200 25.55700 38.34000
N  55.20300 21.86900 44.23500
C  54.44000 20.95500 43.50400
C  55.08700 19.68800 43.57300
C  56.37000 19.91300 44.13100
C  56.38100 21.32400 44.51800
C  54.52000 18.52600 42.88900
C  57.42300 18.87000 44.32200
O  57.27800 17.70800 43.96300
C  58.64200 19.10700 45.18500
N  56.82200 24.27700 45.29800
C  57.78600 23.33900 45.25400
C  59.07800 23.90900 45.81800
C  58.74500 25.38000 45.96200
C  57.25000 25.43400 45.75600
C  59.39100 23.27300 47.17700
C  59.64400 26.31400 44.93200
C  59.94200 27.60400 45.67600
N  54.43900 25.88700 44.79300
C  55.19700 26.85700 45.45600
C  54.36700 28.03700 45.67700
C  53.27800 27.80400 44.79900
C  53.29300 26.49800 44.35000
C  54.61000 29.25900 46.39400
C  52.08600 28.45900 44.25100
O  51.61300 29.57300 44.27800
C  51.35700 27.34200 43.45800
C  51.16700 27.94200 42.06800
O  52.02400 28.47600 41.39900
O  49.87700 27.74500 41.72800
C  49.41300 28.48100 40.58500
H  52.54600 20.55500 42.49000
H  58.52600 21.43300 45.05400
H  56.94200 27.42500 46.40300
H  49.90200 24.51500 42.44600
H  51.16700 22.13700 41.31200
H  48.96100 22.58600 42.91000
H  50.24200 22.38000 44.14300
H  49.80600 21.04700 42.99500
H  51.81400 23.94500 40.16000
H  52.05100 25.52000 40.80200
H  49.61600 26.00500 40.24000
H  49.44600 24.31200 39.74300
H  55.01400 18.41400 41.92400
H  53.45700 18.72400 42.75200
H  54.74300 17.65800 43.51000
H  58.32600 19.65500 46.07300
H  59.43400 19.54900 44.58000
H  59.05000 18.11300 45.36600
H  59.96000 23.87400 45.17800
H  58.86300 25.61800 47.01900
H  60.40500 23.60200 47.40600
H  59.36100 22.18400 47.17600
H  58.70600 23.68300 47.91900
H  59.08000 26.63300 44.05500
H  60.53600 25.83900 44.52300
H  59.26600 28.42600 45.43800
H  60.95200 27.96500 45.47900
H  59.89600 27.50000 46.76000
H  53.86800 29.37600 47.18500
H  54.55800 30.17300 45.80200
H  55.60800 29.14900 46.82000
H  50.35800 27.09100 43.81400
H  49.30700 29.54700 40.78400
H  48.41100 28.11700 40.35700
H  50.01900 28.24900 39.70900

