158

Mg 44.69300 5.92400 47.74200
C  42.49000 8.66500 47.25000
C  41.94300 3.81800 46.92100
C  46.72100 3.38800 47.53700
C  47.30400 8.22000 47.98900
N  42.49600 6.21700 47.17500
C  41.84600 7.48200 47.05000
C  40.33400 7.30800 46.68800
C  40.14400 5.77200 46.71700
C  41.60600 5.19700 46.93900
C  39.06300 5.11200 47.59300
C  39.96200 8.02400 45.35900
C  41.13500 7.90000 44.24100
H  40.69100 7.56900 42.81200
N  44.36900 3.76600 47.45900
C  43.18200 3.14900 47.22400
C  43.44600 1.69700 47.17600
C  44.85300 1.51900 47.39400
C  45.39300 2.92900 47.51800
C  42.43000 0.66100 46.86200
C  45.59200 0.14800 47.23700
O  44.93900 -0.79300 46.88200
C  47.13100 0.04000 47.36800
N  46.69400 5.81300 47.92900
C  47.29800 4.68300 47.79600
C  48.84200 4.80100 47.84000
C  49.03400 6.34400 47.86500
C  47.64600 6.85200 48.03700
C  49.55400 3.96200 48.99600
C  49.87200 6.88600 46.63500
C  49.06700 6.83300 45.31600
N  44.88000 7.90500 47.73000
C  45.98100 8.75600 47.87100
C  45.63900 10.17700 47.70000
C  44.22600 10.17200 47.55200
C  43.85800 8.77200 47.45400
C  46.49000 11.34100 47.63500
C  43.01200 11.04400 47.43400
O  42.88800 12.25400 47.46500
C  41.87300 10.08400 47.27700
C  40.78300 10.36200 48.38000
O  40.71300 9.72100 49.40200
O  39.81600 11.27300 47.97400
C  38.57400 11.33500 48.76300
H  41.11800 3.14500 46.67700
H  47.44500 2.60300 47.31000
H  48.05200 9.01600 48.00700
H  39.60900 7.79300 47.34200
H  40.01900 5.45900 45.68100
H  38.18800 5.76000 47.65500
H  39.35400 4.73800 48.57400
H  38.82700 4.28800 46.92000
H  39.64400 9.03200 45.62700
H  39.04400 7.63800 44.91600
H  41.70500 7.00500 44.49100
H  41.76500 8.78600 44.16300
H  42.76500 0.27600 45.89900
H  41.54800 1.20000 46.51400
H  42.14900 -0.14200 47.54300
H  47.34900 -0.99400 47.09900
H  47.37500 0.23600 48.41300
H  47.63900 0.69600 46.66200
H  49.11800 4.30200 46.91100
H  49.62400 6.68700 48.71500
H  49.99000 3.06600 48.55400
H  48.86100 3.80000 49.82100
H  50.38200 4.57200 49.35700
H  50.71100 6.21000 46.46300
H  50.29000 7.88100 46.79100
H  48.95400 7.83500 44.90200
H  48.13000 6.29800 45.47200
H  49.52200 6.18100 44.56900
H  47.33700 11.36200 48.32200
H  45.86200 12.23200 47.63500
H  46.92100 11.28100 46.63600
H  41.32000 10.27200 46.35700
H  38.16200 12.33800 48.64900
H  38.85300 11.07100 49.78300
H  37.76000 10.68300 48.44600
Mg -12.12000 16.99700 41.83600
C  -9.05700 15.35400 41.33900
C  -10.87500 19.81800 40.35400
C  -15.35000 18.13400 41.45700
C  -13.47900 14.01200 43.06500
N  -10.21100 17.49800 40.92100
C  -9.06800 16.70200 40.88800
C  -7.93300 17.45200 40.23500
C  -8.40300 18.92200 40.27200
C  -9.94900 18.74700 40.43500
C  -7.77900 19.81200 41.32800
C  -7.71500 16.84000 38.78700
C  -6.23700 16.90400 38.23500
H  -5.82500 17.78000 37.01200
N  -13.02100 18.84800 41.13400
C  -12.31500 19.83000 40.63500
C  -13.21300 20.91800 40.41800
C  -14.54100 20.50800 40.72600
C  -14.39600 19.08700 41.06400
C  -12.69000 22.29600 39.97700
C  -15.73900 21.46500 40.84100
O  -15.67900 22.64700 40.47200
C  -17.14500 20.97000 41.31500
N  -14.19900 16.14700 42.09900
C  -15.31600 16.90500 42.01700
C  -16.54400 16.15600 42.52900
C  -15.91600 14.91900 43.20800
C  -14.36600 15.00400 42.78500
C  -17.44100 16.96500 43.50100
C  -16.65700 13.58100 42.93800
C  -17.30500 12.70800 43.95700
N  -11.47100 15.09600 42.15100
C  -12.13300 13.96100 42.71500
C  -11.24900 12.85700 42.78000
C  -10.02900 13.35800 42.24700
C  -10.21300 14.70300 41.87400
C  -11.56900 11.58800 43.42000
C  -8.61500 13.06700 41.91300
O  -7.95500 12.02400 42.00400
C  -7.89200 14.33600 41.28200
C  -6.79000 14.76600 42.13200
O  -6.80300 14.76800 43.32000
O  -5.79200 15.20700 41.33000
C  -4.72800 15.91300 42.05700
H  -10.37000 20.73800 40.05000
H  -16.37400 18.51400 41.46900
H  -14.03000 13.19200 43.52900
H  -7.07000 17.23200 40.86300
H  -8.18100 19.40400 39.31900
H  -7.24200 20.59000 40.78600
H  -7.07500 19.25800 41.94800
H  -8.59000 20.29100 41.87800
H  -8.44900 17.35900 38.17200
H  -8.03400 15.80800 38.64400
H  -5.85200 15.90100 38.05100
H  -5.64300 17.20900 39.09600
H  -13.10600 23.17300 40.47300
H  -12.89600 22.38800 38.91100
H  -11.61000 22.39900 40.07600
H  -17.87000 21.77900 41.40300
H  -16.97600 20.51100 42.28900
H  -17.71600 20.31200 40.66000
H  -17.09900 15.84600 41.64400
H  -15.93800 14.99200 44.29500
H  -17.28900 18.04200 43.57200
H  -17.37900 16.57000 44.51500
H  -18.46800 16.81100 43.17100
H  -15.97600 12.90900 42.41500
H  -17.45600 13.67300 42.20200
H  -17.59500 13.37800 44.76500
H  -16.68800 11.94600 44.43400
H  -18.33400 12.37300 43.82500
H  -11.11600 10.89100 42.71500
H  -12.65700 11.57300 43.48500
H  -11.08100 11.45200 44.38500
H  -7.58600 14.14500 40.25400
H  -4.76600 16.96600 41.77800
H  -3.74900 15.44300 41.96000
H  -4.89500 15.96000 43.13300

