158

Mg 17.47600 -1.36600 27.56500
C  16.35700 0.77900 30.00400
C  19.54000 -2.90200 30.03500
C  18.57300 -3.55500 25.16400
C  15.59800 0.31100 25.24400
N  17.93500 -0.98400 29.70600
C  17.27100 -0.23000 30.54300
C  17.52700 -0.45400 32.01200
C  18.63500 -1.59100 31.96000
C  18.76700 -1.85200 30.46400
C  19.93300 -1.29300 32.64100
C  16.25300 -0.77400 32.93900
C  16.02800 0.15600 34.21400
H  17.22100 0.55200 34.93400
N  18.92900 -2.89300 27.58200
C  19.63000 -3.39600 28.68500
C  20.45800 -4.47700 28.25500
C  20.21200 -4.69900 26.83500
C  19.21700 -3.65700 26.46200
C  21.53500 -5.03700 29.13300
C  20.86300 -5.57100 25.82500
O  20.71300 -5.41100 24.64300
C  21.84200 -6.65500 26.20400
N  17.25300 -1.53500 25.47100
C  17.77300 -2.50700 24.76200
C  17.01900 -2.53600 23.32500
C  15.90200 -1.45100 23.55000
C  16.28500 -0.81900 24.82300
C  18.02300 -2.36100 22.16300
C  14.42500 -1.94000 23.46700
C  13.60300 -1.12600 22.47300
N  16.30700 0.30300 27.56000
C  15.54200 0.88700 26.53800
C  14.73700 1.92300 27.07900
C  15.00900 1.93800 28.41500
C  15.98500 0.93800 28.66200
C  13.87200 2.83800 26.25000
C  14.75500 2.67000 29.64400
O  13.91300 3.59900 29.82000
C  15.51500 1.91600 30.70900
C  16.43800 2.84600 31.38600
O  17.54800 3.02700 30.98800
O  15.78200 3.48500 32.46300
C  16.60300 4.63100 32.93800
H  20.15700 -3.49200 30.71600
H  18.58700 -4.47400 24.57400
H  14.85400 0.72900 24.56200
H  17.99400 0.41100 32.48300
H  18.19900 -2.52100 32.32600
H  20.69700 -1.30500 31.86400
H  20.07500 -2.04100 33.42000
H  19.97300 -0.28100 33.04300
H  16.16300 -1.81200 33.25900
H  15.41100 -0.51100 32.29900
H  15.44200 -0.36200 34.97300
H  15.48400 1.07300 33.98800
H  20.86700 -5.68800 29.69800
H  22.05500 -4.42700 29.87100
H  22.33000 -5.48000 28.53300
H  21.97000 -7.38000 25.40000
H  21.31600 -7.16000 27.01500
H  22.77900 -6.32400 26.65000
H  16.59100 -3.52700 23.16800
H  16.05900 -0.67800 22.79800
H  18.34300 -3.34400 21.81700
H  18.92900 -1.78000 22.33500
H  17.33200 -1.96600 21.41800
H  14.01900 -1.93700 24.47800
H  14.32600 -2.97400 23.13700
H  14.14800 -0.22400 22.19600
H  12.71200 -0.78800 23.00200
H  13.20800 -1.56500 21.55600
H  12.83300 2.51000 26.28000
H  14.24400 2.83500 25.22500
H  13.81800 3.86200 26.62000
H  14.82500 1.50700 31.44700
H  15.92100 4.99400 33.70700
H  16.78900 5.42600 32.21600
H  17.48600 4.27500 33.46800
Mg 54.07200 24.54400 44.88300
C  51.43600 26.77100 44.37600
C  51.96100 21.93500 44.20200
C  56.86100 22.53800 44.61100
C  56.15700 27.13300 45.62000
N  51.95100 24.41500 44.20700
C  51.01800 25.43500 44.17500
C  49.54400 24.84900 44.06700
C  49.79500 23.35500 44.45900
C  51.35700 23.21200 44.27400
C  49.43400 23.00200 45.90700
C  48.73700 25.03500 42.71200
C  49.45300 25.03400 41.33800
H  49.72000 23.57100 40.87300
N  54.38100 22.50600 44.41700
C  53.34500 21.59300 44.24200
C  54.02500 20.28800 44.08000
C  55.44600 20.47000 44.07400
C  55.64500 21.90200 44.38200
C  53.24200 19.01700 43.87000
C  56.46200 19.31900 43.83200
O  56.08800 18.18700 43.75300
C  57.91800 19.58800 43.62500
N  56.22700 24.86400 44.92100
C  57.15000 23.88400 44.88900
C  58.60800 24.39200 45.07300
C  58.37500 25.93200 45.41700
C  56.84400 26.00400 45.20500
C  59.30700 23.53900 46.21700
C  59.23400 26.91600 44.53300
C  58.61200 27.48100 43.18100
N  53.88800 26.56000 44.96900
C  54.79700 27.50500 45.41800
C  54.21300 28.78400 45.56900
C  52.93100 28.62300 45.03400
C  52.77800 27.21700 44.70400
C  54.78200 29.98800 46.23400
C  51.60800 29.14200 44.70900
O  51.22900 30.29100 44.86000
C  50.61500 27.97700 44.27200
C  50.09000 28.39200 42.93100
O  50.73900 28.64800 41.91800
O  48.73100 28.61300 43.09000
C  47.95800 28.75200 41.83100
H  51.28000 21.14300 43.88600
H  57.79000 21.96700 44.54700
H  56.81700 27.92400 45.98200
H  48.83100 25.28600 44.76600
H  49.36800 22.71700 43.68500
H  49.69600 21.94500 45.93400
H  48.37400 23.20300 46.06500
H  50.08100 23.60600 46.54300
H  48.11100 25.92600 42.74200
H  48.06900 24.18000 42.60100
H  50.44000 25.49700 41.32700
H  48.78800 25.50700 40.61500
H  53.01800 18.93400 42.80700
H  52.33100 19.06200 44.46600
H  53.80500 18.10400 44.06300
H  57.98800 20.51000 43.04900
H  58.19500 18.70600 43.04800
H  58.50000 19.66800 44.54300
H  59.07600 24.36200 44.09000
H  58.46700 26.03500 46.49800
H  59.57300 24.20100 47.04200
H  60.20000 23.06600 45.80900
H  58.61100 22.86200 46.71300
H  60.22200 26.46900 44.41900
H  59.38500 27.77100 45.19200
H  59.13300 27.15700 42.28000
H  58.65800 28.57000 43.13700
H  57.57400 27.17200 43.05800
H  55.71100 30.37600 45.81700
H  54.92900 29.78800 47.29500
H  53.99700 30.74300 46.17300
H  49.83800 28.02300 45.03600
H  48.52600 29.22300 41.02900
H  46.96900 29.18100 41.99300
H  47.81200 27.77100 41.38000

