158

Mg 27.30500 51.07600 25.96700
C  25.28600 52.03500 28.72900
C  29.55200 49.89900 28.17100
C  29.17100 50.27500 23.31100
C  24.84900 52.43600 23.90500
N  27.35000 51.09000 28.21300
C  26.39500 51.36700 29.10100
C  26.85100 51.12800 30.43900
C  28.32400 50.56600 30.33500
C  28.40300 50.44800 28.80300
C  29.38900 51.54000 30.83400
C  25.84100 50.26500 31.35600
C  25.41400 50.64200 32.79300
H  26.58700 50.94400 33.73000
N  29.27400 50.35200 25.75200
C  29.99300 49.82900 26.80500
C  31.26700 49.31300 26.26000
C  31.14700 49.37300 24.83700
C  29.88800 50.01600 24.56400
C  32.33300 48.81500 27.16800
C  32.09400 48.85200 23.81700
O  31.88600 48.97400 22.60300
C  33.29100 47.97900 24.28300
N  27.10900 51.58800 23.95000
C  27.91200 50.90900 23.03800
C  27.35300 50.94300 21.59200
C  25.97900 51.60000 21.75400
C  25.95100 51.87300 23.28100
C  28.37500 51.60800 20.62400
C  24.67300 50.92100 21.14900
C  24.32900 49.56900 21.85900
N  25.50200 52.10000 26.22400
C  24.66500 52.64000 25.31200
C  23.62600 53.38200 25.91800
C  23.79400 53.17800 27.24900
C  24.95700 52.41700 27.41700
C  22.54700 54.18300 25.21700
C  23.25300 53.44200 28.59700
O  22.26000 54.10700 29.00900
C  24.19700 52.62100 29.55500
C  24.78800 53.69200 30.46900
O  25.79600 54.37600 30.23800
O  23.85500 53.93200 31.47500
C  24.11800 55.07000 32.30600
H  30.25100 49.57000 28.94200
H  29.57500 49.72100 22.46200
H  24.10000 52.87000 23.24000
H  26.89100 52.12900 30.87000
H  28.37800 49.56700 30.76700
H  30.32400 51.50000 30.27600
H  29.60800 51.29300 31.87300
H  29.05700 52.57300 30.72800
H  26.32500 49.29200 31.43400
H  24.94900 50.01800 30.78000
H  24.90100 49.83600 33.31700
H  24.74600 51.49600 32.91100
H  32.35700 47.75200 27.40800
H  32.23100 49.24700 28.16400
H  33.28500 49.18500 26.78900
H  33.63300 47.33700 23.47100
H  32.92100 47.23100 24.98400
H  34.20900 48.48300 24.58700
H  27.19800 49.95200 21.16500
H  26.05900 52.58500 21.29400
H  29.24900 52.12400 21.02100
H  27.82000 52.31700 20.00900
H  28.72500 50.84900 19.92500
H  24.73000 50.83200 20.06500
H  23.83000 51.59500 21.30000
H  24.83400 49.47000 22.82000
H  24.66800 48.74700 21.22900
H  23.25700 49.46800 22.03000
H  21.95900 54.70600 25.97100
H  21.83900 53.52800 24.70900
H  22.85900 55.05100 24.63600
H  23.70600 51.82100 30.10900
H  24.85700 54.70400 33.01800
H  23.20700 55.37900 32.81800
H  24.44500 55.89100 31.66700
Mg -5.48600 25.24200 26.44000
C  -4.06300 26.34000 29.39400
C  -7.03300 22.66200 28.29300
C  -6.12600 23.53500 23.55000
C  -3.30900 27.33100 24.61800
N  -5.48000 24.53900 28.62900
C  -5.00200 25.36200 29.64000
C  -5.62000 24.78600 30.98200
C  -6.07500 23.31100 30.67400
C  -6.23000 23.47900 29.09900
C  -5.14000 22.14500 31.07200
C  -6.81400 25.68300 31.45400
C  -6.71400 26.11200 33.02000
H  -5.93800 25.09800 33.95000
N  -6.71800 23.65400 25.97500
C  -7.31500 22.77900 26.87800
C  -8.10400 21.82600 26.11400
C  -7.75900 21.96500 24.79000
C  -6.79900 23.07500 24.69800
C  -9.07000 20.79900 26.77400
C  -8.25700 21.18700 23.55900
O  -7.82700 21.31000 22.42500
C  -9.29100 20.04400 23.72400
N  -4.88600 25.42900 24.35800
C  -5.32000 24.65300 23.34900
C  -4.80000 25.16400 21.98800
C  -3.99000 26.37100 22.37000
C  -4.06500 26.38800 23.93300
C  -4.00100 24.19000 21.11200
C  -4.47500 27.61400 21.63000
C  -3.52800 28.85100 21.42000
N  -3.99500 26.53600 26.90200
C  -3.34600 27.43200 26.06400
C  -2.43600 28.17900 26.93500
C  -2.77600 27.86200 28.21900
C  -3.66300 26.81600 28.13600
C  -1.35000 29.13000 26.47700
C  -2.32500 28.08600 29.63900
O  -1.44600 28.74200 30.17100
C  -3.24200 27.08800 30.46200
C  -2.34900 26.18600 31.23800
O  -1.45900 25.54200 30.68700
O  -2.40700 26.54000 32.50700
C  -1.31800 26.13300 33.36200
H  -7.45000 21.84700 28.88800
H  -6.28500 23.02900 22.59600
H  -2.57200 27.94600 24.09600
H  -4.85500 24.71300 31.75500
H  -7.04900 23.14000 31.13100
H  -5.87400 21.55000 31.61700
H  -4.41600 22.62300 31.73100
H  -4.64500 21.70800 30.20500
H  -7.79900 25.21700 31.41600
H  -6.92700 26.56900 30.82900
H  -7.71500 26.01700 33.44100
H  -6.20700 27.06800 33.14700
H  -8.73700 19.78000 26.57900
H  -10.11800 21.00000 26.55100
H  -9.08900 21.03100 27.83900
H  -9.03500 19.11500 24.23400
H  -9.54100 19.89200 22.67400
H  -10.11600 20.49200 24.28000
H  -5.55000 25.45000 21.25100
H  -2.95800 26.20200 22.06100
H  -4.15700 23.25800 21.65500
H  -2.92100 24.29300 21.21700
H  -4.34900 24.13900 20.08000
H  -5.40300 27.91000 22.11800
H  -4.83000 27.33300 20.63900
H  -3.54000 29.16300 20.37500
H  -2.50600 28.57000 21.67400
H  -3.75700 29.61600 22.16000
H  -1.73000 30.12000 26.22300
H  -0.83300 28.75600 25.59300
H  -0.66500 29.23000 27.31900
H  -3.90900 27.71900 31.04900
H  -0.41700 26.51400 32.88300
H  -1.37300 25.04900 33.45700
H  -1.39100 26.65400 34.31700

