158

Mg -11.56400 38.52300 42.37500
C  -9.50600 35.81200 41.86900
C  -9.08100 40.50300 40.95900
C  -13.70200 41.17700 42.22100
C  -14.08500 36.40100 43.33000
N  -9.66700 38.16100 41.18700
C  -9.00900 36.95000 41.23000
C  -7.68600 37.01000 40.48200
C  -7.40700 38.52400 40.53100
C  -8.80600 39.09700 40.88300
C  -6.23300 38.98600 41.63000
C  -7.92000 36.35000 39.07900
C  -6.81400 35.64200 38.23800
H  -6.32600 36.36500 36.96300
N  -11.38000 40.60900 41.87500
C  -10.23100 41.19200 41.36900
C  -10.52900 42.60700 41.06600
C  -11.90600 42.86300 41.35600
C  -12.35800 41.55800 41.83100
C  -9.49600 43.57800 40.29400
C  -12.72800 44.07300 41.19600
O  -12.21400 45.15500 40.72900
C  -14.27200 44.16700 41.29300
N  -13.62700 38.74800 42.57300
C  -14.25100 39.94000 42.61300
C  -15.56000 39.81900 43.34400
C  -15.78000 38.25800 43.45900
C  -14.42000 37.73300 43.02000
C  -15.49200 40.64400 44.68500
C  -17.02900 37.64200 42.65200
C  -17.79700 36.66900 43.39900
N  -11.84100 36.51500 42.66600
C  -12.85700 35.80800 43.11200
C  -12.41900 34.51800 43.46400
C  -11.06300 34.38000 42.98600
C  -10.81900 35.69200 42.41100
C  -13.30900 33.39600 44.09200
C  -9.93100 33.58500 42.82900
O  -9.88500 32.41900 43.09900
C  -8.85200 34.43000 41.98500
C  -7.62900 34.44500 42.92300
O  -7.61100 34.62400 44.11700
O  -6.55000 34.10400 42.19600
C  -5.32600 33.89800 43.00000
H  -8.37600 41.22100 40.53500
H  -14.39700 41.99800 42.40900
H  -14.80100 35.75300 43.84000
H  -6.85700 36.49100 40.96200
H  -7.01600 38.88200 39.57900
H  -5.26600 39.14000 41.15200
H  -6.12400 38.23600 42.41300
H  -6.42400 39.94800 42.10500
H  -8.22500 37.22500 38.50600
H  -8.84500 35.77400 39.10500
H  -7.22400 34.65800 38.01100
H  -5.94900 35.62000 38.90100
H  -8.64900 43.01300 39.90300
H  -9.33600 44.43600 40.94800
H  -10.00300 43.98500 39.42000
H  -14.63100 43.35200 40.66500
H  -14.70600 45.14000 41.06700
H  -14.53000 44.06100 42.34700
H  -16.30300 40.18500 42.63500
H  -15.94800 38.07400 44.52000
H  -15.93400 40.14700 45.54900
H  -15.99000 41.61300 44.65100
H  -14.43900 40.85200 44.87300
H  -16.61100 37.16800 41.76400
H  -17.74600 38.39100 42.31600
H  -18.84500 36.93900 43.27400
H  -17.70200 36.75700 44.48100
H  -17.69000 35.64700 43.03500
H  -12.71200 32.53500 44.39200
H  -14.17200 33.08100 43.50600
H  -13.81800 33.83100 44.95200
H  -8.83900 34.03500 40.97000
H  -5.48200 33.02500 43.63300
H  -5.09500 34.65400 43.75100
H  -4.47200 33.67700 42.36100
Mg 1.11800 42.45200 26.27700
C  2.97600 42.17900 29.23200
C  -1.63400 41.62600 28.13700
C  -0.54200 42.02200 23.45500
C  4.08300 42.96900 24.63500
N  0.68300 42.04500 28.50700
C  1.60200 42.15200 29.46700
C  0.95500 42.39000 30.78900
C  -0.57500 42.09000 30.43800
C  -0.53300 41.86100 28.95300
C  -1.27600 40.97500 31.18500
C  1.33000 43.77500 31.32200
C  1.83700 43.75700 32.77500
H  1.51800 42.51100 33.65400
N  -0.76800 41.78900 25.89200
C  -1.78800 41.46500 26.73200
C  -2.87100 40.82100 26.03100
C  -2.49900 40.84000 24.63100
C  -1.25800 41.57400 24.55700
C  -4.05300 40.14200 26.76400
C  -3.19700 40.22000 23.42800
O  -2.77300 40.35500 22.26300
C  -4.40400 39.36800 23.64700
N  1.68400 42.51600 24.33600
C  0.73600 42.46700 23.34000
C  1.41700 42.82900 21.92600
C  2.88400 43.18800 22.38400
C  2.90400 42.89800 23.86600
C  1.43400 41.59600 20.92000
C  3.26800 44.69300 22.03200
C  2.34300 45.76400 22.59100
N  3.10000 42.52700 26.69700
C  4.18900 42.87200 25.96700
C  5.42000 42.91600 26.79200
C  4.98100 42.68100 28.06600
C  3.58000 42.36700 27.94600
C  6.84400 43.19700 26.36500
C  5.31200 42.57200 29.42300
O  6.36900 42.72200 30.00900
C  4.09200 42.27300 30.21500
C  4.28900 41.01300 31.14400
O  3.85600 39.89500 30.88700
O  4.86700 41.45700 32.33000
C  5.31800 40.36300 33.19300
H  -2.56500 41.35900 28.64000
H  -1.02700 41.97400 22.47700
H  4.93600 43.17200 23.98500
H  1.38600 41.61400 31.42100
H  -1.11700 43.02000 30.61100
H  -1.46500 40.14300 30.50700
H  -2.20200 41.24300 31.69300
H  -0.58700 40.60600 31.94600
H  0.49600 44.45600 31.15100
H  2.13600 44.12500 30.67700
H  1.33200 44.56100 33.30900
H  2.87200 44.09800 32.76500
H  -3.90700 39.14500 27.18000
H  -4.95700 40.14100 26.15500
H  -4.37000 40.77200 27.59500
H  -4.78800 38.94300 22.72000
H  -5.16300 39.99100 24.12200
H  -4.17400 38.53600 24.31200
H  0.89200 43.64700 21.43100
H  3.59300 42.49200 21.93500
H  1.14500 40.74900 21.54300
H  2.42900 41.51500 20.48500
H  0.62800 41.72100 20.19700
H  3.21700 44.78800 20.94800
H  4.31400 44.84600 22.29800
H  1.97700 46.30300 21.71800
H  2.93000 46.39300 23.26000
H  1.54100 45.31600 23.17800
H  7.51700 42.33900 26.38600
H  7.23600 43.81700 27.17100
H  6.79400 43.81400 25.46900
H  4.05000 43.15100 30.85900
H  5.14500 40.66100 34.22700
H  6.39700 40.21300 33.23600
H  4.89300 39.38300 32.97400

