158

Mg 56.22900 25.74700 45.37300
C  53.15500 27.06800 44.10100
C  55.28200 22.69300 44.07200
C  59.28600 24.87900 45.57500
C  57.07800 29.12200 46.19900
N  54.41300 24.97400 44.23100
C  53.25800 25.67000 43.90300
C  52.14800 24.68600 43.37600
C  52.78900 23.29000 43.56300
C  54.26000 23.66600 43.99500
C  52.17000 22.38600 44.72200
C  51.75300 24.98200 41.86900
C  50.25300 24.88300 41.51800
H  50.06500 24.11400 40.17500
N  57.12500 23.97300 45.05200
C  56.59700 22.82000 44.55000
C  57.64400 21.75500 44.53600
C  58.79900 22.40600 44.99000
C  58.48300 23.76400 45.26100
C  57.45100 20.35600 43.88500
C  60.08600 21.62500 45.11300
O  60.18300 20.43900 44.70200
C  61.31500 22.19400 45.80100
N  57.98500 26.83100 45.83300
C  59.11300 26.21200 45.81000
C  60.26700 27.12200 46.15200
C  59.58100 28.42200 46.56200
C  58.05900 28.15400 46.18900
C  61.32700 26.53900 47.13300
C  60.03300 29.69100 45.76500
C  60.27400 30.90700 46.63300
N  55.41900 27.66100 45.15900
C  55.79800 28.90200 45.68900
C  54.66600 29.84000 45.80300
C  53.63700 29.17400 45.08400
C  54.09000 27.88200 44.76700
C  54.64300 31.20000 46.34500
C  52.28200 29.30900 44.60600
O  51.58300 30.32300 44.65500
C  52.07500 28.04700 43.78100
C  52.02700 28.41200 42.33500
O  52.96200 28.40500 41.55800
O  50.74800 28.72300 42.05200
C  50.31800 28.78200 40.63000
H  55.09300 21.65700 43.78600
H  60.34100 24.63900 45.71800
H  57.29400 30.13600 46.54200
H  51.28100 24.84300 44.01700
H  52.88700 22.68000 42.66400
H  51.34600 22.79700 45.30600
H  52.89600 22.25200 45.52500
H  51.91800 21.42700 44.26900
H  52.39600 24.32700 41.28200
H  52.14300 25.95700 41.57600
H  49.68100 25.80800 41.45500
H  49.87600 24.33500 42.38200
H  58.31000 20.24100 43.22400
H  56.49300 20.23900 43.37900
H  57.38700 19.68800 44.74400
H  61.81900 22.91600 45.15900
H  62.09200 21.45900 46.01500
H  60.82900 22.57000 46.70100
H  60.69000 27.22600 45.15300
H  59.67000 28.54900 47.64100
H  61.67600 27.34700 47.77600
H  62.21300 26.13700 46.64200
H  60.82100 25.79400 47.74700
H  59.28800 30.04000 45.05100
H  60.91100 29.41200 45.18300
H  59.88200 30.88300 47.64900
H  59.78400 31.70800 46.08000
H  61.35000 31.08000 46.61900
H  55.15300 31.95900 45.75200
H  55.17200 31.20900 47.29800
H  53.59300 31.48400 46.42500
H  51.09400 27.66200 44.05700
H  51.10800 29.11900 39.95800
H  49.55900 29.55500 40.50800
H  49.89300 27.80400 40.40600
Mg -12.63100 15.65600 42.75400
C  -9.26900 14.75500 42.13400
C  -12.14800 18.40400 40.64700
C  -15.96600 16.09700 42.57100
C  -13.15400 12.40100 43.97200
N  -10.90600 16.40800 41.24700
C  -9.58400 15.96200 41.41600
C  -8.63900 16.85000 40.62800
C  -9.62200 18.00300 40.14400
C  -11.01000 17.58800 40.63800
C  -9.24300 19.52400 40.49700
C  -7.80400 16.22000 39.49400
C  -6.32200 16.61700 39.48800
H  -5.91300 17.32200 38.21700
N  -13.84100 17.12000 41.84200
C  -13.42200 18.19600 41.14800
C  -14.60900 19.00900 40.81400
C  -15.74200 18.36900 41.41300
C  -15.19400 17.12100 41.94400
C  -14.49900 20.36800 40.29200
C  -17.16300 18.93200 41.58300
O  -17.40900 20.05000 41.16000
C  -18.26900 18.18800 42.23200
N  -14.27200 14.43000 43.25500
C  -15.51800 14.89000 43.20400
C  -16.53300 13.98800 43.87700
C  -15.67200 12.72600 44.05600
C  -14.22500 13.21500 43.77200
C  -17.16700 14.66700 45.16000
C  -16.15200 11.50300 43.09100
C  -16.88900 10.42900 43.84700
N  -11.52700 13.94000 43.08000
C  -11.84300 12.70700 43.56100
C  -10.64400 11.87800 43.65700
C  -9.61800 12.65500 43.20100
C  -10.19200 13.93200 42.79400
C  -10.53400 10.49500 44.27100
C  -8.15800 12.63400 42.97300
O  -7.35400 11.76500 43.19900
C  -7.90200 13.99400 42.24500
C  -6.88200 14.79600 42.95700
O  -7.04100 15.44900 43.96400
O  -5.63400 14.68800 42.26100
C  -4.60600 15.66600 42.84600
H  -11.91400 19.34200 40.14000
H  -17.04500 16.14600 42.73200
H  -13.45400 11.44900 44.41600
H  -7.94700 17.29200 41.34500
H  -9.72200 17.92200 39.06200
H  -8.16000 19.51100 40.61600
H  -9.73900 19.81800 41.42200
H  -9.38700 20.33200 39.77900
H  -8.25300 16.36900 38.51200
H  -7.92500 15.14800 39.65400
H  -5.80100 15.69000 39.72800
H  -6.10700 17.32700 40.28700
H  -15.29400 21.04300 40.61000
H  -14.52800 20.36600 39.20300
H  -13.62900 20.80100 40.78600
H  -18.50000 17.21400 41.80000
H  -19.17500 18.79400 42.23100
H  -17.99800 17.97100 43.26500
H  -17.32300 13.71300 43.17800
H  -15.64800 12.26000 45.04100
H  -16.65000 15.62300 45.23800
H  -16.88000 14.13800 46.06900
H  -18.25500 14.63900 45.10500
H  -15.25500 11.04700 42.67400
H  -16.75400 11.87600 42.26200
H  -17.04900 10.62200 44.90800
H  -16.31600 9.50200 43.81100
H  -17.83800 10.33500 43.32000
H  -11.47800 9.98300 44.08100
H  -10.40100 10.61400 45.34600
H  -9.67600 9.97800 43.84000
H  -7.45700 13.84400 41.26200
H  -3.64400 15.15800 42.77000
H  -4.75700 15.82700 43.91300
H  -4.61800 16.59600 42.27600

