158

Mg -3.35300 17.43100 26.63800
C  -3.72900 15.10500 29.28200
C  -3.20500 19.93400 28.77500
C  -3.41600 19.55900 23.94800
C  -3.94900 14.74800 24.34600
N  -3.44400 17.48200 28.66300
C  -3.55400 16.44600 29.62100
C  -3.42200 16.95200 31.06200
C  -3.30400 18.49900 30.90000
C  -3.41900 18.64000 29.34400
C  -4.43200 19.39500 31.61500
C  -2.25400 16.35000 31.99600
C  -1.88700 17.07800 33.33600
H  -2.03600 16.38300 34.67100
N  -3.33900 19.51100 26.34200
C  -3.19600 20.35900 27.41200
C  -3.13600 21.73000 26.93900
C  -3.05600 21.62900 25.52100
C  -3.22200 20.20500 25.18000
C  -3.16600 22.98600 27.78300
C  -2.77300 22.64000 24.44100
O  -2.58100 22.32400 23.23400
C  -2.64200 24.06400 24.83000
N  -3.77400 17.20800 24.45700
C  -3.65800 18.24100 23.63100
C  -3.79700 17.74000 22.09000
C  -3.88200 16.27400 22.25400
C  -3.88000 16.05000 23.76600
C  -4.99400 18.38500 21.41000
C  -2.68700 15.42800 21.52400
C  -1.24400 15.71400 22.05400
N  -3.82600 15.41800 26.71000
C  -3.87000 14.43900 25.70600
C  -3.97900 13.11400 26.28500
C  -4.05700 13.33600 27.69200
C  -3.88100 14.69200 27.94100
C  -4.09400 11.87100 25.60200
C  -4.26300 12.71900 28.96100
O  -4.36300 11.52900 29.37400
C  -4.14700 13.82300 30.08600
C  -2.99700 13.29900 30.95200
O  -1.79800 13.41000 30.76300
O  -3.49100 12.50400 31.96700
C  -2.60000 11.76600 32.85500
H  -3.10400 20.77600 29.46200
H  -3.36700 20.21000 23.07300
H  -4.11500 13.89400 23.68600
H  -4.31800 16.74100 31.64500
H  -2.35100 18.81000 31.33000
H  -5.41200 18.92300 31.68200
H  -4.55300 20.32900 31.06600
H  -4.08800 19.71000 32.60000
H  -1.35600 16.31100 31.37900
H  -2.53400 15.34700 32.31800
H  -2.56100 17.93100 33.41500
H  -0.85900 17.43900 33.30900
H  -2.22500 23.53600 27.80200
H  -3.42300 22.76900 28.82000
H  -3.85900 23.74300 27.41700
H  -3.58400 24.26300 25.34000
H  -2.44200 24.72100 23.98400
H  -1.75800 24.03800 25.46800
H  -2.89900 18.04300 21.55300
H  -4.84200 15.90600 21.88900
H  -4.66000 18.80600 20.46200
H  -5.41000 19.17800 22.03000
H  -5.78000 17.67400 21.15300
H  -2.64300 15.70500 20.47100
H  -2.96800 14.37500 21.52000
H  -0.67200 15.93300 21.15100
H  -0.71600 14.82100 22.38800
H  -1.13300 16.48300 22.81800
H  -3.44700 11.12200 26.05800
H  -3.68200 11.88300 24.59300
H  -5.12800 11.53900 25.50700
H  -5.03700 14.03600 30.67800
H  -1.91100 11.08700 32.35300
H  -3.09000 11.13900 33.60000
H  -2.10800 12.55500 33.42500
Mg 27.37500 49.01200 26.57800
C  25.27000 50.06300 29.17700
C  29.74200 48.16900 29.04700
C  29.47400 48.19800 24.08700
C  24.86700 50.13400 24.33600
N  27.44100 49.16700 28.83600
C  26.48400 49.51200 29.69500
C  26.80000 49.29500 31.16100
C  28.39200 48.98900 31.09100
C  28.57000 48.80400 29.57500
C  29.24100 50.07800 31.82700
C  25.82300 48.27500 31.69200
C  25.33200 48.21200 33.12800
H  26.13900 48.73800 34.31600
N  29.33200 48.26300 26.63200
C  30.09800 47.92000 27.71100
C  31.33300 47.44000 27.20000
C  31.33400 47.60500 25.77700
C  30.02400 48.07000 25.41400
C  32.39000 47.01100 28.14300
C  32.42400 47.26200 24.77700
O  32.24700 47.42300 23.57100
C  33.69100 46.55700 25.13900
N  27.21600 49.21600 24.57400
C  28.12000 48.66800 23.76000
C  27.62800 48.69400 22.30800
C  26.17400 49.27200 22.41200
C  26.08500 49.60300 23.87400
C  28.58700 49.47900 21.37900
C  25.12900 48.25100 21.80600
C  24.16500 48.95400 20.83500
N  25.47300 50.05100 26.68400
C  24.54800 50.37200 25.69400
C  23.36100 51.02300 26.30100
C  23.55600 50.84700 27.69800
C  24.87500 50.28100 27.83700
C  22.20500 51.66800 25.55900
C  23.00500 50.97700 28.98700
O  21.87200 51.34800 29.39400
C  24.03700 50.45700 30.01400
C  24.26800 51.56400 31.01200
O  25.06500 52.46600 30.77100
O  23.49900 51.37600 32.13800
C  23.65500 52.41700 33.18700
H  30.52400 47.96600 29.78300
H  30.07600 48.06300 23.18600
H  24.07400 50.25200 23.59500
H  26.58300 50.19800 31.73100
H  28.50900 47.98500 31.49800
H  29.39300 49.98800 32.90300
H  28.73700 51.01900 31.61100
H  30.24300 50.03200 31.40000
H  26.43100 47.37200 31.63500
H  25.01100 48.04700 31.00200
H  25.02100 47.20100 33.39300
H  24.38600 48.75000 33.18100
H  32.69300 45.97200 28.01600
H  32.18100 47.20600 29.19500
H  33.36500 47.46800 27.97400
H  34.26500 46.59600 24.21300
H  33.54000 45.50400 25.37900
H  34.30900 47.04900 25.89000
H  27.56500 47.71800 21.82600
H  26.02100 50.20800 21.87400
H  27.97900 50.18800 20.81800
H  29.13100 48.90900 20.62600
H  29.28800 50.01900 22.01600
H  24.43200 47.99500 22.60400
H  25.52100 47.36900 21.30000
H  23.19100 48.58100 21.15300
H  24.46400 48.78500 19.80000
H  23.99400 50.02300 20.96600
H  21.37400 51.59000 26.25900
H  22.11100 51.11000 24.62700
H  22.45900 52.71700 25.40800
H  23.57100 49.59500 30.49200
H  24.54100 52.10900 33.74100
H  22.75000 52.40500 33.79400
H  23.70100 53.35100 32.62600

