158

Mg 47.84400 45.23600 42.73400
C  44.40300 45.90000 41.74300
C  47.69200 42.57500 40.77500
C  51.19000 45.26200 42.70300
C  47.82500 48.58300 43.97200
N  46.17200 44.30200 41.55600
C  44.91800 44.76400 41.25200
C  44.26100 43.85500 40.25700
C  45.27000 42.66700 40.17400
C  46.43800 43.17000 40.95600
C  44.77500 41.31400 40.80000
C  44.02700 44.55400 38.86900
C  42.68100 44.20700 38.21600
H  42.62100 43.09300 37.17200
N  49.26300 43.94000 42.01200
C  48.95900 42.87700 41.26200
C  50.12800 42.16600 40.98700
C  51.20000 42.99100 41.46800
C  50.58500 44.13500 42.09800
C  50.23900 40.83500 40.26700
C  52.72800 42.66500 41.23600
O  53.04200 41.56100 40.78700
C  53.87100 43.60100 41.52100
N  49.29100 46.65000 43.33700
C  50.58800 46.38100 43.37300
C  51.35800 47.56100 43.98100
C  50.26900 48.63400 44.12900
C  49.00500 47.87300 43.93300
C  52.16100 47.34600 45.27800
C  50.42400 49.87300 43.11100
C  51.57000 50.79100 43.36500
N  46.38500 46.77900 43.15600
C  46.55800 48.07900 43.58500
C  45.28300 48.69400 43.81800
C  44.40000 47.87000 43.07400
C  45.17500 46.79200 42.57000
C  45.01800 49.95500 44.45600
C  43.06400 47.85600 42.48100
O  42.15700 48.67000 42.52800
C  43.00400 46.51900 41.57800
C  41.91600 45.69100 42.08900
O  41.25100 45.00800 41.32900
O  41.89900 45.54100 43.44800
C  40.83900 44.65400 44.03000
H  47.53500 41.72600 40.10600
H  52.24900 45.12600 42.93400
H  47.88900 49.62900 44.27900
H  43.33700 43.44400 40.66400
H  45.55200 42.43800 39.14600
H  45.06700 40.50000 40.13700
H  43.68900 41.22300 40.75900
H  45.14300 41.17400 41.81700
H  44.82500 44.30400 38.17000
H  44.17300 45.62600 39.00600
H  42.29600 45.12300 37.76800
H  42.07900 43.82100 39.03900
H  49.28400 40.32200 40.38200
H  50.92800 40.12800 40.72800
H  50.53400 40.92400 39.22200
H  54.10600 43.49600 42.58000
H  53.63600 44.63800 41.28000
H  54.71800 43.36000 40.87900
H  52.06900 47.83200 43.20100
H  50.29200 49.13000 45.09900
H  51.82400 48.08000 46.01000
H  53.20200 47.51800 45.00600
H  52.01200 46.34200 45.67500
H  49.46100 50.38000 43.18400
H  50.43300 49.39100 42.13400
H  51.16900 51.79600 43.49700
H  52.20600 50.86900 42.48400
H  52.34600 50.60500 44.10800
H  45.88300 50.40000 44.94900
H  44.13700 49.85100 45.09000
H  44.78000 50.59200 43.60400
H  42.75400 46.87700 40.57900
H  40.56800 45.01000 45.02400
H  41.08300 43.59900 44.15800
H  39.90700 44.75800 43.47600
Mg 29.86100 57.91500 40.24700
C  27.03500 55.92000 39.16500
C  31.84800 55.29400 39.00000
C  32.43800 59.87300 40.39300
C  27.66700 60.64700 40.53300
N  29.52900 55.93000 39.08100
C  28.31300 55.30300 38.88300
C  28.46600 53.83100 38.52700
C  29.94800 53.54900 38.56900
C  30.46500 55.01800 38.86800
C  30.46700 52.43600 39.55000
C  27.83300 53.46000 37.05400
C  28.47400 54.22200 35.82100
H  27.57500 55.29600 35.14200
N  31.96400 57.58900 39.95200
C  32.57900 56.48000 39.38500
C  34.00000 56.71800 39.42900
C  34.21600 58.00700 39.96800
C  32.84000 58.50800 40.16200
C  34.93900 55.64500 38.96600
C  35.55300 58.70300 40.23500
O  36.58900 58.12000 39.94900
C  35.71900 60.05900 40.80500
N  30.06400 59.99400 40.29000
C  31.25800 60.51000 40.52300
C  31.19900 62.02600 40.91300
C  29.67900 62.31400 40.78700
C  29.05900 60.92100 40.55000
C  31.74500 62.34800 42.31600
C  29.35000 63.21300 39.55000
C  28.38100 64.33100 39.93600
N  27.73700 58.27700 40.10000
C  27.00800 59.42000 40.19500
C  25.64900 59.11200 39.87800
C  25.60500 57.73400 39.53300
C  26.93800 57.30300 39.62900
C  24.48100 60.09400 39.92400
C  24.68200 56.54200 39.21600
O  23.43700 56.57400 39.12800
C  25.61300 55.37000 38.90700
C  25.25400 54.27800 39.85100
O  25.72500 54.07000 40.95900
O  24.34700 53.41300 39.27200
C  23.94900 52.22100 40.07200
H  32.45200 54.40500 38.80900
H  33.28900 60.55500 40.45200
H  27.01600 61.49300 40.76400
H  27.95000 53.21600 39.26500
H  30.29300 53.22500 37.58600
H  30.52300 53.02400 40.46700
H  31.44800 52.08000 39.23300
H  29.75700 51.60900 39.56400
H  26.81700 53.83900 37.16500
H  27.97500 52.38100 36.99300
H  28.73800 53.52600 35.02500
H  29.35800 54.75600 36.16900
H  35.79500 55.92700 38.35300
H  34.53000 54.78100 38.44300
H  35.42100 55.32500 39.89000
H  35.20100 60.20800 41.75300
H  35.33900 60.79200 40.09300
H  36.77200 60.31800 40.92000
H  31.81700 62.60400 40.22600
H  29.31100 62.82400 41.67800
H  30.94700 62.73300 42.95100
H  32.40000 63.18600 42.07800
H  32.25700 61.50800 42.78700
H  28.95200 62.55000 38.78200
H  30.23700 63.67800 39.11900
H  27.47800 64.09900 39.37100
H  28.69400 65.29900 39.54600
H  28.21000 64.36100 41.01200
H  24.53500 60.72100 39.03400
H  24.70100 60.71000 40.79600
H  23.50700 59.61900 40.04400
H  25.36600 54.92000 37.94600
H  23.73200 52.61000 41.06700
H  24.78000 51.52200 40.16600
H  23.11200 51.73200 39.57400

