158

Mg 41.31000 9.46800 29.67300
C  42.97900 10.69000 32.41500
C  38.82000 8.18000 31.61800
C  39.86900 8.27800 26.82900
C  43.78500 10.87900 27.71100
N  41.01300 9.30700 31.74800
C  41.81300 9.91900 32.72600
C  41.19400 9.56700 34.10700
C  40.03900 8.60900 33.79600
C  39.96800 8.64300 32.27300
C  40.07700 7.15700 34.36600
C  40.85200 10.82500 34.99000
C  41.18300 10.63700 36.48900
H  40.96400 11.85400 37.42600
N  39.62500 8.35000 29.23300
C  38.74300 7.95000 30.24100
C  37.62900 7.28700 29.62600
C  37.84100 7.31900 28.18800
C  39.15100 7.97200 28.03200
C  36.51200 6.60800 30.43900
C  36.89200 7.01100 26.99700
O  37.20600 7.33000 25.86900
C  35.56600 6.31800 27.21200
N  41.77800 9.57600 27.59000
C  41.07300 8.95500 26.62600
C  41.69200 9.26700 25.24400
C  42.64700 10.51600 25.46000
C  42.70400 10.37900 26.98100
C  42.35700 7.95300 24.65100
C  42.21600 11.90700 24.95200
C  40.87200 12.43400 25.48300
N  43.11900 10.42700 29.95000
C  44.08100 10.83800 29.05500
C  45.11400 11.48100 29.71400
C  44.78800 11.43200 31.09300
C  43.49700 10.78200 31.17000
C  46.13200 12.15300 28.95200
C  45.17700 11.76300 32.49100
O  46.20000 12.30800 32.88700
C  44.01800 11.22400 33.41800
C  44.58400 10.14300 34.30300
O  44.43500 8.93100 34.21900
O  45.42000 10.67800 35.26400
C  46.20700 9.84100 36.23500
H  38.05300 7.73300 32.25400
H  39.44400 7.95700 25.87600
H  44.52000 11.33000 27.04000
H  41.87900 9.02800 34.76100
H  39.16000 9.14700 34.15100
H  39.15600 6.97300 34.91900
H  40.86300 7.12700 35.12100
H  40.17300 6.36600 33.62200
H  39.77000 10.94900 35.03000
H  41.30800 11.75000 34.63700
H  42.15700 10.23200 36.76400
H  40.50700 9.88800 36.90100
H  35.58600 6.63700 29.86400
H  36.40500 7.08400 31.41300
H  36.85100 5.59100 30.63700
H  35.14800 6.17500 26.21600
H  34.96200 7.00900 27.79900
H  35.67900 5.38800 27.77000
H  40.91300 9.50400 24.51900
H  43.62400 10.43900 24.98300
H  43.41600 8.13900 24.47400
H  41.92000 7.49600 23.76400
H  42.22100 7.09800 25.31400
H  42.11300 11.90300 23.86700
H  42.93000 12.66200 25.28000
H  40.28200 12.97600 24.74300
H  41.26700 13.04100 26.29700
H  40.15600 11.71300 25.87800
H  45.74400 13.00800 28.39900
H  46.59900 11.45900 28.25300
H  46.93500 12.55900 29.56800
H  43.67200 12.05000 34.04000
H  45.56700 9.02300 36.56600
H  46.77400 10.47400 36.91700
H  46.89800 9.41100 35.51000
Mg 1.73800 42.69300 26.04500
C  2.88900 43.00000 29.34200
C  -1.35600 41.57100 27.47400
C  0.44600 42.17000 22.90100
C  4.75100 43.58000 24.80400
N  0.90400 42.25000 28.17200
C  1.55900 42.60400 29.37400
C  0.68900 42.23400 30.53500
C  -0.70400 41.69000 29.90100
C  -0.37000 41.87400 28.39800
C  -1.20700 40.25600 30.28000
C  0.43500 43.51100 31.38800
C  0.60500 43.40400 32.88000
H  0.30200 42.07600 33.48100
N  -0.12300 41.85000 25.26100
C  -1.24500 41.47600 26.03200
C  -2.28400 41.02500 25.15500
C  -1.78500 41.21800 23.80100
C  -0.42200 41.77000 23.94700
C  -3.57500 40.54500 25.71400
C  -2.53800 41.00700 22.55600
O  -2.04700 41.28900 21.43300
C  -4.00400 40.61000 22.53700
N  2.51700 42.64900 24.14300
C  1.82800 42.62900 22.97900
C  2.66900 43.10200 21.74700
C  3.86900 43.77000 22.46500
C  3.73800 43.28600 23.88400
C  3.08300 41.95700 20.84200
C  3.65900 45.34000 22.31800
C  4.32400 45.97200 21.07700
N  3.51900 43.18300 26.85400
C  4.68700 43.52200 26.24700
C  5.76700 43.67100 27.20300
C  5.08700 43.52500 28.41300
C  3.70300 43.18200 28.16700
C  7.15100 44.25000 27.00800
C  5.21200 43.70800 29.85800
O  6.18400 44.07400 30.47400
C  3.84600 43.33000 30.50400
C  4.26400 42.12600 31.31600
O  4.93400 41.15300 30.86700
O  3.98500 42.24400 32.66300
C  4.50700 41.18400 33.49800
H  -2.30100 41.17800 27.85500
H  0.03400 42.22300 21.89100
H  5.70200 43.74000 24.29300
H  1.19400 41.48400 31.14400
H  -1.58500 42.27900 30.15800
H  -1.70600 40.32100 31.24700
H  -0.28800 39.69200 30.44100
H  -1.84000 39.88300 29.47600
H  -0.59000 43.85700 31.24700
H  1.05800 44.35600 31.09400
H  0.08600 44.16500 33.46300
H  1.64200 43.63200 33.12900
H  -3.62300 40.25200 26.76300
H  -3.75300 39.68300 25.07100
H  -4.32000 41.33400 25.62200
H  -4.50200 40.80600 21.58700
H  -4.47800 41.34300 23.18900
H  -4.02400 39.61600 22.98300
H  2.03100 43.75100 21.14700
H  4.78400 43.32900 22.06900
H  2.26100 41.38300 20.41400
H  3.79400 41.32600 21.37600
H  3.51800 42.45700 19.97800
H  4.04600 45.81400 23.22000
H  2.60100 45.58000 22.21300
H  4.90300 46.74600 21.58000
H  3.65800 46.31400 20.28400
H  4.94300 45.23400 20.56800
H  7.43700 44.90900 27.82700
H  7.02900 44.75400 26.04900
H  7.95500 43.54300 26.80200
H  3.42400 44.11300 31.13400
H  3.98800 40.26700 33.22000
H  4.24100 41.31100 34.54700
H  5.59600 41.13900 33.47300

