158

Mg 2.34500 -1.94200 44.07200
C  5.83300 -0.98300 43.90400
C  1.77600 0.91500 42.00600
C  -0.73500 -2.92300 43.70300
C  3.47100 -5.08500 45.30300
N  3.71600 -0.27200 42.96400
C  5.10000 -0.04900 43.16200
C  5.53300 1.19600 42.34200
C  4.20100 1.89700 41.90100
C  3.17200 0.76700 42.23600
C  3.83100 3.22800 42.67400
C  6.50400 0.97200 41.13600
C  6.04900 -0.03400 40.10700
H  5.46800 0.44400 38.72000
N  0.69300 -1.17500 42.95000
C  0.64300 0.01100 42.27900
C  -0.69900 0.16000 41.81500
C  -1.52200 -0.90400 42.32100
C  -0.52400 -1.77300 43.05200
C  -1.07000 1.42400 41.14600
C  -2.97200 -1.10300 42.26600
O  -3.62200 -0.30900 41.60600
C  -3.73000 -2.16300 43.03900
N  1.51800 -3.83800 44.43500
C  0.12300 -3.89800 44.32500
C  -0.28600 -5.35300 44.76200
C  1.00700 -6.00100 45.34900
C  2.04500 -4.94000 45.01900
C  -1.49100 -5.57300 45.65200
C  1.31700 -7.32500 44.66700
C  0.79400 -8.56400 45.16900
N  4.20700 -2.88300 44.60200
C  4.44500 -4.12000 45.11100
C  5.89400 -4.28000 45.39900
C  6.46900 -3.00200 45.03500
C  5.43100 -2.25700 44.48700
C  6.53600 -5.52800 45.93800
C  7.67400 -2.30600 44.88300
O  8.81800 -2.66300 45.09600
C  7.34700 -0.96600 44.10200
C  7.76800 0.24100 44.86000
O  7.34500 0.49600 45.97800
O  8.69500 0.89200 44.17400
C  9.06000 2.19800 44.72600
H  1.73100 1.82900 41.41000
H  -1.72900 -3.34300 43.53300
H  3.88800 -5.94800 45.82400
H  6.08500 1.85800 43.00900
H  4.26100 2.12900 40.83800
H  2.84800 3.19300 43.14400
H  3.86300 4.11100 42.03600
H  4.63700 3.32200 43.40200
H  7.45100 0.67100 41.58400
H  6.58700 1.94600 40.65400
H  5.31900 -0.76500 40.45500
H  6.89900 -0.64500 39.80400
H  -2.12600 1.33300 40.88900
H  -0.66600 1.39000 40.13400
H  -0.81000 2.27900 41.76900
H  -4.78500 -1.91400 43.14500
H  -3.31700 -2.01000 44.03600
H  -3.53600 -3.13300 42.58000
H  -0.45400 -5.77500 43.77100
H  0.90300 -6.06100 46.43200
H  -1.48400 -6.54200 46.15000
H  -2.38000 -5.53500 45.02300
H  -1.61800 -4.70100 46.29300
H  2.36200 -7.62700 44.74800
H  1.06900 -7.33300 43.60600
H  1.60900 -9.11600 45.63700
H  0.29100 -9.09600 44.36200
H  0.05800 -8.53900 45.97300
H  6.22300 -6.44000 45.42900
H  6.10400 -5.74100 46.91600
H  7.62400 -5.57500 46.00200
H  7.94500 -0.98100 43.19100
H  8.33100 2.77100 45.29800
H  9.40400 2.83000 43.90800
H  9.89300 2.03900 45.41200
Mg 35.06900 2.99500 29.88000
C  32.86200 4.28400 32.36500
C  37.31300 2.58600 32.13800
C  37.04900 1.88400 27.40700
C  32.43700 3.45600 27.59100
N  34.99400 3.40800 32.04800
C  34.03500 3.92800 32.88600
C  34.55200 3.76500 34.35800
C  36.07100 3.45100 34.24000
C  36.14500 3.12200 32.73400
C  37.11000 4.55800 34.52600
C  33.73300 2.69100 35.10000
C  33.30800 3.05800 36.54500
H  33.87200 4.25600 37.19500
N  36.90700 2.29300 29.75200
C  37.74500 2.19600 30.85500
C  38.90800 1.56800 30.51500
C  38.89400 1.35700 29.09900
C  37.59400 1.83900 28.69000
C  40.08100 1.22600 31.43300
C  39.98200 0.68000 28.28900
O  39.87200 0.51400 27.08200
C  41.28700 0.03300 28.92800
N  34.83100 2.83700 27.71700
C  35.82600 2.40800 26.89600
C  35.25500 2.32400 25.41800
C  33.71300 2.39500 25.64800
C  33.63000 2.95400 27.04100
C  35.75700 3.46700 24.45400
C  32.91900 1.05600 25.39900
C  33.10400 0.57600 23.94700
N  33.04200 3.75600 29.90300
C  32.08900 3.87500 28.83600
C  30.88000 4.40200 29.37300
C  31.11600 4.53600 30.76800
C  32.45300 4.15200 31.02300
C  29.55800 4.63900 28.59100
C  30.43100 4.90500 31.98800
O  29.33400 5.31700 32.28400
C  31.60300 4.73800 33.16100
C  31.54500 6.13800 33.75700
O  32.27400 7.07200 33.40700
O  30.72800 6.12300 34.88500
C  30.79100 7.22500 35.84200
H  38.17300 2.63800 32.80900
H  37.69000 1.56900 26.58100
H  31.65900 3.42300 26.82600
H  34.31800 4.73200 34.80300
H  36.28800 2.57600 34.85200
H  37.86400 4.13900 35.19300
H  36.54900 5.35600 35.01200
H  37.49500 4.95500 33.58600
H  34.27300 1.75000 35.21000
H  32.88100 2.38200 34.49400
H  33.52600 2.28100 37.27800
H  32.22700 3.18200 36.47700
H  40.34200 0.16900 31.40300
H  39.94500 1.51700 32.47400
H  40.97300 1.80900 31.20300
H  41.92500 0.75700 29.43400
H  41.93500 -0.49100 28.22500
H  41.01200 -0.70600 29.68100
H  35.52800 1.33400 25.05500
H  33.25300 3.19100 25.06200
H  34.98900 4.07300 23.97400
H  36.36100 3.06300 23.64200
H  36.37600 4.16900 25.01400
H  31.85200 1.17900 25.58200
H  33.28400 0.35000 26.14400
H  33.66500 1.35700 23.43300
H  32.22000 0.51100 23.31200
H  33.69000 -0.34200 23.99000
H  29.02500 3.70600 28.41000
H  29.75300 5.12500 27.63500
H  28.93100 5.34300 29.13900
H  31.34900 3.95400 33.87400
H  31.00000 6.70000 36.77300
H  29.82500 7.71900 35.94700
H  31.57400 7.97500 35.73200

