158

Mg 47.11500 25.59600 28.13300
C  48.10800 27.67100 30.68200
C  46.05000 23.37700 30.37800
C  46.60700 23.38200 25.58100
C  49.13900 27.45400 25.95700
N  46.97300 25.59700 30.29900
C  47.40300 26.60100 31.16700
C  47.08500 26.24700 32.64100
C  46.46900 24.85300 32.54400
C  46.48300 24.55400 30.94800
C  47.21500 23.78300 33.44000
C  46.11000 27.23200 33.29600
C  46.41000 27.83500 34.61900
H  45.41400 27.74100 35.77600
N  46.17300 23.76200 28.00600
C  45.82900 22.96400 29.08200
C  45.30900 21.66400 28.57800
C  45.39300 21.73900 27.11900
C  46.09900 22.99000 26.84400
C  44.73500 20.56000 29.50700
C  44.82100 20.83900 26.11600
O  44.88300 20.96100 24.87400
C  44.06700 19.68700 26.58800
N  47.77600 25.45400 26.06600
C  47.35200 24.52600 25.18700
C  47.93700 24.71300 23.76400
C  48.60000 26.12100 23.91600
C  48.52400 26.37900 25.41500
C  48.86400 23.53400 23.39300
C  47.92800 27.29600 23.13300
C  48.77900 28.02600 22.08300
N  48.29800 27.22200 28.25900
C  49.12300 27.83000 27.31400
C  49.72500 29.06200 27.90100
C  49.37700 28.94700 29.23000
C  48.49800 27.84700 29.40600
C  50.65000 29.97000 27.21000
C  49.64500 29.55000 30.49300
O  50.40100 30.47300 30.75300
C  48.83800 28.73200 31.52400
C  49.80700 28.18200 32.49100
O  50.58800 27.22800 32.33600
O  49.70100 28.82700 33.71300
C  50.32100 28.15900 34.91800
H  45.82600 22.58700 31.09800
H  46.51700 22.61800 24.80600
H  49.64000 28.14100 25.27200
H  48.07000 26.36400 33.09400
H  45.40200 24.82000 32.76200
H  47.60700 24.36800 34.27100
H  48.07300 23.43400 32.86400
H  46.57800 22.99500 33.84200
H  45.10500 26.81300 33.33900
H  45.98200 28.09000 32.63600
H  46.70600 28.88300 34.57400
H  47.30900 27.38800 35.04300
H  43.64600 20.57500 29.49300
H  45.08800 20.64100 30.53500
H  45.00400 19.56600 29.15000
H  44.94800 19.10900 26.86700
H  43.52400 19.18500 25.78800
H  43.37200 19.86800 27.40800
H  47.06500 24.69700 23.11000
H  49.63300 26.12700 23.56800
H  49.15500 23.09500 24.34700
H  49.76700 23.78300 22.83400
H  48.38200 22.76600 22.78800
H  47.52300 28.00300 23.85800
H  47.10100 26.91800 22.53200
H  48.32600 27.90000 21.09900
H  49.80700 27.66400 22.07400
H  48.82600 29.10400 22.24000
H  50.06400 30.45200 26.42700
H  51.47100 29.46600 26.70100
H  51.02900 30.54500 28.05500
H  48.11800 29.41300 31.97700
H  50.67500 27.16000 34.66200
H  49.51400 28.08300 35.64800
H  50.99600 28.80500 35.47800
Mg -12.32600 37.43400 42.46000
C  -10.16800 35.00800 41.41800
C  -10.21300 39.92500 40.93600
C  -14.71500 39.83800 43.11400
C  -14.65700 34.87500 43.31400
N  -10.46800 37.45000 41.23200
C  -9.72100 36.28700 40.99200
C  -8.46400 36.57600 40.22200
C  -8.44300 38.16600 40.16100
C  -9.80900 38.58800 40.77800
C  -7.25400 38.87300 40.90000
C  -8.54200 35.86200 38.76200
C  -7.45900 34.88300 38.39700
H  -6.54500 35.30000 37.18100
N  -12.45200 39.58500 42.08300
C  -11.43800 40.40700 41.49600
C  -11.87700 41.82100 41.58800
C  -13.26400 41.84400 42.07800
C  -13.52700 40.40400 42.47700
C  -11.00600 43.01600 41.21100
C  -14.33800 42.97400 42.02000
O  -13.92700 44.04800 41.55600
C  -15.72700 42.91400 42.64900
N  -14.40600 37.33800 43.13400
C  -15.11800 38.50400 43.34600
C  -16.52000 38.19000 43.84700
C  -16.50900 36.62800 43.73200
C  -15.11400 36.20900 43.36500
C  -16.96700 38.80300 45.17700
C  -17.56500 36.17000 42.54900
C  -18.66800 35.29500 43.00800
N  -12.40500 35.41400 42.43700
C  -13.40900 34.46000 42.91700
C  -12.84200 33.06800 42.73100
C  -11.54700 33.30900 42.24700
C  -11.36000 34.69400 42.10100
C  -13.52400 31.71200 43.13400
C  -10.41000 32.58300 41.81100
O  -10.26600 31.35900 41.75600
C  -9.34100 33.70800 41.33000
C  -8.09000 33.63700 42.16900
O  -7.00400 33.82000 41.64500
O  -8.19300 33.54200 43.49600
C  -7.08100 33.98700 44.34300
H  -9.52700 40.72000 40.63600
H  -15.50200 40.50800 43.46600
H  -15.36400 34.04800 43.22700
H  -7.61700 36.17300 40.77800
H  -8.63600 38.47600 39.13400
H  -7.44100 38.99000 41.96800
H  -6.94700 39.85400 40.53900
H  -6.36500 38.25900 40.75200
H  -8.40400 36.65500 38.02600
H  -9.50100 35.40100 38.52400
H  -7.86900 33.89100 38.20800
H  -6.81100 34.84800 39.27300
H  -10.01800 42.74400 41.58200
H  -11.30100 43.85100 41.84600
H  -10.81500 43.16800 40.14800
H  -16.24900 43.87200 42.64800
H  -15.51200 42.47600 43.62400
H  -16.33500 42.22900 42.05900
H  -17.25100 38.64000 43.17600
H  -16.68100 36.12000 44.68100
H  -16.16600 39.06700 45.86800
H  -17.72900 38.17500 45.63800
H  -17.55500 39.69900 44.97700
H  -17.02600 35.58500 41.80300
H  -18.08000 36.99500 42.05900
H  -18.50400 34.96000 44.03300
H  -18.69100 34.32600 42.50800
H  -19.62800 35.77500 42.82100
H  -13.25100 30.89500 42.46600
H  -14.60700 31.75800 43.24900
H  -13.04700 31.45600 44.08000
H  -9.21900 33.47700 40.27200
H  -7.34100 34.49600 45.27100
H  -6.27200 34.42800 43.76000
H  -6.67400 33.01800 44.63200

