158

Mg 1.76800 8.14900 25.71100
C  2.59500 10.10700 28.49300
C  1.94400 5.38100 27.73600
C  1.13100 6.22500 22.99400
C  2.31100 10.93300 23.69300
N  2.42800 7.76800 27.90800
C  2.42100 8.74600 28.84800
C  2.42700 8.11300 30.27500
C  2.49000 6.57700 29.99100
C  2.25800 6.56300 28.45300
C  3.74600 5.78700 30.42000
C  1.14100 8.71100 30.98900
C  1.14600 8.88800 32.50200
H  2.24500 8.23400 33.30500
N  1.53100 6.12900 25.41200
C  1.62000 5.17400 26.37300
C  1.34500 3.93400 25.80300
C  1.04200 4.07700 24.42500
C  1.22800 5.51900 24.22100
C  1.12000 2.62700 26.69900
C  0.61600 2.95400 23.36200
O  0.31400 3.14900 22.23100
C  0.57100 1.56200 23.81600
N  1.89500 8.50900 23.58900
C  1.36300 7.56300 22.68400
C  1.16700 8.18600 21.27400
C  1.47600 9.71500 21.50700
C  1.97800 9.78300 22.97700
C  2.02800 7.51700 20.24600
C  0.45600 10.74200 21.04500
C  -0.85000 10.79300 21.88300
N  2.28600 10.12300 25.96800
C  2.35100 11.11100 25.07900
C  2.47200 12.33100 25.79900
C  2.57700 12.02900 27.09900
C  2.44600 10.63800 27.18800
C  2.58000 13.71900 25.12100
C  2.74700 12.54200 28.45100
O  2.83400 13.67700 28.81800
C  2.65800 11.33700 29.38500
C  3.70900 11.25600 30.33400
O  4.92700 11.07900 30.10100
O  3.12100 11.49200 31.57400
C  4.11400 11.66900 32.58700
H  2.06400 4.47900 28.34000
H  0.77700 5.69700 22.10600
H  2.40200 11.90500 23.20300
H  3.30800 8.30900 30.88600
H  1.64500 6.04400 30.42700
H  4.16200 5.16300 29.62900
H  3.37200 5.16900 31.23600
H  4.51100 6.46900 30.79400
H  0.30400 8.07800 30.69500
H  0.71500 9.63600 30.60100
H  0.18900 8.46800 32.81100
H  1.15500 9.96900 32.64000
H  0.31800 1.94300 26.42200
H  0.89600 2.96100 27.71100
H  2.06100 2.07800 26.65800
H  1.37700 1.24000 24.47500
H  0.38800 0.84400 23.01700
H  -0.29000 1.53400 24.48500
H  0.11100 8.11300 21.01300
H  2.34200 9.82700 20.85500
H  1.51900 6.63300 19.86300
H  2.96600 7.19200 20.69700
H  2.22100 8.16500 19.39000
H  0.20900 10.45400 20.02300
H  0.93600 11.72100 21.04200
H  -0.85300 10.03900 22.67000
H  -1.62200 10.63100 21.13000
H  -1.04300 11.78100 22.30100
H  2.81000 13.61700 24.06000
H  3.44900 14.27500 25.47400
H  1.70800 14.32200 25.37200
H  1.70300 11.47900 29.89100
H  4.76400 12.49800 32.31000
H  4.72400 10.78100 32.75200
H  3.49600 11.92100 33.45000
Mg 26.06700 49.57200 26.64300
C  23.83500 51.00400 28.83100
C  28.26400 49.18000 29.11600
C  28.34200 48.78100 24.14200
C  23.88800 50.58600 23.97900
N  26.07600 50.26900 28.79800
C  24.95700 50.61900 29.52900
C  25.04100 50.36900 31.01200
C  26.62600 50.04400 31.07300
C  27.07100 49.75900 29.58000
C  27.50600 51.17900 31.77200
C  24.08600 49.25000 31.60600
C  23.85800 49.17400 33.24000
H  24.63900 50.15200 34.07300
N  27.98500 49.09400 26.63500
C  28.76000 48.97900 27.79000
C  30.04100 48.47300 27.36900
C  30.11600 48.48500 25.94700
C  28.79700 48.83400 25.55000
C  31.12600 48.11900 28.47500
C  31.35700 48.22800 24.99000
O  31.37700 48.44300 23.78400
C  32.64300 47.86000 25.63300
N  26.01400 49.43000 24.46000
C  27.05900 49.04200 23.66100
C  26.68400 48.94600 22.14600
C  25.29400 49.61700 22.10200
C  25.00100 49.87000 23.61900
C  27.70000 49.63300 21.13300
C  24.17300 48.79500 21.38200
C  23.23700 49.56600 20.39700
N  24.21400 50.45300 26.34800
C  23.47100 50.87100 25.23200
C  22.30500 51.50700 25.68200
C  22.31300 51.43600 27.06100
C  23.56200 50.88600 27.41300
C  21.26400 52.00800 24.79500
C  21.65200 51.84200 28.26200
O  20.59700 52.40700 28.39800
C  22.52700 51.46200 29.47200
C  22.86400 52.74100 30.32600
O  23.53500 53.72500 30.01000
O  22.26900 52.58000 31.62800
C  22.60700 53.66400 32.53500
H  28.94100 48.87600 29.91600
H  28.97100 48.44400 23.31500
H  23.21300 50.81400 23.15100
H  24.94600 51.26900 31.61900
H  26.93200 49.14400 31.60600
H  28.01200 50.78200 32.65200
H  26.87400 51.96400 32.18800
H  28.20500 51.58300 31.04100
H  24.62300 48.36400 31.26700
H  23.16400 49.49000 31.07600
H  23.98100 48.16600 33.63500
H  22.80400 49.45000 33.21500
H  32.05400 48.56500 28.11700
H  31.41700 47.07000 28.41500
H  31.02600 48.55900 29.46700
H  33.35800 47.32000 25.01200
H  32.34700 47.11300 26.37000
H  33.16400 48.72500 26.04400
H  26.66800 47.87200 21.96000
H  25.38700 50.60600 21.65300
H  28.40300 50.35600 21.54500
H  27.12100 50.10900 20.34100
H  28.24800 48.85900 20.59600
H  23.69000 48.26500 22.20200
H  24.70200 48.13500 20.69400
H  23.26700 50.65500 20.43800
H  22.20100 49.24000 20.48600
H  23.48400 49.36700 19.35400
H  21.14400 51.41100 23.89100
H  21.51800 53.04600 24.57600
H  20.26400 51.96600 25.22600
H  21.98300 50.59900 29.85700
H  22.90200 54.56100 31.99100
H  23.42800 53.38100 33.19400
H  21.72900 53.86900 33.14700

