158

Mg 24.57100 1.01000 29.01600
C  26.51700 0.83000 31.92900
C  21.77700 1.57600 31.11600
C  22.70900 1.05800 26.26100
C  27.42200 0.27200 27.08200
N  24.23700 0.99100 31.27000
C  25.19600 1.07500 32.20400
C  24.60900 1.43800 33.60700
C  23.08100 1.30700 33.33400
C  22.99700 1.28900 31.78000
C  22.34600 0.03900 33.99500
C  25.08400 2.85000 34.10400
C  24.68300 3.26400 35.48600
H  25.74500 3.61800 36.57700
N  22.52600 1.29400 28.76900
C  21.53300 1.47100 29.70200
C  20.26000 1.46500 29.00300
C  20.51400 1.16600 27.64400
C  21.95900 1.18300 27.54000
C  19.01100 1.73300 29.66300
C  19.47800 1.05400 26.50600
O  19.82400 0.96300 25.29600
C  17.98500 0.92700 26.73900
N  25.02700 0.72500 26.99400
C  24.10300 0.81100 26.02400
C  24.62200 0.76300 24.57600
C  26.18100 0.86100 24.86600
C  26.22100 0.53000 26.38600
C  24.12700 -0.55200 23.79600
C  26.83300 2.14700 24.45300
C  26.20000 3.42000 24.90100
N  26.54300 0.58000 29.31700
C  27.55500 0.28100 28.48500
C  28.78500 0.15900 29.25300
C  28.37700 0.36100 30.58400
C  27.01600 0.57700 30.60600
C  30.12900 -0.22900 28.64000
C  28.92500 0.46100 31.95800
O  30.07400 0.44600 32.38000
C  27.70300 0.82500 32.88800
C  27.58800 -0.21000 33.93200
O  27.55500 -1.45400 33.83600
O  27.67400 0.46300 35.12200
C  27.39400 -0.35900 36.34100
H  20.84800 1.79500 31.64700
H  22.21300 1.24900 25.30700
H  28.31200 0.15000 26.46200
H  24.74300 0.72400 34.41900
H  22.48700 2.18000 33.60600
H  23.01200 -0.62200 34.55000
H  21.92100 -0.60300 33.22300
H  21.50500 0.26900 34.64900
H  24.64000 3.63300 33.48900
H  26.14000 3.03800 33.91300
H  24.05600 2.49200 35.93200
H  24.17400 4.22700 35.44200
H  18.37200 0.85400 29.75100
H  18.53700 2.54300 29.10900
H  19.06300 2.24000 30.62700
H  17.51700 0.99800 25.75700
H  17.57900 1.67800 27.41700
H  17.77000 -0.10500 27.01700
H  24.18700 1.64700 24.11000
H  26.79700 0.03600 24.50700
H  23.78300 -0.28800 22.79600
H  23.27600 -1.01900 24.29200
H  24.87600 -1.33700 23.68600
H  26.68000 2.21400 23.37600
H  27.90700 2.15800 24.63600
H  25.62400 3.87100 24.09300
H  27.04500 3.96900 25.31700
H  25.56900 3.24700 25.77200
H  30.09700 -0.46300 27.57600
H  30.62500 -0.98100 29.25500
H  30.69900 0.69300 28.75400
H  27.77900 1.83400 33.29500
H  26.43100 -0.85900 36.23500
H  27.46100 0.19600 37.27700
H  28.18500 -1.10200 36.23300
Mg 49.54600 46.36000 43.08300
C  46.40600 47.02900 41.57500
C  49.49900 43.30200 41.26200
C  52.75700 46.06400 43.70200
C  49.51900 49.70500 44.26600
N  48.18000 45.37000 41.44700
C  46.91200 45.81200 41.07200
C  46.26900 44.86300 40.07400
C  47.14300 43.54300 40.27000
C  48.38500 44.09800 41.06000
C  46.48700 42.40100 40.99000
C  46.36600 45.47700 38.62800
C  45.22100 44.90300 37.70100
H  45.69300 44.34900 36.32400
N  50.99500 44.87300 42.64600
C  50.70600 43.65800 41.97600
C  51.96600 42.91500 41.97100
C  52.96900 43.64500 42.63300
C  52.27700 44.92500 43.01400
C  52.16200 41.62300 41.31500
C  54.48300 43.27300 42.86400
O  54.95800 42.18700 42.55100
C  55.37000 44.21400 43.55200
N  50.94100 47.76700 43.62300
C  52.15600 47.31500 43.92300
C  53.05700 48.50400 44.49300
C  52.02400 49.65000 44.78000
C  50.76100 49.01900 44.22300
C  53.95800 48.14400 45.73000
C  52.40300 51.08800 44.09300
C  52.11900 52.35400 44.99500
N  48.16900 47.97500 43.19400
C  48.31000 49.23300 43.72800
C  46.95600 49.82400 43.66000
C  46.20300 49.01800 42.87700
C  46.96500 47.90400 42.53100
C  46.48700 51.18200 44.08500
C  44.87200 48.92200 42.25600
O  43.91700 49.70300 42.27300
C  44.96000 47.58300 41.32700
C  43.96400 46.72300 41.92600
O  44.17600 45.93200 42.86400
O  42.77700 46.96200 41.38000
C  41.67900 46.04000 41.73200
H  49.57200 42.29600 40.84300
H  53.80500 46.06200 44.01200
H  49.48300 50.64200 44.82600
H  45.24000 44.67500 40.38100
H  47.41500 43.18900 39.27500
H  46.06400 41.60000 40.38400
H  45.79300 42.73100 41.76300
H  47.10800 41.94200 41.76000
H  47.29500 45.32500 38.07800
H  46.19000 46.55300 38.61700
H  44.42600 45.63200 37.54900
H  44.89800 43.93600 38.08700
H  52.71000 40.94400 41.96700
H  52.76900 41.93600 40.46500
H  51.38500 41.07400 40.78300
H  55.02200 44.28800 44.58200
H  55.44100 45.21300 43.12200
H  56.39700 43.85900 43.63800
H  53.69200 49.04200 43.78900
H  51.89900 49.73400 45.85900
H  53.93300 47.08600 45.99200
H  53.67000 48.72500 46.60600
H  54.96900 48.45100 45.46300
H  51.74300 51.24300 43.24000
H  53.41900 51.17900 43.70900
H  53.10400 52.61700 45.38100
H  51.57000 52.01700 45.87500
H  51.58800 53.14500 44.46700
H  45.64200 51.43700 43.44600
H  47.27300 51.93700 44.04600
H  46.05600 51.00500 45.07100
H  44.83900 47.86200 40.28000
H  40.74100 46.36000 41.27900
H  41.45800 46.18700 42.78900
H  41.87000 44.99800 41.47800

