158

Mg 48.28100 44.83100 43.49000
C  44.82600 45.30200 42.36000
C  48.10600 41.69900 41.90300
C  51.64800 44.66800 43.60000
C  48.28700 48.24800 44.36400
N  46.54900 43.63000 42.19600
C  45.25700 44.02400 41.94300
C  44.60200 42.89400 41.13600
C  45.53300 41.65300 41.45200
C  46.80200 42.32500 41.94700
C  45.00500 40.46400 42.37900
C  44.31900 43.31300 39.63500
C  43.58400 42.34300 38.74400
H  44.28700 41.66300 37.57600
N  49.76800 43.35700 42.89600
C  49.44600 42.17700 42.22600
C  50.67200 41.46800 42.08200
C  51.70800 42.27000 42.56700
C  51.07700 43.47000 43.04500
C  50.70100 39.96400 41.44400
C  53.19300 41.97400 42.63100
O  53.57500 40.98200 42.14000
C  54.13500 42.89900 43.17800
N  49.80400 46.32600 43.81300
C  51.10800 45.97000 43.91400
C  51.93400 47.16000 44.41600
C  50.84900 48.24100 44.90300
C  49.53300 47.61900 44.25200
C  52.91300 46.79400 45.53800
C  51.19600 49.65100 44.50700
C  51.48200 50.71900 45.54500
N  46.85000 46.41000 43.49400
C  46.99400 47.67300 43.97800
C  45.73000 48.45900 43.82500
C  44.85300 47.57400 43.22600
C  45.59500 46.33200 43.02200
C  45.47700 49.91500 44.32400
C  43.49900 47.34700 42.74400
O  42.47900 48.07800 42.69700
C  43.44300 45.90300 42.06500
C  42.17900 45.13300 42.43200
O  41.20200 44.91100 41.70100
O  42.24900 44.93400 43.78600
C  41.06300 44.48200 44.51100
H  48.06900 40.63600 41.65400
H  52.72300 44.62600 43.78500
H  48.28400 49.27000 44.74800
H  43.66000 42.62600 41.61500
H  45.87000 41.28200 40.48400
H  43.95400 40.52000 42.66400
H  45.66600 40.38700 43.24200
H  45.25700 39.49700 41.94300
H  45.29500 43.58500 39.23600
H  43.76600 44.25100 39.68100
H  42.70600 42.80900 38.29500
H  43.12000 41.60300 39.39500
H  49.86400 39.65400 40.81900
H  50.91600 39.19200 42.18300
H  51.51900 39.75900 40.75300
H  55.13600 42.48100 43.06400
H  53.89300 42.95900 44.23900
H  54.19200 43.83000 42.61400
H  52.42800 47.59700 43.54800
H  50.68100 48.09600 45.97000
H  53.90500 46.48400 45.20900
H  52.51100 45.95600 46.10700
H  53.10300 47.56500 46.28500
H  50.35300 50.01000 43.91500
H  52.12300 49.64200 43.93400
H  51.45400 50.27500 46.54000
H  50.67900 51.45200 45.46900
H  52.44500 51.14600 45.26200
H  46.21500 50.27400 45.04200
H  44.47300 49.84600 44.74300
H  45.30800 50.57900 43.47600
H  43.30300 46.21200 41.03000
H  40.37100 45.28400 44.76800
H  41.36300 43.91600 45.39300
H  40.48700 43.77700 43.91200
Mg -6.14900 25.85800 26.21800
C  -4.26300 27.30500 28.80200
C  -7.51100 23.76200 28.33500
C  -7.42600 24.48500 23.47000
C  -4.03400 27.92100 24.03100
N  -5.81300 25.51800 28.31000
C  -5.07900 26.26900 29.19600
C  -5.42300 25.87800 30.67200
C  -6.27300 24.50600 30.44900
C  -6.55600 24.61100 28.90500
C  -5.45900 23.34400 30.97100
C  -6.21200 27.05900 31.39800
C  -5.91500 27.26500 32.87100
H  -5.38500 26.12400 33.76700
N  -7.48000 24.34000 25.96100
C  -7.93500 23.59300 26.96300
C  -8.88400 22.62200 26.44900
C  -8.91600 22.84300 24.98100
C  -7.98400 23.97200 24.77000
C  -9.64700 21.54300 27.30900
C  -9.73500 22.20200 23.89100
O  -9.71600 22.57200 22.75000
C  -10.67800 21.15800 24.37500
N  -5.69800 26.13800 24.05000
C  -6.48200 25.40500 23.13500
C  -6.00600 25.61000 21.69000
C  -5.02500 26.84500 21.88200
C  -4.89500 27.02200 23.40400
C  -5.45500 24.38600 20.95500
C  -5.64900 28.06900 21.11800
C  -5.70500 27.93000 19.61700
N  -4.50600 27.29800 26.31300
C  -3.82100 28.07500 25.41400
C  -2.91000 29.01300 26.07400
C  -3.08500 28.75100 27.41600
C  -4.00000 27.66400 27.49400
C  -1.92100 29.93200 25.26200
C  -2.61500 29.11500 28.72200
O  -1.74700 29.85000 29.10500
C  -3.35400 28.14600 29.73200
C  -2.41400 27.28400 30.45100
O  -1.78800 26.33800 29.95800
O  -2.32800 27.71700 31.69900
C  -1.40900 27.17200 32.72700
H  -7.82600 23.03800 29.08900
H  -7.79300 23.93100 22.60300
H  -3.50800 28.64200 23.40200
H  -4.57200 25.65100 31.31500
H  -7.24300 24.62800 30.93200
H  -5.01300 22.71500 30.20100
H  -6.23500 22.86000 31.56300
H  -4.67300 23.57700 31.69000
H  -7.28900 26.91000 31.31400
H  -6.01500 28.00300 30.88900
H  -6.84700 27.64200 33.29200
H  -5.22300 28.10000 32.97600
H  -10.69300 21.37900 27.05000
H  -9.58000 21.80100 28.36600
H  -9.05000 20.63200 27.28600
H  -10.30000 20.27500 24.89000
H  -11.17200 20.79000 23.47700
H  -11.47500 21.60600 24.96800
H  -6.87600 26.04300 21.19600
H  -4.00500 26.61200 21.57600
H  -5.57900 23.50900 21.59000
H  -4.43000 24.49900 20.60300
H  -6.01500 24.21100 20.03600
H  -4.98600 28.93400 21.13200
H  -6.60800 28.43600 21.48400
H  -5.26100 26.96300 19.37900
H  -5.25700 28.74600 19.05100
H  -6.75700 27.93700 19.33200
H  -2.33400 30.93900 25.20200
H  -1.60700 29.41500 24.35500
H  -1.00400 30.14000 25.81300
H  -3.96900 28.74800 30.40200
H  -1.74400 27.06600 33.75800
H  -0.50700 27.78500 32.73100
H  -1.18800 26.12700 32.51000

