158

Mg 24.26400 -4.82800 45.38900
C  26.29800 -2.38600 43.88200
C  21.72300 -3.82800 43.30600
C  22.45700 -7.47400 46.46300
C  27.12300 -5.86200 47.11600
N  24.07300 -3.29000 43.88700
C  24.99200 -2.44300 43.36600
C  24.52700 -1.75700 42.09300
C  22.98200 -1.90400 42.11500
C  22.91400 -3.05500 43.21000
C  22.14500 -0.68800 42.53800
C  25.14900 -2.30700 40.80300
C  25.69300 -1.21600 39.86800
H  25.22200 -1.25100 38.39900
N  22.31100 -5.48800 44.97000
C  21.40300 -4.92800 44.05400
C  20.22100 -5.76000 44.02100
C  20.40800 -6.82800 44.93600
C  21.78300 -6.61600 45.53400
C  19.01300 -5.28100 43.31500
C  19.34600 -7.88000 45.31500
O  18.17800 -7.85300 44.88900
C  19.53500 -9.01900 46.21600
N  24.84500 -6.49900 46.48000
C  23.82000 -7.39200 46.84400
C  24.45500 -8.42800 47.86400
C  25.93700 -7.96400 48.08200
C  26.00200 -6.65200 47.23600
C  23.60900 -8.42800 49.15600
C  27.07000 -8.95800 47.72500
C  27.87600 -9.35600 48.94900
N  26.40200 -4.29700 45.43900
C  27.32500 -4.76900 46.23000
C  28.57900 -4.05300 45.92500
C  28.28800 -3.08500 44.97800
C  26.89200 -3.26500 44.77800
C  29.93200 -4.25100 46.55900
C  28.69100 -1.96600 44.20100
O  29.79500 -1.42100 44.06200
C  27.40400 -1.41200 43.42700
C  27.21400 0.07700 43.74800
O  26.34000 0.50000 44.48700
O  28.01600 0.80900 42.88200
C  27.69800 2.24500 42.55400
H  20.93100 -3.46900 42.64500
H  22.03600 -8.42900 46.78400
H  28.00500 -6.24600 47.63400
H  24.71200 -0.68400 42.14900
H  22.61100 -2.25700 41.15200
H  22.78800 0.17100 42.73000
H  21.50000 -0.85500 43.40100
H  21.43800 -0.22900 41.84600
H  24.39800 -2.77200 40.16500
H  25.85500 -3.11400 41.00000
H  26.78200 -1.17600 39.87900
H  25.47000 -0.17200 40.08900
H  18.86300 -5.81200 42.37400
H  19.01600 -4.22300 43.05400
H  18.21600 -5.40700 44.04700
H  20.38000 -9.64600 45.93100
H  18.64900 -9.65100 46.26900
H  19.65800 -8.77300 47.27000
H  24.36700 -9.41700 47.41300
H  25.97500 -7.62200 49.11600
H  22.73900 -7.77200 49.12900
H  24.16300 -8.01200 49.99800
H  23.27400 -9.36300 49.60600
H  27.72400 -8.55600 46.95100
H  26.49700 -9.80100 47.33800
H  27.31300 -10.00900 49.61600
H  28.15100 -8.49900 49.56400
H  28.76300 -9.87800 48.59300
H  30.31200 -5.22400 46.24800
H  29.91700 -4.29700 47.64800
H  30.71200 -3.55400 46.25200
H  27.63700 -1.38600 42.36300
H  27.82100 2.73400 43.52000
H  26.78700 2.56600 42.04800
H  28.56300 2.55200 41.96500
Mg 16.59700 -1.35400 27.70800
C  15.90400 0.58400 30.58800
C  19.08900 -2.95800 29.43900
C  17.70900 -2.79600 24.75200
C  14.65000 0.89300 25.82100
N  17.40700 -1.28700 29.91700
C  16.95200 -0.41400 30.89500
C  17.69100 -0.77600 32.21400
C  18.83000 -1.86400 31.72800
C  18.39000 -2.10300 30.30000
C  20.26300 -1.34100 31.93400
C  16.78000 -1.17100 33.49900
C  16.82000 -0.23700 34.69800
H  18.15900 -0.14300 35.37400
N  17.99700 -2.88200 27.24700
C  18.87000 -3.38300 28.12400
C  19.59800 -4.54600 27.47400
C  19.20200 -4.52100 26.08500
C  18.25800 -3.37200 25.97100
C  20.39400 -5.57400 28.15900
C  19.46800 -5.47700 24.93900
O  18.93600 -5.40600 23.84700
C  20.34400 -6.68500 25.18700
N  16.29700 -0.93300 25.63600
C  16.83000 -1.68900 24.65900
C  16.21300 -1.36300 23.32300
C  15.01600 -0.42600 23.72000
C  15.26600 -0.15400 25.19100
C  17.29600 -0.71900 22.36500
C  13.57100 -0.98600 23.42700
C  12.75600 -0.34500 22.30700
N  15.45800 0.38400 28.05500
C  14.66700 1.12700 27.15800
C  13.93000 2.07200 27.94900
C  14.32700 1.84100 29.24800
C  15.27400 0.85600 29.28400
C  12.82800 3.07900 27.52200
C  14.07500 2.29200 30.56700
O  13.26300 3.08300 30.98800
C  15.10300 1.55100 31.58300
C  15.99400 2.60600 32.19900
O  17.07300 2.95100 31.74000
O  15.39600 3.07300 33.32500
C  16.15400 4.01000 34.17800
H  19.93500 -3.45200 29.92100
H  17.95500 -3.33800 23.83600
H  13.98100 1.55600 25.26900
H  18.14500 0.16100 32.53800
H  18.79500 -2.82300 32.24500
H  20.21800 -0.41100 32.50000
H  20.55900 -1.09500 30.91400
H  20.96100 -2.10900 32.27000
H  17.09100 -2.18700 33.74200
H  15.72000 -1.06600 33.26400
H  15.98100 -0.50500 35.34200
H  16.63600 0.77700 34.34300
H  21.37800 -5.68800 27.70400
H  20.02500 -6.57200 27.92400
H  20.42200 -5.60100 29.24800
H  20.44600 -7.37500 24.34900
H  19.86200 -7.23800 25.99300
H  21.36700 -6.47600 25.49800
H  15.91600 -2.30300 22.85800
H  15.06300 0.46400 23.09200
H  18.27900 -0.94100 22.78100
H  17.17800 0.35800 22.47700
H  17.23200 -1.15600 21.36800
H  12.96000 -0.93500 24.32800
H  13.50900 -2.05900 23.24500
H  11.97500 -0.96600 21.86800
H  13.49300 -0.05600 21.55800
H  12.37600 0.61700 22.65100
H  13.03800 3.59900 26.58800
H  12.61200 3.76400 28.34200
H  11.89900 2.53400 27.35500
H  14.54000 1.05600 32.37400
H  15.70900 3.91700 35.16900
H  16.08600 5.03700 33.82100
H  17.21300 3.78000 34.29300

