158

Mg 26.35300 0.86700 29.17300
C  28.16700 0.73800 32.22000
C  23.42700 1.15700 31.09200
C  24.51300 0.86200 26.24700
C  29.22400 -0.05900 27.46200
N  25.83400 1.03900 31.48500
C  26.80600 0.94400 32.52000
C  26.01500 1.01000 33.85400
C  24.49000 1.07300 33.44500
C  24.57600 1.08300 31.88000
C  23.56600 -0.08600 33.96500
C  26.38000 2.23900 34.74100
C  25.68100 2.52700 36.05300
H  26.51700 2.76100 37.33800
N  24.30600 1.03900 28.70200
C  23.30400 1.23600 29.65400
C  22.04100 1.41300 28.91200
C  22.36400 1.24700 27.51600
C  23.79700 1.09200 27.42900
C  20.67300 1.48700 29.64400
C  21.40400 1.29500 26.31100
O  21.71800 1.09500 25.15500
C  20.07300 1.76700 26.54100
N  26.73500 0.22200 27.20000
C  25.88100 0.47300 26.19600
C  26.51800 0.17600 24.85700
C  28.00800 -0.14300 25.23300
C  28.03700 0.07100 26.72700
C  25.84800 -0.94100 24.13900
C  28.99700 0.73300 24.51600
C  29.49900 0.35000 23.09800
N  28.29200 0.51100 29.68000
C  29.37800 0.11500 28.89200
C  30.60000 -0.09900 29.67600
C  30.10200 0.14200 30.98300
C  28.75000 0.52600 30.94500
C  31.91700 -0.63500 29.12800
C  30.50400 0.25500 32.36400
O  31.60800 0.13200 32.83500
C  29.24800 0.55600 33.21100
C  28.97600 -0.54100 34.18000
O  28.19400 -1.48700 34.03900
O  29.47500 -0.13800 35.36700
C  29.22300 -1.03100 36.52100
H  22.51100 1.24500 31.67900
H  24.01000 0.87800 25.27800
H  30.12500 -0.32500 26.90400
H  26.24700 0.10200 34.41200
H  24.06600 2.04000 33.71700
H  22.98200 -0.63600 33.22700
H  22.84900 0.31500 34.68200
H  24.18500 -0.86700 34.40600
H  26.33800 3.11800 34.09800
H  27.42600 2.15800 35.03800
H  25.06300 1.63700 36.17100
H  25.06700 3.42000 35.93100
H  20.03200 0.65500 29.35600
H  20.03100 2.29400 29.28900
H  20.70700 1.51600 30.73400
H  19.60300 1.98200 25.58100
H  20.16500 2.64100 27.18500
H  19.56300 0.94500 27.04300
H  26.24200 1.04700 24.26300
H  28.16900 -1.21400 25.10900
H  25.32200 -1.53000 24.89100
H  26.53600 -1.61700 23.63100
H  25.13100 -0.60900 23.38800
H  29.92600 0.92400 25.05300
H  28.52400 1.70800 24.39400
H  30.57300 0.53400 23.05600
H  29.00600 0.99100 22.36700
H  29.49000 -0.72400 22.91100
H  31.76100 -1.40300 28.37100
H  32.37500 -1.08300 30.01000
H  32.46600 0.22500 28.74400
H  29.26700 1.49300 33.76900
H  29.42500 -2.05100 36.19700
H  28.30800 -0.85500 37.08700
H  29.92600 -0.88100 37.34100
Mg 47.79800 24.52200 27.41200
C  48.94300 26.69200 29.82800
C  47.63000 22.06800 29.93400
C  47.02100 22.19600 25.08600
C  49.05700 26.57100 24.96700
N  48.07600 24.51500 29.69000
C  48.52000 25.52000 30.46800
C  48.38600 25.14600 31.98200
C  48.11600 23.61100 31.94000
C  47.92900 23.35200 30.47400
C  49.19500 22.70300 32.50900
C  47.27900 25.95400 32.72600
C  47.70700 26.56900 34.14200
H  46.68100 26.33800 35.37500
N  47.26200 22.47600 27.54500
C  47.25300 21.62600 28.63300
C  46.80900 20.32200 28.28600
C  46.36300 20.39600 26.91200
C  46.83600 21.73800 26.43400
C  46.96100 19.20700 29.30000
C  45.68200 19.39000 26.06000
O  45.46500 19.67500 24.86700
C  45.17600 18.00300 26.56100
N  48.27100 24.24600 25.22400
C  47.54700 23.31300 24.52100
C  47.76800 23.51500 23.00700
C  48.25300 25.01900 23.00000
C  48.58900 25.31000 24.45700
C  48.77000 22.47600 22.45000
C  47.20700 26.09700 22.48100
C  47.49800 26.49200 21.07500
N  48.58700 26.36800 27.30600
C  49.01100 27.07100 26.24600
C  49.62500 28.34500 26.72500
C  49.46800 28.26600 28.14500
C  48.92500 27.00300 28.42400
C  50.16100 29.40500 25.82700
C  49.62800 28.92200 29.38900
O  50.11000 29.99400 29.68300
C  49.22200 27.99700 30.53100
C  50.26300 27.92800 31.59900
O  51.34300 27.41500 31.57300
O  49.91400 28.82500 32.57700
C  50.70800 28.90400 33.82400
H  47.41600 21.49400 30.83800
H  46.80400 21.40100 24.36900
H  49.37400 27.28500 24.20400
H  49.36600 25.35900 32.40700
H  47.23600 23.35000 32.52900
H  49.83200 22.35300 31.69700
H  48.64100 21.91200 33.01400
H  49.77400 23.15900 33.31300
H  46.40400 25.33100 32.91400
H  46.95300 26.78500 32.10200
H  47.68600 27.65000 34.00700
H  48.72400 26.31800 34.44400
H  46.01200 18.99100 29.79200
H  47.71100 19.52000 30.02600
H  47.38300 18.33600 28.79800
H  45.93300 17.23000 26.69200
H  44.55500 17.65500 25.73600
H  44.58700 18.33100 27.41700
H  46.79800 23.39900 22.52300
H  49.19800 25.11800 22.46500
H  48.54100 22.39400 21.38700
H  48.70000 21.52200 22.97200
H  49.77500 22.78500 22.73600
H  47.26700 26.98600 23.10900
H  46.17300 25.75600 22.53800
H  48.31600 26.04100 20.51300
H  47.57800 27.57800 21.01400
H  46.64700 26.15400 20.48300
H  49.46400 29.67000 25.03200
H  51.05200 29.06400 25.30100
H  50.38800 30.22200 26.51200
H  48.32100 28.42000 30.97600
H  50.02100 29.01300 34.66300
H  51.08000 29.92800 33.81500
H  51.51500 28.20200 34.03500

