158

Mg 46.87500 25.54700 27.38400
C  47.62400 27.46100 30.23800
C  46.66400 22.77400 29.46300
C  46.46600 23.55500 24.69200
C  47.85700 28.12600 25.31900
N  47.09800 25.17300 29.66000
C  47.28100 26.14000 30.58800
C  47.17800 25.53700 32.00000
C  46.97600 23.98600 31.69700
C  47.03200 23.93200 30.18900
C  47.97600 22.99200 32.35500
C  46.08900 26.21300 32.91300
C  46.64400 26.84300 34.22700
H  45.59200 27.50700 35.14600
N  46.44500 23.50600 27.15500
C  46.39000 22.50500 28.13400
C  46.05600 21.21400 27.44700
C  46.01100 21.51600 26.04700
C  46.33400 22.91500 25.91400
C  46.09900 19.83900 28.12100
C  45.76400 20.54800 24.94500
O  45.95500 20.85400 23.74000
C  45.21500 19.18200 25.20700
N  46.90000 25.91000 25.29300
C  46.74700 24.94400 24.35900
C  46.79300 25.44700 22.91100
C  47.35800 26.94000 23.11400
C  47.34100 27.07700 24.66000
C  47.72200 24.66800 21.89700
C  46.36600 27.95600 22.41900
C  46.33400 27.80600 20.93500
N  47.55500 27.38900 27.69600
C  47.92800 28.37100 26.72100
C  48.25500 29.61200 27.38700
C  48.21500 29.26500 28.78800
C  47.72300 27.94200 28.88900
C  48.64400 30.84200 26.69500
C  48.47600 29.74700 30.11800
O  48.77900 30.82600 30.38100
C  48.00000 28.65700 31.16400
C  49.17100 28.38200 32.04800
O  50.07100 27.66200 31.77500
O  49.09600 29.15600 33.14300
C  50.10900 28.94600 34.23100
H  46.62400 21.85700 30.05400
H  46.32100 22.99600 23.76500
H  47.94100 28.96500 24.62600
H  48.13100 25.61500 32.52300
H  46.03500 23.79700 32.21400
H  47.42700 22.37700 33.06900
H  48.77500 23.54800 32.84500
H  48.52800 22.30700 31.71100
H  45.20100 25.62800 33.15300
H  45.77200 27.06100 32.30600
H  47.33900 27.65100 34.00000
H  47.24100 26.05400 34.68500
H  45.13600 19.34800 27.98000
H  46.16100 19.97800 29.20000
H  46.97300 19.28500 27.78100
H  45.95600 18.69400 25.84000
H  45.16100 18.69100 24.23600
H  44.22400 19.19200 25.66100
H  45.80400 25.62400 22.49000
H  48.36500 27.04400 22.71000
H  47.14500 24.20400 21.09600
H  48.29900 23.94900 22.47900
H  48.43100 25.32100 21.38800
H  46.66100 28.95800 22.73000
H  45.33400 27.88200 22.76100
H  47.06200 27.08300 20.56700
H  46.60800 28.75800 20.48000
H  45.33900 27.67800 20.50900
H  48.19400 31.73900 27.11800
H  48.34100 30.75300 25.65100
H  49.73100 30.89700 26.76400
H  47.12300 29.09300 31.64200
H  50.02700 27.87700 34.42400
H  49.94600 29.43700 35.19000
H  51.07600 29.26700 33.84300
Mg -11.01100 17.19700 41.24600
C  -7.47300 16.75900 41.60400
C  -10.30600 20.43800 40.67600
C  -14.11400 17.50500 40.47400
C  -11.26300 13.59000 41.44900
N  -9.10600 18.44300 41.09900
C  -7.80900 18.12600 41.34800
C  -6.84800 19.35500 41.21000
C  -7.86000 20.51900 41.44400
C  -9.20100 19.78500 41.01100
C  -7.95100 21.01500 42.93900
C  -6.15100 19.42700 39.78500
C  -4.68700 19.28700 39.83700
H  -4.10600 18.47200 38.68100
N  -12.09100 18.73100 40.51700
C  -11.60300 19.99000 40.38100
C  -12.71800 20.79100 39.95900
C  -13.90400 20.05900 39.86800
C  -13.44400 18.72800 40.31300
C  -12.54600 22.26100 39.67200
C  -15.29100 20.47100 39.37100
O  -15.55500 21.61000 38.97200
C  -16.47200 19.52200 39.47900
N  -12.34900 15.68400 40.75600
C  -13.63500 16.22800 40.80100
C  -14.61700 15.07900 40.90000
C  -13.79500 13.80900 41.20900
C  -12.34700 14.34700 41.15500
C  -15.81100 15.33800 41.81800
C  -14.01700 12.61000 40.18400
C  -14.70500 11.31200 40.67700
N  -9.73700 15.48900 41.61800
C  -10.01200 14.14200 41.64100
C  -8.77100 13.44300 41.93200
C  -7.68900 14.37400 41.96000
C  -8.34100 15.61800 41.73700
C  -8.75700 11.85900 42.19200
C  -6.28500 14.63700 42.17100
O  -5.37200 13.89000 42.48300
C  -6.06300 16.18200 41.89200
C  -5.36600 16.71200 43.13800
O  -4.14900 16.98700 43.21500
O  -6.18100 16.72800 44.26600
C  -5.61700 16.92500 45.58300
H  -10.11700 21.51100 40.76200
H  -15.18400 17.45100 40.26400
H  -11.56700 12.55000 41.59000
H  -6.17000 19.18800 42.04700
H  -7.46300 21.33300 40.83700
H  -7.38100 20.25900 43.48000
H  -8.96700 21.15700 43.30700
H  -7.43900 21.96000 43.11500
H  -6.25000 20.44900 39.42200
H  -6.49900 18.75300 39.00200
H  -4.32000 18.81100 40.74500
H  -4.09400 20.19600 39.93500
H  -12.28000 22.30100 38.61500
H  -11.75500 22.72700 40.25900
H  -13.50900 22.75300 39.80800
H  -16.31000 18.61200 38.90200
H  -17.31100 20.03500 39.00800
H  -16.55100 19.33400 40.55000
H  -15.17000 15.13200 39.96200
H  -13.96900 13.52100 42.24600
H  -16.24000 14.33600 41.82000
H  -16.48600 16.05800 41.35700
H  -15.54000 15.85700 42.73800
H  -13.07500 12.26600 39.75700
H  -14.56700 13.01700 39.33500
H  -14.70000 11.34600 41.76700
H  -14.10600 10.42700 40.46400
H  -15.77100 11.28000 40.45200
H  -8.35400 11.29400 41.35100
H  -9.71700 11.45900 42.51600
H  -8.04100 11.67600 42.99300
H  -5.29200 16.25400 41.12500
H  -6.41000 16.91300 46.33200
H  -5.27300 17.95900 45.57800
H  -4.84600 16.16800 45.72600

