158

Mg 0.05100 6.89300 26.79700
C  1.22200 9.35500 29.14800
C  0.05000 4.58100 29.31200
C  -0.60800 4.65400 24.49400
C  0.44300 9.35400 24.25400
N  0.65000 6.97500 28.95000
C  0.89400 8.09000 29.68000
C  0.88800 7.73100 31.15200
C  0.84100 6.15800 31.19300
C  0.49300 5.86100 29.72200
C  2.08200 5.45200 31.67800
C  -0.42300 8.38600 31.78500
C  -0.42800 8.29800 33.34000
H  0.81300 7.91000 34.16400
N  -0.36600 4.83600 26.89700
C  -0.27100 4.12300 28.01100
C  -0.63800 2.78300 27.73200
C  -0.86800 2.71700 26.28500
C  -0.53700 4.11000 25.81900
C  -0.70500 1.73400 28.78400
C  -1.21800 1.58000 25.44500
O  -1.21300 1.63700 24.17200
C  -1.52600 0.20600 26.03300
N  -0.02900 7.02600 24.65600
C  -0.44300 5.95800 23.98400
C  -0.58900 6.30200 22.52800
C  -0.35900 7.80600 22.36100
C  0.04600 8.13500 23.82200
C  0.26100 5.36200 21.63100
C  -1.64400 8.66100 21.94600
C  -1.33400 10.00400 21.28100
N  0.79300 8.83500 26.64300
C  0.88400 9.73500 25.54100
C  1.33400 11.05000 26.02000
C  1.41900 10.93600 27.39700
C  1.11000 9.58700 27.74200
C  1.49900 12.37300 25.20600
C  1.80800 11.64000 28.62400
O  2.27400 12.76900 28.79400
C  1.69200 10.59200 29.76000
C  2.92400 10.65600 30.56100
O  3.94800 10.03600 30.32900
O  2.74300 11.35300 31.79000
C  3.80300 11.36800 32.79700
H  0.06600 3.93300 30.19000
H  -0.90800 3.99200 23.67900
H  0.47400 10.10400 23.46100
H  1.81200 8.10700 31.59300
H  0.01500 5.80600 31.81000
H  1.89000 5.07200 32.68100
H  2.95000 6.11100 31.68600
H  2.20700 4.52400 31.12000
H  -1.26100 7.78000 31.43900
H  -0.65100 9.43200 31.58100
H  -1.20400 7.59900 33.65200
H  -0.76900 9.28300 33.65700
H  -1.68200 1.85800 29.25100
H  -0.01600 2.00100 29.58600
H  -0.45000 0.84200 28.21300
H  -1.85800 -0.44800 25.22700
H  -2.28100 0.22000 26.82000
H  -0.56400 -0.17000 26.38200
H  -1.61500 6.16500 22.18600
H  0.43700 7.99000 21.63900
H  0.80300 4.61300 22.20800
H  0.90600 6.03000 21.06000
H  -0.43300 4.86900 20.95000
H  -2.17900 8.89700 22.86600
H  -2.18700 7.99800 21.27300
H  -1.50100 10.84700 21.95200
H  -1.85800 10.07700 20.32800
H  -0.26600 9.99400 21.06200
H  1.45900 12.25700 24.12300
H  2.46900 12.77700 25.49600
H  0.77000 13.14500 25.45200
H  0.82900 10.97300 30.30700
H  4.48500 12.13900 32.43800
H  4.41300 10.49100 33.01400
H  3.38300 11.71800 33.74000
Mg 16.65500 52.23100 25.77000
C  18.50300 51.14600 28.69600
C  14.11900 53.25200 27.77800
C  15.02100 53.10500 22.98900
C  19.06700 50.64700 23.87100
N  16.41300 52.19600 27.96500
C  17.25600 51.76700 28.98400
C  16.67200 52.06100 30.39600
C  15.17500 52.36200 29.99000
C  15.19000 52.57600 28.49600
C  14.20500 51.22200 30.39700
C  17.44100 53.22900 31.12200
C  17.76300 52.89100 32.60800
H  16.68200 53.04000 33.66900
N  14.82800 53.08200 25.43500
C  14.00500 53.58100 26.38800
C  12.91000 54.30600 25.77900
C  13.21400 54.31700 24.34500
C  14.37300 53.42800 24.21000
C  11.75700 54.83400 26.46900
C  12.41100 55.00900 23.23700
O  12.73600 54.91800 22.05500
C  11.14500 55.69000 23.58100
N  17.04400 51.96700 23.67300
C  16.19500 52.43000 22.72700
C  16.71300 52.09000 21.31500
C  18.15400 51.50800 21.60700
C  18.10700 51.35300 23.12900
C  15.70000 51.18000 20.44200
C  19.33000 52.43500 21.16400
C  20.70300 51.85100 20.77700
N  18.43300 51.10400 26.09800
C  19.29200 50.46200 25.25700
C  20.25800 49.67000 26.01100
C  19.99500 49.91600 27.31000
C  18.92100 50.77400 27.34100
C  21.37500 48.92500 25.37800
C  20.43300 49.73300 28.66600
O  21.32300 48.96200 29.02400
C  19.55900 50.61400 29.64000
C  19.04600 49.66200 30.63200
O  18.36500 48.65400 30.39900
O  19.52500 49.96000 31.82900
C  19.32000 49.10000 32.91700
H  13.30000 53.44100 28.47500
H  14.61300 53.58700 22.09800
H  19.91100 50.32900 23.25600
H  16.79000 51.11300 30.92100
H  14.87800 53.32900 30.39700
H  13.63700 51.51400 31.28000
H  14.75800 50.29600 30.55400
H  13.44800 50.94500 29.66300
H  16.71500 54.04200 31.10100
H  18.31800 53.60400 30.59400
H  18.56700 53.57400 32.88200
H  18.12400 51.87600 32.77500
H  10.87000 54.23600 26.26100
H  11.59800 55.88000 26.20600
H  11.85700 54.75300 27.55100
H  10.56800 54.99300 24.18900
H  10.52800 55.98400 22.73200
H  11.29900 56.63400 24.10300
H  16.95200 53.04900 20.85600
H  18.30600 50.52500 21.16200
H  15.29900 51.71100 19.57800
H  14.96600 50.86000 21.18200
H  16.25000 50.30600 20.09400
H  19.64600 53.03200 22.01900
H  19.06800 53.14800 20.38200
H  21.56600 52.25500 21.30600
H  20.99400 51.93700 19.73000
H  20.83000 50.80400 21.04900
H  22.35800 49.29000 25.67600
H  21.28100 48.94300 24.29200
H  21.24600 47.89700 25.71600
H  20.07700 51.43900 30.12800
H  18.28500 48.86300 33.16300
H  19.75600 49.62800 33.76500
H  19.86900 48.15900 32.86200

