158

Mg 9.51100 47.16400 27.49300
C  7.28400 47.24000 30.24400
C  12.13200 47.95000 29.45300
C  11.39900 47.74700 24.66700
C  6.55700 47.16000 25.36800
N  9.72600 47.38900 29.57700
C  8.70100 47.46000 30.52200
C  9.30500 47.60900 31.89800
C  10.87600 47.87900 31.58900
C  10.93200 47.74400 30.08100
C  11.40100 49.20700 31.98300
C  8.90000 46.50300 32.90700
C  9.90400 46.20900 34.01200
H  9.38700 45.89700 35.46000
N  11.48400 47.61900 27.15900
C  12.38200 47.94300 28.10300
C  13.71100 48.14800 27.45400
C  13.54800 47.98000 26.06600
C  12.12800 47.79200 25.93100
C  14.97300 48.37800 28.22100
C  14.60900 47.96100 24.97100
O  14.35500 47.77300 23.81500
C  16.05100 48.10100 25.30300
N  9.02400 47.59600 25.35000
C  10.00400 47.72100 24.43100
C  9.47500 47.70700 23.01700
C  7.91300 47.32200 23.18100
C  7.80700 47.33900 24.73100
C  9.79900 49.09500 22.39500
C  7.35900 46.10200 22.51800
C  7.09200 46.20900 21.02300
N  7.36500 47.09100 27.67800
C  6.29700 47.05900 26.78000
C  4.98800 47.01100 27.43200
C  5.35300 47.00400 28.75900
C  6.78900 47.06900 28.88500
C  3.67700 47.03000 26.73600
C  4.82000 46.95100 30.15200
O  3.67900 46.84100 30.53300
C  6.02800 47.02800 31.09700
C  5.95800 45.68800 31.79900
O  6.41600 44.65100 31.34000
O  5.43900 45.83500 33.04700
C  5.60400 44.73300 33.98500
H  12.95100 48.09900 30.15900
H  12.04600 47.80100 23.78800
H  5.65300 47.02500 24.77000
H  8.94800 48.57200 32.26500
H  11.51100 47.18100 32.13400
H  10.74000 49.53300 32.78700
H  11.47000 49.89900 31.14400
H  12.34100 49.10700 32.52500
H  8.67100 45.63200 32.29300
H  7.94300 46.81000 33.32800
H  10.58600 47.05900 34.04800
H  10.57000 45.39400 33.73100
H  15.52700 47.47100 27.97900
H  14.82200 48.44200 29.29900
H  15.52800 49.23800 27.84800
H  16.43000 47.27200 25.90100
H  16.16000 49.08600 25.75700
H  16.50200 47.97300 24.31800
H  9.96300 46.89600 22.47700
H  7.26400 48.11400 22.80800
H  10.38400 49.71600 23.07400
H  8.82600 49.52500 22.15900
H  10.45900 49.00700 21.53200
H  6.35200 45.95200 22.90900
H  8.01100 45.29400 22.85000
H  7.67100 45.55800 20.36900
H  7.25000 47.19700 20.59000
H  6.04900 46.06000 20.74300
H  3.48600 46.03100 26.34300
H  3.63300 47.66900 25.85400
H  2.84400 47.25800 27.40100
H  5.83100 47.95000 31.64400
H  6.61300 44.33000 33.90600
H  4.90600 43.91400 33.81000
H  5.54700 45.10200 35.00900
Mg 0.27400 42.95500 26.36700
C  2.50600 42.60200 28.97600
C  -2.24600 41.73900 28.56800
C  -1.76100 42.34800 23.73700
C  2.98900 43.30100 24.16400
N  0.10300 42.29600 28.61900
C  1.17500 42.33800 29.48900
C  0.63800 42.27900 30.92400
C  -0.80200 41.75200 30.77100
C  -0.98700 41.83700 29.22500
C  -1.17800 40.34400 31.27500
C  0.68800 43.59900 31.66600
C  1.23700 43.57600 33.15100
H  0.91500 42.32300 34.08800
N  -1.68600 42.22900 26.14100
C  -2.58100 41.84000 27.13600
C  -3.89400 41.53300 26.56700
C  -3.71800 41.68400 25.17500
C  -2.39300 42.09000 24.93400
C  -5.16400 41.18200 27.43000
C  -4.80700 41.45200 24.13100
O  -4.65800 41.63000 22.92800
C  -6.17100 40.94900 24.51200
N  0.58800 42.63000 24.29200
C  -0.41900 42.54800 23.42900
C  0.09200 42.74500 21.97900
C  1.52200 43.25600 22.14500
C  1.73900 43.03000 23.63600
C  -0.07600 41.42300 21.13800
C  1.79700 44.79800 21.83200
C  1.38000 45.88300 22.78000
N  2.38200 43.03000 26.46500
C  3.34300 43.20800 25.50500
C  4.63300 43.36400 26.15800
C  4.32700 43.10000 27.48800
C  2.99000 42.87200 27.58000
C  5.97700 43.61300 25.58500
C  4.97100 42.92800 28.77800
O  6.18900 43.08100 29.04500
C  3.78400 42.72000 29.83600
C  4.07400 41.48900 30.54100
O  4.39000 40.38900 30.06600
O  3.98900 41.73900 31.94500
C  4.07700 40.50300 32.79200
H  -3.06000 41.44200 29.23300
H  -2.33800 42.28400 22.81200
H  3.74000 43.71300 23.48600
H  1.28100 41.51000 31.35200
H  -1.58300 42.43500 31.10400
H  -1.92700 39.94800 30.58900
H  -1.69600 40.50700 32.22000
H  -0.42600 39.56100 31.37300
H  -0.27700 44.10600 31.65100
H  1.41000 44.20000 31.11400
H  0.76200 44.44600 33.60400
H  2.32700 43.59500 33.15600
H  -5.44800 40.13600 27.31300
H  -5.97300 41.79900 27.03800
H  -5.10300 41.45200 28.48400
H  -6.66600 41.73200 25.08600
H  -6.03600 40.09900 25.18100
H  -6.71500 40.66800 23.61100
H  -0.53300 43.51800 21.53200
H  2.27900 42.59700 21.72000
H  -0.83400 40.81000 21.62600
H  0.88600 40.91200 21.12000
H  -0.39700 41.67400 20.12700
H  1.09400 45.06300 21.04300
H  2.84800 45.01000 21.63500
H  2.31200 46.09100 23.30500
H  0.62100 45.52800 23.47700
H  1.01200 46.77400 22.27000
H  6.01600 43.91400 24.53800
H  6.61900 42.73900 25.69300
H  6.48600 44.39000 26.15400
H  3.78300 43.51500 30.58200
H  3.44300 39.63300 32.62100
H  3.94600 40.91200 33.79400
H  5.07300 40.06600 32.71400

