158

Mg 25.72800 0.96400 28.58600
C  27.86700 1.03300 31.47200
C  23.10400 1.58200 30.82000
C  23.61300 0.30400 26.13800
C  28.50100 0.00900 26.78600
N  25.53600 1.19900 30.87300
C  26.57000 1.38300 31.79700
C  25.98100 1.60300 33.17600
C  24.42100 1.69800 32.96200
C  24.33300 1.47600 31.45400
C  23.65100 0.59600 33.71500
C  26.63800 2.95000 33.78500
C  25.82700 3.50500 35.05800
H  26.50300 3.93600 36.36300
N  23.60600 1.13600 28.47700
C  22.76200 1.37000 29.50200
C  21.42500 1.47700 28.92300
C  21.52300 1.13500 27.51900
C  22.91800 0.74400 27.32400
C  20.16600 1.91500 29.74900
C  20.49900 1.03200 26.47300
O  20.65300 0.54200 25.37400
C  19.24200 1.52800 26.79100
N  25.98500 0.21200 26.84700
C  24.97300 0.11800 25.90500
C  25.49300 -0.10700 24.44100
C  26.96800 0.15400 24.67700
C  27.15500 0.07000 26.16500
C  25.16000 -1.48100 23.80300
C  27.34800 1.59500 24.20700
C  27.72100 1.75000 22.70500
N  27.75400 0.44100 29.07100
C  28.68800 0.07200 28.18600
C  29.90400 -0.34200 28.87200
C  29.60300 0.14000 30.14700
C  28.26900 0.54100 30.24900
C  31.21100 -0.89300 28.32500
C  30.21300 0.33900 31.42300
O  31.35700 0.09800 31.78800
C  29.11600 0.94300 32.37700
C  29.04600 0.14700 33.61100
O  28.61600 -0.98800 33.76800
O  29.42000 0.96200 34.63700
C  29.54100 0.33200 35.99000
H  22.21500 1.77000 31.42600
H  22.98400 0.16900 25.25500
H  29.34100 -0.13900 26.10500
H  26.36200 0.79200 33.79700
H  24.22500 2.72400 33.27300
H  24.31300 -0.25100 33.89500
H  22.85700 0.32200 33.02100
H  23.18900 0.90900 34.65200
H  26.58900 3.69100 32.98800
H  27.67600 2.82600 34.09300
H  25.07400 2.76000 35.31600
H  25.34700 4.44000 34.76700
H  19.80700 2.91100 29.48800
H  20.31100 1.80500 30.82300
H  19.36400 1.20900 29.53500
H  18.71900 0.85200 27.46700
H  18.64800 1.57000 25.87800
H  19.32900 2.53400 27.20300
H  25.03700 0.61100 23.75800
H  27.65600 -0.54700 24.20600
H  26.10600 -2.01900 23.73000
H  24.61000 -1.43400 22.86300
H  24.58100 -2.00400 24.56400
H  28.23000 1.93700 24.74900
H  26.60800 2.32100 24.54300
H  27.21200 2.64800 22.35300
H  27.42500 0.91500 22.07000
H  28.80700 1.80800 22.63000
H  31.10500 -1.19800 27.28400
H  31.48000 -1.82200 28.82700
H  32.02300 -0.18000 28.47400
H  29.34200 1.97300 32.65400
H  28.54700 0.29500 36.43400
H  30.17800 1.04400 36.51500
H  29.95800 -0.66700 35.86800
Mg 48.05600 44.60500 43.60800
C  44.61700 43.75000 43.37700
C  48.82200 41.28800 42.49900
C  51.07600 45.54200 42.76200
C  46.96900 48.02100 43.66700
N  46.88200 42.75500 42.99300
C  45.45800 42.70600 42.96600
C  45.02600 41.30300 42.72500
C  46.33800 40.41700 42.60400
C  47.38300 41.54300 42.71200
C  46.46200 39.28200 43.68900
C  43.94100 41.00300 41.64100
C  44.04500 41.86200 40.44300
H  43.70500 41.29000 39.04800
N  49.78900 43.54000 42.98800
C  49.90600 42.25200 42.61000
C  51.26200 41.96600 42.35500
C  52.01500 43.12600 42.35200
C  51.01200 44.14800 42.77200
C  51.74700 40.59400 42.08400
C  53.47500 43.39100 41.93700
O  54.10600 42.38600 41.63800
C  54.17500 44.70200 41.84200
N  48.89300 46.53800 43.39200
C  50.20500 46.61300 42.91200
C  50.65600 48.06700 42.71100
C  49.29800 48.86000 43.00100
C  48.29800 47.74100 43.32200
C  51.90400 48.60400 43.47700
C  48.92700 49.78000 41.77400
C  48.43700 51.11600 42.13800
N  46.22100 45.70000 43.67200
C  45.96000 47.01000 43.85900
C  44.51000 47.21500 44.01800
C  44.00600 45.91700 43.96600
C  45.04700 45.06500 43.67200
C  43.77800 48.53900 44.22600
C  42.73500 45.10200 44.02600
O  41.58300 45.43200 44.32400
C  43.11800 43.68400 43.58500
C  42.64600 42.83300 44.65000
O  41.81700 41.90200 44.49600
O  43.27900 43.12900 45.78500
C  43.03900 42.29400 46.95300
H  49.03200 40.27000 42.16400
H  52.05700 45.92400 42.47000
H  46.67100 49.07100 43.69400
H  44.46800 40.97700 43.60200
H  46.46100 39.95000 41.62700
H  47.10300 39.57000 44.52200
H  46.94500 38.40000 43.26600
H  45.55200 38.93400 44.17600
H  42.90900 41.03600 41.99200
H  44.17900 39.98800 41.32400
H  45.00700 42.37100 40.39500
H  43.35000 42.69500 40.54800
H  52.38600 40.47000 41.20900
H  50.96000 39.84000 42.09800
H  52.41000 40.30900 42.90100
H  53.50700 45.29800 41.21900
H  55.06300 44.46300 41.25800
H  54.35200 45.19900 42.79600
H  50.83500 48.32400 41.66700
H  49.45700 49.52100 43.85300
H  52.32900 47.75800 44.01700
H  51.66300 49.35100 44.23300
H  52.64100 48.98900 42.77300
H  48.04800 49.29700 41.34900
H  49.66700 49.91000 40.98400
H  49.05800 51.88700 41.68200
H  48.60000 51.44900 43.16300
H  47.39900 51.24700 41.83100
H  43.78300 48.89400 45.25700
H  42.75600 48.40200 43.87500
H  44.31800 49.31000 43.67600
H  42.51300 43.56200 42.68600
H  44.02000 42.07400 47.37500
H  42.62200 41.32700 46.67300
H  42.38400 42.80900 47.65500

