158

Mg 43.50200 4.58100 47.18600
C  41.61800 7.70600 47.19200
C  40.68300 3.01000 46.59100
C  45.46100 1.98800 46.66200
C  46.35300 6.68000 47.06300
N  41.40000 5.27300 46.91200
C  40.87900 6.53400 47.03200
C  39.32500 6.44400 46.99500
C  39.05000 4.91000 47.02800
C  40.46400 4.36900 46.82200
C  38.45500 4.25900 48.32900
C  38.64500 7.15700 45.80700
C  39.42700 7.21900 44.45000
H  38.72400 6.81600 43.19200
N  43.13800 2.78300 46.72200
C  41.85400 2.24000 46.52000
C  41.94400 0.80800 46.30700
C  43.32400 0.44800 46.32800
C  44.06000 1.73800 46.62200
C  40.73900 -0.11400 46.03400
C  43.93700 -0.90800 46.06800
O  43.15000 -1.81200 45.92000
C  45.34400 -1.19900 46.07200
N  45.66800 4.36900 46.89500
C  46.23400 3.19300 46.71300
C  47.80500 3.29800 46.54600
C  48.00500 4.82000 46.61900
C  46.60900 5.32800 46.94300
C  48.50500 2.43900 47.64400
C  48.55600 5.45900 45.27800
C  50.00100 5.16800 44.76000
N  44.01300 6.76800 47.22900
C  45.16500 7.42300 47.06200
C  44.98300 8.87900 47.05800
C  43.57100 9.03200 47.16700
C  43.03300 7.68800 47.31500
C  46.13300 9.91000 47.15800
C  42.48800 9.98900 47.40500
O  42.52200 11.21500 47.58200
C  41.21200 9.16400 47.29100
C  40.19700 9.39300 48.37100
O  40.15800 8.99600 49.51600
O  39.19800 10.16400 47.78300
C  38.00800 10.57400 48.46100
H  39.82800 2.33700 46.50300
H  46.12300 1.12200 46.59700
H  47.32000 7.18100 46.99600
H  38.96000 6.87200 47.92900
H  38.35500 4.59200 46.25100
H  38.25500 5.08400 49.01300
H  39.04200 3.42700 48.71700
H  37.58900 3.73000 47.93100
H  38.55400 8.16500 46.21200
H  37.70900 6.66000 45.55400
H  40.34700 6.64700 44.56800
H  39.62000 8.28300 44.32000
H  40.48700 -0.20800 44.97800
H  39.87200 0.39300 46.45600
H  40.71700 -1.09700 46.50500
H  45.65600 -0.97300 47.09200
H  45.88300 -0.58100 45.35400
H  45.48800 -2.26500 45.89500
H  48.05700 2.91600 45.55700
H  48.59400 5.10800 47.49000
H  49.56800 2.52900 47.42000
H  48.24800 1.39200 47.48200
H  48.28500 2.76600 48.66000
H  48.39400 6.53000 45.15300
H  47.74100 5.13200 44.63300
H  49.88500 4.54800 43.87100
H  50.69800 4.72600 45.47200
H  50.47300 6.12600 44.54200
H  46.51300 9.89400 48.17900
H  45.79600 10.92900 46.96900
H  46.96000 9.66800 46.49000
H  40.74800 9.31800 46.31600
H  37.15600 9.99600 48.10400
H  37.86500 11.64900 48.35000
H  37.99300 10.27600 49.50900
Mg 1.15500 41.44000 26.61600
C  2.93400 41.93800 29.52700
C  -1.53300 40.42300 28.37600
C  -0.41600 40.66000 23.71400
C  4.03600 42.25700 24.80600
N  0.64200 41.31900 28.84200
C  1.52000 41.58900 29.80200
C  0.77600 41.66700 31.16000
C  -0.58000 40.97200 30.80200
C  -0.54200 40.86600 29.30800
C  -1.05800 39.66800 31.54400
C  0.66300 43.15000 31.63000
C  0.78200 43.39000 33.14100
H  0.54500 42.24300 34.10100
N  -0.67400 40.66600 26.14100
C  -1.58700 40.17800 27.00800
C  -2.63800 39.47400 26.33100
C  -2.42100 39.73900 24.96100
C  -1.13000 40.35500 24.89100
C  -3.81500 38.75700 27.02500
C  -3.34300 39.34800 23.77200
O  -2.98600 39.45000 22.64500
C  -4.63600 38.81500 24.06300
N  1.68000 41.54100 24.59100
C  0.88800 41.13500 23.54600
C  1.45000 41.45100 22.08900
C  2.90300 41.89900 22.53900
C  2.86500 41.98000 24.09900
C  1.41200 40.24800 21.10500
C  3.46700 43.20500 21.91700
C  2.99000 44.48200 22.58100
N  3.01400 42.09400 27.00600
C  4.07200 42.40200 26.21600
C  5.20900 42.65700 26.96600
C  4.80000 42.37700 28.24000
C  3.47400 42.11300 28.19600
C  6.52900 43.14400 26.50400
C  5.32500 42.34600 29.62000
O  6.45700 42.52200 30.05900
C  4.02900 42.21000 30.51900
C  4.29100 41.15400 31.62900
O  4.06200 39.95900 31.52200
O  4.91400 41.67700 32.70600
C  5.50800 40.79600 33.74400
H  -2.47500 40.10200 28.82500
H  -0.82300 40.34800 22.75000
H  4.96400 42.43900 24.26000
H  1.44900 41.07000 31.77500
H  -1.39500 41.67500 30.97600
H  -0.53200 39.45200 32.47400
H  -0.96700 38.79000 30.90300
H  -2.12300 39.69200 31.77500
H  -0.29700 43.57500 31.33400
H  1.41800 43.78400 31.16500
H  0.07900 44.21100 33.27800
H  1.83600 43.65900 33.22000
H  -3.92900 37.75300 26.61500
H  -4.61500 39.47300 26.83500
H  -3.88200 38.61100 28.10300
H  -4.60100 37.75700 24.32100
H  -5.26900 38.96700 23.18900
H  -5.01400 39.43000 24.88100
H  0.96600 42.30400 21.61300
H  3.57000 41.05300 22.37400
H  2.44200 40.12000 20.77200
H  0.81200 40.37300 20.20300
H  0.97500 39.38800 21.61200
H  3.15000 43.13100 20.87700
H  4.55300 43.17500 22.00200
H  3.82300 44.92000 23.13200
H  2.12600 44.31100 23.22300
H  2.66700 45.28900 21.92300
H  7.04300 43.63000 27.33300
H  6.49700 43.78300 25.62200
H  7.11500 42.26500 26.23300
H  3.84100 43.21700 30.89200
H  6.20500 40.01800 33.43300
H  4.71800 40.24700 34.25600
H  5.91600 41.44200 34.52100

