158

Mg 8.56400 2.84900 26.62300
C  9.90600 1.36200 29.53500
C  6.71200 4.98800 28.70100
C  7.22800 4.07700 23.97300
C  10.12600 0.21200 24.70700
N  8.27100 3.09600 28.85600
C  9.04100 2.47700 29.86700
C  8.69900 3.08900 31.24000
C  7.55000 4.06700 30.95400
C  7.51400 4.12900 29.37400
C  6.26000 3.74800 31.67000
C  9.96200 3.61100 31.96000
C  9.81800 4.64000 33.11500
H  10.69000 4.19900 34.31900
N  7.24200 4.35800 26.37900
C  6.52800 5.10200 27.31800
C  5.68700 6.05900 26.63300
C  5.85200 5.84900 25.20000
C  6.82800 4.75200 25.15300
C  4.82400 7.09200 27.35900
C  5.17800 6.63000 24.03400
O  5.44700 6.40900 22.89600
C  4.27500 7.75800 24.30900
N  8.72500 2.23300 24.74000
C  8.01100 2.97000 23.77400
C  8.07200 2.32600 22.45300
C  9.06600 1.23600 22.69000
C  9.29100 1.15100 24.11300
C  6.63600 1.81600 22.06000
C  10.45300 1.30600 21.93000
C  10.87000 0.01600 21.15800
N  9.79400 1.14400 26.99000
C  10.39000 0.22800 26.10700
C  11.21900 -0.68100 26.88500
C  11.03000 -0.31900 28.25200
C  10.17000 0.77000 28.25700
C  12.09600 -1.85400 26.36200
C  11.36500 -0.61900 29.65800
O  12.01400 -1.50600 30.16300
C  10.63500 0.40100 30.49500
C  9.70400 -0.34500 31.34500
O  8.64400 -0.86100 30.97300
O  10.16300 -0.28100 32.68300
C  9.33300 -1.00200 33.65200
H  6.20200 5.74400 29.30100
H  6.75200 4.42200 23.05200
H  10.45900 -0.59300 24.04900
H  8.38800 2.21000 31.80500
H  7.83500 5.06100 31.29800
H  6.19200 2.67300 31.83500
H  5.40200 4.00300 31.04800
H  6.00100 4.34000 32.54800
H  10.62500 4.08400 31.23600
H  10.49400 2.72500 32.30700
H  8.76900 4.64500 33.41400
H  10.13800 5.62500 32.77700
H  4.95000 7.27300 28.42700
H  3.74900 6.97600 27.22200
H  4.98200 8.09500 26.96400
H  3.87800 8.04500 23.33600
H  4.73900 8.58400 24.84800
H  3.50500 7.39800 24.99100
H  8.40400 2.97800 21.64500
H  8.58500 0.27700 22.49800
H  6.53200 0.74500 21.88200
H  6.42800 2.37200 21.14600
H  5.85800 1.99500 22.80100
H  11.23900 1.58200 22.63300
H  10.30100 2.04600 21.14500
H  11.18900 0.23700 20.14000
H  10.01200 -0.62000 20.93800
H  11.66700 -0.48400 21.70900
H  11.55800 -2.44400 25.62000
H  12.52300 -2.47500 27.15000
H  13.04700 -1.52300 25.94300
H  11.32700 1.00300 31.08400
H  9.61800 -2.04900 33.55000
H  8.24900 -0.89200 33.65500
H  9.63800 -0.67800 34.64700
Mg 46.20600 16.15200 28.24000
C  44.15400 15.64000 31.01700
C  48.43800 17.96000 30.13500
C  48.08100 16.73500 25.42600
C  43.84000 14.44400 26.15100
N  46.22300 16.65600 30.30700
C  45.31300 16.33300 31.32700
C  45.82200 16.98500 32.65200
C  47.10400 17.77300 32.26300
C  47.28600 17.40400 30.77900
C  47.04300 19.34600 32.37600
C  45.97800 15.98700 33.79500
C  45.59100 16.43200 35.21100
H  45.45800 18.02400 35.47900
N  47.98400 17.24300 27.85000
C  48.82600 17.81200 28.78900
C  50.10500 18.18300 28.16800
C  49.90200 17.94200 26.73900
C  48.57300 17.25100 26.58900
C  51.32900 18.73000 28.99200
C  50.82200 18.29700 25.61000
O  50.60300 18.01800 24.44000
C  52.08800 18.92800 25.85100
N  46.04600 15.59600 26.16500
C  47.01600 15.95000 25.28800
C  46.66300 15.34700 23.88400
C  45.27300 14.64400 24.07600
C  45.04200 14.82600 25.64000
C  46.81100 16.30300 22.71600
C  45.20500 13.15200 23.62500
C  45.95300 12.19800 24.57300
N  44.42700 15.12500 28.48900
C  43.51800 14.54100 27.58800
C  42.31300 14.06500 28.29400
C  42.50300 14.57200 29.66200
C  43.80100 15.11800 29.75900
C  41.13300 13.43400 27.68900
C  41.90600 14.61500 31.00800
O  40.84100 14.11400 31.41900
C  43.02800 15.36300 31.91800
C  42.48200 16.45300 32.71100
O  42.33200 17.62900 32.35500
O  42.16700 15.96300 33.97900
C  41.35600 16.78900 34.90600
H  49.15700 18.54300 30.71400
H  48.67400 16.81600 24.51200
H  43.18100 13.97700 25.41600
H  45.04000 17.67700 32.96200
H  47.91400 17.43100 32.90700
H  46.24300 19.81100 32.95200
H  47.05900 19.81500 31.39300
H  47.99500 19.60100 32.84300
H  47.00200 15.64200 33.93600
H  45.34900 15.16000 33.46800
H  46.38600 16.15800 35.90400
H  44.70300 15.88400 35.52700
H  51.21700 18.60600 30.06900
H  51.32300 19.76500 28.65200
H  52.21700 18.16200 28.71200
H  52.07100 19.82300 26.47300
H  52.61100 19.14200 24.91900
H  52.68200 18.18300 26.38100
H  47.39600 14.57600 23.64700
H  44.46600 15.19700 23.59500
H  45.85100 16.41000 22.21100
H  47.55600 16.07300 21.95400
H  46.99900 17.31400 23.07600
H  45.56300 13.02000 22.60400
H  44.16100 12.86300 23.50800
H  45.25400 11.66800 25.22000
H  46.78700 12.60500 25.14500
H  46.29000 11.39900 23.91200
H  40.79300 12.70100 28.42000
H  41.41700 13.10800 26.68800
H  40.34300 14.16500 27.51900
H  43.22900 14.56700 32.63400
H  40.41500 17.12200 34.46900
H  41.88200 17.64000 35.34000
H  40.91100 16.20700 35.71300

