158

Mg -0.85500 5.99900 26.53400
C  0.11100 8.30700 29.03700
C  -0.47600 3.42500 28.89800
C  -1.83700 3.74000 24.20400
C  -0.86100 8.55600 24.15700
N  -0.40600 5.92400 28.83000
C  0.02500 6.99600 29.56200
C  0.30800 6.54200 30.96100
C  0.46900 5.01100 30.80800
C  -0.18800 4.74800 29.43300
C  1.98100 4.42700 30.85900
C  -0.74800 7.08000 31.89300
C  -0.40900 6.88600 33.41100
H  0.79400 5.92300 33.73300
N  -1.19000 3.84800 26.58100
C  -0.98800 3.02400 27.67100
C  -1.30500 1.68700 27.27400
C  -1.87000 1.75900 25.94900
C  -1.67200 3.12700 25.48900
C  -1.08100 0.47900 28.14900
C  -2.50600 0.66500 25.04700
O  -2.92700 0.93600 23.94700
C  -2.62800 -0.80500 25.59300
N  -1.01800 6.15200 24.51800
C  -1.54000 5.06900 23.78900
C  -1.89900 5.50900 22.33000
C  -1.81100 7.06000 22.41300
C  -1.20400 7.31400 23.72900
C  -0.89000 4.79600 21.27100
C  -3.15100 7.85800 22.26000
C  -3.24300 9.20900 21.59400
N  -0.47400 7.99000 26.52100
C  -0.42600 8.87000 25.48600
C  0.05900 10.17100 25.90700
C  0.24800 10.03400 27.33700
C  -0.12600 8.71100 27.68100
C  0.45300 11.39900 25.01400
C  0.61300 10.68600 28.64200
O  0.87000 11.81500 28.89200
C  0.47700 9.58800 29.69900
C  1.74500 9.48100 30.57900
O  2.83400 8.99100 30.29300
O  1.48600 9.91600 31.81000
C  2.51500 9.87000 32.81000
H  -0.13800 2.72900 29.66800
H  -2.34800 3.16600 23.42700
H  -0.90200 9.37200 23.43200
H  1.30100 6.89100 31.24500
H  -0.12200 4.44900 31.53100
H  2.23100 3.67300 30.11300
H  2.07700 3.96100 31.84000
H  2.75000 5.19500 30.77500
H  -1.59500 6.41100 31.74000
H  -1.18000 8.05900 31.68300
H  -1.35300 6.58700 33.86700
H  -0.05000 7.80400 33.87600
H  -0.28800 -0.09500 27.67000
H  -1.94300 -0.15000 28.36900
H  -0.61400 0.71000 29.10700
H  -1.60600 -1.06800 25.86600
H  -2.83300 -1.53100 24.80600
H  -3.33600 -1.05500 26.38300
H  -2.88800 5.10100 22.12100
H  -1.16600 7.48500 21.64400
H  -0.20200 5.61200 21.05000
H  -1.56600 4.47400 20.47900
H  -0.34000 4.00000 21.77300
H  -3.53000 7.96100 23.27700
H  -3.94800 7.26200 21.81600
H  -2.52600 9.24500 20.77300
H  -3.10200 10.08800 22.22200
H  -4.23000 9.30400 21.14200
H  -0.42000 11.67500 24.42200
H  1.21000 11.17600 24.26200
H  0.87500 12.18400 25.64100
H  -0.36600 9.88100 30.32400
H  3.57300 10.04400 32.61300
H  2.46900 8.93100 33.36100
H  2.33400 10.73300 33.45100
Mg 17.79300 52.99900 25.76100
C  19.64600 51.59100 28.43700
C  15.19400 53.42500 27.93200
C  15.82800 53.83100 23.27000
C  20.32100 51.89700 23.52200
N  17.47000 52.73000 27.94500
C  18.37900 52.08100 28.80100
C  17.82200 52.06100 30.18400
C  16.26400 52.45500 30.00300
C  16.33400 52.93600 28.55800
C  15.20400 51.45400 30.44300
C  18.57900 53.14100 31.07500
C  18.45100 53.09300 32.61200
H  17.40600 52.21800 33.23200
N  15.98400 53.87700 25.72500
C  15.05800 53.94900 26.64500
C  13.91600 54.71900 26.18400
C  14.12000 54.91700 24.79600
C  15.33900 54.18600 24.51900
C  12.73900 55.07700 27.04200
C  13.30600 55.68000 23.74100
O  13.67800 55.94300 22.58100
C  11.91600 56.16800 24.06300
N  18.11900 52.88000 23.72900
C  17.08300 53.28200 22.87600
C  17.47900 53.18300 21.41700
C  19.02400 52.69800 21.57300
C  19.15000 52.41100 23.03500
C  16.58200 52.14300 20.69300
C  20.14100 53.70400 21.10500
C  20.36900 55.03600 21.94100
N  19.63200 51.89800 25.90900
C  20.58800 51.61500 24.89900
C  21.71800 51.05100 25.57300
C  21.43400 51.08600 26.99300
C  20.09200 51.51800 27.10500
C  22.98100 50.63300 25.03000
C  21.95900 50.73800 28.34300
O  23.00600 50.29400 28.65000
C  20.79000 51.08200 29.21800
C  20.45900 49.95300 30.12800
O  19.94300 48.91800 29.75200
O  20.73800 50.26800 31.43500
C  20.29700 49.20800 32.38300
H  14.35200 53.64800 28.59100
H  15.16100 53.98600 22.41900
H  21.12200 51.51300 22.88900
H  17.99300 51.09400 30.65700
H  16.21500 53.40000 30.54400
H  14.39800 51.92700 31.00500
H  15.55800 50.57400 30.98000
H  14.67600 51.06300 29.57400
H  18.23200 54.13900 30.80400
H  19.63600 53.06600 30.81900
H  18.30700 54.11800 32.95300
H  19.43800 52.86400 33.01400
H  12.08400 54.21600 27.17400
H  12.14500 55.91200 26.66900
H  12.97300 55.39100 28.05900
H  11.45000 56.48500 23.13000
H  12.08600 57.02400 24.71500
H  11.24300 55.46500 24.55400
H  17.42900 54.19400 21.01100
H  19.14600 51.77300 21.00900
H  15.76000 51.86000 21.35000
H  17.08200 51.26600 20.28100
H  16.00400 52.59900 19.88900
H  19.87300 53.81500 20.05400
H  21.07500 53.15400 20.99200
H  20.02100 54.81800 22.95000
H  19.81500 55.81200 21.41400
H  21.40100 55.38700 21.93400
H  23.28900 51.36900 24.28800
H  22.86300 49.62200 24.63800
H  23.71700 50.79000 25.81800
H  21.21500 51.98000 29.66700
H  20.97900 48.35800 32.37900
H  19.27000 48.84900 32.31100
H  20.21200 49.67100 33.36600

