158

Mg 2.15500 -1.73600 44.81500
C  5.50600 -1.01200 44.26900
C  1.44700 1.00300 42.72900
C  -1.16300 -2.55000 44.88100
C  3.02200 -4.89900 45.88700
N  3.36700 -0.13800 43.67100
C  4.69400 -0.24300 43.46400
C  5.17600 0.74000 42.36400
C  3.90800 1.63700 42.18800
C  2.79300 0.73300 42.83100
C  4.06800 3.14600 42.70500
C  5.60400 -0.16600 41.16600
C  7.16800 -0.14600 40.94100
H  7.71200 0.41700 39.63600
N  0.37400 -0.77600 44.05500
C  0.30100 0.30400 43.23900
C  -1.10300 0.61400 43.01100
C  -1.85000 -0.46300 43.54100
C  -0.88500 -1.27600 44.27100
C  -1.62100 1.80700 42.23800
C  -3.40600 -0.72000 43.26000
O  -4.03700 0.07500 42.62700
C  -4.18600 -1.86500 43.82000
N  1.11300 -3.47400 45.12700
C  -0.30000 -3.54600 45.29400
C  -0.68900 -4.82700 45.94400
C  0.63500 -5.68000 45.95000
C  1.68900 -4.62300 45.61900
C  -1.38100 -4.62300 47.34600
C  0.75800 -7.04400 45.16400
C  0.00800 -7.14100 43.76400
N  3.86200 -2.73000 45.18800
C  4.15800 -4.00500 45.70400
C  5.60500 -4.14900 45.85900
C  6.14600 -2.95100 45.39100
C  5.07000 -2.12100 44.95900
C  6.17300 -5.47200 46.28300
C  7.40000 -2.21000 45.19100
O  8.62700 -2.42700 45.37400
C  7.02800 -0.82800 44.51400
C  7.21500 0.30500 45.39300
O  7.02000 0.33600 46.61600
O  7.85300 1.37300 44.71000
C  8.23200 2.46200 45.57700
H  1.20100 1.97600 42.29700
H  -2.13800 -3.04000 44.92200
H  3.22100 -5.92600 46.20000
H  5.97300 1.39600 42.71600
H  3.65600 1.82800 41.14400
H  4.18500 3.90800 41.93400
H  5.00100 3.25000 43.25700
H  3.24200 3.27500 43.40500
H  5.05100 0.13800 40.27700
H  5.22700 -1.18100 41.29200
H  7.50600 -1.18200 40.95300
H  7.76900 0.29800 41.73400
H  -2.12200 1.47400 41.32900
H  -0.84900 2.51100 41.92500
H  -2.37800 2.24600 42.88800
H  -5.18800 -1.88700 43.39000
H  -4.24200 -1.82800 44.90800
H  -3.67900 -2.74000 43.41300
H  -1.54900 -5.20500 45.39000
H  0.84000 -5.91100 46.99500
H  -1.36900 -3.57800 47.65400
H  -0.90800 -5.29000 48.06700
H  -2.41900 -4.85600 47.10800
H  0.18200 -7.69000 45.82600
H  1.75400 -7.42300 44.93300
H  0.66400 -7.36100 42.92100
H  -0.53100 -6.21200 43.57700
H  -0.74800 -7.92600 43.78100
H  6.12900 -6.10400 45.39600
H  5.51100 -5.86000 47.05800
H  7.16900 -5.54700 46.72000
H  7.66100 -0.71700 43.63400
H  8.64200 3.33200 45.06600
H  8.96900 2.07700 46.28200
H  7.33200 2.78100 46.10400
Mg 9.18200 3.97100 28.18600
C  10.38200 2.14700 31.00000
C  7.37400 5.94800 30.32900
C  8.02900 5.49800 25.48100
C  10.61500 1.44200 26.18200
N  8.77500 3.85600 30.35900
C  9.54400 3.20300 31.29400
C  9.39700 3.82700 32.72300
C  8.34700 4.97000 32.56100
C  8.13900 4.98400 30.95500
C  6.97500 4.73600 33.27500
C  10.76800 4.11800 33.38500
C  11.11200 3.37300 34.69900
H  11.58200 4.28200 35.90100
N  7.89400 5.54700 27.97500
C  7.27700 6.25400 28.95000
C  6.49900 7.32000 28.32800
C  6.84200 7.32200 26.89500
C  7.60800 6.10900 26.69100
C  5.57300 8.22300 29.08800
C  6.44900 8.28600 25.81500
O  6.64300 8.03100 24.63700
C  5.76800 9.54000 26.28200
N  9.23700 3.45000 26.20900
C  8.71800 4.29800 25.23300
C  9.02400 3.85700 23.81500
C  9.92500 2.58500 23.99500
C  9.91700 2.46100 25.56400
C  7.88400 3.69400 22.84900
C  11.31500 2.55400 23.31100
C  11.52500 1.42700 22.18100
N  10.23600 2.07500 28.48400
C  10.79700 1.22800 27.55100
C  11.50800 0.17100 28.18200
C  11.36100 0.53300 29.55500
C  10.61800 1.64500 29.65400
C  12.14400 -0.96200 27.59200
C  11.69300 0.09400 30.93600
O  12.28400 -0.95300 31.34200
C  11.11500 1.18900 31.89600
C  10.15900 0.55100 32.92100
O  8.96100 0.35200 32.74000
O  10.75600 0.29300 34.04900
C  9.98600 -0.37300 35.09900
H  6.89300 6.70400 30.95400
H  7.93200 6.07000 24.55500
H  11.08800 0.71200 25.52200
H  8.86600 3.00600 33.20400
H  8.76000 5.93700 32.85100
H  6.79700 5.58000 33.94200
H  7.10400 3.81300 33.84000
H  6.17300 4.77100 32.53800
H  10.94900 5.17300 33.59000
H  11.52200 3.94800 32.61600
H  11.90900 2.66300 34.47700
H  10.23200 2.84800 35.07200
H  5.45100 7.82500 30.09600
H  4.55000 8.18000 28.71400
H  5.96600 9.23200 29.21000
H  5.00500 9.41400 27.05000
H  5.50200 10.06500 25.36500
H  6.64800 10.01000 26.72200
H  9.62300 4.67200 23.40900
H  9.37900 1.71000 23.64300
H  8.05100 4.32000 21.97300
H  7.02200 4.16600 23.32100
H  7.70100 2.65400 22.58000
H  12.11700 2.52500 24.04900
H  11.52400 3.48600 22.78600
H  11.54300 1.77100 21.14700
H  10.76000 0.65000 22.17200
H  12.44900 0.86700 22.32400
H  11.93000 -1.05100 26.52700
H  11.76300 -1.86000 28.07700
H  13.22400 -0.91500 27.73800
H  11.99600 1.55400 32.42200
H  10.65000 -0.87300 35.80300
H  9.26600 -1.12000 34.76400
H  9.52600 0.41600 35.69400

