158

Mg 24.44300 1.91600 29.51700
C  26.68700 1.77100 32.32900
C  21.87600 1.90300 31.74400
C  22.42800 1.87400 26.91700
C  27.22000 1.34300 27.37000
N  24.26600 1.79300 31.86200
C  25.32800 1.83100 32.79300
C  24.78600 1.90300 34.21000
C  23.21800 1.94800 33.99300
C  23.10000 1.91300 32.46300
C  22.44200 0.86700 34.68000
C  25.46600 3.12700 34.94300
C  24.74400 3.56200 36.25400
H  25.54100 3.67500 37.52600
N  22.51700 1.79400 29.30900
C  21.60600 1.95900 30.40500
C  20.26400 1.89900 29.87300
C  20.39500 2.01100 28.47400
C  21.82900 1.89000 28.17600
C  19.07400 1.90600 30.74900
C  19.22800 2.16000 27.36700
O  19.45800 2.26600 26.14900
C  17.79500 2.06300 27.76600
N  24.79700 1.65700 27.54900
C  23.79900 1.84000 26.64000
C  24.25400 1.93700 25.12000
C  25.81000 1.92100 25.36600
C  25.96800 1.58300 26.83300
C  23.67400 0.90400 24.17800
C  26.52800 3.28300 25.01500
C  25.98100 4.58000 25.64800
N  26.52500 1.64400 29.74400
C  27.51400 1.28800 28.78900
C  28.73600 1.08700 29.42800
C  28.43600 1.33700 30.80300
C  27.11300 1.69400 30.94800
C  30.06700 0.68600 28.82200
C  29.07100 1.32100 32.09100
O  30.24300 1.12900 32.38200
C  28.01400 1.78200 33.16900
C  28.06100 0.74700 34.28100
O  27.78700 -0.40900 34.10500
O  28.50800 1.27800 35.49100
C  28.64500 0.28800 36.57400
H  21.07400 2.07800 32.46500
H  21.70800 1.93300 26.09800
H  27.94600 1.35900 26.55500
H  25.16200 0.96400 34.61700
H  22.81100 2.91500 34.28600
H  21.88000 0.36300 33.89300
H  21.76900 1.33300 35.40000
H  23.05300 0.20300 35.29200
H  25.54400 4.00600 34.30400
H  26.50700 2.93400 35.20300
H  23.93400 2.87200 36.48700
H  24.32300 4.52100 35.95200
H  18.08700 2.02500 30.30100
H  19.22700 2.66600 31.51500
H  18.93900 0.96000 31.27300
H  17.19800 2.12000 26.85600
H  17.38300 2.88000 28.35800
H  17.67200 1.16600 28.37400
H  23.96100 2.93200 24.78600
H  26.32400 1.18400 24.74900
H  23.20700 0.12600 24.78200
H  24.52800 0.44300 23.68000
H  23.00700 1.32100 23.42300
H  26.57500 3.28500 23.92600
H  27.59500 3.21200 25.23100
H  26.92300 4.98600 26.01700
H  25.23200 4.40200 26.42000
H  25.60800 5.19600 24.83000
H  29.89100 0.22300 27.85100
H  30.55500 -0.07000 29.43700
H  30.60200 1.61900 28.64600
H  28.26200 2.78400 33.52000
H  27.96500 0.53800 37.38800
H  29.67300 0.12400 36.89900
H  28.45300 -0.74900 36.30000
Mg 9.58800 47.85800 24.76400
C  7.61400 48.17200 27.63200
C  12.11500 49.44500 26.45900
C  11.46600 47.89700 21.99300
C  6.71000 47.12500 22.92700
N  9.78300 48.76100 26.82100
C  8.88000 48.66100 27.86800
C  9.51800 49.02000 29.24700
C  10.85900 49.78600 28.64600
C  10.96800 49.27800 27.24700
C  10.73900 51.31900 28.58900
C  9.84100 47.78300 30.18000
C  9.22500 47.83000 31.62400
H  9.31700 46.58300 32.53900
N  11.57000 48.39100 24.36400
C  12.48900 48.95100 25.21900
C  13.74200 48.96800 24.55800
C  13.60900 48.34900 23.27500
C  12.14800 48.14600 23.16900
C  14.96800 49.49800 25.24600
C  14.60300 48.11000 22.18100
O  14.32900 47.69900 21.03000
C  16.07800 48.29100 22.47700
N  9.14500 47.67400 22.74500
C  10.10700 47.65600 21.76500
C  9.60800 47.12900 20.42200
C  8.06900 46.80500 20.72100
C  7.92000 47.24600 22.22500
C  9.77100 48.14000 19.18700
C  7.70600 45.32400 20.47700
C  7.93400 44.35400 21.67200
N  7.54500 47.64500 25.12900
C  6.41400 47.36400 24.32100
C  5.21800 47.36700 25.09500
C  5.64300 47.55500 26.39300
C  7.02300 47.77500 26.35800
C  3.93600 46.95800 24.58400
C  5.19700 47.61000 27.76100
O  4.08300 47.41800 28.21200
C  6.45500 47.99100 28.57200
C  6.60300 46.88000 29.60500
O  7.24600 45.83100 29.39200
O  6.04100 47.18600 30.81200
C  5.84700 46.09100 31.77800
H  12.81000 49.98400 27.10700
H  12.09900 47.79200 21.11000
H  5.74200 46.90400 22.47200
H  8.88400 49.67400 29.84400
H  11.70800 49.49900 29.26500
H  10.73500 51.62400 29.63600
H  9.73500 51.62600 28.29700
H  11.54500 51.77400 28.01300
H  10.90500 47.89500 30.38700
H  9.64800 46.86400 29.62600
H  8.15700 47.86500 31.41000
H  9.47900 48.77300 32.10900
H  15.24000 50.37800 24.66300
H  15.68300 48.67700 25.29900
H  14.87700 50.03700 26.18900
H  16.73900 47.84300 21.73500
H  16.37200 47.89300 23.44800
H  16.21900 49.35800 22.65100
H  10.27400 46.30000 20.18000
H  7.39400 47.41300 20.11900
H  8.87200 48.18500 18.57300
H  10.68000 48.01100 18.60000
H  9.78300 49.15700 19.57800
H  8.21300 44.92400 19.59800
H  6.63600 45.42500 20.29300
H  8.72700 44.65700 22.35500
H  8.20200 43.36300 21.30700
H  6.98700 44.27000 22.20600
H  3.71900 47.70700 23.82200
H  3.19200 47.06600 25.37300
H  3.96500 45.92200 24.24800
H  6.20900 48.90400 29.11400
H  6.48400 46.21700 32.65300
H  6.14300 45.14600 31.32200
H  4.81100 45.95400 32.08700

