158

Mg 46.31600 3.68400 47.56000
C  43.85400 6.04500 46.71000
C  43.79100 1.17400 47.22600
C  48.80900 1.45600 47.39200
C  48.72400 6.31700 47.01500
N  44.02300 3.66200 47.10300
C  43.27300 4.72300 46.81100
C  41.77700 4.29200 46.59900
C  41.77000 2.77600 46.93200
C  43.26800 2.49500 47.19400
C  40.85200 2.27200 48.01300
C  41.17000 4.72700 45.23700
C  39.97400 5.75000 45.19400
H  40.17600 6.77000 44.15800
N  46.33200 1.63200 47.43000
C  45.18000 0.74600 47.28100
C  45.67400 -0.66000 47.13800
C  47.11400 -0.52800 47.01900
C  47.50600 0.91800 47.34700
C  44.75600 -1.88600 47.06300
C  48.04400 -1.69700 46.75400
O  47.56000 -2.87600 46.72500
C  49.46900 -1.56800 46.48300
N  48.41000 3.83900 47.17800
C  49.22000 2.74600 47.42300
C  50.75300 3.14600 47.33600
C  50.68900 4.70000 47.48300
C  49.15100 5.00100 47.26900
C  51.62800 2.28300 48.42100
C  51.54500 5.37800 46.31000
C  52.66500 6.42800 46.57200
N  46.34900 5.71600 47.07800
C  47.38300 6.61300 46.89800
C  46.83200 7.89400 46.61800
C  45.44200 7.75700 46.62800
C  45.19300 6.37500 46.83700
C  47.71100 9.15100 46.29500
C  44.19200 8.37900 46.41100
O  43.96200 9.53700 46.09500
C  43.07200 7.35300 46.57000
C  42.26100 7.68300 47.79100
O  42.40000 7.17900 48.89400
O  41.29700 8.57200 47.51900
C  40.43800 8.99800 48.66700
H  43.05700 0.39900 46.99600
H  49.69300 0.81700 47.45200
H  49.47100 7.10100 46.87500
H  41.17700 4.85500 47.31400
H  41.48000 2.30400 45.99300
H  40.26100 3.07300 48.45900
H  41.48000 1.82900 48.78600
H  40.21300 1.48200 47.62100
H  40.84900 3.87100 44.64400
H  41.99800 5.25900 44.76900
H  39.94600 6.12500 46.21700
H  39.07400 5.15400 45.04200
H  45.10300 -2.36700 46.14900
H  43.73200 -1.55400 46.89300
H  44.72200 -2.60600 47.88100
H  49.92700 -2.43500 46.00800
H  49.84900 -1.38900 47.48900
H  49.73900 -0.64800 45.96400
H  51.05100 2.77400 46.35600
H  50.94500 5.08300 48.47100
H  51.05400 1.73100 49.16500
H  52.17900 3.00000 49.02900
H  52.37500 1.69100 47.89200
H  50.85100 5.81800 45.59400
H  52.10100 4.59900 45.78800
H  52.47800 6.69000 47.61300
H  52.70100 7.26800 45.87800
H  53.60400 5.91000 46.37500
H  48.50300 9.12700 47.04300
H  47.10200 10.04900 46.39600
H  48.02500 9.11700 45.25200
H  42.43400 7.35400 45.68600
H  39.51100 8.42600 48.68500
H  40.25800 10.03300 48.37700
H  40.94500 8.86600 49.62300
Mg 6.41100 54.69600 40.88900
C  6.05000 51.14900 40.80600
C  9.51700 54.42700 39.99900
C  6.43100 58.12200 40.52000
C  3.00700 54.81800 41.73100
N  7.61600 52.99800 40.38800
C  7.31700 51.66200 40.39600
C  8.41900 50.79500 39.78800
C  9.52100 51.91300 39.60200
C  8.91900 53.17600 40.11700
C  10.84400 51.60700 40.32300
C  8.17900 50.15300 38.35100
C  7.18400 50.88200 37.29900
H  7.56600 51.06300 35.84400
N  7.81300 56.10000 40.38700
C  9.07400 55.77600 40.01200
C  9.79800 56.89100 39.61300
C  8.90400 58.02000 39.73500
C  7.61300 57.45500 40.20600
C  11.28000 56.80000 39.24500
C  9.30800 59.52000 39.33300
O  10.42300 59.70300 38.84100
C  8.41600 60.60900 39.66900
N  4.90200 56.21000 41.00600
C  5.13800 57.57100 40.80700
C  3.86100 58.40200 41.07000
C  2.78900 57.22700 41.23500
C  3.58800 55.99100 41.32000
C  3.82200 59.37500 42.25700
C  1.66600 56.96400 40.04900
C  0.23300 57.20600 40.59500
N  4.83200 53.34400 41.22900
C  3.58300 53.53300 41.77900
C  2.93700 52.27100 42.12100
C  3.90200 51.31200 41.76400
C  5.01500 52.01100 41.31100
C  1.59400 52.08100 42.83900
C  4.17100 49.89500 41.73200
O  3.51100 49.01200 42.18500
C  5.53900 49.70900 41.10100
C  5.27900 48.81300 39.96600
O  4.95100 49.15000 38.85900
O  5.57800 47.51800 40.30600
C  5.29400 46.51500 39.30400
H  10.57700 54.37300 39.74200
H  6.32500 59.20300 40.39900
H  2.02900 54.91700 42.20800
H  8.59800 49.99500 40.50700
H  9.65100 52.08900 38.53400
H  10.84300 52.29500 41.16900
H  11.57500 51.71700 39.52200
H  10.81400 50.58900 40.71100
H  7.74300 49.16900 38.52600
H  9.16200 49.89100 37.95900
H  7.06900 51.89500 37.68300
H  6.22200 50.36900 37.28100
H  11.35200 56.06600 38.44200
H  11.63300 56.22800 40.10300
H  11.92700 57.67600 39.20400
H  8.86600 61.59800 39.59100
H  8.13200 60.47700 40.71300
H  7.61900 60.67000 38.92800
H  3.82500 59.03600 40.18400
H  2.31500 57.24200 42.21700
H  2.86600 59.42600 42.77800
H  3.92000 60.35000 41.78100
H  4.62200 59.14200 42.96000
H  1.70000 55.92000 39.73900
H  1.97800 57.55200 39.18600
H  0.29400 57.85500 41.46800
H  -0.28500 56.28000 40.84300
H  -0.28200 57.73000 39.79000
H  1.36700 53.04600 43.29000
H  1.85100 51.44200 43.68400
H  0.86700 51.55900 42.21700
H  6.26900 49.20700 41.73600
H  5.78800 45.61600 39.67300
H  5.79800 46.75600 38.36800
H  4.22300 46.39700 39.14400

