158

Mg 24.56500 -7.97800 47.28600
C  27.09800 -5.47900 46.48500
C  22.56200 -6.41500 45.00200
C  22.40200 -10.32400 47.80000
C  26.94500 -9.42600 49.37700
N  24.72300 -6.06100 45.92300
C  25.87700 -5.28000 45.73900
C  25.60400 -4.22600 44.67100
C  24.05100 -4.42100 44.41900
C  23.77200 -5.70900 45.13900
C  23.15200 -3.20600 44.90300
C  26.53300 -4.46100 43.38800
C  27.21400 -3.17900 42.92600
H  26.90700 -2.83000 41.45800
N  22.78500 -8.36400 46.47900
C  22.12900 -7.59900 45.51600
C  20.80000 -8.16400 45.29500
C  20.67400 -9.29800 46.20800
C  21.96200 -9.37400 46.91400
C  19.66400 -7.48700 44.39700
C  19.40600 -10.06400 46.39100
O  18.37800 -9.85900 45.71600
C  19.22700 -11.02000 47.57500
N  24.70300 -9.69200 48.42900
C  23.61000 -10.44600 48.60800
C  23.77100 -11.56400 49.64300
C  25.25700 -11.30400 50.12200
C  25.70600 -10.10900 49.28900
C  22.75300 -11.61500 50.83700
C  26.23200 -12.56200 49.96500
C  27.41900 -12.65800 51.01600
N  26.55400 -7.51000 47.89200
C  27.35600 -8.25300 48.72600
C  28.70900 -7.66200 48.79700
C  28.58800 -6.56400 47.88100
C  27.26400 -6.50700 47.41300
C  29.88100 -8.20500 49.63200
C  29.37800 -5.49700 47.28200
O  30.55800 -5.13500 47.32600
C  28.43200 -4.71800 46.35300
C  28.30100 -3.30400 46.80800
O  28.12900 -2.79500 47.93600
O  28.52800 -2.57100 45.61100
C  28.20400 -1.12200 45.70800
H  21.92300 -5.88500 44.29200
H  21.70600 -11.14700 47.97900
H  27.67000 -9.95200 50.00100
H  25.67300 -3.23200 45.11200
H  23.84100 -4.52500 43.35500
H  23.68500 -2.28600 45.14100
H  22.61000 -3.54400 45.78700
H  22.43200 -2.88600 44.14900
H  26.00600 -4.96800 42.58000
H  27.30200 -5.17800 43.67500
H  28.29400 -3.32000 42.97300
H  27.01400 -2.29400 43.53100
H  18.98700 -8.18100 43.89900
H  20.15300 -6.85600 43.65500
H  19.16300 -6.79700 45.07500
H  19.32800 -10.58800 48.57100
H  19.90400 -11.85200 47.38100
H  18.19800 -11.37600 47.55100
H  23.72100 -12.46600 49.03300
H  25.33400 -10.93100 51.14300
H  21.98800 -10.90700 50.51600
H  23.22400 -11.16700 51.71100
H  22.50500 -12.66100 51.01600
H  26.78500 -12.45600 49.03200
H  25.63200 -13.46100 50.10700
H  27.37100 -13.60600 51.55100
H  27.45600 -11.80700 51.69700
H  28.35900 -12.75000 50.47000
H  30.48900 -7.39200 50.03000
H  30.53800 -8.81500 49.01200
H  29.56800 -8.80500 50.48600
H  28.79300 -4.67600 45.32500
H  28.90200 -0.70000 46.43100
H  27.19800 -0.85100 46.02800
H  28.48600 -0.58400 44.80300
Mg 41.07200 42.13000 27.64700
C  39.97500 44.55000 30.12000
C  41.61500 39.97300 30.11300
C  42.39700 40.16900 25.26500
C  40.51700 44.64200 25.26200
N  41.01500 42.41000 29.89600
C  40.37500 43.36400 30.63600
C  40.42100 42.97900 32.14100
C  41.00300 41.44000 32.02700
C  41.22200 41.25700 30.56900
C  42.30700 41.25400 32.86900
C  39.10100 43.17400 32.95200
C  38.90600 42.13100 34.17500
H  38.24800 42.57300 35.41700
N  41.93800 40.31100 27.69800
C  42.07100 39.54600 28.81400
C  42.57700 38.23000 28.43900
C  42.89300 38.31000 27.04500
C  42.37400 39.64100 26.56400
C  42.99100 37.19800 29.44400
C  43.54200 37.30400 26.11400
O  43.73000 37.50500 24.91500
C  44.07400 36.02400 26.66500
N  41.40800 42.41000 25.50500
C  41.84700 41.38500 24.77600
C  41.96800 41.85200 23.32300
C  41.10000 43.18800 23.30900
C  40.95600 43.48500 24.75300
C  43.43400 41.96900 22.83900
C  39.76900 43.05900 22.49400
C  38.87200 41.92700 23.03200
N  40.50900 44.11400 27.61400
C  40.26400 44.97800 26.60100
C  39.85700 46.26400 27.14100
C  39.56200 46.04300 28.46800
C  40.07600 44.82300 28.73900
C  39.57200 47.63500 26.43200
C  39.03600 46.68600 29.60500
O  38.57200 47.79200 29.75300
C  39.30800 45.74400 30.75600
C  40.23300 46.46000 31.69800
O  41.38800 46.75200 31.38700
O  39.69600 46.61500 32.93700
C  40.64200 47.11100 33.90200
H  41.71800 39.24800 30.92300
H  42.96400 39.51900 24.59600
H  40.35200 45.35000 24.44700
H  41.08900 43.65600 32.67200
H  40.17500 40.82800 32.38300
H  43.18700 41.37000 32.23700
H  42.41200 40.26100 33.30700
H  42.35900 41.92300 33.72700
H  38.25400 43.21600 32.26800
H  39.04600 44.19800 33.32100
H  39.79600 41.57400 34.46800
H  38.37800 41.33300 33.65300
H  42.86000 37.63100 30.43600
H  44.01300 36.81900 29.46700
H  42.34100 36.32900 29.34300
H  44.96600 36.37700 27.18100
H  44.25200 35.42200 25.77400
H  43.43800 35.34100 27.22800
H  41.50900 41.13800 22.63900
H  41.69000 44.05200 23.00100
H  43.43900 41.49900 21.85500
H  44.13500 41.51100 23.53600
H  43.74200 42.99100 22.61700
H  40.00600 42.76600 21.47100
H  39.18700 43.97800 22.55900
H  38.19900 41.56900 22.25300
H  38.18100 42.30700 23.78400
H  39.43800 41.13800 23.52800
H  39.78300 47.57500 25.36400
H  40.23000 48.39600 26.85100
H  38.56500 48.00300 26.62500
H  38.32500 45.45000 31.12400
H  40.95200 48.14100 33.72000
H  41.54200 46.51100 33.76600
H  40.45900 46.88600 34.95200

