158

Mg 24.16400 -5.36000 44.97000
C  26.34300 -2.96300 43.49300
C  21.63300 -4.11700 42.92600
C  22.56400 -8.22400 45.40300
C  27.08400 -6.94800 46.35100
N  24.03700 -3.69200 43.47200
C  25.01700 -2.92100 42.99000
C  24.52900 -2.00200 41.90500
C  22.90600 -2.04800 42.01400
C  22.82900 -3.37600 42.81300
C  22.23300 -0.99000 42.91600
C  25.08300 -2.59800 40.53900
C  25.57400 -1.64700 39.48300
H  25.05000 -1.79500 38.03800
N  22.36700 -6.02600 44.39400
C  21.43100 -5.36800 43.59200
C  20.25700 -6.22300 43.46000
C  20.50000 -7.45500 44.15800
C  21.89400 -7.28300 44.65300
C  19.00200 -5.81600 42.65100
C  19.46700 -8.51000 44.39600
O  18.35600 -8.38000 43.85800
C  19.64000 -9.60200 45.36300
N  24.72000 -7.25900 45.88200
C  23.83500 -8.28600 45.91300
C  24.46800 -9.46100 46.60000
C  25.75200 -8.92300 47.18600
C  25.91100 -7.64800 46.42200
C  23.46100 -10.17000 47.64400
C  27.02600 -9.84600 46.94900
C  27.84600 -10.22900 48.19500
N  26.25100 -4.98300 45.08300
C  27.29400 -5.74300 45.65300
C  28.52000 -4.99600 45.50600
C  28.17500 -3.86900 44.69400
C  26.78500 -3.96400 44.40200
C  29.85000 -5.35100 46.00900
C  28.67100 -2.67800 44.04700
O  29.78500 -2.17600 44.09400
C  27.53500 -2.08200 43.14700
C  27.18900 -0.67700 43.59500
O  26.64600 -0.24600 44.56500
O  27.61500 0.11000 42.59500
C  27.38500 1.57000 42.69500
H  20.78300 -3.68800 42.39200
H  22.01700 -9.13100 45.66500
H  27.97400 -7.42300 46.76900
H  24.92200 -0.99100 42.01200
H  22.41000 -2.04700 41.04400
H  21.45400 -0.43600 42.39200
H  23.01600 -0.30500 43.24100
H  21.73500 -1.43100 43.78000
H  24.34800 -3.27300 40.10000
H  25.97300 -3.09600 40.92300
H  26.65200 -1.78100 39.57700
H  25.38000 -0.62800 39.81900
H  18.78100 -6.53600 41.86300
H  19.10700 -4.85200 42.15400
H  18.04300 -5.76200 43.16700
H  20.11800 -9.25700 46.28100
H  20.20200 -10.36200 44.82000
H  18.65500 -10.00800 45.59200
H  24.77800 -10.24900 45.91400
H  25.79700 -8.67900 48.24700
H  22.51700 -9.64700 47.79600
H  23.80400 -10.40100 48.65200
H  23.21600 -11.13800 47.20500
H  27.70400 -9.48300 46.17700
H  26.69200 -10.77700 46.49100
H  28.81000 -9.72700 48.28600
H  27.95500 -11.31400 48.22000
H  27.23300 -9.96400 49.05600
H  29.83600 -5.33100 47.09900
H  30.63700 -4.70600 45.61600
H  30.08900 -6.31700 45.56500
H  27.70900 -2.05000 42.07200
H  27.90900 2.00100 41.84200
H  27.75400 1.87100 43.67600
H  26.30200 1.67200 42.63000
Mg 5.36400 55.25800 40.52700
C  4.35900 51.85300 40.50500
C  8.31100 54.07200 39.00200
C  6.34100 58.36300 40.08400
C  2.44800 56.10500 41.94200
N  6.06300 53.18600 39.58600
C  5.53400 51.97500 39.73700
C  6.28900 50.90500 38.82900
C  7.69000 51.56100 38.76400
C  7.38100 53.01200 39.14300
C  8.81700 50.82900 39.59200
C  5.68900 50.71700 37.35600
C  5.23800 49.36300 36.79900
H  5.81500 48.79900 35.55600
N  7.14000 56.10700 39.63800
C  8.17100 55.47500 39.10100
C  9.19700 56.44800 38.73000
C  8.71500 57.73900 39.08000
C  7.31800 57.45000 39.62400
C  10.60500 56.11900 38.09100
C  9.41600 59.05500 38.90900
O  10.59500 59.14800 38.48600
C  8.83600 60.30600 39.16500
N  4.53700 57.00000 40.89800
C  5.13100 58.19600 40.73000
C  4.12500 59.29700 41.20900
C  2.91400 58.59500 41.69600
C  3.30100 57.11300 41.59600
C  4.80100 60.14300 42.42900
C  1.65800 58.95400 40.94100
C  1.36000 60.37600 40.32100
N  3.69500 54.20400 41.13800
C  2.59600 54.73000 41.74100
C  1.77100 53.63500 42.15400
C  2.45700 52.46000 41.75800
C  3.64000 52.88400 41.13200
C  0.45300 53.58400 42.77200
C  2.43100 50.98500 41.69900
O  1.65800 50.20700 42.23500
C  3.69500 50.50600 40.91900
C  3.48300 49.44900 39.93100
O  2.88400 49.50700 38.90600
O  3.98000 48.20800 40.37400
C  3.70300 47.09100 39.51800
H  9.27800 53.68100 38.68000
H  6.55400 59.42200 39.92300
H  1.45900 56.44800 42.25500
H  6.38200 49.91800 39.28300
H  8.03800 51.58000 37.73100
H  9.34600 51.61800 40.12600
H  9.52300 50.44100 38.85700
H  8.44900 50.00900 40.20800
H  6.28900 51.10500 36.53200
H  4.80400 51.34700 37.44700
H  4.17200 49.36200 36.57200
H  5.52800 48.64800 37.56800
H  11.29000 56.67200 38.73300
H  10.71900 56.44400 37.05700
H  10.89200 55.07200 38.19100
H  8.00200 60.46100 38.48100
H  9.52400 61.14100 39.03600
H  8.50700 60.49900 40.18600
H  3.91800 59.97800 40.38400
H  2.68400 58.67100 42.75900
H  4.81600 61.19800 42.15700
H  5.81000 59.78100 42.63000
H  4.23500 60.11900 43.36000
H  0.93600 58.92200 41.75700
H  1.51200 58.16300 40.20500
H  1.36500 60.31500 39.23200
H  2.07900 61.03400 40.80800
H  0.32500 60.55700 40.61300
H  -0.21400 53.49400 41.91500
H  0.21900 54.43300 43.41500
H  0.38500 52.69400 43.39800
H  4.39900 50.12300 41.65800
H  2.80900 46.53000 39.78900
H  4.53600 46.40300 39.66600
H  3.71800 47.24600 38.43900

