158

Mg 8.79800 4.67000 28.06400
C  10.03800 3.08600 30.84800
C  6.96700 6.72000 30.24700
C  7.47600 6.12000 25.39600
C  10.28700 2.22700 26.06000
N  8.52900 4.87100 30.32000
C  9.20400 4.11600 31.25700
C  8.96300 4.62500 32.68500
C  7.75600 5.68000 32.42800
C  7.70700 5.75700 30.89800
C  6.44500 5.30500 33.20100
C  10.25300 5.18800 33.36500
C  10.61600 4.59000 34.75700
H  11.01400 5.63600 35.86400
N  7.51300 6.36700 27.89200
C  6.81700 6.96600 28.88000
C  6.07300 8.04000 28.25200
C  6.17200 7.88500 26.84700
C  7.07800 6.74600 26.63600
C  5.29500 9.01500 29.04700
C  5.58700 8.72500 25.71600
O  5.72500 8.46300 24.50800
C  4.77300 9.84900 25.96900
N  8.74000 4.09700 25.99100
C  8.26700 4.97200 25.08900
C  8.53700 4.47700 23.65900
C  9.46400 3.20600 23.85400
C  9.52600 3.17800 25.40000
C  7.26000 4.12200 22.91500
C  10.91000 3.43100 23.25700
C  11.18000 2.90300 21.81000
N  9.84700 2.98300 28.32900
C  10.41500 2.05100 27.43100
C  11.14600 1.06300 28.13500
C  11.07500 1.46500 29.48800
C  10.21400 2.57400 29.54200
C  11.89200 -0.06000 27.54400
C  11.45300 1.11600 30.85400
O  12.04400 0.12300 31.32700
C  10.93100 2.24100 31.72600
C  10.19100 1.54100 32.80300
O  9.02100 1.19800 32.71900
O  10.99400 1.49100 33.80700
C  10.50500 0.70700 35.00400
H  6.42300 7.34100 30.96200
H  7.11400 6.61000 24.49000
H  10.61800 1.45900 25.35800
H  8.69600 3.77900 33.31800
H  8.01900 6.71100 32.66000
H  6.55700 4.68600 34.09100
H  5.82000 4.77800 32.48000
H  5.91400 6.21200 33.48900
H  10.26900 6.27500 33.44600
H  11.03700 4.90500 32.66200
H  11.53600 4.03600 34.57000
H  9.87200 3.94300 35.22100
H  5.75700 9.39900 29.95700
H  4.50500 8.39400 29.47000
H  4.80600 9.83800 28.52600
H  4.01000 9.73000 26.73800
H  4.34300 10.30800 25.07900
H  5.48100 10.53100 26.44000
H  9.00500 5.30900 23.13300
H  9.01900 2.28800 23.47100
H  6.36000 4.57100 23.33300
H  7.11000 3.04200 22.91400
H  7.25400 4.49900 21.89300
H  11.68900 3.12800 23.95700
H  11.09500 4.50200 23.17800
H  11.77200 1.99000 21.87100
H  11.72700 3.70900 21.32100
H  10.32800 2.74600 21.14900
H  11.47000 -0.29100 26.56600
H  11.64100 -0.93500 28.14400
H  12.97700 0.03200 27.59400
H  11.74700 2.84400 32.12700
H  10.08400 1.42200 35.71200
H  11.28400 0.24700 35.61100
H  9.82600 -0.12900 34.83800
Mg 48.42300 15.62600 28.32300
C  46.54000 15.52300 31.30100
C  50.70600 17.60300 30.07200
C  50.01800 15.98700 25.30600
C  45.79500 14.06800 26.64400
N  48.62000 16.43400 30.42400
C  47.67900 16.24100 31.50500
C  48.29000 16.90000 32.78800
C  49.44600 17.77400 32.25100
C  49.58000 17.30700 30.79300
C  49.26600 19.31100 32.43800
C  48.73100 15.80300 33.85200
C  48.06500 15.75500 35.22000
H  47.85300 17.16500 35.81000
N  50.15700 16.56800 27.79600
C  50.94200 17.33700 28.64400
C  52.03500 17.77100 27.88300
C  51.84600 17.49900 26.49100
C  50.58700 16.67300 26.48900
C  53.11600 18.52300 28.53400
C  52.73000 17.91100 25.25000
O  52.50000 17.58700 24.06800
C  53.90300 18.83100 25.43100
N  47.97200 15.08600 26.24100
C  48.86500 15.24000 25.26900
C  48.44700 14.56800 23.93200
C  46.99100 13.99500 24.29200
C  46.89200 14.37800 25.78600
C  48.32800 15.51000 22.65500
C  46.80600 12.49700 24.19800
C  47.54300 11.61300 25.22000
N  46.60300 14.92700 28.79800
C  45.61300 14.31000 28.02800
C  44.44100 13.97600 28.79500
C  44.77000 14.49900 30.06500
C  46.08500 15.06300 30.04200
C  43.25400 13.23000 28.34200
C  44.29500 14.51800 31.41300
O  43.24200 14.05800 31.85800
C  45.36500 15.23000 32.26100
C  44.86600 16.52600 32.80500
O  44.55500 17.51000 32.20100
O  44.66400 16.34900 34.16800
C  43.77300 17.39000 34.73300
H  51.47000 18.17600 30.60300
H  50.48400 16.10000 24.32500
H  44.94100 13.56600 26.18700
H  47.49800 17.56900 33.12700
H  50.32800 17.45200 32.80500
H  48.48300 19.69300 33.09300
H  49.21100 19.84700 31.49000
H  50.19100 19.67900 32.88200
H  49.81000 15.84500 34.00000
H  48.60300 14.83100 33.37400
H  48.67200 15.16600 35.90800
H  47.11500 15.27400 34.98600
H  52.96100 19.59600 28.41300
H  54.04400 18.36000 27.98600
H  53.29900 18.22300 29.56600
H  53.69800 19.82500 25.83000
H  54.44400 18.84300 24.48600
H  54.60300 18.37600 26.13100
H  49.23400 13.85600 23.68500
H  46.10100 14.34300 23.76800
H  47.27100 15.56800 22.39900
H  48.93100 15.11000 21.84000
H  48.56000 16.55200 22.87500
H  47.14700 12.24400 23.19400
H  45.75800 12.23200 24.06100
H  48.03000 10.76000 24.74800
H  46.77600 11.26100 25.91000
H  48.28400 12.15000 25.81300
H  42.36900 13.37500 28.96100
H  43.58400 12.19200 28.30900
H  43.09100 13.57700 27.32200
H  45.77300 14.58200 33.03700
H  44.43200 18.25400 34.82000
H  43.53000 16.95500 35.70200
H  42.86700 17.49400 34.13600

