158

Mg 41.19500 6.74900 29.37300
C  42.68700 8.50300 32.25100
C  38.63300 5.87700 31.44400
C  39.86700 5.25500 26.84500
C  43.83600 7.91600 27.48900
N  40.77400 7.14000 31.52800
C  41.48900 7.86600 32.54300
C  40.73900 7.87700 33.89900
C  39.54800 6.93800 33.65900
C  39.65800 6.61000 32.09600
C  39.38500 5.72600 34.60700
C  40.27600 9.31200 34.39800
C  39.95500 9.35800 35.92800
H  40.62900 10.33100 36.80100
N  39.50400 5.61800 29.13000
C  38.55000 5.44500 30.06300
C  37.46200 4.73200 29.47100
C  37.83500 4.56000 28.07900
C  39.10400 5.12100 27.95500
C  36.27000 4.19100 30.20200
C  37.05200 3.92500 26.88400
O  37.57100 3.63000 25.81500
C  35.65300 3.54400 27.00000
N  41.78600 6.60000 27.44800
C  41.07400 5.82800 26.62400
C  41.72600 5.94500 25.17800
C  42.96300 6.88000 25.29000
C  42.85000 7.15400 26.83500
C  41.95800 4.60000 24.40900
C  42.81100 8.14700 24.34700
C  42.19800 9.42400 24.88200
N  42.86000 7.99900 29.68400
C  43.88300 8.39200 28.85000
C  44.93700 9.17600 29.47400
C  44.50000 9.29700 30.84900
C  43.22300 8.58300 30.91800
C  46.22500 9.69400 28.78300
C  44.81000 9.79500 32.07900
O  45.77000 10.45100 32.43400
C  43.73000 9.27000 33.09200
C  44.22800 8.32200 34.13800
O  44.91900 7.36500 33.93000
O  43.76000 8.68500 35.36700
C  44.10300 7.73200 36.44400
H  37.68900 5.86800 31.99300
H  39.60000 4.74300 25.91900
H  44.56800 8.27700 26.76400
H  41.25000 7.46600 34.77000
H  38.69000 7.57000 33.89000
H  40.18000 5.69600 35.35200
H  39.37700 4.81700 34.00600
H  38.45000 5.70600 35.16800
H  39.39800 9.59600 33.81700
H  41.09200 9.99200 34.15600
H  40.05600 8.34600 36.32100
H  38.94200 9.75800 35.97200
H  36.54900 3.93300 31.22400
H  35.94300 3.21400 29.84700
H  35.42600 4.87800 30.15300
H  34.99900 4.39500 27.19000
H  35.48200 2.68800 27.65400
H  35.38900 3.11400 26.03400
H  40.86600 6.40800 24.69300
H  43.90500 6.35700 25.12600
H  41.97500 3.72600 25.05900
H  42.91100 4.62500 23.88100
H  41.18300 4.39000 23.67100
H  42.13400 7.81000 23.56300
H  43.80600 8.37000 23.96100
H  42.90500 10.21900 24.64200
H  41.96200 9.37300 25.94400
H  41.30900 9.68100 24.30600
H  47.12500 9.26900 29.22900
H  46.13100 10.76000 28.99100
H  46.10500 9.39400 27.74200
H  43.18400 10.04600 33.62900
H  43.32700 6.96900 36.40400
H  44.10500 8.18500 37.43600
H  45.03200 7.16800 36.36300
Mg 26.01900 50.75200 27.08300
C  23.62300 51.99400 29.28600
C  28.05600 49.98800 29.54100
C  28.34200 49.93200 24.74300
C  23.96900 52.16000 24.44600
N  25.88400 51.09400 29.18500
C  24.79100 51.40800 29.93600
C  25.01700 51.07300 31.44900
C  26.46300 50.71800 31.46000
C  26.87900 50.61600 29.98400
C  27.36100 51.72400 32.23200
C  24.02800 49.95900 32.02000
C  23.52800 50.29000 33.46700
H  24.40400 51.14800 34.41700
N  27.87100 50.01700 27.10200
C  28.58000 49.73100 28.27500
C  29.76600 49.06000 27.94700
C  29.91300 49.17200 26.50100
C  28.68800 49.75000 26.06200
C  30.70200 48.51800 28.99500
C  31.11000 48.85500 25.61000
O  31.13800 49.19400 24.40200
C  32.47500 48.33900 26.20500
N  26.10900 51.02800 24.89200
C  27.13800 50.45500 24.15200
C  26.80700 50.59000 22.65000
C  25.41600 51.31600 22.61300
C  25.15500 51.55300 24.08200
C  27.90200 51.38100 21.87200
C  24.17400 50.64400 21.94300
C  23.94200 50.98500 20.46400
N  24.18000 51.92400 26.82800
C  23.44200 52.27200 25.74900
C  22.22700 52.92300 26.13600
C  22.23300 52.86600 27.55200
C  23.45600 52.26000 27.93600
C  21.20200 53.45600 25.17300
C  21.45000 53.09700 28.74100
O  20.34300 53.60000 28.82900
C  22.29900 52.52600 29.87300
C  22.46700 53.61600 30.85300
O  23.16200 54.64700 30.74700
O  21.62800 53.38300 31.85300
C  21.73100 54.49600 32.91700
H  28.61700 49.75600 30.44900
H  28.96500 49.49400 23.96000
H  23.58500 52.72900 23.59700
H  24.89400 52.07600 31.85700
H  26.61500 49.73600 31.90900
H  27.63500 51.50900 33.26500
H  26.88900 52.70400 32.16100
H  28.27700 51.77600 31.64300
H  24.67300 49.09600 32.18700
H  23.16600 49.76100 31.38200
H  23.37400 49.32600 33.95200
H  22.58000 50.82800 33.47500
H  30.46900 48.94000 29.97300
H  31.74800 48.78800 28.84800
H  30.64600 47.43100 29.04300
H  32.18800 47.34700 26.55300
H  32.80700 48.97400 27.02600
H  33.28400 48.19400 25.48900
H  26.78600 49.56700 22.27500
H  25.63200 52.30900 22.21700
H  28.04400 50.95200 20.88000
H  28.79900 51.15800 22.45000
H  27.77900 52.45300 21.71600
H  23.28100 50.73300 22.56200
H  24.49300 49.60200 21.95300
H  24.71700 51.65600 20.09500
H  22.94700 51.38700 20.27100
H  24.00800 50.05800 19.89400
H  21.39800 54.47100 24.82600
H  20.21200 53.51200 25.62700
H  21.13100 52.84100 24.27700
H  21.61700 51.72600 30.15900
H  21.21900 55.39000 32.55900
H  22.74100 54.67400 33.28700
H  21.12100 54.18300 33.76400

