158

Mg 1.15200 8.27600 25.54300
C  1.59800 10.04900 28.45100
C  0.94000 5.40500 27.41200
C  1.15400 6.66700 22.68600
C  1.65900 11.32000 23.81000
N  1.39800 7.78000 27.80500
C  1.39400 8.67700 28.77100
C  1.28900 8.03300 30.18600
C  1.41900 6.45800 29.76800
C  1.21900 6.52800 28.28200
C  2.62200 5.75600 30.30100
C  -0.07500 8.30000 30.88100
C  -0.20600 8.56400 32.44600
H  0.98800 8.08500 33.35000
N  0.98700 6.27400 25.09300
C  0.93200 5.25400 25.95700
C  0.88600 4.00300 25.24100
C  0.86200 4.32200 23.85400
C  0.95800 5.79600 23.79900
C  0.90000 2.64600 25.95100
C  0.89100 3.39100 22.71800
O  0.88500 3.83300 21.55600
C  0.97200 1.80800 22.93300
N  1.30400 8.87000 23.51500
C  1.39900 8.07400 22.51600
C  1.74200 8.72900 21.16300
C  1.34400 10.22300 21.55100
C  1.42500 10.14800 23.03900
C  3.18900 8.38400 20.85700
C  -0.10700 10.63200 21.07900
C  -0.30800 12.11100 20.87700
N  1.67900 10.27600 25.96200
C  1.71300 11.42700 25.19700
C  1.94400 12.56700 25.94400
C  1.88000 12.10500 27.29300
C  1.73000 10.72500 27.23300
C  2.05000 13.98200 25.44300
C  1.92400 12.50000 28.68500
O  2.04800 13.63600 29.20900
C  1.62500 11.16800 29.50100
C  2.66300 11.07400 30.59000
O  3.79700 10.63700 30.43900
O  2.11000 11.45200 31.85500
C  2.94200 11.61100 33.02100
H  0.81400 4.45000 27.92600
H  1.17200 6.16700 21.71600
H  1.57700 12.17100 23.13000
H  2.11700 8.31700 30.83500
H  0.58000 5.93000 30.22100
H  2.89100 5.13600 29.44600
H  2.61800 5.06700 31.14600
H  3.41200 6.49800 30.41900
H  -0.81400 7.51500 30.72700
H  -0.47400 9.17600 30.36900
H  -1.07000 8.06000 32.87800
H  -0.43500 9.62300 32.57100
H  1.14700 2.66800 27.01300
H  1.58400 1.99100 25.41200
H  -0.06900 2.14900 25.90900
H  0.92500 1.40700 21.92000
H  0.18400 1.44000 23.59000
H  1.98100 1.64400 23.31100
H  1.19100 8.49700 20.25100
H  2.17100 10.86400 21.24400
H  3.57900 7.54500 21.43400
H  3.88800 9.20000 21.03800
H  3.32600 8.18900 19.79400
H  -0.85800 10.30900 21.79900
H  -0.38500 10.18100 20.12600
H  -0.88900 12.35300 19.98600
H  0.60500 12.70600 20.86100
H  -0.82800 12.47900 21.76200
H  2.44700 14.25300 24.46500
H  2.78800 14.36500 26.14800
H  1.13000 14.55100 25.58200
H  0.68100 11.22900 30.04400
H  3.18300 12.64700 33.25800
H  3.84600 11.00300 32.99800
H  2.45300 11.35600 33.96100
Mg 40.80800 8.87500 29.44100
C  42.72700 10.01200 32.08900
C  38.62700 7.34200 31.70300
C  39.23800 7.38500 26.85100
C  43.43400 9.67000 27.25400
N  40.68700 8.70400 31.64800
C  41.50000 9.40900 32.54000
C  41.05700 9.22300 33.94700
C  39.85400 8.18400 33.86100
C  39.67400 8.12700 32.28900
C  40.02900 6.87400 34.55600
C  40.80500 10.62000 34.71500
C  41.59500 10.85200 36.10700
H  41.03000 11.87000 37.15400
N  39.17000 7.57500 29.35000
C  38.33400 7.14700 30.32800
C  37.18600 6.44100 29.80400
C  37.40200 6.33900 28.41600
C  38.67200 7.08500 28.13400
C  36.13100 5.85500 30.72300
C  36.58500 5.73100 27.37100
O  36.95300 5.58400 26.23000
C  35.25300 5.20300 27.76400
N  41.26200 8.60600 27.31500
C  40.32800 8.01800 26.46200
C  40.71700 8.29100 24.97100
C  42.17500 8.79000 25.09100
C  42.36400 8.99900 26.64200
C  40.51200 7.12400 24.03300
C  42.64200 10.00100 24.33100
C  42.07700 11.39900 24.82000
N  42.71400 9.78600 29.57900
C  43.64600 10.00200 28.61100
C  44.72300 10.75100 29.21100
C  44.42800 10.69700 30.58000
C  43.20000 10.11800 30.74600
C  45.94800 11.17900 28.56500
C  44.94100 10.93800 31.89400
O  46.01300 11.39000 32.22200
C  43.82700 10.57800 32.90900
C  44.42400 9.77600 34.06200
O  44.64200 8.56300 34.02500
O  44.78200 10.63300 35.12500
C  45.30400 9.95700 36.29300
H  37.97000 6.82800 32.40700
H  38.65400 7.13500 25.96300
H  44.17900 10.00400 26.52900
H  41.90900 8.80500 34.48100
H  38.95400 8.66200 34.24800
H  40.64600 6.20300 33.95800
H  39.06000 6.43500 34.79200
H  40.50100 7.10600 35.51100
H  39.76600 10.84100 34.95900
H  41.06100 11.36300 33.95900
H  42.53300 11.36000 35.88100
H  41.82000 9.95900 36.69100
H  35.88100 6.35600 31.65800
H  36.53600 4.87700 30.98100
H  35.13000 5.82100 30.29300
H  34.77800 4.53800 27.04300
H  34.59500 6.07100 27.82000
H  35.32000 4.61000 28.67600
H  40.02600 9.03700 24.57800
H  42.88700 7.97100 24.98400
H  39.65700 7.17800 23.35900
H  40.49400 6.20000 24.61000
H  41.35800 7.16000 23.34700
H  42.35400 9.91800 23.28300
H  43.73000 10.04600 24.37100
H  41.34900 11.22000 25.61200
H  41.50500 11.76400 23.96700
H  42.86400 12.10000 25.09800
H  46.13900 12.24900 28.64400
H  45.92400 11.01600 27.48700
H  46.75900 10.66500 29.08100
H  43.52100 11.53400 33.33300
H  46.39000 10.04500 36.29500
H  44.90900 8.94200 36.34900
H  44.91400 10.41200 37.20400

