158

Mg 23.82200 -5.61900 44.96100
C  26.11900 -3.26200 43.28400
C  21.44700 -4.78400 42.55400
C  21.96600 -8.15200 45.96600
C  26.60700 -6.81200 46.67200
N  23.79700 -4.13900 43.13600
C  24.82700 -3.18800 42.76100
C  24.29400 -2.26800 41.66300
C  22.73500 -2.64400 41.67900
C  22.64400 -4.01800 42.36700
C  21.88900 -1.52300 42.27400
C  25.05200 -2.42200 40.34400
C  25.72500 -1.15600 39.76400
H  25.33000 -0.77400 38.35700
N  21.96800 -6.28400 44.47600
C  21.13800 -5.73500 43.51900
C  19.83500 -6.33300 43.64400
C  19.90400 -7.29900 44.68600
C  21.30800 -7.29200 45.07800
C  18.67100 -5.79600 42.83200
C  18.72600 -8.06100 45.24100
O  17.70700 -7.90100 44.60300
C  18.73900 -9.00300 46.36300
N  24.24300 -7.14700 46.27600
C  23.21700 -8.09700 46.49400
C  23.87100 -9.27200 47.25800
C  25.19200 -8.64100 47.82700
C  25.39900 -7.51700 46.84000
C  22.94900 -9.88000 48.34300
C  26.33100 -9.69000 47.82500
C  26.89900 -9.86100 49.26800
N  25.86200 -5.08900 45.10600
C  26.90100 -5.67700 45.85000
C  28.11800 -5.01000 45.62800
C  27.83100 -4.00100 44.65200
C  26.49400 -4.18700 44.24500
C  29.38300 -5.30700 46.38900
C  28.46200 -2.92500 43.98200
O  29.56600 -2.37300 44.06000
C  27.33600 -2.35600 43.08100
C  27.07800 -0.97000 43.50400
O  26.65700 -0.65500 44.57700
O  27.22900 -0.07500 42.42100
C  26.84200 1.27800 42.78100
H  20.62100 -4.47500 41.91000
H  21.35100 -9.03500 46.15300
H  27.51900 -7.11600 47.18900
H  24.50700 -1.26800 42.04000
H  22.27700 -2.92200 40.73000
H  22.32200 -0.52900 42.16600
H  21.62300 -1.69000 43.31800
H  20.99000 -1.61100 41.66500
H  24.35300 -2.71200 39.56000
H  25.71900 -3.28400 40.33300
H  26.80800 -1.15500 39.88500
H  25.38600 -0.24700 40.26100
H  18.99800 -5.85100 41.79400
H  18.39600 -4.75400 42.99400
H  17.75500 -6.38600 42.84400
H  19.28600 -8.53300 47.18000
H  19.22700 -9.93700 46.08300
H  17.71700 -9.18300 46.69600
H  24.09300 -10.10800 46.59500
H  24.94700 -8.10000 48.74200
H  22.88100 -10.84900 47.84800
H  21.93500 -9.49000 48.43800
H  23.47800 -9.94100 49.29400
H  27.26500 -9.56300 47.27800
H  25.89500 -10.64900 47.54400
H  27.98700 -9.83500 49.32000
H  26.56900 -10.83900 49.61900
H  26.41300 -9.08000 49.85300
H  29.98600 -5.98900 45.79000
H  29.07300 -5.76800 47.32700
H  29.96100 -4.39500 46.53600
H  27.77100 -2.29200 42.08400
H  25.80800 1.24500 43.12500
H  26.92300 1.90500 41.89300
H  27.40400 1.75400 43.58400
Mg -1.61500 34.99400 26.17600
C  -3.48000 33.38500 28.76600
C  -0.55900 37.15400 28.59600
C  -0.00100 36.68500 23.82500
C  -3.39200 33.14100 23.97200
N  -1.93600 35.13300 28.46800
C  -2.77900 34.44200 29.30000
C  -2.77600 34.91800 30.71700
C  -2.01700 36.29700 30.57200
C  -1.43300 36.19900 29.13400
C  -2.90300 37.53200 30.82100
C  -2.14900 33.95400 31.77800
C  -2.96300 33.85600 33.13500
H  -2.30500 33.12600 34.33200
N  -0.38700 36.59700 26.20800
C  -0.06400 37.35200 27.29700
C  0.85500 38.39200 26.87700
C  1.13200 38.20300 25.55500
C  0.26600 37.08300 25.13100
C  1.32200 39.44400 27.86900
C  1.90400 39.03800 24.56900
O  2.30100 38.55600 23.49300
C  2.38700 40.40700 24.97500
N  -1.81500 35.07200 24.12900
C  -0.95900 35.75500 23.32800
C  -1.14800 35.43600 21.86700
C  -2.15800 34.24300 21.95800
C  -2.52100 34.14100 23.43800
C  -1.61300 36.70300 21.02500
C  -1.65300 32.90000 21.31400
C  -0.46400 32.20200 22.01800
N  -3.01400 33.40700 26.22800
C  -3.66500 32.74000 25.24000
C  -4.52500 31.69600 25.77100
C  -4.49700 31.96300 27.17600
C  -3.55500 32.92400 27.40900
C  -5.36500 30.72000 25.08400
C  -5.05800 31.50600 28.39600
O  -5.81000 30.61000 28.70000
C  -4.30700 32.36600 29.51500
C  -5.38300 32.99400 30.24600
O  -5.97200 34.07200 30.01900
O  -5.75000 32.16000 31.30200
C  -6.73700 32.63800 32.25900
H  -0.27700 37.83400 29.40200
H  0.54400 37.04900 22.95100
H  -3.86600 32.46400 23.25700
H  -3.82100 35.10200 30.96500
H  -1.14100 36.41200 31.20900
H  -2.92200 38.16400 29.93300
H  -2.44400 38.20200 31.54800
H  -3.94100 37.33500 31.08900
H  -1.17000 34.31500 32.09600
H  -2.05300 32.97900 31.30100
H  -3.94000 33.43100 32.90200
H  -3.06000 34.88300 33.48600
H  1.27200 39.08600 28.89800
H  0.65400 40.30500 27.85900
H  2.38500 39.68200 27.89100
H  1.61600 40.93600 25.53500
H  2.66100 40.92200 24.05500
H  3.27100 40.14600 25.55800
H  -0.21800 35.02200 21.47900
H  -3.08700 34.58300 21.50000
H  -2.69900 36.76100 21.10900
H  -1.33600 36.61700 19.97500
H  -1.18800 37.61700 21.44000
H  -1.46900 33.17700 20.27600
H  -2.43600 32.14300 21.27200
H  -0.86700 31.30800 22.49400
H  0.04400 32.73700 22.82100
H  0.30200 31.85500 21.32500
H  -5.21500 29.70200 25.44400
H  -5.20500 30.91100 24.02300
H  -6.41100 30.91100 25.32300
H  -3.71600 31.62600 30.05500
H  -6.42700 33.26700 33.09400
H  -7.27800 31.79500 32.69000
H  -7.44300 33.36100 31.85000

