158

Mg 1.48900 7.47700 25.79200
C  1.83900 9.69000 28.38800
C  1.93800 4.83300 27.90200
C  0.82700 5.61800 23.19500
C  1.75500 10.32700 23.57500
N  2.08200 7.31600 27.82800
C  2.01700 8.35200 28.80700
C  2.08000 7.81500 30.25500
C  2.23500 6.25800 30.01300
C  1.99000 6.11700 28.47700
C  3.55400 5.56200 30.46100
C  0.82000 8.19800 31.11700
C  1.07800 8.82700 32.53000
H  2.05000 8.08700 33.47100
N  1.46800 5.47100 25.59700
C  1.78900 4.50100 26.55700
C  1.64500 3.20800 25.93000
C  1.12900 3.38500 24.59300
C  1.03600 4.87200 24.47600
C  2.10200 1.99100 26.64400
C  0.86200 2.31400 23.48900
O  0.55800 2.64500 22.34400
C  0.97300 0.83300 23.76400
N  1.45400 7.87100 23.63200
C  1.11700 6.91900 22.84600
C  0.86400 7.40100 21.44200
C  1.21600 8.96500 21.43500
C  1.39200 9.08800 23.00700
C  1.63100 6.60300 20.39100
C  0.06900 9.84500 20.96800
C  0.33000 10.88300 19.82500
N  1.73700 9.62700 25.91600
C  1.79200 10.57900 24.96600
C  1.89000 11.95200 25.66000
C  1.85400 11.55900 27.02600
C  1.82700 10.18400 27.08500
C  2.03000 13.26200 24.96100
C  1.90900 12.12100 28.32400
O  1.95600 13.33400 28.64600
C  1.89200 10.94100 29.35100
C  3.18300 10.91700 30.12600
O  4.25000 10.47600 29.70600
O  3.04500 11.48300 31.31000
C  4.28500 11.39700 32.06600
H  2.19200 4.06400 28.63400
H  0.69500 4.94200 22.34700
H  1.93900 11.13200 22.86000
H  3.02500 8.17200 30.66400
H  1.49200 5.72800 30.60900
H  4.22600 6.18700 31.04900
H  4.16900 5.28200 29.60600
H  3.29600 4.67100 31.03300
H  0.15600 7.36500 31.34900
H  0.12700 8.80800 30.53700
H  0.15900 8.92900 33.10700
H  1.50600 9.81700 32.37800
H  2.77000 1.41300 26.00700
H  1.19500 1.41200 26.81900
H  2.48300 2.27900 27.62400
H  0.13300 0.61400 24.42300
H  1.95900 0.68200 24.20400
H  1.04600 0.20000 22.88000
H  -0.21500 7.33000 21.30800
H  2.14900 9.21200 20.92800
H  2.57600 7.08800 20.14400
H  1.02900 6.27500 19.54300
H  1.96200 5.63300 20.76200
H  -0.31900 10.45100 21.78700
H  -0.79300 9.22800 20.71500
H  0.23700 10.41000 18.84700
H  1.39100 11.10300 19.94000
H  -0.35500 11.72300 19.94500
H  3.03100 13.26000 24.53000
H  1.84300 14.08800 25.64700
H  1.31400 13.31900 24.14100
H  0.98700 11.05500 29.94800
H  4.18500 12.14700 32.85100
H  5.15300 11.79600 31.54200
H  4.51900 10.36100 32.31400
Mg 46.75900 34.63800 28.67900
C  45.19300 32.35100 30.72500
C  46.71800 36.89200 31.19100
C  47.83100 36.91700 26.45800
C  46.04100 32.41400 25.85900
N  46.16600 34.53600 30.71600
C  45.47900 33.52800 31.43500
C  45.30800 33.87700 32.91500
C  45.27800 35.43000 32.75300
C  46.15800 35.62000 31.48500
C  43.82900 35.99200 32.63500
C  46.41200 33.20000 33.90200
C  47.40900 33.94300 34.76000
H  46.91200 34.47700 36.15800
N  47.53300 36.57300 28.92400
C  47.46800 37.36100 30.04500
C  48.16400 38.53800 29.88900
C  48.49100 38.58500 28.48600
C  47.92700 37.37400 27.86000
C  48.46700 39.40800 31.04100
C  49.25100 39.59600 27.71100
O  49.55500 39.38600 26.52200
C  49.63300 40.95200 28.32000
N  46.89800 34.61800 26.47700
C  47.35500 35.72400 25.85700
C  47.39100 35.49900 24.32500
C  46.81800 34.06500 24.19800
C  46.63000 33.61800 25.60100
C  46.79300 36.65200 23.46000
C  47.61000 33.08600 23.25600
C  46.85200 32.56100 22.02000
N  45.86900 32.75500 28.33200
C  45.67400 31.93400 27.16900
C  44.90500 30.76400 27.49700
C  44.76700 30.83100 28.94300
C  45.22100 32.08200 29.34200
C  44.47200 29.71300 26.61800
C  44.27400 30.18600 30.14900
O  43.80900 29.10200 30.30300
C  44.37300 31.24600 31.25300
C  44.70900 30.63300 32.60300
O  45.73400 30.12500 32.97500
O  43.59400 30.86900 33.39900
C  43.79200 30.40700 34.81500
H  46.56700 37.68400 31.92800
H  48.15600 37.68800 25.75700
H  45.68000 31.78900 25.04000
H  44.40200 33.55900 33.43000
H  45.76100 35.94900 33.58100
H  43.31400 35.72600 33.55800
H  43.28300 35.61500 31.77100
H  43.89100 37.08000 32.64600
H  46.97600 32.48700 33.30200
H  45.76800 32.84000 34.70500
H  47.55100 34.88000 34.22200
H  48.39000 33.46800 34.76300
H  47.72200 40.20200 31.08500
H  49.37600 39.99400 30.90200
H  48.70800 39.00300 32.02400
H  48.87000 41.47800 28.89400
H  49.91200 41.51100 27.42700
H  50.45900 40.72300 28.99300
H  48.44700 35.42000 24.06600
H  45.75300 34.09400 23.97100
H  46.11200 37.28100 24.03200
H  46.12600 36.12100 22.78100
H  47.57900 37.15400 22.89500
H  47.90300 32.14400 23.72000
H  48.54300 33.55800 22.94900
H  47.54200 32.47400 21.18100
H  46.02600 33.12800 21.58900
H  46.56200 31.53500 22.24500
H  45.33900 29.24600 26.15000
H  43.80800 30.14000 25.86700
H  44.05900 28.84500 27.13200
H  43.38500 31.70000 31.33300
H  43.74600 29.32800 34.96000
H  43.08100 31.02500 35.36200
H  44.82100 30.52000 35.15600

