158

Mg -11.39500 38.89600 42.09200
C  -9.55300 36.16500 40.91900
C  -9.46400 40.93200 40.07200
C  -13.72000 41.28700 42.41300
C  -13.73500 36.53400 43.38700
N  -9.74200 38.56400 40.50300
C  -9.12200 37.35500 40.29300
C  -7.99200 37.56800 39.33000
C  -7.89600 39.13800 39.21300
C  -9.05200 39.56700 40.01900
C  -6.55600 39.71300 39.63800
C  -8.38100 36.94400 37.91600
C  -7.37100 36.00700 37.27700
H  -6.52400 36.70300 36.19100
N  -11.47100 40.86000 41.46600
C  -10.54400 41.55300 40.73200
C  -11.01900 42.95900 40.67400
C  -12.23800 43.09600 41.44500
C  -12.52400 41.68800 41.83100
C  -10.10700 43.97700 40.06500
C  -13.04600 44.34600 41.66400
O  -12.57000 45.38100 41.16700
C  -14.22800 44.49500 42.57900
N  -13.42800 38.95800 42.99100
C  -14.20900 40.08900 42.94400
C  -15.62300 39.80400 43.34700
C  -15.64000 38.23600 43.71700
C  -14.17600 37.88000 43.38100
C  -15.91400 40.71300 44.56000
C  -16.73100 37.43900 42.91400
C  -17.65700 36.62200 43.84200
N  -11.53600 36.84400 42.28000
C  -12.52500 36.04200 42.87500
C  -11.98400 34.69800 43.03600
C  -10.77500 34.71600 42.28700
C  -10.63900 35.98000 41.77700
C  -12.72300 33.57400 43.78800
C  -9.72100 33.90500 41.78600
O  -9.39800 32.76000 41.98300
C  -8.81600 34.80700 40.88500
C  -7.47300 34.82700 41.41800
O  -6.55800 34.03800 41.15000
O  -7.18400 35.91900 42.15700
C  -5.85900 35.82300 42.79800
H  -8.94800 41.65800 39.44100
H  -14.55200 41.99500 42.42900
H  -14.41700 35.78700 43.79800
H  -7.04300 37.12900 39.63800
H  -8.07000 39.51700 38.20500
H  -6.37100 40.56700 38.98700
H  -5.72600 39.05000 39.39700
H  -6.52300 39.89900 40.71200
H  -8.74300 37.70600 37.22700
H  -9.29700 36.37600 38.07900
H  -7.93600 35.23100 36.76200
H  -6.81700 35.48300 38.05600
H  -10.65700 44.62100 39.38000
H  -9.27300 43.55600 39.50500
H  -9.75700 44.46900 40.97300
H  -14.14800 45.51200 42.96400
H  -14.14100 43.94400 43.51500
H  -15.16800 44.31000 42.05900
H  -16.25900 40.12000 42.52100
H  -15.71100 38.12700 44.79900
H  -15.01600 40.79500 45.17100
H  -16.67000 40.25900 45.20100
H  -16.40400 41.65000 44.29500
H  -16.23500 36.85200 42.14100
H  -17.40800 38.13200 42.41600
H  -17.47300 35.58800 43.54900
H  -18.67500 36.91200 43.58600
H  -17.68400 36.70200 44.92900
H  -12.26500 32.58800 43.72300
H  -13.72600 33.51200 43.36600
H  -12.77300 33.87200 44.83500
H  -8.82800 34.48600 39.84400
H  -5.86300 36.37900 43.73500
H  -5.13700 36.36100 42.18300
H  -5.40200 34.86900 43.06200
Mg -11.08300 17.50700 40.38100
C  -7.56100 17.09200 40.55300
C  -10.52300 20.93300 39.66700
C  -14.28400 17.81800 39.53300
C  -11.41700 14.03700 40.54000
N  -9.11800 18.85900 40.13300
C  -7.89500 18.47000 40.30400
C  -6.95900 19.64200 39.97000
C  -7.93100 20.88500 40.04500
C  -9.30800 20.24000 39.94500
C  -7.87800 21.80900 41.29900
C  -6.37700 19.50900 38.45600
C  -4.94700 19.04000 38.26300
H  -4.67000 17.96400 37.21700
N  -12.29300 19.23000 39.81600
C  -11.85100 20.51900 39.49900
C  -12.95800 21.23100 39.04000
C  -14.08100 20.38100 38.91200
C  -13.63100 19.07900 39.42900
C  -12.77200 22.67900 38.67900
C  -15.37100 20.76700 38.34600
O  -15.65800 21.95600 38.06900
C  -16.46900 19.84400 38.01900
N  -12.61400 16.14700 40.13200
C  -13.88200 16.52000 39.89700
C  -14.88700 15.28600 39.80300
C  -13.93200 14.09600 40.02500
C  -12.54700 14.73100 40.31500
C  -16.05100 15.55800 40.79800
C  -13.81500 13.02600 38.87800
C  -14.25400 11.61000 39.42800
N  -9.83000 15.81600 40.56300
C  -10.13900 14.49100 40.60100
C  -8.93100 13.74500 40.85000
C  -7.87700 14.69500 40.77800
C  -8.47300 15.96500 40.60000
C  -8.85200 12.27200 40.96500
C  -6.43300 14.95700 40.81000
O  -5.49100 14.24100 40.82800
C  -6.15500 16.44100 40.71900
C  -5.35100 16.93800 41.90300
O  -4.61100 17.84400 41.89800
O  -5.41800 16.04300 42.94800
C  -4.22100 16.11300 43.82800
H  -10.37200 22.01300 39.60000
H  -15.31500 17.97900 39.21000
H  -11.54600 12.95300 40.54800
H  -6.16700 19.70900 40.71600
H  -7.82300 21.45400 39.12200
H  -7.76000 22.86000 41.03400
H  -7.01700 21.44400 41.85900
H  -8.68900 21.57200 41.98700
H  -6.51000 20.44800 37.91700
H  -6.90800 18.66500 38.01700
H  -4.62500 18.59700 39.20500
H  -4.27100 19.86900 38.04900
H  -13.28100 22.84900 37.73100
H  -11.71400 22.88700 38.51500
H  -13.22600 23.29400 39.45600
H  -16.10800 18.96200 37.49000
H  -17.14800 20.39100 37.36500
H  -17.08300 19.74600 38.91500
H  -15.32300 15.17900 38.80900
H  -14.29700 13.51300 40.87000
H  -15.95800 16.62900 40.98200
H  -16.11300 14.84800 41.62300
H  -17.01900 15.46000 40.30700
H  -12.85000 12.95700 38.37500
H  -14.52800 13.23400 38.08000
H  -15.31500 11.37100 39.50800
H  -13.83700 11.38300 40.40900
H  -13.75100 10.93100 38.74000
H  -7.93500 11.82400 40.58100
H  -9.59100 11.69200 40.41100
H  -8.99800 11.97500 42.00400
H  -5.57300 16.46000 39.79700
H  -3.77700 15.12500 43.95000
H  -4.55700 16.47700 44.79800
H  -3.46000 16.83700 43.53500

