158

Mg -1.88100 17.40200 26.74500
C  -2.18200 14.97100 29.27600
C  -2.70000 19.96700 29.07700
C  -2.06000 19.63200 24.23900
C  -2.09200 14.62100 24.36400
N  -2.26300 17.39300 28.94000
C  -2.32700 16.30200 29.82800
C  -2.58900 16.74800 31.29000
C  -2.77900 18.34900 31.09100
C  -2.59400 18.63300 29.61700
C  -4.06700 18.94400 31.63900
C  -1.46000 16.39600 32.22900
C  -1.45300 17.14800 33.53500
H  -0.76700 16.48900 34.72200
N  -2.01300 19.51200 26.63900
C  -2.31000 20.38200 27.69500
C  -2.07000 21.76600 27.20900
C  -1.77700 21.64100 25.82600
C  -1.86200 20.25600 25.47600
C  -2.09700 22.98100 28.04900
C  -1.45400 22.76200 24.79500
O  -1.14200 22.51500 23.58400
C  -1.66500 24.18400 25.12500
N  -1.98200 17.12500 24.67200
C  -2.10000 18.25000 23.83300
C  -2.34300 17.80300 22.38600
C  -2.02000 16.24500 22.43100
C  -2.01700 15.93400 23.90000
C  -3.77500 18.14100 21.85300
C  -0.69700 15.79500 21.75900
C  0.68600 16.41400 22.25800
N  -2.13700 15.24800 26.75700
C  -2.09300 14.29800 25.75700
C  -2.01400 13.00000 26.36000
C  -2.03800 13.22500 27.74200
C  -2.17700 14.57500 27.93900
C  -2.06900 11.73200 25.62400
C  -2.03100 12.53900 29.11200
O  -1.91500 11.34100 29.36800
C  -2.26700 13.67800 30.13300
C  -1.11400 13.49200 31.04900
O  0.02800 13.90700 30.99100
O  -1.61500 12.75200 32.07000
C  -0.83000 12.64600 33.33900
H  -2.92100 20.78500 29.76600
H  -2.26400 20.36600 23.45700
H  -2.13900 13.80300 23.64200
H  -3.54100 16.30800 31.58600
H  -1.99800 18.87900 31.63500
H  -4.77100 19.29400 30.88300
H  -3.77200 19.79700 32.25000
H  -4.56400 18.20300 32.26500
H  -0.46400 16.44300 31.78900
H  -1.65700 15.39300 32.60900
H  -2.47800 17.36800 33.83500
H  -0.97900 18.12600 33.45600
H  -2.94300 23.65500 27.91600
H  -1.23300 23.64500 28.01200
H  -2.13800 22.70100 29.10200
H  -0.89300 24.46900 25.84000
H  -2.66300 24.22000 25.56100
H  -1.72900 24.81700 24.24000
H  -1.58500 18.30200 21.78200
H  -2.74800 15.65200 21.87700
H  -4.18300 18.95500 22.45300
H  -4.36800 17.23500 21.72600
H  -3.74600 18.61000 20.87000
H  -0.83600 16.14100 20.73500
H  -0.70500 14.70700 21.81200
H  1.37000 15.57100 22.35800
H  0.58800 17.08500 23.11200
H  0.99200 17.08900 21.45900
H  -1.56800 10.94900 26.19300
H  -1.39800 11.94100 24.79000
H  -3.02000 11.48000 25.15600
H  -3.17500 13.53400 30.72000
H  -0.13700 11.80700 33.27700
H  -1.42100 12.35100 34.20700
H  -0.24900 13.55200 33.51000
Mg 41.73500 41.12500 26.67900
C  40.65400 43.21800 29.29500
C  42.66100 38.89700 29.30700
C  43.06800 39.12400 24.41000
C  41.16200 43.66000 24.33300
N  41.70400 41.11900 29.06900
C  41.10900 42.05600 29.86300
C  41.25200 41.67300 31.35900
C  42.12300 40.43600 31.36600
C  42.21700 40.13200 29.81200
C  43.55200 40.66700 32.03400
C  39.88700 41.65700 32.17400
C  39.57600 42.70300 33.30400
H  38.74400 42.45600 34.53400
N  42.70900 39.30500 26.81500
C  43.00100 38.53000 27.95300
C  43.59000 37.30600 27.58700
C  43.79100 37.31000 26.15000
C  43.19100 38.65100 25.73200
C  44.00500 36.26100 28.58300
C  44.28300 36.22500 25.21300
O  44.17300 36.26700 23.98300
C  44.74200 34.96100 25.84000
N  42.13400 41.37600 24.64700
C  42.49100 40.28100 23.90100
C  42.44400 40.66600 22.37700
C  41.87100 42.08000 22.38500
C  41.69100 42.45700 23.87200
C  43.85200 40.63800 21.66200
C  40.50000 42.03900 21.80100
C  39.98900 43.43000 21.38000
N  40.94100 42.99600 26.72200
C  40.80300 43.92400 25.69400
C  40.27100 45.11100 26.31400
C  40.18400 44.88100 27.67800
C  40.70000 43.57600 27.91400
C  39.95300 46.36300 25.70200
C  39.99000 45.48000 28.93900
O  39.60400 46.65100 29.24000
C  40.16400 44.39000 30.06000
C  41.08900 44.94800 31.04000
O  42.29400 44.91900 30.87500
O  40.43000 45.64700 32.04800
C  41.35900 46.35200 32.95600
H  42.87300 38.29200 30.19100
H  43.61300 38.56500 23.64700
H  40.89700 44.54700 23.75300
H  41.82500 42.49800 31.78300
H  41.55600 39.62600 31.82400
H  44.38500 40.61300 31.33300
H  43.56800 39.89900 32.80800
H  43.67600 41.66900 32.44300
H  39.82400 40.73400 32.75000
H  39.07200 41.74500 31.45500
H  38.89500 43.37500 32.78100
H  40.51400 43.22600 33.48700
H  43.63500 35.28900 28.25600
H  43.84200 36.43400 29.64600
H  45.07500 36.08900 28.46000
H  45.17600 34.32300 25.07100
H  43.94600 34.31500 26.21000
H  45.57200 35.19900 26.50500
H  41.94000 39.94500 21.73400
H  42.65400 42.76700 22.06400
H  44.07200 39.63800 21.28900
H  44.55400 41.02000 22.40300
H  43.79900 41.20200 20.73100
H  39.90800 41.59700 22.60200
H  40.44100 41.34500 20.96300
H  39.75600 43.35600 20.31800
H  40.75300 44.20500 21.32500
H  39.07500 43.77000 21.86700
H  38.87800 46.51400 25.79800
H  40.24300 46.46000 24.65600
H  40.51600 47.08500 26.29400
H  39.21000 44.33700 30.58500
H  42.02200 45.54400 33.26500
H  40.84000 46.64100 33.87000
H  41.90400 47.18000 32.50300

