158

Mg 35.62100 2.84100 30.32100
C  33.10600 3.64500 32.60700
C  37.83200 2.78600 32.91700
C  38.03600 1.84100 28.13200
C  33.29100 2.88800 27.81500
N  35.48700 3.08800 32.46700
C  34.34000 3.30000 33.22600
C  34.57100 3.22600 34.67700
C  36.09000 2.96900 34.81000
C  36.52700 3.02300 33.28500
C  36.80400 4.02900 35.75500
C  33.69200 2.08800 35.32600
C  33.21000 2.46100 36.80100
H  33.91500 3.46100 37.73700
N  37.69900 2.45700 30.47400
C  38.36300 2.47500 31.64800
C  39.72900 2.01400 31.35600
C  39.79800 1.69400 29.95900
C  38.52200 2.01800 29.43200
C  40.78800 1.69600 32.46900
C  40.97200 1.04500 29.15400
O  40.86900 0.88100 27.92600
C  42.19500 0.47000 29.96200
N  35.74300 2.56900 28.30500
C  36.74000 2.08000 27.65400
C  36.46700 1.72700 26.17000
C  34.96000 1.98100 26.06900
C  34.60200 2.48400 27.49000
C  37.27000 2.55700 25.06800
C  34.04400 0.77700 25.61900
C  33.06400 1.10800 24.37200
N  33.68700 3.33300 30.13700
C  32.82100 3.36200 29.05700
C  31.52600 3.91300 29.49200
C  31.58400 4.10200 30.85000
C  32.91500 3.58100 31.18400
C  30.34400 4.17300 28.72200
C  30.92400 4.55200 32.08100
O  29.85700 5.08400 32.39600
C  31.86800 4.18700 33.29600
C  32.06900 5.37900 34.12900
O  32.52900 6.43700 33.70800
O  31.58600 5.14200 35.43200
C  31.78500 6.20100 36.38600
H  38.53000 2.91100 33.74800
H  38.66200 1.44000 27.33300
H  32.58600 2.86800 26.98100
H  34.35100 4.19100 35.13300
H  36.34100 1.96500 35.15000
H  37.44800 4.56100 35.05500
H  37.37900 3.61800 36.58500
H  36.13000 4.82900 36.06100
H  34.36000 1.22700 35.32600
H  32.88400 1.77300 34.66500
H  33.07400 1.54800 37.38100
H  32.19300 2.81500 36.63500
H  40.37800 2.15900 33.36700
H  41.78200 2.10800 32.29300
H  40.89800 0.63000 32.66800
H  41.88200 -0.13800 30.81100
H  42.77700 1.34400 30.25400
H  42.72100 -0.13500 29.22300
H  36.58700 0.65100 26.04300
H  34.67300 2.81400 25.42700
H  36.66300 3.20700 24.43800
H  37.74000 1.79500 24.44700
H  37.99400 3.11400 25.66300
H  33.50600 0.52800 26.53400
H  34.66800 -0.07600 25.35400
H  33.25500 0.31200 23.65200
H  33.25600 2.06300 23.88200
H  32.02800 1.16300 24.70700
H  30.48900 4.71200 27.78600
H  29.83700 4.76100 29.48700
H  29.78300 3.24800 28.59100
H  31.32900 3.39400 33.81300
H  31.06900 6.91600 35.98100
H  32.76500 6.56800 36.69000
H  31.37900 5.74400 37.28900
Mg 41.74600 40.80600 26.45500
C  41.13100 43.06400 29.02500
C  43.10400 38.58700 28.81800
C  42.38800 38.37700 24.04200
C  41.10000 43.20700 24.14300
N  42.09400 40.83800 28.62400
C  41.58200 41.80100 29.43700
C  41.56700 41.31500 30.90500
C  42.48300 39.99900 30.85100
C  42.58300 39.79700 29.34600
C  43.83600 40.20700 31.62400
C  40.20600 41.09400 31.58400
C  40.02400 41.94100 32.90300
H  39.45000 41.24200 34.18100
N  42.59000 38.77400 26.40200
C  43.02400 38.04000 27.52000
C  43.53800 36.74400 27.13000
C  43.32400 36.70100 25.74500
C  42.65400 37.94700 25.34200
C  44.12000 35.72500 28.05600
C  43.76100 35.61500 24.79500
O  43.35100 35.55600 23.61500
C  44.50800 34.50100 25.28900
N  41.88300 40.85500 24.37600
C  42.06100 39.70900 23.55300
C  42.09000 40.14700 22.07500
C  41.44700 41.58300 22.15500
C  41.45900 41.97600 23.64700
C  43.50800 40.12000 21.49300
C  39.97500 41.69500 21.70600
C  38.95100 40.75400 22.40000
N  41.25800 42.78900 26.59200
C  41.01100 43.63400 25.48600
C  40.55800 44.88300 25.99900
C  40.53900 44.71000 27.41500
C  41.07300 43.38800 27.70300
C  40.28100 46.13700 25.19600
C  40.17600 45.29500 28.68500
O  39.79700 46.42400 28.93500
C  40.50800 44.24300 29.86500
C  41.41300 44.86600 30.88100
O  42.64600 44.77100 30.82000
O  40.68000 45.51100 31.87300
C  41.40900 46.09600 33.02500
H  43.61200 38.05500 29.62500
H  42.68600 37.63800 23.29600
H  40.83500 43.96700 23.40500
H  42.03000 42.17200 31.39400
H  41.91000 39.23200 31.37200
H  44.65200 39.78900 31.03300
H  43.64000 39.59100 32.50100
H  44.18400 41.21700 31.84100
H  40.08300 40.03300 31.80100
H  39.47600 41.31000 30.80400
H  39.29000 42.73900 32.78600
H  40.89800 42.56800 33.07700
H  43.50200 34.83500 27.93300
H  44.15600 36.16400 29.05300
H  45.18400 35.54400 27.89700
H  44.12100 33.79200 26.02100
H  45.51500 34.82100 25.55600
H  44.72600 33.90500 24.40300
H  41.52900 39.34300 21.59900
H  42.15400 42.30100 21.73900
H  43.62700 39.79600 20.45900
H  44.16600 39.67600 22.23900
H  43.86600 41.14900 21.47100
H  39.99300 41.44200 20.64600
H  39.68600 42.73600 21.85400
H  39.41400 40.21200 23.22500
H  38.60800 39.99400 21.69900
H  38.06400 41.23800 22.80800
H  39.59600 45.82200 24.41000
H  41.24300 46.39100 24.75100
H  39.89700 46.87400 25.90200
H  39.52600 44.02600 30.28600
H  42.12200 46.76200 32.53900
H  41.87500 45.24000 33.51200
H  40.79300 46.56000 33.79500

