158

Mg 35.22800 2.30200 29.79800
C  33.09800 3.65100 32.21900
C  37.61600 2.06300 32.16100
C  37.45500 1.91500 27.22900
C  32.75900 3.17200 27.38000
N  35.25300 2.82000 31.88900
C  34.28900 3.24300 32.75400
C  34.64500 3.14700 34.19800
C  36.22200 3.01000 34.10300
C  36.38900 2.62900 32.56100
C  37.07700 4.17800 34.61600
C  33.94200 1.98900 35.02800
C  33.96000 2.23100 36.57900
H  34.86500 3.32300 37.19900
N  37.30900 2.00400 29.73200
C  38.11800 1.81800 30.84800
C  39.38700 1.43300 30.40800
C  39.41600 1.41200 28.94900
C  38.00500 1.85600 28.58600
C  40.50800 1.22800 31.40400
C  40.60500 1.11600 28.02900
O  40.54200 1.21700 26.80200
C  41.90900 0.61900 28.67900
N  35.14600 2.54200 27.63400
C  36.18600 2.15700 26.82100
C  35.76200 2.15400 25.32000
C  34.18000 2.48600 25.43100
C  34.02000 2.76200 26.91300
C  36.70300 3.04900 24.42200
C  33.20500 1.31300 25.04000
C  32.21400 1.64200 23.95300
N  33.30300 3.04000 29.72300
C  32.44000 3.41500 28.66200
C  31.18700 3.97500 29.17600
C  31.44800 3.99800 30.57600
C  32.73400 3.49900 30.85700
C  30.06400 4.68200 28.42200
C  30.86600 4.46900 31.81800
O  29.84200 5.03500 32.15100
C  31.86600 4.06600 32.97000
C  32.20000 5.31300 33.75100
O  32.97500 6.21100 33.47400
O  31.52400 5.19400 34.97700
C  31.85000 6.16800 36.05500
H  38.29000 1.95700 33.01300
H  38.20800 1.65700 26.48100
H  31.93400 3.25600 26.66900
H  34.39900 4.12100 34.62100
H  36.57100 2.10900 34.60600
H  37.90900 4.48400 33.98300
H  37.53200 3.74100 35.50400
H  36.46500 5.05400 34.83500
H  34.48300 1.10700 34.68500
H  32.93700 1.81900 34.64200
H  34.04300 1.22400 36.98600
H  32.96900 2.53900 36.91400
H  41.36700 1.85800 31.17200
H  40.84800 0.19200 31.42300
H  40.17700 1.51400 32.40300
H  42.66100 0.15200 28.04400
H  41.68200 -0.10700 29.45900
H  42.37000 1.51700 29.09100
H  35.95000 1.12400 25.01600
H  33.80100 3.36300 24.90700
H  37.16600 3.82300 25.03400
H  36.07300 3.70600 23.82300
H  37.43000 2.58200 23.75800
H  32.80200 0.80200 25.91400
H  33.91700 0.68500 24.50400
H  32.73000 1.65000 22.99300
H  31.91500 2.68500 24.06500
H  31.42200 0.90000 24.05400
H  29.22700 5.03600 29.02400
H  29.77900 4.08500 27.55600
H  30.51600 5.53500 27.91700
H  31.61800 3.25000 33.64900
H  31.30000 7.10900 36.05100
H  32.91600 6.36600 35.93700
H  31.76900 5.73700 37.05200
Mg 9.98100 47.36900 26.02800
C  8.02700 47.33500 28.92900
C  12.63300 48.77900 27.97200
C  11.92200 47.56600 23.29000
C  7.09600 46.86600 24.14100
N  10.18000 48.01200 28.12000
C  9.35000 47.71700 29.11600
C  9.84000 48.35100 30.37200
C  11.12700 49.12100 30.02900
C  11.34200 48.55300 28.62300
C  11.02100 50.67300 30.08100
C  10.10500 47.31400 31.56300
C  9.74500 47.69100 33.01300
H  9.87900 46.60000 34.07000
N  12.02800 47.96400 25.67700
C  12.92600 48.47800 26.64100
C  14.29000 48.43400 25.97200
C  14.09500 48.09800 24.57400
C  12.61000 47.90100 24.45300
C  15.59500 48.78100 26.76500
C  15.24300 47.75900 23.52600
O  14.98600 47.45300 22.34300
C  16.68800 47.82500 23.94200
N  9.51900 47.28800 24.01300
C  10.55500 47.24700 23.09400
C  10.01900 47.07900 21.65300
C  8.50100 46.67700 21.92400
C  8.34300 46.99500 23.46200
C  10.35600 48.31000 20.78000
C  8.21800 45.21800 21.57500
C  8.47900 44.13800 22.68600
N  7.90100 47.03600 26.43500
C  6.86500 46.87100 25.57000
C  5.65600 46.77900 26.36800
C  6.04800 46.87700 27.69100
C  7.46800 47.06400 27.69900
C  4.25300 46.64900 25.80700
C  5.59100 46.88600 29.08600
O  4.43800 46.65300 29.55800
C  6.90900 47.27500 29.91200
C  7.15800 46.13300 30.82400
O  7.72500 45.13300 30.48300
O  6.58700 46.42400 32.05600
C  6.50200 45.24200 32.89200
H  13.44200 49.13800 28.61200
H  12.47700 47.50800 22.35200
H  6.20000 46.74500 23.52900
H  9.06200 49.04000 30.70000
H  12.00400 48.82600 30.60600
H  11.41400 51.06100 29.14200
H  11.52500 51.12600 30.93500
H  10.02000 51.09000 30.18700
H  11.19100 47.23100 31.59700
H  9.75800 46.30200 31.35600
H  8.70100 48.00400 33.05100
H  10.41200 48.52800 33.21600
H  15.40200 48.94000 27.82600
H  15.86200 49.74500 26.33200
H  16.32700 47.97900 26.67200
H  16.72000 46.89300 24.50600
H  16.84300 48.71600 24.54900
H  17.50200 47.91800 23.22400
H  10.50900 46.21500 21.20400
H  7.74400 47.28500 21.42900
H  10.76300 49.12900 21.37300
H  9.49800 48.83400 20.35800
H  11.11600 48.05700 20.04100
H  8.75800 44.91000 20.68000
H  7.14400 45.08800 21.44000
H  8.93800 44.32700 23.65600
H  9.23300 43.49300 22.23500
H  7.55700 43.57200 22.81900
H  4.04300 45.59600 25.62100
H  4.27100 47.15100 24.84000
H  3.57000 47.17700 26.47400
H  6.82200 48.21300 30.46000
H  6.26900 44.36100 32.29500
H  5.62500 45.35500 33.53100
H  7.36500 45.28300 33.55600

