158

Mg 2.06100 -0.96200 43.36200
C  5.45900 -0.69600 42.89300
C  1.48300 1.66600 41.33500
C  -1.37400 -1.50900 43.75400
C  2.61300 -3.96000 45.10300
N  3.29100 0.44600 42.33800
C  4.72000 0.33400 42.23800
C  5.24400 1.41200 41.37600
C  4.00700 2.28000 40.94700
C  2.90500 1.42600 41.53000
C  4.00500 3.76400 41.51800
C  6.06300 0.84800 40.14300
C  7.30400 1.68000 39.66000
H  7.12800 2.72700 38.51500
N  0.32100 0.00700 42.71600
C  0.30400 1.06400 41.88700
C  -1.04000 1.51100 41.74600
C  -1.91200 0.63800 42.48200
C  -0.99600 -0.29900 43.11800
C  -1.45100 2.78500 40.94400
C  -3.41600 0.72800 42.48900
O  -4.03800 1.56300 41.84000
C  -4.26000 -0.33300 43.34200
N  0.73300 -2.57700 44.37700
C  -0.63300 -2.58100 44.31400
C  -1.21700 -3.91200 44.82000
C  0.14400 -4.57400 45.36700
C  1.23600 -3.63800 44.92100
C  -2.44700 -3.95800 45.77700
C  0.35700 -6.05300 44.85200
C  1.07600 -6.95600 45.85200
N  3.64800 -2.14900 43.90100
C  3.76700 -3.29500 44.64700
C  5.08800 -3.70500 44.76100
C  5.86400 -2.71000 44.08300
C  4.90500 -1.79500 43.59500
C  5.54300 -4.88300 45.49100
C  7.13100 -2.25200 43.73800
O  8.25800 -2.60300 44.01800
C  6.97400 -0.88700 42.93300
C  7.65800 0.06200 43.82100
O  7.68100 0.06800 45.03900
O  8.32800 0.92700 43.03700
C  9.17300 1.95300 43.67800
H  1.30300 2.52100 40.68000
H  -2.42500 -1.72400 43.95900
H  2.84500 -4.88900 45.62800
H  5.77400 2.04800 42.08400
H  3.91200 2.37200 39.86600
H  3.68000 4.46600 40.75000
H  5.01400 4.12300 41.72300
H  3.48800 3.98000 42.45300
H  5.49100 0.80200 39.21700
H  6.34100 -0.19600 40.29200
H  8.04900 0.90400 39.48200
H  7.53500 2.31600 40.51400
H  -2.07100 3.49100 41.49700
H  -1.94200 2.52500 40.00600
H  -0.54000 3.31500 40.66700
H  -5.29600 -0.01300 43.23200
H  -4.22700 -0.19100 44.42300
H  -4.16600 -1.35500 42.97600
H  -1.49800 -4.45500 43.91700
H  0.01400 -4.58100 46.44900
H  -2.75700 -2.92700 45.94400
H  -2.26900 -4.50800 46.70100
H  -3.30900 -4.46900 45.34800
H  0.99800 -6.02600 43.97000
H  -0.54100 -6.53100 44.46100
H  0.41700 -7.80400 46.03800
H  1.27600 -6.49500 46.81900
H  1.95500 -7.38300 45.36900
H  5.49600 -5.77200 44.86400
H  5.02100 -4.99100 46.44200
H  6.61400 -4.91400 45.69000
H  7.58900 -1.08400 42.05500
H  8.56400 2.41400 44.45600
H  9.61000 2.65300 42.96600
H  10.01100 1.38700 44.08500
Mg 8.95800 3.43400 27.59500
C  10.25900 1.74000 30.57400
C  7.61800 5.76100 29.64400
C  7.70300 4.77800 24.88400
C  10.39500 0.82200 25.76300
N  8.87600 3.62400 29.92900
C  9.44200 2.85600 30.91000
C  9.16700 3.43600 32.27400
C  8.18100 4.67200 31.96700
C  8.22600 4.67700 30.42700
C  6.74000 4.75400 32.60000
C  10.52500 3.82400 32.94200
C  10.39700 4.84500 34.18700
H  11.19500 4.60000 35.42500
N  7.93800 5.18400 27.27800
C  7.47700 6.03400 28.26500
C  6.82900 7.13000 27.65400
C  6.83600 6.83400 26.23500
C  7.53000 5.58500 26.04000
C  6.22800 8.25000 28.36900
C  6.22400 7.66700 25.11500
O  6.29100 7.38900 23.91900
C  5.43300 8.88400 25.47500
N  9.10600 2.86600 25.65000
C  8.42100 3.57100 24.69900
C  8.52800 2.84100 23.32200
C  9.60300 1.76400 23.57000
C  9.79300 1.81300 25.08700
C  7.24000 2.39700 22.65700
C  10.87700 1.98400 22.71200
C  11.34400 0.81700 21.81000
N  10.22200 1.71800 28.00400
C  10.63800 0.71700 27.11000
C  11.24400 -0.35200 27.87300
C  11.24600 0.08100 29.21900
C  10.50300 1.28900 29.23200
C  11.74900 -1.57200 27.41700
C  11.60800 -0.28700 30.54600
O  12.27900 -1.27400 30.95600
C  11.06400 0.81900 31.49800
C  10.25000 0.28000 32.56500
O  9.08800 -0.02400 32.44800
O  10.90900 0.24600 33.67400
C  10.11900 -0.36200 34.78500
H  7.23300 6.52000 30.32900
H  7.30200 5.19200 23.95600
H  10.83500 0.01200 25.17600
H  8.63900 2.74400 32.93100
H  8.78400 5.55800 32.16200
H  6.76900 3.88100 33.25100
H  5.94900 4.83600 31.85400
H  6.61400 5.66000 33.19200
H  11.17000 4.28300 32.19300
H  11.12300 3.00200 33.33400
H  9.33300 4.85100 34.42200
H  10.60700 5.86900 33.87700
H  6.64900 9.13500 27.89300
H  6.39500 8.31900 29.44400
H  5.16600 8.18500 28.13200
H  6.09500 9.59400 25.97100
H  4.55000 8.43600 25.93000
H  5.06100 9.31100 24.54300
H  8.96900 3.59500 22.67000
H  9.21100 0.76000 23.41000
H  7.00100 3.02400 21.79800
H  6.51000 2.56000 23.45000
H  7.25900 1.33600 22.40400
H  11.79600 2.25700 23.23100
H  10.75300 2.78400 21.98200
H  10.63900 -0.01300 21.83500
H  12.25900 0.48600 22.30300
H  11.45100 1.32300 20.85100
H  11.16300 -1.70800 26.50800
H  11.45600 -2.35300 28.11800
H  12.82400 -1.48400 27.25800
H  11.94000 1.32700 31.90000
H  9.49000 0.36900 35.29300
H  10.91500 -0.73500 35.43000
H  9.53000 -1.21600 34.45100

