158

Mg 45.03800 5.38300 47.89400
C  43.17600 8.32700 47.28900
C  42.23500 3.58800 46.72700
C  46.93800 2.61700 47.64100
C  47.84700 7.40700 48.28400
N  42.94700 5.92300 47.22300
C  42.48300 7.17100 46.98600
C  41.03200 7.09000 46.42300
C  40.63400 5.57200 46.50600
C  42.04000 4.98900 46.84200
C  39.55700 5.25000 47.58800
C  41.04400 7.50900 44.94700
C  40.12200 8.66900 44.61000
H  39.20700 8.37600 43.37300
N  44.64300 3.31000 47.39200
C  43.39300 2.81500 46.95500
C  43.53900 1.42700 46.82900
C  44.92200 1.05300 47.00500
C  45.59300 2.31100 47.34300
C  42.40400 0.44400 46.43800
C  45.48600 -0.31100 46.65400
O  44.69900 -1.22500 46.30700
C  46.96500 -0.67300 46.67700
N  47.09100 5.06600 48.08700
C  47.62100 3.76100 48.00600
C  49.13500 3.79500 48.23900
C  49.48700 5.33800 48.11800
C  48.11900 6.00000 48.23800
C  49.55000 3.13400 49.59400
C  50.18800 5.75300 46.78100
C  51.59400 6.27500 46.86300
N  45.32700 7.48000 48.16400
C  46.61100 8.09800 48.18200
C  46.37700 9.48900 48.06900
C  45.06100 9.64200 47.65500
C  44.54100 8.35100 47.69400
C  47.38200 10.57900 48.19000
C  44.04000 10.68000 47.23100
O  44.16100 11.89900 47.01500
C  42.68000 9.73300 47.17900
C  41.63700 10.06800 48.16900
O  41.41000 9.44200 49.18300
O  40.79800 10.99900 47.69400
C  39.59100 11.27400 48.54000
H  41.36600 3.11500 46.26500
H  47.48100 1.67400 47.73300
H  48.68200 8.11000 48.27500
H  40.35200 7.65800 47.05600
H  40.20900 5.28500 45.54400
H  39.12800 6.13400 48.06100
H  39.93600 4.89800 48.54700
H  38.66200 4.78700 47.17200
H  40.70400 6.75800 44.23300
H  42.08100 7.75000 44.71200
H  40.75800 9.53700 44.43600
H  39.54500 9.00800 45.47000
H  42.29600 -0.32700 47.20100
H  42.57300 0.02000 45.44900
H  41.48300 1.02600 46.39600
H  47.53000 -0.04600 45.98600
H  47.10100 -1.73100 46.45500
H  47.41900 -0.43400 47.63800
H  49.67900 3.23300 47.48000
H  50.11100 5.64800 48.95600
H  48.61700 3.04700 50.15000
H  50.33600 3.69600 50.09800
H  49.88800 2.11200 49.42400
H  49.52100 6.44200 46.26200
H  50.27100 4.83200 46.20500
H  51.52300 7.36000 46.78200
H  52.26100 5.87300 46.10100
H  52.02900 6.08000 47.84300
H  48.10100 10.58300 47.37100
H  48.00600 10.51300 49.08200
H  46.75100 11.45900 48.06500
H  42.25400 9.75200 46.17600
H  39.20200 12.27200 48.33800
H  39.67100 11.01600 49.59600
H  38.77000 10.62700 48.23100
Mg 41.99200 40.71500 27.49700
C  41.08000 43.27400 29.86900
C  43.22700 38.93700 30.07900
C  43.02200 38.61500 25.27500
C  41.49800 43.13600 24.96400
N  42.18800 41.16000 29.73200
C  41.53900 42.07700 30.47100
C  41.59700 41.78900 31.98000
C  42.45400 40.42300 32.01000
C  42.65800 40.18600 30.52000
C  43.78400 40.40500 32.78400
C  40.18300 41.66200 32.64200
C  39.89300 42.52900 33.80800
H  39.22400 41.88200 34.98100
N  42.75600 38.91600 27.65500
C  43.28200 38.32500 28.80100
C  43.74400 37.01600 28.50200
C  43.67100 36.85200 27.07400
C  43.17200 38.15200 26.59600
C  44.24600 36.03500 29.60100
C  44.17900 35.72100 26.21700
O  44.14600 35.63700 25.03600
C  44.84800 34.65600 26.85900
N  42.28400 40.91000 25.42400
C  42.67800 39.84600 24.70800
C  42.66600 40.06000 23.16000
C  42.07500 41.47400 23.05300
C  41.97600 41.91400 24.52500
C  43.98200 39.83400 22.45200
C  40.67900 41.45400 22.33700
C  39.38800 41.06300 23.08100
N  41.43000 42.81400 27.37300
C  41.23100 43.63400 26.28300
C  41.01000 45.04100 26.75300
C  40.83200 44.90000 28.14100
C  41.13800 43.54200 28.46200
C  40.88900 46.16100 25.78800
C  40.38400 45.59200 29.39800
O  40.12100 46.73500 29.63600
C  40.50500 44.53500 30.56100
C  41.51000 45.10000 31.49800
O  42.72200 45.06000 31.45500
O  40.79500 45.70200 32.47200
C  41.52500 46.08200 33.67900
H  43.72600 38.31400 30.82500
H  43.20600 37.90500 24.46500
H  41.19600 43.73200 24.10000
H  42.15100 42.55000 32.53000
H  41.85200 39.56100 32.29800
H  43.91500 41.40200 33.20700
H  44.69200 40.14900 32.23800
H  43.80000 39.72500 33.63600
H  39.99200 40.65500 33.01200
H  39.50000 41.92900 31.83500
H  39.20800 43.29800 33.45200
H  40.74200 43.07700 34.21900
H  45.33100 35.95000 29.54000
H  43.94600 35.00300 29.42000
H  43.89900 36.26900 30.60800
H  44.04800 34.19700 27.44000
H  45.67700 35.11600 27.39600
H  45.35000 34.00300 26.14500
H  41.97900 39.27500 22.84500
H  42.63500 42.19600 22.45800
H  44.87900 39.72000 23.05900
H  44.19100 40.62800 21.73500
H  43.96000 38.89600 21.89800
H  40.72700 40.65200 21.60100
H  40.47100 42.31300 21.69800
H  39.57400 40.65800 24.07600
H  38.77800 40.25300 22.68100
H  38.87200 42.00700 23.25300
H  39.99400 46.07700 25.17100
H  41.73300 46.01200 25.11500
H  40.91000 47.21600 26.06300
H  39.54000 44.37500 31.04300
H  41.78200 45.20900 34.28000
H  40.91700 46.72500 34.31600
H  42.47300 46.60800 33.57000

