158

Mg 30.23500 58.75100 39.15400
C  27.29000 56.96800 38.36500
C  32.03000 56.08300 38.13000
C  33.02200 60.69600 39.26800
C  28.19900 61.62300 39.52700
N  29.69100 56.80500 38.18200
C  28.44100 56.23500 38.17800
C  28.57900 54.71500 37.99500
C  30.11000 54.45600 38.26100
C  30.67900 55.86700 38.08000
C  30.50500 53.74800 39.64100
C  28.04400 54.27300 36.58900
C  28.73900 55.03300 35.40700
H  27.76200 55.39000 34.21600
N  32.31600 58.38800 38.77900
C  32.82700 57.19100 38.32000
C  34.31100 57.38500 38.27800
C  34.63800 58.67200 38.65700
C  33.30500 59.35500 38.90000
C  35.11400 56.20200 37.78200
C  36.00400 59.26900 38.74700
O  36.97000 58.60700 38.44400
C  36.25900 60.59800 39.33400
N  30.59200 60.84800 39.28300
C  31.83800 61.33400 39.44300
C  31.74400 62.78100 39.80300
C  30.20900 63.10800 39.87200
C  29.61700 61.76900 39.50300
C  32.39400 63.30600 41.16900
C  29.68900 64.31800 39.01500
C  29.13400 65.54400 39.77800
N  28.11800 59.23100 39.18500
C  27.47900 60.43300 39.28200
C  26.07300 60.23600 39.29900
C  25.93400 58.84700 38.89000
C  27.21200 58.29700 38.79200
C  25.05900 61.41300 39.47500
C  24.91700 57.85300 38.60700
O  23.70700 57.90200 38.60200
C  25.80900 56.53800 38.30500
C  25.37600 55.45200 39.21100
O  25.71600 55.44400 40.41500
O  24.56800 54.53600 38.59600
C  24.22200 53.40200 39.41100
H  32.67900 55.20900 38.03900
H  33.91300 61.30700 39.42200
H  27.65000 62.53600 39.76900
H  27.99100 54.23500 38.77800
H  30.46500 53.80200 37.46500
H  29.59600 53.24900 39.97800
H  30.82200 54.49100 40.37300
H  31.18900 52.95500 39.33800
H  26.97200 54.46100 36.51400
H  28.35500 53.23400 36.48400
H  29.63500 54.45700 35.17800
H  29.27200 55.92900 35.72600
H  34.55400 55.61200 37.05700
H  35.36800 55.60200 38.65600
H  36.09200 56.51200 37.41400
H  35.73100 60.64600 40.28600
H  35.90100 61.37600 38.65900
H  37.34000 60.72300 39.39700
H  32.27800 63.35000 39.04200
H  29.93100 63.43700 40.87300
H  32.48500 64.38700 41.06200
H  33.41200 62.92700 41.08400
H  31.87100 63.06700 42.09400
H  28.80100 64.08100 38.42900
H  30.44500 64.64300 38.30000
H  29.70200 66.45000 39.56300
H  29.24600 65.37400 40.84900
H  28.12600 65.67100 39.38400
H  25.26000 62.20200 38.74900
H  25.14000 61.85400 40.46800
H  24.07700 60.94600 39.54900
H  25.49500 56.20500 37.31600
H  25.15600 52.84700 39.49700
H  23.44100 52.81100 38.93400
H  23.73900 53.76200 40.32000
Mg 36.12600 49.12900 24.98800
C  36.43100 47.57600 28.02900
C  35.20800 52.08200 26.64300
C  35.65100 50.65300 22.09900
C  37.25200 46.19500 23.42200
N  35.96100 49.77200 27.09500
C  36.12100 48.94800 28.16400
C  36.21700 49.82200 29.45800
C  35.71500 51.22600 29.00600
C  35.63600 51.01600 27.46600
C  34.35100 51.63400 29.67500
C  37.56000 49.77300 30.16900
C  37.39400 49.31500 31.63500
H  36.03200 49.43000 32.51100
N  35.51700 51.08300 24.48700
C  35.11900 52.13000 25.27800
C  34.75000 53.30000 24.42600
C  34.80400 52.87400 23.11000
C  35.34000 51.47500 23.16600
C  34.51600 54.64100 25.01600
C  34.51700 53.69200 21.85200
O  34.62100 53.25200 20.72200
C  33.94200 55.00600 22.00400
N  36.33400 48.52300 23.08500
C  36.14600 49.35500 22.00900
C  36.61600 48.80300 20.68500
C  37.23900 47.46000 21.08700
C  36.96500 47.34300 22.65600
C  35.52100 48.59800 19.57100
C  38.72000 47.20500 20.86800
C  38.99900 45.98200 19.95700
N  36.60800 47.25500 25.51600
C  37.02500 46.12700 24.83000
C  37.20900 45.00200 25.67600
C  37.05600 45.59400 26.98400
C  36.64400 46.93100 26.83700
C  37.56500 43.65700 25.20800
C  37.13700 45.26000 28.39900
O  37.47000 44.17900 28.90500
C  36.83200 46.56800 29.17600
C  35.67600 46.31400 30.08400
O  34.52700 46.10100 29.66600
O  35.99800 46.00600 31.37900
C  35.08600 45.25400 32.22900
H  34.81900 52.96300 27.15800
H  35.60700 51.13100 21.11900
H  37.77300 45.35500 22.95800
H  35.48800 49.30300 30.08100
H  36.42800 52.03000 29.18800
H  33.40900 51.35700 29.20100
H  34.27300 52.70300 29.87000
H  34.40200 51.18000 30.66400
H  38.02500 50.75800 30.17500
H  38.27500 49.18300 29.59600
H  38.20500 49.87200 32.10300
H  37.54800 48.23600 31.67100
H  33.45700 54.89800 24.99200
H  35.11200 55.34000 24.42900
H  34.89300 54.72400 26.03500
H  33.00500 54.89500 22.55100
H  33.67200 55.43500 21.04000
H  34.70600 55.65800 22.42800
H  37.31300 49.59600 20.41500
H  36.60500 46.67600 20.67400
H  34.59600 48.22700 20.01200
H  35.84100 47.82000 18.87700
H  35.42200 49.54700 19.04300
H  39.21300 47.10700 21.83500
H  39.09200 48.12000 20.40600
H  39.76600 45.39400 20.46100
H  39.33500 46.54400 19.08600
H  38.10700 45.44200 19.64100
H  38.60500 43.51000 24.91600
H  36.93500 43.26700 24.40900
H  37.31700 43.06500 26.08900
H  37.71000 46.92000 29.71800
H  34.85600 44.34800 31.66800
H  34.20200 45.87600 32.37000
H  35.60400 45.00900 33.15600

