158

Mg 29.75000 57.76800 40.66200
C  27.05000 55.77200 39.47800
C  31.84300 55.60700 39.11600
C  32.25500 60.01500 40.98800
C  27.49400 60.26000 41.57800
N  29.41200 55.97100 39.44900
C  28.31000 55.25100 39.08400
C  28.57700 53.93200 38.29300
C  30.12400 53.86900 38.48200
C  30.48100 55.23900 39.04400
C  30.69800 52.67900 39.28300
C  28.06900 54.02800 36.78700
C  27.86400 55.35100 36.12600
H  27.03300 55.39000 34.95700
N  31.83700 57.80500 40.22600
C  32.50700 56.70800 39.70500
C  33.92700 56.96700 39.76100
C  34.07500 58.24600 40.41100
C  32.70500 58.76300 40.56300
C  35.02200 55.96600 39.44800
C  35.36500 58.94500 40.63500
O  36.45900 58.45900 40.28500
C  35.45400 60.29300 41.29000
N  29.83000 59.95100 41.13200
C  31.02000 60.55400 41.25500
C  30.80800 62.02900 41.67600
C  29.25100 62.15800 41.92800
C  28.82300 60.71000 41.58100
C  31.69700 62.56500 42.90000
C  28.54300 63.34400 41.13600
C  28.21200 64.59400 41.90800
N  27.70400 57.94300 40.74700
C  26.93500 59.00200 41.16200
C  25.55200 58.58100 41.15200
C  25.55900 57.26500 40.47800
C  26.93500 57.00300 40.24500
C  24.39500 59.49900 41.46300
C  24.69000 56.30300 39.89000
O  23.45500 56.26800 39.74800
C  25.62700 55.27500 39.27100
C  25.38700 53.97600 39.98600
O  26.02600 53.53300 40.95800
O  24.25400 53.38300 39.55500
C  23.95000 52.02600 39.86000
H  32.52100 54.87200 38.67700
H  33.02600 60.78000 41.10300
H  26.68100 60.97500 41.72600
H  28.08800 53.20800 38.94400
H  30.70100 53.86700 37.55800
H  29.96900 51.86800 39.26900
H  30.78000 53.00400 40.32000
H  31.67500 52.40500 38.88400
H  27.17900 53.40600 36.67900
H  28.87200 53.60400 36.18400
H  28.82500 55.77700 35.83900
H  27.48700 56.13000 36.78900
H  35.75900 56.43600 38.79600
H  34.64800 55.06700 38.95900
H  35.67000 55.67900 40.27600
H  35.01500 61.06500 40.65800
H  36.53200 60.41600 41.39400
H  35.04100 60.45400 42.28600
H  31.10600 62.55300 40.76900
H  29.16500 62.27700 43.00800
H  32.63200 62.00500 42.86500
H  31.28800 62.49200 43.90800
H  31.96000 63.60100 42.68100
H  27.74700 62.91100 40.53100
H  29.25400 63.70000 40.39000
H  28.76800 65.45800 41.54300
H  28.49100 64.51500 42.95900
H  27.14900 64.79800 41.78200
H  24.68500 60.18800 42.25600
H  23.49200 58.95300 41.73500
H  24.22000 60.12700 40.58800
H  25.42600 55.17200 38.20500
H  23.17400 51.84100 40.60300
H  24.84300 51.45300 40.11300
H  23.48000 51.61000 38.96900
Mg 16.54300 52.12300 26.47500
C  18.07000 50.82400 29.36800
C  13.70800 52.75200 28.51400
C  14.85700 53.13400 23.78800
C  19.10900 50.86300 24.62600
N  15.81800 51.51800 28.63500
C  16.82200 51.37300 29.57500
C  16.22900 51.67700 31.00700
C  14.67200 51.78400 30.72100
C  14.73000 52.07800 29.18200
C  13.83700 50.56500 31.04100
C  17.00000 52.91400 31.69100
C  17.69100 52.52200 33.07800
H  16.90300 53.09200 34.30200
N  14.58400 52.94500 26.22300
C  13.54500 53.04300 27.12900
C  12.37200 53.63000 26.49500
C  12.69000 53.79000 25.11000
C  14.06100 53.30700 24.99600
C  11.16200 53.94000 27.22700
C  11.84300 54.35500 23.90100
O  12.25100 54.50000 22.75500
C  10.43500 54.73000 24.16200
N  16.83600 51.86100 24.43300
C  16.07900 52.43900 23.49600
C  16.86700 52.45000 22.19300
C  18.29200 52.00800 22.56500
C  18.02700 51.44600 23.94400
C  16.12400 51.78800 21.05400
C  19.33500 53.23700 22.57100
C  19.46200 53.96800 21.22700
N  18.21500 51.04000 26.83800
C  19.21800 50.60700 25.96200
C  20.26300 49.95200 26.69500
C  19.87500 50.10100 28.00700
C  18.62200 50.66900 28.06000
C  21.49400 49.33300 26.06000
C  20.38200 49.87900 29.31300
O  21.45900 49.42700 29.68100
C  19.21900 50.46800 30.36200
C  18.73900 49.36300 31.28500
O  17.97300 48.43300 30.94000
O  19.36400 49.52100 32.51000
C  19.04300 48.52600 33.52200
H  12.92900 53.21100 29.12500
H  14.37200 53.44400 22.86000
H  20.00600 50.65100 24.04100
H  16.33700 50.78400 31.62300
H  14.42300 52.68500 31.28100
H  13.00300 50.49300 30.34300
H  13.44200 50.58100 32.05700
H  14.38800 49.63300 30.90800
H  16.40600 53.81700 31.83000
H  17.90500 53.09500 31.11100
H  18.74300 52.80000 33.14700
H  17.69500 51.43200 33.06300
H  10.29100 53.43700 26.80600
H  11.08200 55.02400 27.15500
H  11.12200 53.70000 28.29000
H  10.33500 55.34500 25.05600
H  9.91000 53.77900 24.24300
H  9.92900 55.34200 23.41500
H  16.84600 53.52900 22.03900
H  18.71300 51.18300 21.99100
H  16.64200 50.94100 20.60500
H  15.97300 52.60800 20.35100
H  15.14000 51.50100 21.42300
H  20.35300 53.02900 22.89800
H  19.01600 54.00400 23.27700
H  19.45600 55.05600 21.28400
H  18.60400 53.67400 20.62100
H  20.31200 53.59800 20.65400
H  21.74900 48.35300 26.46200
H  22.37900 49.88200 26.38300
H  21.45800 49.31500 24.97100
H  19.60100 51.22900 31.04200
H  19.48800 48.85100 34.46300
H  19.39000 47.50200 33.38600
H  17.95700 48.56200 33.60400

