158

Mg 54.60800 24.04800 44.46100
C  51.94800 26.22400 43.35900
C  52.83400 21.42400 42.69800
C  57.28600 22.12200 44.76300
C  56.36400 26.97100 45.33300
N  52.62800 23.87700 43.13100
C  51.71000 24.88200 42.91900
C  50.43800 24.39100 42.18600
C  50.63800 22.82300 42.39000
C  52.10900 22.68100 42.73600
C  49.80900 21.97900 43.45700
C  50.22900 24.67900 40.70200
C  51.49800 24.61200 39.84300
H  51.40400 25.36600 38.52900
N  54.98500 22.05300 43.87700
C  54.13300 21.14300 43.18000
C  54.87500 19.95700 43.06500
C  56.12400 20.10900 43.78800
C  56.20500 21.51000 44.16600
C  54.30200 18.73500 42.39100
C  57.04100 18.87800 44.07700
O  56.88700 17.76200 43.52000
C  58.17100 19.04900 45.06700
N  56.57300 24.52100 44.80200
C  57.50700 23.51700 44.98000
C  58.83200 24.10600 45.49700
C  58.53500 25.70400 45.40000
C  57.10600 25.74600 45.17300
C  59.26500 23.59400 46.95700
C  59.26700 26.51500 44.27100
C  59.99200 27.81600 44.61000
N  54.23800 26.05200 44.58800
C  55.02200 27.13600 45.03700
C  54.23800 28.36400 45.00200
C  53.02000 28.01600 44.34700
C  53.10200 26.64000 44.10300
C  54.62500 29.71800 45.55300
C  51.70700 28.55700 43.98100
O  51.27900 29.68200 44.10900
C  50.98800 27.40600 43.26000
C  50.50300 27.91100 41.89700
O  51.06700 28.59400 41.08800
O  49.13900 27.57100 41.80300
C  48.57600 28.21000 40.59800
H  52.23200 20.64000 42.23200
H  58.13000 21.44300 44.90100
H  56.85300 27.87900 45.69100
H  49.53100 24.68900 42.71200
H  50.51500 22.37900 41.40200
H  49.02300 22.55400 43.94700
H  50.40800 21.75900 44.34100
H  49.47000 21.01400 43.08100
H  49.76300 25.65300 40.54900
H  49.54600 23.99100 40.20300
H  51.74800 23.56500 39.67300
H  52.23100 25.21700 40.37600
H  53.34200 18.87400 41.89600
H  54.05000 18.09100 43.23400
H  55.04500 18.25300 41.75600
H  58.03200 19.75600 45.88500
H  58.96500 19.35600 44.38600
H  58.33400 18.07200 45.52200
H  59.62500 23.78800 44.82100
H  58.81200 26.00800 46.40900
H  59.43800 24.48800 47.55700
H  60.22200 23.07400 46.90600
H  58.43500 23.08300 47.44400
H  58.59000 26.72100 43.44200
H  59.95500 25.80400 43.81200
H  59.43500 28.72100 44.36900
H  61.00400 27.93800 44.22100
H  60.12500 27.84400 45.69200
H  54.46900 30.47100 44.78100
H  55.67700 29.66700 45.83100
H  54.07000 29.90500 46.47200
H  50.08400 27.15200 43.81500
H  48.55500 29.29900 40.56900
H  47.55200 27.85600 40.47300
H  49.10100 27.84300 39.71600
Mg 46.86400 16.46200 28.73900
C  44.81500 16.04900 31.54900
C  49.32600 17.72500 30.69900
C  48.51800 17.34300 25.90600
C  44.24600 15.17500 26.79300
N  47.01000 16.97600 30.92300
C  46.07800 16.69000 31.92300
C  46.55900 17.09600 33.29000
C  47.90700 17.86000 32.96700
C  48.07600 17.55400 31.44700
C  47.87600 19.36600 33.40200
C  46.66800 15.85300 34.20900
C  46.15700 15.95700 35.66500
H  45.90600 17.34000 36.27100
N  48.63800 17.46900 28.34500
C  49.56000 17.77100 29.29500
C  50.78000 18.11000 28.64600
C  50.47700 18.12800 27.22300
C  49.18400 17.59200 27.08200
C  52.07600 18.40800 29.45600
C  51.34600 18.60400 26.05200
O  50.96100 18.82300 24.86300
C  52.79200 18.97600 26.31100
N  46.48100 16.18700 26.74400
C  47.33300 16.56900 25.74300
C  46.85100 16.21100 24.33900
C  45.65800 15.29000 24.68100
C  45.43300 15.55600 26.16000
C  46.40600 17.52300 23.68600
C  45.93200 13.78800 24.26600
C  45.61400 13.33600 22.84600
N  44.98500 15.57200 29.08400
C  43.98600 15.20600 28.20100
C  42.81500 14.75200 28.90600
C  43.08000 15.11200 30.23200
C  44.39900 15.62900 30.31200
C  41.57600 14.04000 28.35100
C  42.57200 15.14200 31.54700
O  41.45900 14.79500 31.97300
C  43.69000 15.71600 32.52500
C  43.01000 16.80500 33.36300
O  42.82900 18.00400 32.99900
O  42.53200 16.38300 34.48600
C  41.85700 17.29600 35.48000
H  50.20200 17.79700 31.34700
H  48.93800 17.77200 24.99400
H  43.39400 14.61100 26.40800
H  45.72000 17.72400 33.59200
H  48.68700 17.47500 33.62300
H  48.89500 19.60200 33.70600
H  47.14200 19.57800 34.18000
H  47.66300 19.92500 32.49100
H  47.72300 15.63000 34.37200
H  46.18400 14.94300 33.85500
H  46.83400 15.46300 36.36100
H  45.23400 15.38100 35.73800
H  52.91900 17.97200 28.92000
H  52.04800 18.02000 30.47400
H  52.28900 19.46900 29.32500
H  53.33200 18.21100 26.86900
H  52.67300 19.92600 26.83300
H  53.37600 19.13800 25.40500
H  47.61400 15.68500 23.76500
H  44.76900 15.57200 24.11700
H  45.38400 17.64600 23.32800
H  47.05300 17.59200 22.81200
H  46.62500 18.41600 24.27200
H  45.21700 13.28700 24.92000
H  46.92000 13.65800 24.70600
H  45.42500 14.20900 22.22100
H  44.75100 12.67500 22.77200
H  46.41000 12.76300 22.37100
H  41.77600 13.52000 27.41400
H  40.65700 14.62400 28.33700
H  41.39700 13.22700 29.05600
H  43.89000 15.07900 33.38600
H  40.78100 17.20100 35.62700
H  42.05300 18.36200 35.36400
H  42.35400 17.08200 36.42600

