158

Mg 24.23900 -5.64300 45.45600
C  26.61300 -3.81700 43.84200
C  21.84200 -4.39400 43.36100
C  22.25400 -8.31000 46.32800
C  26.79600 -7.03800 47.45000
N  24.32100 -4.38400 43.79100
C  25.34300 -3.57200 43.39600
C  24.93700 -2.58300 42.34300
C  23.34200 -2.58200 42.43300
C  23.14800 -3.85100 43.25600
C  22.65300 -1.33300 43.04800
C  25.51800 -3.00100 40.96000
C  26.15900 -1.86600 40.14900
H  25.89300 -1.88700 38.63500
N  22.23400 -6.11200 45.12700
C  21.43900 -5.50900 44.16300
C  20.13400 -6.17200 44.16700
C  20.24200 -7.38100 44.95200
C  21.61700 -7.36100 45.48400
C  18.97100 -5.72800 43.23200
C  19.19400 -8.37000 45.24900
O  18.07600 -8.24800 44.64400
C  19.29900 -9.57300 46.16200
N  24.55200 -7.50100 46.55200
C  23.56700 -8.39800 46.81300
C  24.04900 -9.51700 47.74000
C  25.45100 -9.03000 48.12000
C  25.67000 -7.80200 47.36200
C  23.19900 -9.79600 48.98800
C  26.54000 -10.07400 47.93000
C  27.60400 -10.46300 49.08800
N  26.27500 -5.44400 45.70800
C  27.14900 -5.98800 46.53500
C  28.38600 -5.31500 46.42500
C  28.25800 -4.42000 45.35000
C  26.91900 -4.60000 44.93600
C  29.58200 -5.48200 47.31400
C  28.94600 -3.48600 44.53400
O  30.09000 -3.06500 44.52500
C  27.89000 -3.07000 43.48400
C  27.75600 -1.60800 43.63700
O  27.32200 -1.04900 44.64900
O  28.34300 -0.93800 42.59900
C  28.46600 0.51300 42.94800
H  21.10900 -3.82100 42.78800
H  21.72000 -9.20400 46.66000
H  27.41700 -7.29400 48.31100
H  25.32800 -1.58000 42.51600
H  22.94900 -2.70700 41.42400
H  22.14400 -1.62300 43.96800
H  22.00500 -0.83000 42.33000
H  23.44000 -0.58500 43.13600
H  24.69800 -3.41800 40.37600
H  26.20200 -3.84400 41.05700
H  27.22100 -1.97300 40.37100
H  25.78400 -0.90100 40.49000
H  19.21500 -4.68000 43.05900
H  17.92000 -5.79900 43.51200
H  19.05600 -6.15300 42.23100
H  18.33700 -10.06200 46.31200
H  19.53600 -9.18000 47.15100
H  20.10000 -10.20700 45.78400
H  24.12500 -10.44600 47.17500
H  25.31700 -8.54300 49.08600
H  22.82900 -10.80500 48.80300
H  22.35100 -9.14900 49.21100
H  23.76100 -9.91200 49.91500
H  27.12600 -9.88200 47.03200
H  26.09700 -11.04100 47.69200
H  27.86600 -9.60600 49.70800
H  28.52700 -10.93500 48.75100
H  27.08800 -11.18000 49.72700
H  29.78500 -4.60500 47.92900
H  30.44600 -5.61500 46.66300
H  29.48100 -6.37100 47.93800
H  28.14000 -3.18700 42.43000
H  29.38500 0.63500 43.52200
H  27.65900 0.97700 43.51500
H  28.44300 1.02400 41.98600
Mg 46.22700 3.59500 47.59800
C  43.68000 5.83700 46.78100
C  43.82300 1.03700 47.55400
C  48.68200 1.13700 47.36200
C  48.56500 6.05800 46.84900
N  44.00600 3.45900 47.12200
C  43.14900 4.52800 46.84200
C  41.69800 3.97200 46.77000
C  41.79300 2.48400 47.23200
C  43.31700 2.30000 47.26600
C  41.11300 2.22200 48.61700
C  41.02000 4.16700 45.32500
C  39.66200 4.96600 45.27600
H  39.63600 6.04700 44.12900
N  46.26400 1.34800 47.40000
C  45.16300 0.59200 47.58900
C  45.59500 -0.80300 47.73800
C  47.08300 -0.80500 47.71300
C  47.44400 0.61100 47.55200
C  44.70300 -1.98900 47.92200
C  47.93700 -2.06800 47.77900
O  47.38600 -3.16400 47.75300
C  49.45900 -2.15400 47.77700
N  48.32800 3.57600 47.12300
C  49.14800 2.46600 47.24100
C  50.60900 2.84400 47.13600
C  50.51900 4.34600 46.62500
C  49.04100 4.71200 46.89400
C  51.36900 2.77000 48.49300
C  50.85800 4.42700 45.08700
C  52.34500 4.39700 44.74400
N  46.19100 5.62200 47.25700
C  47.22700 6.46700 46.92400
C  46.62700 7.77400 46.50900
C  45.20400 7.60900 46.54600
C  45.01600 6.27200 46.86800
C  47.38700 8.99200 45.94200
C  43.92000 8.26700 46.31000
O  43.62400 9.39800 45.92500
C  42.96800 7.15100 46.61500
C  42.03400 7.44200 47.76800
O  42.09700 6.88100 48.85300
O  41.13900 8.44100 47.43000
C  40.17100 8.97800 48.43900
H  43.09900 0.23100 47.68700
H  49.48200 0.43200 47.59800
H  49.26800 6.84700 46.57600
H  41.05800 4.48500 47.48900
H  41.31000 1.80200 46.53200
H  40.57000 3.04600 49.08000
H  41.83800 1.94300 49.38100
H  40.47500 1.34900 48.47800
H  40.95300 3.22600 44.78000
H  41.72400 4.75100 44.73200
H  39.56300 5.43500 46.25500
H  38.84400 4.29700 45.00800
H  43.65700 -1.68500 47.93000
H  44.99100 -2.37500 48.90000
H  44.88400 -2.66700 47.08800
H  49.89900 -3.14600 47.87600
H  49.74200 -1.60900 48.67800
H  49.89500 -1.62700 46.92800
H  51.14700 2.16600 46.47400
H  51.18100 4.98400 47.21000
H  51.79100 3.73700 48.76700
H  52.19200 2.05600 48.48100
H  50.67700 2.52500 49.29900
H  50.31100 5.22500 44.58500
H  50.54800 3.44400 44.73400
H  52.91400 4.54100 45.66200
H  52.60600 5.21900 44.07700
H  52.66300 3.46900 44.27000
H  48.29300 8.65000 45.44100
H  47.77300 9.42200 46.86600
H  46.73000 9.62900 45.35100
H  42.39800 7.18900 45.68700
H  40.63700 9.91900 48.73100
H  40.03500 8.39300 49.34900
H  39.17900 8.99000 47.98800

