158

Mg 24.73300 -5.98000 46.15500
C  26.88800 -3.56300 44.45500
C  22.29400 -5.17800 43.87300
C  23.39300 -8.89900 46.82200
C  27.76800 -6.84100 47.92100
N  24.73200 -4.66100 44.24300
C  25.61200 -3.68100 43.89900
C  24.99700 -2.73800 42.91900
C  23.48800 -3.12100 42.97600
C  23.47600 -4.41800 43.71600
C  22.66700 -2.03000 43.64600
C  25.62400 -2.88700 41.50400
C  25.52200 -1.60300 40.60800
H  24.81300 -1.74900 39.26300
N  22.90900 -6.82800 45.65600
C  22.05200 -6.38800 44.68300
C  20.95800 -7.23500 44.62100
C  21.19400 -8.27400 45.54600
C  22.52500 -8.03600 46.06800
C  19.75000 -6.98600 43.71200
C  20.17900 -9.30600 45.96300
O  19.14900 -9.42800 45.37600
C  20.49300 -10.28600 47.12800
N  25.60300 -7.75400 46.99400
C  24.76200 -8.78500 47.25100
C  25.40300 -9.81900 48.29600
C  26.72300 -9.03500 48.75600
C  26.72400 -7.82800 47.78100
C  24.34500 -10.02200 49.49400
C  27.97000 -9.88100 48.78900
C  28.77100 -9.83600 50.05300
N  26.87200 -5.20300 46.36700
C  27.90800 -5.68000 47.18400
C  29.00500 -4.70700 47.06900
C  28.69200 -3.91500 45.99800
C  27.37100 -4.26000 45.53400
C  30.23200 -4.64300 47.93300
C  29.11600 -2.80500 45.22100
O  30.15500 -2.17400 45.34400
C  28.03400 -2.56600 44.11700
C  27.70300 -1.14500 44.03200
O  26.82000 -0.49900 44.66600
O  28.36000 -0.63400 42.96400
C  28.00800 0.79700 42.79400
H  21.45000 -4.81000 43.28500
H  22.94000 -9.86900 47.03800
H  28.55700 -7.06000 48.64400
H  25.18300 -1.69100 43.16000
H  23.20100 -3.40900 41.96500
H  23.24500 -1.15400 43.93700
H  22.32600 -2.32100 44.63900
H  21.83400 -1.73100 43.00900
H  25.03500 -3.68100 41.04600
H  26.68600 -3.13400 41.49300
H  26.46000 -1.22700 40.20000
H  25.08600 -0.71400 41.06300
H  19.66400 -5.91400 43.53600
H  18.87300 -7.42900 44.18300
H  19.95600 -7.33600 42.70100
H  20.99900 -9.79100 47.95800
H  21.11100 -11.10400 46.75800
H  19.59400 -10.76100 47.52000
H  25.67300 -10.76000 47.81700
H  26.61200 -8.58300 49.74200
H  23.52000 -9.32300 49.35600
H  24.79200 -9.90800 50.48200
H  23.89200 -11.01400 49.48800
H  28.65700 -9.60900 47.98700
H  27.78200 -10.94100 48.61600
H  28.87000 -10.83300 50.48400
H  28.43500 -9.14400 50.82500
H  29.80600 -9.51300 49.94300
H  30.65300 -5.61300 48.19900
H  30.05500 -4.06900 48.84300
H  31.11800 -4.09400 47.61200
H  28.44100 -2.79900 43.13400
H  28.61800 1.49600 43.36700
H  26.94900 1.01900 42.92200
H  28.29000 1.00800 41.76200
Mg 41.42000 40.80700 27.04700
C  40.60400 43.09700 29.52300
C  42.21100 38.56300 29.50300
C  42.16600 38.62200 24.65000
C  40.70600 43.23500 24.59500
N  41.37200 40.81000 29.26000
C  40.97800 41.86600 30.02200
C  41.06400 41.45700 31.48800
C  41.51900 39.95700 31.47500
C  41.68200 39.70900 29.99100
C  42.78600 39.58100 32.24600
C  39.72700 41.83700 32.33000
C  39.96000 42.46800 33.73700
H  39.23600 41.79100 34.92400
N  42.22200 38.86900 27.06900
C  42.37800 38.05100 28.20400
C  42.98200 36.89400 27.80600
C  43.00900 36.83300 26.37200
C  42.37700 38.08600 25.94100
C  43.54400 35.81200 28.77100
C  43.37800 35.78800 25.41900
O  43.36300 35.99900 24.20300
C  43.76500 34.32800 25.86800
N  41.52400 40.91100 24.90200
C  41.78000 39.90600 24.15000
C  41.56300 40.22000 22.61700
C  41.28200 41.80100 22.64400
C  41.06800 41.99600 24.16500
C  42.66400 39.89100 21.55900
C  40.24300 42.28700 21.66100
C  38.80200 42.60300 22.10400
N  40.82400 42.79700 27.01800
C  40.66300 43.66700 25.96300
C  40.52800 45.03800 26.46100
C  40.38700 44.91000 27.81900
C  40.59200 43.48300 28.13300
C  40.45600 46.23100 25.64700
C  40.08600 45.57500 29.06700
O  39.76700 46.75000 29.32600
C  40.11200 44.39700 30.20600
C  40.99600 44.91400 31.24300
O  42.19300 44.63100 31.36300
O  40.36400 45.76300 32.09900
C  41.02300 46.08700 33.30900
H  42.54900 37.87000 30.27700
H  42.36200 38.09000 23.71700
H  40.69000 44.09800 23.92700
H  41.83000 42.02800 32.01100
H  40.68400 39.31100 31.74500
H  43.61300 39.08900 31.73500
H  42.50900 39.02600 33.14300
H  43.20800 40.52300 32.59700
H  39.19400 40.88800 32.36900
H  38.95600 42.35800 31.76300
H  39.64600 43.51000 33.68400
H  41.01200 42.30600 33.97400
H  43.59900 36.22200 29.78000
H  44.46500 35.34400 28.42400
H  42.77800 35.03600 28.80300
H  43.00700 34.09900 26.61700
H  44.77400 34.45500 26.26100
H  43.85700 33.76600 24.93900
H  40.71700 39.62300 22.27300
H  42.16600 42.40000 22.42600
H  43.26500 39.05000 21.90500
H  43.22400 40.82600 21.56300
H  42.39700 39.78800 20.50700
H  40.07200 41.44700 20.98800
H  40.59500 43.10100 21.02800
H  38.48500 41.79700 22.76600
H  38.01600 42.67900 21.35400
H  38.80800 43.55000 22.64400
H  39.46700 46.23600 25.18900
H  41.21800 46.04300 24.89100
H  40.69600 47.14100 26.19800
H  39.11800 44.27100 30.63500
H  41.23300 45.19300 33.89600
H  40.25400 46.56100 33.91900
H  41.79800 46.82000 33.08400

