158

Mg 1.64700 -1.64100 44.03100
C  4.98700 -0.54400 43.14800
C  0.42300 1.11900 42.30100
C  -1.30500 -3.03500 44.34300
C  3.26600 -4.53900 45.33000
N  2.59400 -0.06600 42.69600
C  3.96800 0.18400 42.45000
C  4.16100 1.30100 41.50600
C  2.81200 2.14800 41.78500
C  1.84500 1.01200 42.21000
C  2.98200 3.24400 42.88600
C  4.37100 0.72900 40.03300
C  5.36600 1.54700 39.19100
H  4.95200 2.11500 37.90100
N  -0.19700 -0.96100 43.48500
C  -0.55500 0.17600 42.82100
C  -2.03000 0.35600 42.87500
C  -2.52300 -0.83300 43.54500
C  -1.33800 -1.68700 43.80500
C  -2.74200 1.47600 42.16300
C  -4.01500 -1.10000 43.82100
O  -4.88400 -0.24900 43.58400
C  -4.52500 -2.33700 44.56400
N  0.99900 -3.58500 44.61400
C  -0.27400 -3.92500 44.74900
C  -0.44400 -5.36600 45.31200
C  1.01500 -5.84500 45.42500
C  1.81800 -4.57900 45.18200
C  -1.25700 -5.57600 46.63100
C  1.51400 -7.07900 44.50800
C  2.33200 -8.15400 45.31000
N  3.66900 -2.33800 44.39200
C  4.10000 -3.47300 44.97600
C  5.58700 -3.49900 45.09500
C  5.95900 -2.32700 44.34800
C  4.77300 -1.68100 43.95100
C  6.45300 -4.44800 45.78800
C  7.08200 -1.45600 43.95600
O  8.31200 -1.51700 44.18800
C  6.45800 -0.27400 43.17600
C  6.80000 1.03300 43.86100
O  6.87800 1.07000 45.09700
O  7.29300 2.00300 42.96300
C  7.74900 3.25100 43.60100
H  -0.08000 1.99200 41.88100
H  -2.21700 -3.59300 44.56600
H  3.70600 -5.38000 45.87100
H  4.99900 1.92100 41.82300
H  2.39400 2.61800 40.89500
H  2.80100 4.15200 42.31100
H  4.02000 3.18600 43.21500
H  2.33200 3.21000 43.76000
H  3.38200 0.68300 39.57600
H  4.56000 -0.34500 40.04200
H  6.19100 0.86000 39.00200
H  5.75900 2.39000 39.76000
H  -3.63100 1.60500 42.78000
H  -2.86800 1.38600 41.08400
H  -2.14500 2.38800 42.19400
H  -5.49900 -2.20300 45.03300
H  -3.90200 -2.64400 45.40400
H  -4.47000 -3.22000 43.92600
H  -0.89900 -5.89300 44.47300
H  1.24900 -6.01400 46.47600
H  -1.35400 -4.63700 47.17600
H  -0.72600 -6.29500 47.25400
H  -2.26800 -5.97600 46.55500
H  2.21100 -6.72200 43.74900
H  0.72000 -7.65300 44.03000
H  1.84500 -9.12600 45.23300
H  2.28400 -7.95400 46.38000
H  3.35200 -8.20400 44.93100
H  6.21400 -4.51100 46.85000
H  7.51700 -4.23400 45.68800
H  6.28800 -5.42800 45.34000
H  6.89700 -0.28000 42.17800
H  7.06000 4.07400 43.41200
H  8.73900 3.50800 43.22300
H  7.94700 3.16300 44.66900
Mg 29.86900 57.76300 41.06300
C  27.25800 55.88200 39.80000
C  32.01300 55.37100 40.10700
C  32.42600 59.83600 41.57300
C  27.56700 60.50400 41.50200
N  29.55500 55.83400 40.17600
C  28.42900 55.23200 39.72800
C  28.62600 53.80800 39.25200
C  30.16300 53.60000 39.54500
C  30.63100 54.97600 40.04900
C  30.37400 52.47600 40.54500
C  28.25900 53.38300 37.82200
C  28.47500 54.51200 36.77100
H  28.86400 54.15900 35.24800
N  31.90800 57.57700 40.97300
C  32.59800 56.53700 40.52900
C  34.01400 56.77700 40.45400
C  34.22300 58.04400 40.93800
C  32.81800 58.56400 41.21500
C  34.89600 55.73300 39.96400
C  35.53500 58.74700 41.13800
O  36.54900 58.07400 41.00900
C  35.67100 60.20600 41.57100
N  29.93400 59.83300 41.43900
C  31.13400 60.42000 41.67300
C  31.01500 61.92700 42.05900
C  29.54200 62.07900 42.22900
C  28.96300 60.72200 41.74700
C  31.76300 62.28200 43.33300
C  28.92900 63.31100 41.37800
C  27.82000 64.02900 42.10300
N  27.81900 58.15600 40.74900
C  27.01900 59.28900 40.96700
C  25.65400 58.95400 40.74800
C  25.74900 57.66600 40.15500
C  27.08400 57.20400 40.23500
C  24.34600 59.76300 40.98600
C  24.94700 56.63800 39.48100
O  23.76600 56.66600 39.14800
C  25.90600 55.40200 39.23100
C  25.43500 54.24200 39.93500
O  25.61800 54.03100 41.12300
O  24.54000 53.39300 39.20300
C  23.79200 52.34700 39.87400
H  32.60600 54.47500 39.91400
H  33.20500 60.57500 41.77400
H  26.77900 61.19500 41.81000
H  28.03000 53.17900 39.91200
H  30.78400 53.47700 38.65700
H  31.33400 51.95900 40.51400
H  29.56100 51.75400 40.47300
H  30.29700 52.84000 41.56900
H  27.21300 53.11300 37.67900
H  28.84500 52.50100 37.56200
H  29.19300 55.20000 37.21900
H  27.52000 55.02800 36.67000
H  34.55300 55.40900 38.98100
H  34.93700 54.81700 40.55300
H  35.90300 56.10800 39.77900
H  35.16600 60.88600 40.88500
H  36.68700 60.50400 41.83000
H  35.16300 60.23600 42.53400
H  31.36700 62.63700 41.31100
H  29.21400 62.28800 43.24700
H  32.31900 61.39900 43.65000
H  31.05500 62.46000 44.14200
H  32.41300 63.15600 43.29500
H  28.48500 62.89600 40.47200
H  29.73000 64.03300 41.21900
H  28.25700 64.86900 42.64200
H  27.31200 63.53400 42.93200
H  27.03000 64.41300 41.45700
H  23.48100 59.16500 41.27200
H  23.95800 60.12400 40.03400
H  24.46800 60.59800 41.67600
H  25.88600 55.18800 38.16200
H  23.09500 52.83400 40.55500
H  24.39700 51.70000 40.51000
H  23.25100 51.75400 39.13700

