158

Mg -2.27400 17.10700 26.17800
C  -2.79700 15.21600 29.07300
C  -3.51700 19.78900 27.98200
C  -2.52500 19.15600 23.36800
C  -1.76800 14.40600 24.39200
N  -3.00400 17.50200 28.34400
C  -3.04600 16.51700 29.32200
C  -3.45200 17.23500 30.63600
C  -4.09500 18.51100 30.14400
C  -3.51700 18.64800 28.72500
C  -5.67000 18.49500 30.20600
C  -2.23100 17.34500 31.69000
C  -2.59500 16.83300 33.06400
H  -1.51000 16.39800 34.03000
N  -2.77500 19.16700 25.77700
C  -3.13100 20.08500 26.71000
C  -3.18500 21.44600 26.12400
C  -2.85300 21.26600 24.72600
C  -2.77700 19.81300 24.57100
C  -3.44400 22.76900 26.84900
C  -2.52900 22.28800 23.66300
O  -2.21500 22.00300 22.47300
C  -2.55600 23.68400 24.04800
N  -2.14800 16.84500 24.11400
C  -2.34600 17.72800 23.09600
C  -2.01700 17.05500 21.76700
C  -1.69100 15.56100 22.18000
C  -1.81400 15.60800 23.67600
C  -2.98500 17.30500 20.63900
C  -0.31900 15.08100 21.60600
C  0.96600 15.52600 22.33500
N  -2.16200 15.19100 26.60200
C  -2.03400 14.16400 25.73700
C  -2.23100 12.95700 26.42200
C  -2.42100 13.35300 27.74900
C  -2.40000 14.74100 27.79900
C  -2.27300 11.56200 25.83100
C  -2.66900 12.80400 29.07300
O  -2.70700 11.66300 29.56500
C  -2.90600 14.01000 30.00400
C  -1.91700 13.88000 31.11700
O  -0.69700 14.03800 31.11200
O  -2.59100 13.48300 32.25000
C  -1.87100 13.02500 33.39900
H  -3.91900 20.60800 28.58300
H  -2.62500 19.73200 22.44600
H  -1.40700 13.52700 23.85400
H  -4.20600 16.56600 31.05100
H  -3.89500 19.28500 30.88400
H  -6.06000 18.83000 31.16700
H  -6.00400 17.48500 29.96900
H  -6.03300 19.14300 29.40700
H  -2.02600 18.41200 31.77400
H  -1.30600 16.85100 31.39500
H  -3.29100 15.99600 33.00300
H  -2.90900 17.76300 33.53800
H  -4.22700 23.23800 26.25300
H  -2.57000 23.41100 26.96000
H  -3.85400 22.61500 27.84700
H  -3.57500 23.90000 24.36800
H  -2.16200 24.25500 23.20700
H  -1.90400 23.88200 24.89900
H  -1.20300 17.54600 21.23400
H  -2.45800 14.82900 21.93000
H  -3.20400 18.37200 20.61000
H  -3.88500 16.69100 20.68200
H  -2.63500 17.02200 19.64700
H  -0.33600 15.43700 20.57600
H  -0.28500 13.99200 21.58200
H  0.83900 16.27000 23.12100
H  1.61100 15.87500 21.52900
H  1.40300 14.65700 22.82700
H  -3.15300 11.02700 26.18700
H  -1.36300 10.98000 25.97800
H  -2.45800 11.75600 24.77500
H  -3.90100 13.84900 30.42000
H  -2.41600 13.38800 34.27100
H  -0.87000 13.42700 33.55100
H  -1.72200 11.94800 33.32500
Mg 26.05900 -0.49100 29.04200
C  28.02000 -0.33000 31.85400
C  23.21900 0.06200 31.12200
C  24.07000 -0.62200 26.28000
C  28.73900 -1.45200 27.09300
N  25.71000 -0.29600 31.18700
C  26.69200 -0.09100 32.12800
C  26.13600 0.14100 33.56200
C  24.54300 0.31700 33.23100
C  24.43600 -0.03600 31.80300
C  23.49700 -0.29900 34.22100
C  26.93100 1.23300 34.33400
C  26.23600 1.99400 35.42700
H  27.06000 2.10600 36.76800
N  23.96100 -0.37900 28.73600
C  23.00800 -0.16200 29.74300
C  21.72400 -0.15200 29.05000
C  21.97000 -0.26800 27.67300
C  23.38600 -0.37600 27.49500
C  20.48700 -0.10000 29.77800
C  20.99600 -0.09100 26.50100
O  21.36300 -0.08600 25.36100
C  19.58400 0.00200 26.74800
N  26.35000 -0.79700 27.07900
C  25.36800 -0.80900 26.11500
C  25.89400 -0.93100 24.66200
C  27.42500 -1.12100 24.89700
C  27.55000 -1.12900 26.44900
C  25.28700 -2.09700 23.80500
C  28.36800 -0.12300 24.17700
C  28.83400 1.17200 24.91100
N  28.01100 -0.96800 29.39800
C  29.03200 -1.30100 28.47300
C  30.26400 -1.39400 29.23000
C  29.87700 -0.99800 30.55300
C  28.51700 -0.73700 30.55800
C  31.59200 -1.72400 28.54200
C  30.33700 -0.84300 31.84300
O  31.48300 -0.97800 32.24200
C  29.24100 -0.39200 32.79400
C  29.16600 -1.48700 33.91100
O  28.59800 -2.55500 33.73900
O  29.71000 -0.95500 35.12300
C  29.41900 -1.89500 36.23800
H  22.33200 0.33500 31.69800
H  23.51600 -0.72600 25.34500
H  29.56500 -1.57900 26.39100
H  26.30600 -0.70400 34.22800
H  24.32800 1.38000 33.34600
H  22.76300 -1.00600 33.83400
H  22.93200 0.51300 34.67700
H  24.12800 -0.68400 35.02200
H  27.47800 1.87800 33.64700
H  27.79000 0.78300 34.83100
H  25.33000 1.44800 35.69000
H  25.99900 3.00700 35.10200
H  20.10100 -1.08600 29.51800
H  19.88700 0.78000 29.54700
H  20.66200 -0.12600 30.85400
H  18.92700 0.30200 25.93100
H  19.52600 0.74600 27.54300
H  19.26500 -0.97700 27.10500
H  25.75700 -0.04300 24.04600
H  27.61700 -2.16900 24.66800
H  26.06400 -2.53700 23.17900
H  24.57000 -1.55200 23.19100
H  24.75900 -2.82100 24.42600
H  27.97400 0.20100 23.21300
H  29.28100 -0.71600 24.11700
H  28.18900 1.39000 25.76300
H  28.86300 2.06600 24.28900
H  29.82700 1.01800 25.33300
H  31.71300 -1.34400 27.52700
H  31.75200 -2.79900 28.45800
H  32.41800 -1.30700 29.11900
H  29.49700 0.58900 33.19400
H  28.50200 -1.50100 36.67700
H  30.21100 -1.79500 36.98000
H  29.30300 -2.94300 35.96000

