158

Mg -1.54100 18.14300 27.24300
C  -1.94900 16.12400 30.05500
C  -2.46700 20.75900 29.12400
C  -1.19500 20.02600 24.52500
C  -1.48600 15.34400 25.22800
N  -2.24800 18.38000 29.41300
C  -2.13500 17.47600 30.42600
C  -2.51900 18.07000 31.79800
C  -2.85900 19.55600 31.43200
C  -2.54400 19.57700 29.91800
C  -4.33800 19.97200 31.73300
C  -1.24900 17.98500 32.78500
C  -1.50700 17.22900 34.06700
H  -0.26200 16.94000 34.99300
N  -1.53000 20.08900 26.95400
C  -1.89900 21.00600 27.86900
C  -1.71300 22.32900 27.30300
C  -1.24100 22.14200 25.97200
C  -1.36100 20.73900 25.75600
C  -1.83200 23.66100 27.99100
C  -0.78900 23.07800 24.89300
O  -0.46800 22.79900 23.76000
C  -0.63800 24.43000 25.25200
N  -1.18800 17.79500 25.21400
C  -1.14000 18.71300 24.22200
C  -1.03400 18.19200 22.79400
C  -1.04800 16.65000 23.12100
C  -1.24400 16.54400 24.64700
C  -2.16400 18.48700 21.81700
C  0.21400 15.88100 22.62900
C  1.37000 15.94600 23.57900
N  -1.59500 16.06600 27.51000
C  -1.61900 15.05300 26.62000
C  -1.86500 13.78500 27.29800
C  -1.89300 14.13000 28.66500
C  -1.77300 15.55200 28.73900
C  -2.06400 12.40200 26.76300
C  -2.02000 13.56900 29.97800
O  -2.18200 12.40800 30.34300
C  -1.99900 14.84900 30.95000
C  -0.79900 14.68200 31.84900
O  0.19000 15.33500 31.81100
O  -1.08600 13.72800 32.84900
C  -0.04700 13.47800 33.86900
H  -2.85600 21.61100 29.68600
H  -1.11900 20.63000 23.61800
H  -1.38700 14.40200 24.68400
H  -3.37600 17.57900 32.25800
H  -2.29200 20.34600 31.92300
H  -4.94100 20.03700 30.82700
H  -4.24900 20.94900 32.20800
H  -4.91100 19.25500 32.32100
H  -0.93200 18.99600 33.04200
H  -0.38600 17.54200 32.28900
H  -1.84400 16.21100 33.87100
H  -2.27700 17.69300 34.68400
H  -2.43200 23.44000 28.87400
H  -2.31900 24.43200 27.39300
H  -0.87800 24.14900 28.18600
H  0.07000 24.55800 26.07100
H  -1.60900 24.88800 25.43800
H  -0.13200 24.86600 24.39100
H  -0.05700 18.46000 22.39300
H  -1.92300 16.11700 22.74700
H  -3.01800 17.81100 21.80300
H  -1.72000 18.53100 20.82200
H  -2.58600 19.48100 21.95900
H  0.48000 16.39400 21.70500
H  -0.06600 14.84200 22.46100
H  1.20900 16.62200 24.41900
H  2.28000 16.20200 23.03700
H  1.55900 14.99100 24.07100
H  -2.17900 12.32800 25.68200
H  -2.93300 11.99800 27.28200
H  -1.25800 11.69500 26.96000
H  -2.85600 14.96600 31.61300
H  0.82900 14.05100 33.56500
H  0.16000 12.42500 33.67800
H  -0.53900 13.59900 34.83400
Mg 41.70200 41.10300 26.56400
C  40.85800 43.26700 29.13100
C  42.75700 38.83900 28.85300
C  43.11600 39.48300 23.87400
C  40.87300 43.74300 24.28800
N  41.83200 41.07100 28.83000
C  41.40300 42.08200 29.67400
C  41.55900 41.70500 31.19200
C  42.30500 40.28200 31.08500
C  42.25900 39.95900 29.54000
C  43.78700 40.15700 31.63800
C  40.14900 41.64200 31.85800
C  40.02300 42.42800 33.25300
H  39.38700 41.77500 34.46600
N  42.63200 39.34200 26.38100
C  42.84400 38.56100 27.46900
C  43.57100 37.40300 26.91300
C  43.90400 37.61700 25.49700
C  43.24400 38.88700 25.19500
C  43.88600 36.18000 27.78900
C  44.77000 36.80500 24.56400
O  45.01700 37.18900 23.39900
C  45.50200 35.54800 24.98100
N  42.15100 41.65000 24.39100
C  42.57000 40.71400 23.54600
C  42.44100 41.16600 22.09200
C  41.40000 42.35800 22.21800
C  41.50200 42.70300 23.71700
C  43.83000 41.56700 21.48300
C  39.93600 42.01300 21.73200
C  39.04600 41.23700 22.70800
N  41.14600 43.10100 26.60200
C  40.71100 43.99400 25.69000
C  40.34900 45.24200 26.26500
C  40.23300 44.93100 27.61400
C  40.75900 43.60100 27.80300
C  39.94900 46.47200 25.63000
C  39.74300 45.43600 28.86500
O  39.12500 46.42900 29.17800
C  40.28700 44.43900 29.90500
C  41.32300 45.18200 30.75600
O  42.54300 45.11900 30.63900
O  40.67300 45.94900 31.71700
C  41.39200 46.22500 32.92900
H  43.30000 38.17600 29.53000
H  43.41600 38.80000 23.07600
H  40.47500 44.51900 23.63100
H  42.12000 42.53000 31.63000
H  41.81400 39.48300 31.64000
H  44.01200 39.15000 31.99100
H  43.93300 40.83600 32.47800
H  44.58200 40.49100 30.97200
H  39.96100 40.59300 32.08600
H  39.36900 42.01100 31.19200
H  39.51500 43.36800 33.03700
H  41.04900 42.69500 33.50900
H  43.63000 35.23900 27.30200
H  43.38600 36.15400 28.75700
H  44.96600 36.17800 27.94100
H  46.08300 35.80500 25.86700
H  46.22600 35.19900 24.24500
H  44.72700 34.80400 25.16400
H  42.14700 40.40000 21.37400
H  41.70500 43.23500 21.64800
H  44.48800 41.45300 22.34400
H  43.96500 42.61900 21.23000
H  44.11200 40.95200 20.62900
H  40.06500 41.37900 20.85400
H  39.36300 42.93300 21.62000
H  39.76100 40.69800 23.32900
H  38.41100 40.49500 22.22500
H  38.39300 41.88200 23.29700
H  40.56400 46.72300 24.76600
H  40.00100 47.15200 26.48000
H  38.89000 46.36800 25.39300
H  39.49800 44.25900 30.63600
H  42.24300 46.85000 32.66000
H  41.64700 45.27100 33.39100
H  40.71700 46.70900 33.63500

