158

Mg 9.75300 4.32300 27.69400
C  10.96000 2.55700 30.43700
C  7.77900 6.10700 30.05000
C  8.13600 5.84800 25.20300
C  10.92000 1.87600 25.67700
N  9.59400 4.57100 29.98000
C  10.24900 3.68100 30.83600
C  9.91700 3.94900 32.23400
C  8.67800 4.86800 32.12500
C  8.66500 5.26000 30.62600
C  7.32300 4.13300 32.36500
C  11.18300 4.48700 33.02800
C  11.39100 3.85300 34.36700
H  11.76500 4.67700 35.54600
N  8.20800 5.79300 27.63800
C  7.54600 6.44100 28.66500
C  6.68700 7.43800 28.13800
C  6.83400 7.40000 26.70700
C  7.68700 6.28500 26.42800
C  5.75600 8.29700 28.99100
C  6.14100 8.32600 25.66000
O  6.32000 8.16300 24.43400
C  5.26900 9.43500 26.23800
N  9.54800 3.82100 25.74700
C  8.86000 4.66900 24.91300
C  9.18800 4.29500 23.42700
C  9.93000 2.94100 23.55900
C  10.18200 2.86400 25.04800
C  8.11900 4.35500 22.38600
C  11.31900 2.80100 22.85300
C  11.61200 1.42300 22.19600
N  11.07000 2.72300 27.95300
C  11.37500 1.79400 27.01100
C  12.09400 0.73900 27.60900
C  11.97300 0.99100 28.99700
C  11.30100 2.18700 29.11400
C  12.82600 -0.38500 26.92100
C  12.33200 0.42400 30.30800
O  12.97900 -0.57700 30.61500
C  11.67600 1.50300 31.29400
C  10.59600 0.77000 31.95000
O  9.45100 0.62500 31.53100
O  11.09700 0.37200 33.17900
C  10.03900 -0.31600 34.00700
H  7.32200 6.68600 30.85500
H  7.82800 6.39600 24.31000
H  11.17400 1.04900 25.01100
H  9.61300 3.03200 32.73800
H  8.79900 5.77600 32.71700
H  7.22500 3.56600 33.29100
H  7.16600 3.43600 31.54200
H  6.51400 4.86100 32.31300
H  11.04200 5.56600 33.09000
H  12.11100 4.42200 32.46100
H  12.18200 3.13300 34.15900
H  10.50700 3.24600 34.56400
H  6.04500 9.30300 29.29500
H  5.67400 7.77000 29.94100
H  4.70200 8.36700 28.72400
H  4.34000 8.99000 26.59400
H  4.91300 10.08400 25.43800
H  5.85900 10.04100 26.92600
H  9.84500 5.09700 23.08800
H  9.35800 2.03100 23.38000
H  7.31100 4.88700 22.88800
H  7.62400 3.42200 22.11700
H  8.39300 4.96100 21.52200
H  12.13100 2.87500 23.57700
H  11.36200 3.60400 22.11700
H  10.71600 0.80300 22.22300
H  12.38700 0.81900 22.66800
H  11.96800 1.57300 21.17700
H  13.87700 -0.46300 27.19900
H  12.72400 -0.41500 25.83600
H  12.20400 -1.22400 27.23100
H  12.28600 1.99800 32.04900
H  10.59000 -0.80900 34.80800
H  9.43100 -1.04400 33.46900
H  9.34300 0.35800 34.50700
Mg 0.35100 43.63000 25.60300
C  2.25200 43.71100 28.43400
C  -2.37600 42.80900 27.68000
C  -1.40200 43.08400 22.93600
C  3.24300 44.29700 23.67700
N  -0.05300 43.45700 27.82100
C  0.87300 43.61900 28.76800
C  0.27000 43.54900 30.19100
C  -1.20800 43.13600 29.90100
C  -1.21000 43.12400 28.36200
C  -1.61200 41.76800 30.61700
C  0.38100 44.81100 31.07500
C  0.66400 44.71300 32.59400
H  0.22500 43.32300 33.33400
N  -1.65800 43.08600 25.35600
C  -2.65900 42.87100 26.30000
C  -3.88900 42.45900 25.58400
C  -3.56900 42.44400 24.13700
C  -2.13700 42.82500 24.08900
C  -5.13000 41.87000 26.23300
C  -4.53400 42.04700 23.03500
O  -4.18000 42.11600 21.85000
C  -5.92700 41.52400 23.29100
N  0.85400 43.84200 23.58800
C  -0.09000 43.44800 22.67400
C  0.43500 43.53400 21.23000
C  1.84100 44.18100 21.51900
C  2.02500 44.12500 22.98900
C  0.59000 42.20200 20.54900
C  2.02700 45.65100 20.99000
C  1.53800 45.93200 19.54800
N  2.34700 43.84300 25.92600
C  3.39200 44.05600 25.04900
C  4.60600 44.08200 25.76600
C  4.24300 43.93000 27.11600
C  2.86200 43.76200 27.13400
C  5.99400 44.40900 25.18700
C  4.69800 43.88900 28.49800
O  5.86200 43.83000 28.86700
C  3.43500 43.74300 29.39700
C  3.62800 42.54400 30.25200
O  3.48900 41.34700 29.94400
O  4.02900 42.92900 31.45700
C  4.09900 41.94200 32.50200
H  -3.25700 42.44500 28.21400
H  -1.94700 42.94300 22.00000
H  4.17300 44.31400 23.10500
H  0.74900 42.72200 30.71600
H  -1.91400 43.91400 30.19200
H  -0.86200 41.38200 31.30700
H  -1.75700 41.12600 29.74800
H  -2.54400 41.84400 31.17600
H  -0.56100 45.35900 31.04500
H  1.08600 45.48900 30.59400
H  0.29100 45.57200 33.15100
H  1.74200 44.86800 32.58000
H  -5.92900 42.57600 26.00700
H  -5.06600 41.99600 27.31400
H  -5.18500 40.80000 26.03600
H  -5.73300 40.58800 23.81500
H  -6.50300 41.34100 22.38400
H  -6.55200 42.13600 23.94100
H  -0.10900 44.12300 20.49200
H  2.58600 43.46500 21.17200
H  0.14900 41.39900 21.13900
H  1.58400 41.93200 20.19000
H  -0.08900 42.33300 19.70600
H  3.09400 45.85700 20.90500
H  1.70100 46.41000 21.70100
H  1.26000 45.04100 18.98300
H  2.44700 46.33200 19.10000
H  0.72100 46.65400 19.54500
H  6.40900 45.19200 25.82200
H  5.88200 44.86100 24.20200
H  6.68200 43.56800 25.09400
H  3.39700 44.65600 29.99100
H  5.02200 41.44000 32.21200
H  3.25000 41.26400 32.40800
H  4.11900 42.49400 33.44200

