158

Mg 17.67900 -1.74600 28.05500
C  16.34600 0.23600 30.62800
C  19.45100 -3.43300 30.11000
C  19.03000 -3.21100 25.29600
C  15.89400 0.52300 25.77800
N  17.88400 -1.48200 30.17300
C  17.23900 -0.73300 31.13600
C  17.62600 -1.12500 32.51600
C  18.64900 -2.29000 32.31100
C  18.73400 -2.40400 30.79000
C  20.04200 -2.17000 32.97500
C  16.40700 -1.52600 33.40700
C  16.42200 -1.26800 34.92500
H  17.68100 -0.78300 35.62100
N  19.11200 -3.14900 27.81200
C  19.55800 -3.93400 28.79900
C  20.17900 -5.13300 28.30700
C  20.25700 -4.98200 26.89800
C  19.46900 -3.70700 26.56000
C  20.77200 -6.10500 29.13900
C  20.82100 -5.88000 25.87000
O  20.95600 -5.67100 24.67700
C  21.28400 -7.32900 26.19900
N  17.59500 -1.25800 25.88000
C  18.20100 -2.10700 24.96300
C  17.99500 -1.59000 23.51900
C  16.85100 -0.61100 23.74000
C  16.77200 -0.38400 25.21100
C  19.22700 -1.01700 22.80600
C  15.47100 -1.09500 23.27300
C  14.67200 -0.26600 22.23400
N  16.41200 -0.04300 28.13500
C  15.79200 0.75500 27.16500
C  15.00700 1.79000 27.75600
C  15.21100 1.59200 29.13600
C  16.01200 0.47100 29.26800
C  14.21600 2.81500 27.03200
C  14.88200 2.15800 30.49600
O  14.24600 3.17000 30.80800
C  15.52100 1.18000 31.48900
C  16.34700 2.07300 32.39300
O  17.32300 2.73500 32.03800
O  15.78900 2.02400 33.66900
C  16.30000 3.00800 34.63100
H  19.90600 -4.12100 30.82600
H  19.42300 -3.84700 24.50000
H  15.31700 1.12100 25.07000
H  18.02200 -0.22600 32.99000
H  18.24600 -3.17100 32.81000
H  20.08500 -1.17000 33.40500
H  20.80900 -2.30300 32.21200
H  20.32100 -2.88200 33.75100
H  16.06800 -2.54700 33.23100
H  15.53700 -0.96100 33.07200
H  16.15600 -2.21800 35.38800
H  15.66700 -0.48800 35.03200
H  21.83000 -6.22000 28.90200
H  20.11200 -6.92100 28.84500
H  20.69400 -5.84100 30.19300
H  21.46400 -8.05200 25.40300
H  20.55000 -7.77600 26.86900
H  22.25400 -7.24000 26.68700
H  17.60300 -2.38100 22.88100
H  17.06400 0.40800 23.41900
H  19.92600 -0.80800 23.61600
H  18.92000 -0.07900 22.34200
H  19.57400 -1.72900 22.05700
H  14.90000 -1.45600 24.12900
H  15.63500 -1.99700 22.68400
H  13.68500 -0.04900 22.64400
H  14.55600 -0.79000 21.28500
H  15.22200 0.65200 22.03100
H  14.57700 3.10400 26.04500
H  14.08600 3.64800 27.72300
H  13.34100 2.22400 26.76300
H  14.68700 0.64000 31.93900
H  16.52100 3.93700 34.10600
H  17.07000 2.54800 35.25000
H  15.38000 3.27500 35.15000
Mg -0.43000 43.35900 25.25800
C  1.69700 42.61300 27.88200
C  -2.99600 42.80400 27.39300
C  -2.52100 43.37800 22.62500
C  2.44500 43.20100 23.12000
N  -0.60200 42.60000 27.41000
C  0.40900 42.64500 28.32500
C  -0.14200 42.64200 29.75300
C  -1.65000 42.31000 29.49900
C  -1.78100 42.59000 28.00400
C  -2.28300 40.94400 29.90000
C  0.07400 44.08900 30.37900
C  0.05100 44.13800 31.94300
H  -0.20900 42.84300 32.76700
N  -2.49000 43.32000 25.04000
C  -3.37100 43.06400 26.06800
C  -4.72400 43.15300 25.53900
C  -4.59800 43.24400 24.14400
C  -3.16000 43.33400 23.84700
C  -5.94800 43.04000 26.44000
C  -5.66800 43.39500 23.04500
O  -5.46000 43.71700 21.90100
C  -7.19600 43.24300 23.49300
N  -0.07800 43.36800 23.20300
C  -1.07500 43.31500 22.28900
C  -0.55000 43.40300 20.82300
C  0.95100 43.75800 21.10800
C  1.16200 43.39600 22.54200
C  -0.77900 41.97800 20.14000
C  1.51100 45.22400 20.78100
C  1.20300 46.42300 21.64800
N  1.64100 43.13700 25.38000
C  2.64100 43.00000 24.50900
C  3.92200 42.73400 25.15000
C  3.61700 42.59800 26.49500
C  2.19500 42.78000 26.55100
C  5.24400 42.57500 24.40400
C  4.18600 42.21300 27.75300
O  5.36700 41.97900 28.03900
C  3.02100 42.49900 28.74400
C  3.14600 41.40300 29.75700
O  2.78200 40.19900 29.72500
O  3.65700 41.92800 30.91100
C  4.13800 41.02300 31.98900
H  -3.82800 42.69400 28.09200
H  -3.12600 43.44100 21.71800
H  3.34000 43.22600 22.49500
H  0.42100 41.94900 30.37800
H  -2.28400 43.03800 30.00500
H  -3.07400 40.75600 29.17400
H  -2.71300 41.08900 30.89100
H  -1.45700 40.23500 29.96000
H  -0.63100 44.80700 29.96000
H  1.01600 44.50200 30.02000
H  -0.63700 44.94700 32.19100
H  0.98200 44.49400 32.38400
H  -6.56000 43.93900 26.37900
H  -5.83100 42.87500 27.51100
H  -6.47400 42.23800 25.92100
H  -7.44500 42.33900 24.04800
H  -7.60500 43.30100 22.48400
H  -7.62800 44.08800 24.02900
H  -0.94300 44.10700 20.08900
H  1.47800 43.07100 20.44700
H  -1.39500 41.30800 20.73900
H  0.18500 41.48700 20.00500
H  -1.32800 42.16700 19.21800
H  1.12000 45.23300 19.76400
H  2.59200 45.09400 20.73500
H  1.07300 47.29900 21.01400
H  2.08500 46.61300 22.26000
H  0.28600 46.30600 22.22600
H  5.96200 42.26200 25.16100
H  5.60600 43.44300 23.85100
H  5.11100 41.72800 23.73100
H  3.19200 43.49600 29.15100
H  5.19900 40.94800 31.75000
H  3.67000 40.03900 32.00800
H  4.05000 41.49000 32.97000

