158

Mg -2.24600 33.84800 25.71100
C  -3.91500 32.55500 28.62800
C  -0.56800 36.03700 27.61800
C  -0.98800 34.98700 22.82800
C  -4.42200 31.67200 23.80700
N  -2.19200 34.18800 27.93700
C  -2.96900 33.54200 28.93500
C  -2.63200 34.16100 30.30500
C  -1.57100 35.30800 29.96300
C  -1.45500 35.19100 28.37600
C  -2.05900 36.72400 30.45000
C  -1.98700 33.08400 31.26600
C  -2.64000 32.65700 32.61000
H  -1.87400 32.76900 33.92900
N  -0.92600 35.19300 25.32900
C  -0.30600 36.00600 26.25700
C  0.63900 36.86500 25.50400
C  0.54900 36.52000 24.13500
C  -0.49400 35.53500 24.03600
C  1.54200 37.90500 26.25600
C  1.40600 37.03500 22.93900
O  1.14100 36.84200 21.74700
C  2.58100 37.99400 23.38800
N  -2.80900 33.50700 23.56500
C  -2.05400 34.04400 22.62400
C  -2.55900 33.57600 21.15700
C  -3.58600 32.35900 21.51500
C  -3.68900 32.57300 23.03100
C  -3.01100 34.71200 20.25200
C  -3.09300 30.93800 21.13900
C  -1.82000 30.49200 21.81800
N  -3.77200 32.38700 26.04400
C  -4.55000 31.55800 25.21500
C  -5.35600 30.62300 25.99500
C  -5.16100 31.03500 27.34900
C  -4.17700 32.09300 27.33100
C  -6.24800 29.61600 25.50400
C  -5.62400 30.86500 28.67400
O  -6.46900 30.06500 29.13800
C  -4.78300 31.75300 29.65100
C  -5.54400 32.55500 30.52900
O  -6.03500 33.60300 30.05700
O  -5.60100 32.10500 31.80900
C  -6.22700 33.07500 32.73400
H  -0.14600 36.74300 28.33600
H  -0.60600 35.29700 21.85300
H  -4.98100 30.96600 23.19000
H  -3.53800 34.54500 30.77400
H  -0.54600 35.14200 30.29500
H  -2.06300 37.49100 29.67600
H  -1.37400 37.04600 31.23500
H  -3.04100 36.79200 30.91800
H  -1.00400 33.52400 31.43000
H  -1.64700 32.22300 30.69000
H  -3.00000 31.63100 32.54600
H  -3.50200 33.30700 32.76500
H  1.39100 38.91200 25.86800
H  2.55800 37.51200 26.21500
H  1.47700 37.81900 27.34100
H  2.16400 38.87400 23.87800
H  3.08100 38.47900 22.55000
H  3.26800 37.34800 23.93500
H  -1.72400 33.07800 20.66500
H  -4.54600 32.56000 21.03900
H  -3.02000 35.64400 20.81600
H  -3.94300 34.40000 19.78000
H  -2.24700 34.87400 19.49100
H  -2.96300 30.84300 20.06100
H  -3.90700 30.22800 21.28600
H  -1.10600 30.29600 21.01800
H  -1.97500 29.58300 22.39800
H  -1.43900 31.28800 22.45800
H  -7.05400 30.06600 24.92400
H  -6.76600 29.06600 26.29000
H  -5.77900 28.96200 24.76800
H  -4.18500 31.05800 30.24000
H  -7.23300 33.42500 32.50100
H  -5.53900 33.91800 32.67100
H  -6.37100 32.77800 33.77300
Mg -6.46000 25.06500 25.93300
C  -4.66400 26.37300 28.62800
C  -8.09400 22.85300 28.09000
C  -7.60000 23.33800 23.28800
C  -4.12600 26.73100 23.77900
N  -6.43800 24.75600 28.03700
C  -5.61600 25.40200 28.96100
C  -6.06500 25.00400 30.37900
C  -7.05100 23.81600 30.22300
C  -7.29200 23.87800 28.67200
C  -6.52400 22.40300 30.81000
C  -6.78600 26.21300 31.09000
C  -6.51900 26.44400 32.56800
H  -6.11500 25.17800 33.50200
N  -7.82700 23.50900 25.72800
C  -8.41000 22.76900 26.73000
C  -9.37500 21.83400 26.16800
C  -9.23000 22.02900 24.74800
C  -8.16100 22.99300 24.54200
C  -10.36100 20.95200 26.96300
C  -9.98500 21.32700 23.68500
O  -9.87800 21.64600 22.49200
C  -11.03500 20.25700 23.97500
N  -6.00200 25.11500 23.84400
C  -6.63200 24.30500 22.92900
C  -6.03300 24.52000 21.44200
C  -5.16200 25.77200 21.67700
C  -5.07700 25.90400 23.18400
C  -5.25700 23.31300 20.92900
C  -5.53200 27.10400 20.93000
C  -4.51600 27.57100 19.92900
N  -4.87200 26.46300 26.11900
C  -4.00500 27.01200 25.17300
C  -2.95600 27.71900 25.83400
C  -3.25200 27.63400 27.22600
C  -4.43700 26.80900 27.32600
C  -1.79400 28.50300 25.33100
C  -2.82500 27.91600 28.61200
O  -1.78800 28.38500 29.02600
C  -3.82700 27.25800 29.55000
C  -3.11100 26.53200 30.51100
O  -2.70500 25.42600 30.33600
O  -2.80200 27.30200 31.60300
C  -2.08100 26.58100 32.66600
H  -8.52500 22.23200 28.87800
H  -7.94500 22.79300 22.40700
H  -3.26900 27.05500 23.18600
H  -5.23700 24.67600 31.00800
H  -7.98900 24.05400 30.72400
H  -5.52800 22.60600 31.20400
H  -6.40100 21.63500 30.04700
H  -7.26700 21.92900 31.45200
H  -7.86900 26.12500 31.00200
H  -6.46100 27.08700 30.52500
H  -7.42000 26.80900 33.06000
H  -5.67200 27.12700 32.64800
H  -10.27800 19.88900 26.73700
H  -11.27300 21.43700 26.61400
H  -10.13000 21.13200 28.01300
H  -10.46600 19.50900 24.52600
H  -11.37700 19.76200 23.06600
H  -11.77000 20.78100 24.58600
H  -6.82200 24.76000 20.73000
H  -4.12200 25.52000 21.46800
H  -4.54200 23.27600 21.75100
H  -4.74200 23.45600 19.97900
H  -5.81300 22.37600 20.91700
H  -5.76400 27.91100 21.62600
H  -6.50100 26.87600 20.48500
H  -4.91500 27.52800 18.91500
H  -3.49400 27.19500 19.89100
H  -4.37700 28.62500 20.17300
H  -1.10400 27.90600 24.73500
H  -1.22400 28.86200 26.18900
H  -2.23700 29.27200 24.69800
H  -4.27000 28.06600 30.13300
H  -1.95900 27.30600 33.47000
H  -1.10400 26.27200 32.29600
H  -2.61400 25.73700 33.10300

