158

Mg 24.84500 -6.41600 47.57000
C  27.24900 -4.10800 46.48200
C  22.65400 -5.19300 45.12300
C  22.70300 -8.92200 48.11600
C  27.42500 -7.99700 49.25200
N  25.01200 -4.99900 45.86900
C  25.99600 -4.06700 45.78300
C  25.69700 -3.14000 44.63700
C  24.20100 -3.19000 44.52200
C  23.92200 -4.53900 45.19700
C  23.38000 -1.90800 44.93700
C  26.41800 -3.64200 43.34400
C  27.14000 -2.45800 42.58500
H  27.16500 -2.42200 41.06700
N  22.89700 -6.94300 46.80200
C  22.14600 -6.36600 45.77900
C  20.86100 -6.97000 45.59100
C  20.81900 -8.06100 46.50200
C  22.15700 -8.06200 47.20700
C  19.82600 -6.63300 44.59000
C  19.67100 -9.04000 46.64500
O  18.58000 -8.78900 46.05600
C  19.85100 -10.41700 47.33000
N  25.10700 -8.21400 48.49100
C  24.03300 -9.04400 48.66700
C  24.38000 -10.32100 49.46700
C  25.88100 -10.00800 49.80000
C  26.19000 -8.66500 49.20200
C  23.44000 -10.50400 50.68700
C  26.85600 -11.15500 49.33900
C  27.25000 -12.31100 50.25800
N  26.90200 -6.02700 48.07300
C  27.81600 -6.78400 48.69800
C  29.17800 -6.23600 48.58500
C  28.95700 -5.05500 47.84700
C  27.59900 -4.99400 47.48500
C  30.44600 -6.91300 49.03700
C  29.61100 -3.88400 47.26400
O  30.77700 -3.56600 47.47700
C  28.51700 -3.17300 46.44000
C  28.20400 -1.75100 46.87400
O  27.91600 -1.35700 48.00100
O  28.19200 -1.03600 45.64900
C  27.46100 0.19400 45.84700
H  21.90900 -4.74600 44.46000
H  21.94800 -9.65900 48.39700
H  28.15500 -8.57300 49.82400
H  25.89800 -2.10900 44.92600
H  23.98700 -3.47400 43.49200
H  23.98800 -1.03500 45.17500
H  22.68300 -2.16000 45.73600
H  22.79000 -1.64400 44.06000
H  25.85800 -4.25600 42.63800
H  27.19600 -4.30000 43.73300
H  28.17700 -2.63500 42.86800
H  26.73200 -1.51300 42.94500
H  19.51300 -7.54600 44.08300
H  20.21300 -5.96100 43.82400
H  18.92600 -6.28500 45.09700
H  20.74400 -10.83300 46.86200
H  18.92900 -10.94800 47.09300
H  19.93200 -10.33300 48.41400
H  24.36600 -11.11900 48.72400
H  26.02400 -9.83700 50.86700
H  23.96000 -10.90900 51.55500
H  22.58000 -11.11700 50.41800
H  22.97800 -9.58300 51.04200
H  27.71900 -10.72000 48.83500
H  26.45400 -11.63700 48.44800
H  26.82300 -13.26800 49.95900
H  26.97800 -12.06500 51.28400
H  28.31200 -12.48200 50.08600
H  31.28900 -6.22700 49.11100
H  30.83500 -7.63700 48.32100
H  30.34600 -7.46400 49.97200
H  28.82900 -3.13000 45.39700
H  27.82000 0.80600 46.67500
H  26.40300 -0.04500 45.96300
H  27.53900 0.81100 44.95200
Mg 25.60200 51.70900 26.55300
C  23.17100 52.53900 29.03500
C  27.72600 50.69500 29.14100
C  28.08400 51.24600 24.41100
C  23.53700 52.94400 24.03800
N  25.49100 51.77400 28.85900
C  24.35600 52.00500 29.56900
C  24.66200 51.60300 30.98500
C  26.13100 51.06500 31.02100
C  26.51800 51.18100 29.57400
C  27.10800 51.72200 32.10800
C  23.67000 50.60100 31.58000
C  22.98700 51.06500 32.83400
H  23.14200 50.25600 34.11600
N  27.63900 51.08300 26.74100
C  28.28300 50.68200 27.89400
C  29.66700 50.35900 27.55100
C  29.80400 50.38200 26.12600
C  28.47000 50.92800 25.72100
C  30.55000 49.66900 28.58700
C  31.01000 49.97900 25.26200
O  31.12100 50.06000 24.00800
C  32.32200 49.40200 25.93600
N  25.75300 52.00800 24.52000
C  26.87600 51.76500 23.94500
C  26.66000 51.89400 22.43500
C  25.23600 52.42600 22.29400
C  24.76100 52.41700 23.67700
C  27.70300 52.82100 21.66000
C  24.36500 51.55000 21.35800
C  23.36100 52.30100 20.48200
N  23.76000 52.53600 26.48800
C  23.06200 53.06700 25.37000
C  21.74300 53.51200 25.88800
C  21.79400 53.33500 27.29100
C  22.97100 52.71600 27.60600
C  20.63800 53.98400 25.06800
C  20.97200 53.42100 28.45000
O  19.80600 53.75200 28.51000
C  21.82400 52.90400 29.62100
C  22.10000 54.01700 30.53300
O  22.56200 55.10300 30.22200
O  21.51300 53.64900 31.71800
C  21.26500 54.87200 32.54900
H  28.40700 50.32700 29.91100
H  28.80400 51.18300 23.59200
H  22.91400 53.41000 23.27200
H  24.63700 52.53200 31.55500
H  26.24100 49.98500 30.92400
H  27.55500 50.93300 32.71300
H  26.51800 52.44100 32.67800
H  27.85500 52.27000 31.53400
H  24.18000 49.66500 31.81000
H  22.94500 50.47400 30.77600
H  21.91700 51.05900 32.62700
H  23.21500 52.11200 33.03100
H  30.59100 48.58600 28.47000
H  30.39500 49.91500 29.63700
H  31.54700 50.02500 28.33000
H  32.05300 48.55500 26.56600
H  32.81000 50.20500 26.48800
H  33.06700 49.05600 25.21800
H  26.73100 50.87600 22.05100
H  25.25500 53.45700 21.94100
H  27.13000 53.55100 21.08800
H  28.41300 52.28300 21.03300
H  28.31500 53.38200 22.36600
H  23.94200 50.77700 22.00000
H  25.01000 51.04300 20.64100
H  23.48400 52.07800 19.42200
H  23.37700 53.37200 20.68600
H  22.36900 51.95100 20.76700
H  19.78800 53.63100 25.65100
H  20.68000 53.55300 24.06800
H  20.44600 55.05300 24.97500
H  21.36100 52.03400 30.08600
H  21.45100 55.84900 32.10300
H  21.70300 54.84700 33.54600
H  20.21800 54.88600 32.84900

