158

Mg 25.76300 0.53100 29.86600
C  27.65500 0.25300 32.83600
C  22.91400 0.89300 31.84200
C  23.74900 0.64400 27.15500
C  28.47700 -0.32200 27.96400
N  25.37400 0.58900 32.03600
C  26.27900 0.49800 33.08100
C  25.70500 0.76400 34.41100
C  24.18900 0.97400 34.13700
C  24.15700 0.78400 32.60000
C  23.13600 -0.10800 34.74400
C  26.38700 1.90400 35.19000
C  26.70900 1.57900 36.66200
H  26.24700 2.69700 37.60600
N  23.59400 0.73300 29.58200
C  22.60800 0.90400 30.49000
C  21.37400 1.21600 29.91800
C  21.62000 1.10700 28.52400
C  22.99500 0.88700 28.37000
C  20.14400 1.58600 30.69500
C  20.70900 1.04400 27.34800
O  21.01100 0.67900 26.18400
C  19.24400 1.33000 27.59200
N  26.12700 0.13000 27.85500
C  25.11700 0.28100 26.90200
C  25.67200 0.17400 25.44900
C  27.22000 0.08100 25.67200
C  27.31700 -0.03400 27.24000
C  25.00800 -0.99500 24.73700
C  28.08900 1.31000 25.14600
C  27.75200 2.72300 25.69600
N  27.68400 0.12100 30.25800
C  28.63900 -0.30700 29.37800
C  29.87700 -0.62800 30.21100
C  29.48300 -0.30300 31.49700
C  28.20500 0.02200 31.52000
C  31.16500 -1.04600 29.77800
C  29.99900 -0.32400 32.87100
O  31.07300 -0.70200 33.33600
C  28.87600 0.12200 33.82300
C  28.75500 -1.01900 34.74300
O  28.47700 -2.11300 34.39800
O  29.23800 -0.65100 35.95800
C  29.07000 -1.56900 37.09200
H  22.07400 1.16500 32.48500
H  23.30700 1.04600 26.24100
H  29.43400 -0.52000 27.47800
H  25.80800 -0.05800 35.11900
H  23.89500 1.99300 34.38600
H  22.28800 0.37000 35.23300
H  23.65800 -0.59500 35.56700
H  22.66400 -0.88400 34.14000
H  25.74000 2.77900 35.12100
H  27.25600 2.32100 34.68200
H  27.79300 1.59200 36.77500
H  26.35400 0.59600 36.96900
H  19.95900 2.64200 30.49600
H  20.18500 1.54700 31.78400
H  19.24600 1.04400 30.39900
H  19.21900 2.20600 28.24000
H  18.82600 0.49000 28.14700
H  18.65100 1.61600 26.72300
H  25.33700 1.14800 25.09200
H  27.65600 -0.82300 25.24700
H  24.58900 -1.67600 25.47800
H  25.81600 -1.48800 24.19600
H  24.27900 -0.75600 23.96300
H  27.95100 1.44900 24.07300
H  29.12800 0.98300 25.19100
H  28.52300 3.25500 26.25400
H  26.95500 2.71700 26.44000
H  27.47400 3.30100 24.81400
H  31.28500 -1.26900 28.71800
H  31.43300 -2.03600 30.14600
H  31.90900 -0.29600 30.04400
H  29.06800 1.01900 34.41200
H  28.21100 -1.27800 37.69500
H  30.00100 -1.61200 37.65700
H  28.84700 -2.59200 36.78600
Mg 29.74900 58.17300 38.51200
C  26.75500 56.46200 37.95900
C  31.50300 55.40000 37.40000
C  32.48100 60.15800 38.25800
C  27.77300 61.08900 39.09800
N  29.17400 56.19400 37.56800
C  27.87500 55.65800 37.62900
C  27.98600 54.15700 37.11000
C  29.48200 53.82000 37.35600
C  30.10000 55.21100 37.42000
C  29.93300 52.90000 38.48600
C  27.60200 54.24700 35.59300
C  26.12300 53.74600 35.28400
H  25.47000 54.37200 34.08300
N  31.73900 57.78100 38.00600
C  32.27800 56.59900 37.63800
C  33.76100 56.75400 37.47100
C  34.10500 58.09400 37.59800
C  32.75700 58.77500 37.96800
C  34.54400 55.52700 37.22400
C  35.51800 58.66700 37.46400
O  36.55000 58.04800 37.09500
C  35.81000 60.04200 37.91800
N  30.06900 60.40300 38.47400
C  31.30100 60.86800 38.65700
C  31.33100 62.40500 38.89700
C  29.86000 62.65900 39.31800
C  29.16900 61.30200 38.95100
C  32.48700 62.91000 39.80800
C  29.16100 63.96600 38.72100
C  28.40900 64.81700 39.77400
N  27.70400 58.73300 38.47300
C  27.04000 59.91800 38.74900
C  25.61600 59.74400 38.64000
C  25.44000 58.38300 38.39100
C  26.75700 57.79400 38.26900
C  24.54200 60.86400 38.68400
C  24.45800 57.36100 38.19500
O  23.22600 57.38900 38.21500
C  25.27500 56.05200 37.95200
C  24.93800 54.96800 38.91200
O  25.63900 54.55700 39.87500
O  23.76800 54.33000 38.45000
C  23.50500 53.09400 39.21900
H  32.06900 54.52100 37.08500
H  33.33000 60.84200 38.19600
H  27.10200 61.86700 39.46800
H  27.33100 53.37900 37.50200
H  29.98800 53.36100 36.50700
H  29.31700 53.11300 39.36000
H  31.01300 52.90600 38.63100
H  29.62800 51.86500 38.33300
H  28.35000 53.65900 35.06000
H  27.64000 55.28700 35.26700
H  25.51400 53.95900 36.16200
H  26.25900 52.67600 35.12000
H  34.38000 55.17900 36.20500
H  34.13500 54.69800 37.80300
H  35.61200 55.56900 37.44100
H  36.89200 60.14600 37.99600
H  35.35100 60.24500 38.88500
H  35.50400 60.82100 37.21900
H  31.46900 62.94000 37.95700
H  29.81300 62.75600 40.40300
H  32.15400 63.23100 40.79500
H  32.91200 63.80100 39.34500
H  33.25200 62.15600 39.99700
H  28.43400 63.55600 38.02000
H  29.82500 64.68100 38.23600
H  28.81100 64.60300 40.76500
H  27.33000 64.67000 39.81100
H  28.63900 65.84100 39.48000
H  24.34300 61.21500 39.69600
H  23.59800 60.45300 38.32600
H  24.85200 61.67900 38.03000
H  24.87600 55.72400 36.99200
H  22.73000 52.49500 38.74200
H  23.22400 53.41400 40.22300
H  24.43400 52.52800 39.28800

