158

Mg -1.22900 6.25500 26.10900
C  -0.49900 8.64200 28.72200
C  -0.73500 3.74800 28.38800
C  -1.71900 4.30600 23.58300
C  -1.29500 9.13800 23.90700
N  -0.79500 6.24600 28.37800
C  -0.62700 7.30300 29.21000
C  -0.40200 6.88200 30.66200
C  -0.38200 5.33400 30.58500
C  -0.66800 5.05000 29.00100
C  0.89300 4.56600 31.03900
C  -1.41700 7.38300 31.66000
C  -1.10400 7.32700 33.17300
H  0.11000 6.46100 33.78600
N  -1.24000 4.31600 25.96200
C  -1.07100 3.42100 27.02900
C  -1.38800 2.08800 26.48300
C  -1.60200 2.18900 25.08000
C  -1.50100 3.65600 24.78200
C  -1.43600 0.85100 27.37200
C  -2.01000 1.07400 24.02400
O  -2.17600 1.23700 22.79200
C  -2.38000 -0.42000 24.58000
N  -1.42000 6.67600 23.98900
C  -1.79400 5.63300 23.17600
C  -2.18700 6.13100 21.76500
C  -2.10800 7.67600 22.02500
C  -1.55800 7.87500 23.37000
C  -1.30100 5.48000 20.66000
C  -3.47700 8.43100 21.97500
C  -3.48200 9.78800 21.13800
N  -0.91800 8.45500 26.24900
C  -0.91900 9.42200 25.25000
C  -0.46400 10.63400 25.80600
C  -0.30200 10.35200 27.17800
C  -0.58900 9.02900 27.38700
C  -0.29700 11.97700 25.11900
C  -0.01300 10.97100 28.38600
O  0.37100 12.17700 28.51100
C  -0.18500 9.87800 29.49300
C  1.05700 9.80400 30.34400
O  2.13200 9.21600 30.12200
O  0.72100 10.48100 31.57700
C  1.76800 10.50500 32.59300
H  -0.51900 2.89800 29.03800
H  -1.87800 3.52800 22.83300
H  -1.35700 9.97400 23.20800
H  0.56500 7.30300 30.93700
H  -1.23900 4.92800 31.12300
H  1.25600 3.89500 30.25900
H  0.53000 4.00500 31.90000
H  1.71200 5.24500 31.27800
H  -2.41800 7.00300 31.45300
H  -1.55000 8.42300 31.36200
H  -2.00900 6.97800 33.67000
H  -0.91400 8.35000 33.49600
H  -1.40500 1.11500 28.43000
H  -0.51000 0.30500 27.19100
H  -2.29000 0.24400 27.07100
H  -1.65000 -0.69900 25.33900
H  -2.34700 -1.11100 23.73800
H  -3.39100 -0.28300 24.96400
H  -3.21600 5.79500 21.63400
H  -1.46700 8.11500 21.26000
H  -0.60100 4.77800 21.11300
H  -0.69100 6.21700 20.13700
H  -2.02700 4.98000 20.01900
H  -3.84600 8.57100 22.99100
H  -4.34700 7.91200 21.57200
H  -2.46800 9.87400 20.74700
H  -3.75100 10.65800 21.73800
H  -4.11400 9.77800 20.25000
H  -1.23500 12.21200 24.61500
H  0.56200 11.87200 24.45600
H  -0.11500 12.77800 25.83500
H  -1.08100 10.12700 30.06100
H  2.79300 10.36900 32.24800
H  1.43900 9.66700 33.20800
H  1.75000 11.43200 33.16700
Mg 24.15200 -5.45400 45.29800
C  26.40300 -3.09500 43.85200
C  21.70500 -4.26300 43.12800
C  22.37500 -8.17300 45.96400
C  26.95800 -6.94200 46.86700
N  24.13600 -3.92700 43.70200
C  25.11800 -3.05100 43.27400
C  24.62300 -2.24500 42.04600
C  23.08100 -2.31400 42.27600
C  22.91000 -3.59000 43.04600
C  22.49700 -1.04900 42.82200
C  25.02900 -2.84300 40.68100
C  25.52100 -1.80000 39.64000
H  24.91600 -1.92500 38.24000
N  22.33400 -6.13700 44.64400
C  21.45200 -5.42300 43.86600
C  20.17200 -6.13300 43.85300
C  20.31900 -7.24100 44.69200
C  21.70000 -7.21900 45.16100
C  18.99900 -5.68600 43.07500
C  19.18300 -8.20500 45.15100
O  18.09900 -8.24300 44.69300
C  19.40800 -9.13400 46.26500
N  24.54100 -7.23900 46.28600
C  23.64900 -8.20800 46.49600
C  24.24700 -9.43100 47.20000
C  25.73600 -9.09100 47.44900
C  25.76200 -7.67200 46.77500
C  23.49500 -9.93100 48.51300
C  26.65800 -10.14500 46.84800
C  28.09900 -10.17100 47.33700
N  26.22000 -4.95600 45.68400
C  27.20400 -5.65100 46.34400
C  28.46700 -4.91600 46.17900
C  28.19200 -3.89800 45.18800
C  26.82700 -4.00000 44.90100
C  29.78800 -5.23200 46.82600
C  28.79000 -2.88800 44.36100
O  29.94900 -2.50200 44.33700
C  27.60800 -2.22700 43.43000
C  27.44100 -0.92700 43.93100
O  26.62900 -0.54300 44.79300
O  28.27700 -0.06900 43.25300
C  28.40400 1.28000 43.89400
H  20.91700 -3.86100 42.48600
H  21.97500 -9.18100 46.09500
H  27.74000 -7.38500 47.48600
H  24.96500 -1.23300 42.26500
H  22.43400 -2.40100 41.40300
H  23.29600 -0.45200 43.26200
H  21.76900 -1.22900 43.61300
H  22.04600 -0.51300 41.98700
H  24.29700 -3.54300 40.27900
H  25.97900 -3.36200 40.80200
H  26.59800 -1.87700 39.49000
H  25.18100 -0.80000 39.91000
H  18.09200 -6.29100 43.09200
H  19.24200 -5.56900 42.01900
H  18.74400 -4.69800 43.45700
H  18.42200 -9.30800 46.69500
H  19.98500 -8.68800 47.07500
H  19.81900 -10.05900 45.86000
H  24.16900 -10.31400 46.56500
H  25.89800 -8.93000 48.51500
H  23.08400 -10.92600 48.34100
H  22.69400 -9.24500 48.79000
H  24.17300 -10.03700 49.36000
H  26.74100 -9.91600 45.78500
H  26.27100 -11.16100 46.92400
H  28.23400 -11.24200 47.48400
H  28.09800 -9.65000 48.29400
H  28.91800 -10.00100 46.63700
H  30.38400 -6.09800 46.53800
H  29.70500 -5.37200 47.90400
H  30.28500 -4.26900 46.71600
H  27.85000 -2.36100 42.37500
H  28.98300 1.98600 43.29800
H  28.85100 1.09400 44.87100
H  27.45000 1.68300 44.23200

