158

Mg 27.57500 51.08100 25.67300
C  25.62200 52.44800 28.27700
C  29.72100 49.72200 27.98500
C  29.37600 49.98100 22.99100
C  25.23400 52.56400 23.43000
N  27.72000 51.28400 27.85400
C  26.79200 51.77900 28.73200
C  27.12800 51.46700 30.19500
C  28.53500 50.78400 30.04800
C  28.75100 50.54500 28.54300
C  29.62800 51.58100 30.75100
C  26.06600 50.47800 30.87900
C  25.16800 50.99600 31.98600
H  25.06500 50.13400 33.21100
N  29.30900 49.97700 25.51700
C  29.99200 49.44700 26.60800
C  31.01300 48.61400 26.02600
C  30.94000 48.67600 24.62100
C  29.80100 49.55400 24.28700
C  32.00000 47.75900 26.86300
C  31.81300 47.90600 23.58700
O  31.65900 48.07500 22.38100
C  32.91600 46.89900 23.99100
N  27.42500 51.38800 23.52300
C  28.36700 50.89200 22.67100
C  27.87100 51.03800 21.22600
C  26.56400 51.90900 21.32300
C  26.34100 51.94100 22.82300
C  28.86700 51.66400 20.24900
C  25.29400 51.40700 20.50800
C  24.22700 50.59800 21.20100
N  25.88400 52.37600 25.79000
C  24.95900 52.76000 24.81700
C  23.77500 53.48500 25.31400
C  24.01600 53.31500 26.75600
C  25.31300 52.65200 26.93100
C  22.67400 54.10900 24.46900
C  23.36600 53.54100 28.04900
O  22.30100 54.06300 28.34800
C  24.45700 53.04100 29.08500
C  24.80200 54.15700 29.91100
O  25.70700 54.93600 29.70600
O  23.90000 54.17400 30.93600
C  24.24200 54.90300 32.20000
H  30.38000 49.23600 28.70700
H  30.00800 49.62100 22.17600
H  24.44300 52.84100 22.73100
H  27.21500 52.43300 30.69200
H  28.55900 49.78000 30.47200
H  29.18300 52.34300 31.39100
H  30.28000 52.07500 30.03100
H  30.19900 50.89000 31.37100
H  26.43400 49.46100 31.00900
H  25.41500 50.30600 30.02200
H  24.15000 51.09500 31.61200
H  25.60000 51.95600 32.26600
H  32.01600 48.04900 27.91300
H  33.03200 47.88500 26.53500
H  31.82900 46.68900 26.74400
H  33.66100 47.40100 24.60800
H  33.54700 46.62400 23.14600
H  32.55400 45.98300 24.45800
H  27.58200 50.03500 20.91300
H  26.64600 52.95300 21.02100
H  28.86300 51.05700 19.34500
H  29.84900 51.71700 20.71900
H  28.54800 52.67500 19.99300
H  25.60200 50.80500 19.65400
H  24.77600 52.27900 20.10900
H  23.91500 49.77900 20.55300
H  23.33500 51.13800 21.51900
H  24.56800 50.24500 22.17500
H  22.97500 54.67200 23.58500
H  22.07500 54.72600 25.13800
H  22.06300 53.25800 24.16900
H  23.99100 52.25300 29.67600
H  23.43800 55.39300 32.75100
H  24.84000 55.76600 31.90800
H  24.85500 54.31400 32.88200
Mg -11.08200 38.48000 41.98600
C  -9.47500 35.59500 40.81400
C  -8.53900 40.29100 40.46900
C  -13.03000 41.20500 42.13400
C  -13.85300 36.46100 42.73700
N  -9.19300 37.95900 40.68200
C  -8.74100 36.72100 40.42900
C  -7.45500 36.80700 39.55600
C  -7.17700 38.34400 39.50400
C  -8.32700 38.92700 40.30300
C  -5.83000 38.84400 40.05900
C  -7.69900 36.28400 38.03800
C  -6.66000 35.27600 37.60100
H  -5.83200 35.72200 36.39400
N  -10.78300 40.41700 41.61900
C  -9.67900 41.00200 40.95500
C  -9.84500 42.42100 40.89400
C  -11.12500 42.67800 41.39500
C  -11.74400 41.39800 41.67300
C  -8.77100 43.38500 40.45500
C  -11.76000 44.17300 41.42800
O  -11.10900 45.14300 41.06200
C  -13.20000 44.35000 41.90900
N  -13.12700 38.77200 42.42800
C  -13.70300 39.99500 42.47500
C  -15.20900 39.89200 42.73800
C  -15.45000 38.35300 43.02400
C  -14.07500 37.78300 42.75000
C  -15.60900 40.83500 43.89200
C  -16.55600 37.77500 42.06200
C  -17.67100 36.99800 42.77200
N  -11.53600 36.46000 41.99100
C  -12.62700 35.78600 42.52500
C  -12.40100 34.38800 42.29600
C  -11.27900 34.24700 41.58800
C  -10.70700 35.54900 41.42800
C  -13.28900 33.23700 42.72800
C  -10.37700 33.26800 41.00600
O  -10.36300 32.05100 40.89800
C  -9.15600 34.13900 40.55500
C  -8.03700 33.60200 41.38400
O  -7.01600 33.13400 40.90900
O  -8.28700 33.65000 42.75600
C  -7.22900 33.09600 43.59400
H  -7.82000 40.93400 39.95700
H  -13.75200 42.02300 42.15100
H  -14.69000 35.78200 42.91600
H  -6.73800 36.17300 40.07700
H  -7.51800 38.76100 38.55600
H  -5.29600 39.24800 39.19800
H  -5.27500 38.05800 40.57100
H  -5.98500 39.62400 40.80400
H  -7.71400 37.13100 37.35200
H  -8.66300 35.77400 38.02400
H  -7.20800 34.35100 37.42200
H  -6.02000 35.10200 38.46600
H  -9.18600 44.03500 39.68400
H  -7.88900 42.84600 40.10800
H  -8.43500 43.97000 41.31100
H  -13.50800 43.85400 42.82900
H  -13.84900 43.99300 41.10900
H  -13.33300 45.43100 41.86200
H  -15.72600 40.22300 41.83700
H  -15.71500 38.21100 44.07100
H  -16.10300 40.34500 44.73200
H  -16.35400 41.49800 43.45200
H  -14.69700 41.29100 44.27700
H  -16.17900 37.08600 41.30600
H  -17.01300 38.57500 41.48000
H  -18.59100 37.37000 42.32300
H  -17.60600 37.08500 43.85700
H  -17.66200 35.92300 42.59200
H  -12.90800 32.22200 42.83900
H  -14.08300 33.29600 41.98400
H  -13.54200 33.55100 43.74000
H  -8.97600 33.97100 39.49300
H  -6.24800 33.22000 43.13600
H  -7.42500 32.10400 44.00000
H  -7.17800 33.70800 44.49400

