158

Mg 49.53000 35.18900 27.86500
C  47.14800 34.03000 30.32100
C  49.90700 37.99000 29.74300
C  51.29700 36.31000 25.34300
C  48.70600 32.30900 25.93600
N  48.63000 35.89200 29.94200
C  47.87200 35.20300 30.80400
C  48.00700 35.83700 32.18000
C  48.46900 37.35400 31.87500
C  49.09400 37.04100 30.44600
C  47.41200 38.50100 31.85500
C  49.12400 35.13200 33.07600
C  48.92400 35.17400 34.55400
H  48.10100 36.36500 35.20900
N  50.38700 36.90500 27.56200
C  50.52200 37.92500 28.43800
C  51.39300 38.95200 27.92100
C  51.83900 38.52300 26.64000
C  51.16700 37.21800 26.42200
C  51.47600 40.27400 28.66000
C  52.90900 39.17300 25.75900
O  53.30500 38.77700 24.62800
C  53.65900 40.31600 26.41700
N  49.87000 34.35800 25.83600
C  50.79300 35.05900 25.09900
C  51.29900 34.13800 23.96500
C  50.58700 32.74900 24.20400
C  49.63200 33.12200 25.31800
C  51.18800 34.83300 22.56600
C  51.60000 31.61900 24.65900
C  51.29700 30.27300 24.04700
N  48.22200 33.51400 28.00100
C  48.00600 32.43900 27.16600
C  47.08900 31.47500 27.82600
C  46.70700 32.04300 29.03500
C  47.39900 33.29300 29.09500
C  46.74600 30.09900 27.26100
C  45.82300 31.94200 30.24500
O  45.02200 31.03300 30.53500
C  46.03900 33.18000 31.17200
C  46.40300 32.80400 32.54800
O  47.30100 32.05400 32.84700
O  45.56900 33.42100 33.39200
C  45.61600 33.20400 34.80700
H  50.20500 38.83100 30.37300
H  52.13800 36.57500 24.69900
H  48.54600 31.44300 25.29000
H  47.03700 35.78500 32.67500
H  49.28900 37.73300 32.48500
H  47.30900 38.68300 30.78600
H  47.63900 39.38400 32.45300
H  46.50000 38.07900 32.27700
H  50.02700 35.59800 32.68100
H  49.04100 34.06800 32.85500
H  49.81700 35.19900 35.17800
H  48.52000 34.18300 34.75900
H  51.68300 41.09300 27.97100
H  52.15800 40.27900 29.51000
H  50.56200 40.61100 29.14900
H  53.15000 41.23400 26.12400
H  54.57500 40.33800 25.82700
H  53.79400 40.10700 27.47800
H  52.35800 34.13600 24.21900
H  49.91000 32.38700 23.43000
H  52.18800 34.94400 22.14500
H  50.68900 35.80000 22.62100
H  50.74700 34.22700 21.77500
H  51.74700 31.50800 25.73400
H  52.54600 31.93000 24.21700
H  51.26200 29.56400 24.87400
H  52.11200 30.01000 23.37300
H  50.36800 30.29300 23.47600
H  47.16500 29.87200 26.28100
H  45.66300 29.98300 27.22100
H  47.21900 29.46100 28.00800
H  45.13100 33.78200 31.21200
H  46.62800 33.51700 35.06600
H  45.44900 32.13700 34.95600
H  44.90000 33.80300 35.36900
Mg 1.38900 42.17800 25.52700
C  2.78500 42.02500 28.59400
C  -1.67700 41.23300 26.80700
C  0.15900 42.00400 22.32900
C  4.56200 42.33400 24.13600
N  0.69400 41.62100 27.47100
C  1.39200 41.87700 28.58500
C  0.48600 41.95000 29.79800
C  -0.87100 41.46200 29.24300
C  -0.61700 41.28000 27.77000
C  -1.35000 40.04700 29.92900
C  0.44200 43.29800 30.65900
C  0.93700 42.91800 32.09300
H  0.03100 43.12100 33.36200
N  -0.47100 41.79100 24.71700
C  -1.60700 41.44700 25.37700
C  -2.69900 41.27100 24.53800
C  -2.26200 41.42600 23.21900
C  -0.79900 41.72900 23.39600
C  -4.05900 40.94100 25.00800
C  -3.03700 41.28100 21.91100
O  -2.52200 41.27600 20.81500
C  -4.59600 41.02800 21.90600
N  2.26800 42.17900 23.54500
C  1.51800 42.21900 22.40400
C  2.38800 42.36400 21.14400
C  3.77400 42.72800 21.77800
C  3.53600 42.45200 23.25000
C  2.48400 41.11500 20.22500
C  4.17100 44.16600 21.36600
C  5.04100 44.29600 20.15900
N  3.30500 42.09700 26.21200
C  4.49700 42.17200 25.54200
C  5.60500 42.06000 26.52800
C  4.98900 42.13400 27.79000
C  3.57800 42.06500 27.51800
C  7.10100 42.18500 26.14900
C  5.15600 42.10200 29.22100
O  6.17500 42.04600 29.90500
C  3.68100 42.08300 29.83200
C  3.53300 41.04300 30.82000
O  3.26000 39.86300 30.64100
O  3.98500 41.58400 32.05100
C  4.20200 40.62500 33.13800
H  -2.56100 40.98500 27.39700
H  -0.14500 42.00500 21.28100
H  5.53000 42.72500 23.81500
H  0.92300 41.05000 30.23100
H  -1.68500 42.17300 29.38500
H  -2.43000 40.12200 30.05900
H  -0.77000 39.75700 30.80600
H  -1.09500 39.35700 29.12500
H  -0.54000 43.76600 30.58700
H  1.02100 44.02200 30.08600
H  1.83000 43.53500 32.18700
H  1.27700 41.90100 32.29300
H  -4.28800 39.94000 24.64200
H  -4.84300 41.65500 24.75500
H  -4.04100 40.95300 26.09800
H  -4.95500 41.02500 20.87700
H  -5.07100 41.86000 22.42400
H  -4.90300 40.07200 22.33100
H  1.97600 43.16500 20.53000
H  4.46800 41.94800 21.46700
H  2.28300 40.18400 20.75600
H  3.46700 41.07100 19.75600
H  1.84900 41.15300 19.34100
H  4.55700 44.72000 22.22200
H  3.28700 44.70000 21.01700
H  4.52600 44.42800 19.20800
H  5.62600 43.37700 20.10900
H  5.76500 45.09800 20.30000
H  7.51200 43.18800 26.02800
H  7.31500 41.62500 25.23900
H  7.69600 41.65800 26.89500
H  3.53700 43.06000 30.29200
H  4.65900 41.24900 33.90700
H  4.90100 39.82500 32.89500
H  3.21300 40.29600 33.45800

