158

Mg 40.16500 8.85200 30.11300
C  42.07100 10.17200 32.70600
C  37.75400 8.02900 32.37800
C  38.56200 7.25800 27.69300
C  42.72700 9.58800 27.91100
N  39.98900 9.10400 32.25500
C  40.87200 9.69100 33.11700
C  40.30500 9.80800 34.54800
C  39.00500 9.01100 34.42000
C  38.90300 8.64400 32.92300
C  38.95100 7.75300 35.34700
C  39.96000 11.34800 34.87400
C  39.59800 11.62800 36.33700
H  40.34500 12.60100 37.28400
N  38.41300 7.70600 30.02600
C  37.56800 7.47400 31.08200
C  36.43300 6.79500 30.59500
C  36.52200 6.73800 29.22000
C  37.88600 7.20600 28.90100
C  35.31700 6.30800 31.55300
C  35.54100 6.17800 28.24200
O  35.84000 6.05100 27.02100
C  34.17300 5.87200 28.68900
N  40.53300 8.48700 28.07700
C  39.80100 7.73800 27.31400
C  40.25000 7.68200 25.83800
C  41.52200 8.49900 25.85500
C  41.61600 8.89100 27.42200
C  40.46400 6.19300 25.41000
C  41.61700 9.70800 24.94800
C  40.81900 11.02900 25.32300
N  42.03300 9.71400 30.19600
C  42.95300 10.03400 29.18800
C  44.07800 10.71200 29.74600
C  43.75000 10.78500 31.13300
C  42.52000 10.16900 31.36100
C  45.29900 11.20400 28.99300
C  44.23600 11.17200 32.39000
O  45.30000 11.68900 32.67100
C  43.24000 10.73200 33.48700
C  43.94800 9.80300 34.44300
O  44.07200 8.56700 34.34900
O  44.36500 10.55400 35.47100
C  45.14000 9.83000 36.50000
H  36.95100 7.91500 33.11000
H  38.13800 6.83000 26.78200
H  43.58200 9.85000 27.28500
H  41.13200 9.44400 35.15900
H  38.14700 9.59900 34.74400
H  39.53200 7.93200 36.25100
H  39.32900 6.92900 34.74100
H  37.89200 7.58000 35.54100
H  39.09100 11.50100 34.23400
H  40.77200 11.97900 34.51200
H  39.42800 10.70300 36.88700
H  38.57200 11.99400 36.38600
H  35.56900 6.72400 32.52900
H  35.19400 5.22600 31.49400
H  34.33500 6.67700 31.25800
H  33.72000 5.40700 27.81400
H  33.62800 6.79400 28.89500
H  34.27200 5.20700 29.54700
H  39.54600 8.19800 25.18500
H  42.45200 7.93900 25.75100
H  40.09300 5.61800 26.25900
H  41.49100 5.84900 25.28400
H  39.78800 6.06500 24.56600
H  41.23100 9.32000 24.00500
H  42.67500 9.94800 24.84700
H  41.41200 11.93500 25.19500
H  40.39800 10.97000 26.32700
H  39.98800 11.14200 24.62700
H  45.27600 10.83100 27.96900
H  46.23300 10.81800 29.40100
H  45.32600 12.28600 29.12300
H  42.97400 11.62900 34.04600
H  44.91600 10.40100 37.40100
H  46.20100 9.89000 36.26100
H  44.85000 8.78700 36.62100
Mg -4.62600 25.50200 25.08100
C  -3.25200 27.00500 28.09700
C  -6.69600 23.66800 27.06600
C  -5.91700 24.18600 22.35200
C  -2.45900 27.47000 23.32300
N  -4.77200 25.30700 27.31400
C  -4.19900 25.99200 28.35500
C  -4.73500 25.60400 29.73200
C  -5.57000 24.27300 29.35300
C  -5.76700 24.40400 27.79500
C  -4.96700 22.91400 29.79300
C  -5.57500 26.77300 30.41700
C  -6.43700 26.39100 31.63400
H  -6.01800 25.32800 32.64600
N  -6.08400 24.05200 24.76000
C  -6.86000 23.39200 25.68000
C  -7.74700 22.47400 24.97600
C  -7.65600 22.75700 23.59100
C  -6.52200 23.71900 23.50600
C  -8.65400 21.52200 25.69400
C  -8.43000 22.17400 22.39500
O  -8.06900 22.45900 21.28900
C  -9.52200 21.28300 22.61000
N  -4.13300 25.70000 23.12600
C  -4.90200 25.15300 22.16600
C  -4.28800 25.50600 20.77600
C  -3.24400 26.59600 21.01100
C  -3.26400 26.60000 22.57700
C  -3.56400 24.25500 20.06200
C  -3.59000 27.98600 20.43700
C  -2.44400 28.87300 19.95900
N  -3.09100 26.91400 25.60700
C  -2.32800 27.64900 24.74100
C  -1.55800 28.60800 25.43300
C  -1.85000 28.44700 26.81200
C  -2.79200 27.35700 26.86000
C  -0.59700 29.64400 24.83500
C  -1.54400 28.74700 28.16800
O  -0.71200 29.58000 28.61600
C  -2.42400 27.74400 29.07000
C  -1.56900 26.93600 29.91200
O  -0.53400 26.41000 29.55400
O  -2.04900 27.00200 31.24500
C  -1.17100 26.25500 32.18300
H  -7.30600 23.03600 27.71500
H  -6.37900 23.89000 21.40800
H  -1.79500 28.07500 22.70300
H  -3.95700 25.55600 30.49400
H  -6.57600 24.30800 29.76900
H  -5.17000 22.15100 29.04100
H  -5.41500 22.55100 30.71800
H  -3.88100 22.96600 29.87600
H  -6.31300 27.05300 29.66500
H  -4.99200 27.68400 30.55200
H  -7.41000 26.02200 31.30900
H  -6.67200 27.31200 32.16700
H  -8.34200 20.52100 25.39800
H  -9.69000 21.64500 25.37500
H  -8.63500 21.66600 26.77400
H  -9.27300 20.42500 23.23400
H  -9.89900 21.02500 21.62100
H  -10.31700 21.80900 23.13800
H  -5.14700 25.76400 20.15600
H  -2.29600 26.24100 20.60800
H  -3.93200 23.26100 20.31700
H  -2.48700 24.32000 20.21500
H  -3.83600 24.36000 19.01200
H  -4.08100 28.60600 21.18800
H  -4.29700 27.86100 19.61600
H  -2.75900 29.22900 18.97800
H  -1.61600 28.17700 19.82000
H  -2.12000 29.62200 20.68100
H  -0.49600 29.60700 23.75000
H  0.44500 29.64500 25.15300
H  -0.96500 30.64200 25.07600
H  -3.04600 28.28000 29.78700
H  -0.64800 26.88000 32.90700
H  -0.52600 25.49100 31.74900
H  -1.95100 25.73600 32.74100

