158

Mg 1.72400 -0.87600 43.93200
C  5.32100 -0.90500 42.82200
C  1.58600 1.96200 41.97700
C  -1.52300 -1.40900 43.84800
C  2.42400 -3.95200 45.41300
N  3.38900 0.46100 42.62000
C  4.68600 0.20100 42.24500
C  5.31900 1.35300 41.39900
C  4.14800 2.39500 41.46000
C  2.93100 1.56200 42.04700
C  4.37400 3.73600 42.29600
C  5.80800 0.83200 40.02300
C  6.95600 1.54800 39.30500
H  6.49600 2.23400 38.05400
N  0.26200 0.26400 43.15800
C  0.35500 1.42000 42.38400
C  -0.98100 1.88200 42.19600
C  -1.88900 0.87300 42.66000
C  -1.08100 -0.17800 43.20000
C  -1.29200 3.08600 41.45600
C  -3.41000 0.96600 42.59100
O  -3.91600 2.05100 42.20100
C  -4.34900 -0.11500 42.93300
N  0.68900 -2.45600 44.55200
C  -0.68700 -2.41700 44.48300
C  -1.27200 -3.74600 45.03600
C  -0.06300 -4.46500 45.66000
C  1.11000 -3.56200 45.28500
C  -2.57900 -3.68300 45.84700
C  0.04500 -5.98500 45.24200
C  -0.09500 -6.96100 46.36700
N  3.41300 -2.17600 44.09700
C  3.54600 -3.27300 44.91900
C  4.88600 -3.78100 45.00600
C  5.57500 -2.88200 44.18100
C  4.66500 -1.90300 43.66600
C  5.44500 -4.98400 45.84200
C  6.89600 -2.53400 43.81700
O  7.92000 -3.04800 44.16200
C  6.77900 -1.33900 42.81200
C  7.76600 -0.28400 43.18500
O  7.68800 0.40400 44.28300
O  8.74500 -0.11000 42.24000
C  9.70200 0.94900 42.58900
H  1.52800 2.96000 41.53800
H  -2.59400 -1.61800 43.86100
H  2.66400 -4.83200 46.01300
H  6.20900 1.76400 41.87500
H  3.81100 2.71100 40.47300
H  3.75100 3.64400 43.18600
H  3.94800 4.57000 41.73700
H  5.38400 3.96600 42.63700
H  5.00200 0.79300 39.29000
H  6.12400 -0.19700 40.19400
H  7.72600 0.80700 39.08800
H  7.39600 2.28500 39.97700
H  -2.04800 2.90200 40.69300
H  -0.39600 3.50100 40.99300
H  -1.65500 3.81000 42.18600
H  -5.40200 0.00800 42.67900
H  -4.25900 -0.29500 44.00400
H  -4.05500 -0.97100 42.32600
H  -1.64300 -4.23000 44.13200
H  -0.02200 -4.27400 46.73200
H  -3.50300 -3.88100 45.30200
H  -2.64400 -2.63800 46.15200
H  -2.55400 -4.30300 46.74200
H  1.03600 -6.08300 44.79900
H  -0.74800 -6.24100 44.54000
H  0.74600 -7.65400 46.39000
H  -1.08500 -7.41000 46.27900
H  -0.16100 -6.40300 47.30100
H  4.62200 -5.49600 46.34100
H  6.11000 -4.75000 46.67300
H  5.96000 -5.63500 45.13600
H  6.97500 -1.73600 41.81600
H  10.06500 0.80800 43.60700
H  9.18800 1.89400 42.41000
H  10.52000 0.93000 41.86900
Mg 24.47100 -7.04500 47.38300
C  27.18700 -4.96400 46.34800
C  22.69700 -5.59100 44.88000
C  22.22800 -9.47500 47.70900
C  26.76400 -8.74500 49.38200
N  24.83100 -5.34800 45.94100
C  26.01400 -4.79600 45.58600
C  25.78500 -3.74500 44.50200
C  24.22600 -3.68300 44.31200
C  23.89500 -4.96700 45.05300
C  23.45200 -2.44600 44.80700
C  26.51100 -4.13000 43.11100
C  27.05800 -2.91100 42.37200
H  26.88700 -2.83700 40.84500
N  22.64700 -7.43200 46.54300
C  22.12500 -6.71100 45.48600
C  20.78500 -7.16100 45.26700
C  20.54300 -8.33600 46.11400
C  21.89600 -8.46600 46.81700
C  19.76300 -6.45900 44.35300
C  19.36200 -9.18500 46.24800
O  18.33900 -8.95600 45.59100
C  19.26700 -10.37700 47.14900
N  24.49000 -8.82100 48.47300
C  23.43100 -9.66700 48.45200
C  23.64800 -10.86200 49.37700
C  25.12600 -10.65300 49.83100
C  25.49500 -9.37300 49.22500
C  22.66200 -10.98000 50.58300
C  26.12400 -11.80300 49.55400
C  27.00500 -12.00700 50.78100
N  26.52500 -6.88200 47.88000
C  27.30600 -7.60900 48.71600
C  28.55900 -7.05100 48.81700
C  28.59600 -5.98800 47.93200
C  27.33500 -5.90000 47.38900
C  29.71300 -7.63600 49.66200
C  29.38300 -4.88900 47.35800
O  30.46800 -4.45800 47.67500
C  28.53100 -4.23200 46.31600
C  28.47400 -2.76400 46.64100
O  28.18100 -2.26600 47.70500
O  28.76300 -2.03800 45.50900
C  28.66600 -0.61500 45.71000
H  22.14700 -5.12000 44.06200
H  21.61000 -10.32800 47.99500
H  27.57600 -9.25800 49.90000
H  26.12800 -2.75300 44.79500
H  23.94000 -3.79700 43.26700
H  23.01100 -1.89200 43.97800
H  24.07900 -1.91300 45.52100
H  22.50700 -2.75600 45.25300
H  25.84000 -4.68200 42.45200
H  27.38100 -4.78500 43.15200
H  28.10100 -2.81900 42.67500
H  26.50500 -2.07400 42.79900
H  19.14900 -7.15400 43.78000
H  20.33300 -5.81200 43.68600
H  19.14800 -5.79500 44.96000
H  20.00800 -11.12000 46.85500
H  18.29000 -10.81800 46.95200
H  19.44300 -10.02700 48.16600
H  23.62600 -11.79700 48.81700
H  25.22600 -10.47800 50.90200
H  23.23800 -10.96500 51.50900
H  22.18300 -11.94200 50.40400
H  21.96000 -10.14600 50.59700
H  26.65700 -11.49200 48.65600
H  25.66100 -12.76800 49.34500
H  27.71500 -12.77000 50.46300
H  26.39800 -12.49400 51.54400
H  27.38200 -11.07800 51.20900
H  30.53700 -6.93200 49.78100
H  30.03000 -8.48500 49.05500
H  29.43600 -8.05200 50.63100
H  28.93200 -4.41900 45.32000
H  29.29200 -0.34600 46.56100
H  27.67800 -0.15700 45.75900
H  29.21100 -0.14100 44.89400

