158

Mg 17.70600 -1.51300 26.84900
C  16.48100 0.50500 29.31300
C  19.61500 -3.31900 29.17900
C  18.99100 -3.21800 24.31700
C  16.21200 0.73600 24.30100
N  18.16400 -1.28700 28.90300
C  17.35700 -0.53800 29.76700
C  17.72000 -0.75300 31.20900
C  18.75700 -1.82200 31.12700
C  18.90300 -2.20400 29.68400
C  20.16500 -1.52000 31.73300
C  16.55000 -1.07500 32.06500
C  16.50900 -0.39100 33.52800
H  17.88700 0.12500 34.17200
N  18.98200 -3.18400 26.73500
C  19.70300 -3.79400 27.79600
C  20.42500 -4.91500 27.21500
C  20.15300 -4.93300 25.80200
C  19.24900 -3.80900 25.59600
C  21.27100 -5.80400 28.14000
C  20.67100 -5.88400 24.70700
O  20.44500 -5.75600 23.49200
C  21.61500 -6.98500 25.06700
N  17.39500 -1.40500 24.52800
C  18.20400 -2.17900 23.77600
C  18.21300 -1.77200 22.23200
C  17.31500 -0.55100 22.30800
C  16.88200 -0.36700 23.79200
C  19.66700 -1.49900 21.69900
C  16.14000 -0.57100 21.27700
C  14.70800 -0.94300 21.69400
N  16.51400 0.23600 26.74900
C  15.99400 1.00100 25.71700
C  15.22800 2.10300 26.30500
C  15.46400 1.99700 27.71700
C  16.16800 0.81100 27.96800
C  14.41300 3.13100 25.58600
C  15.28700 2.60800 28.95600
O  14.80300 3.64000 29.35300
C  15.82100 1.64300 30.08000
C  16.80600 2.52200 30.73900
O  17.90700 2.80300 30.31700
O  16.28600 2.95800 31.99000
C  17.14900 3.70700 32.86500
H  20.21300 -3.83200 29.93500
H  19.58800 -3.70600 23.54400
H  15.87900 1.43600 23.53200
H  18.12600 0.18400 31.59000
H  18.39200 -2.72300 31.61900
H  20.27100 -0.48300 32.05000
H  21.00200 -1.78900 31.08900
H  20.34500 -2.22700 32.54400
H  16.34300 -2.13400 32.21800
H  15.72400 -0.64600 31.49800
H  16.23700 -1.16800 34.24200
H  15.69300 0.33100 33.54600
H  21.55600 -5.22800 29.02000
H  22.14500 -6.20700 27.62800
H  20.64600 -6.64200 28.44800
H  21.21200 -7.80800 25.65700
H  22.41500 -6.58400 25.69000
H  21.90200 -7.41800 24.10900
H  17.55600 -2.48300 21.73200
H  17.88500 0.32200 21.98900
H  20.42300 -1.61900 22.47400
H  19.74800 -0.44900 21.41700
H  19.83500 -2.22000 20.89900
H  16.50800 -1.09300 20.39400
H  15.94500 0.43700 20.91100
H  14.36300 -0.15900 22.37000
H  14.66500 -1.88300 22.24400
H  14.19500 -1.02800 20.73600
H  14.00300 2.71700 24.66500
H  15.06200 3.93400 25.23500
H  13.64300 3.52200 26.25000
H  15.11700 1.26300 30.82000
H  18.19400 3.64800 32.56200
H  16.98000 3.36500 33.88500
H  16.94800 4.77400 32.76400
Mg 47.10900 33.79900 27.53400
C  45.33600 32.50200 30.09400
C  47.65600 36.69800 29.37300
C  48.24500 35.37600 24.74600
C  46.36100 31.03600 25.57000
N  46.53000 34.42300 29.52700
C  45.94600 33.73700 30.48900
C  46.11900 34.34400 31.90000
C  46.55900 35.83300 31.45200
C  47.00800 35.60600 30.03600
C  45.45000 36.95700 31.42000
C  47.27100 33.53600 32.71000
C  47.23800 33.70300 34.26400
H  46.31400 34.71400 34.93600
N  47.81400 35.74500 27.08900
C  48.10100 36.75800 28.02400
C  48.84000 37.81200 27.40700
C  48.88100 37.54200 25.99100
C  48.23100 36.17500 25.87500
C  49.27200 39.15500 28.12100
C  49.57700 38.30900 24.89200
O  49.61900 37.96900 23.73100
C  50.43900 39.50500 25.34400
N  47.22300 33.33100 25.45100
C  47.70400 34.11600 24.52700
C  47.96800 33.41200 23.18800
C  47.54000 31.91700 23.51400
C  46.93600 32.08900 24.94900
C  47.18200 34.01700 21.96500
C  48.68100 30.93400 23.61200
C  48.42400 29.50700 23.15100
N  46.11000 32.07100 27.78900
C  45.99400 30.98800 26.95300
C  45.28400 29.88500 27.67000
C  45.02700 30.47900 28.92700
C  45.51000 31.82000 28.90400
C  44.73100 28.52500 27.04100
C  44.35500 30.30400 30.17100
O  43.77800 29.26500 30.51500
C  44.36300 31.66200 30.84400
C  44.56500 31.51600 32.33900
O  45.39700 30.78800 32.85700
O  43.51700 32.03300 33.07200
C  43.38000 31.57200 34.46700
H  47.85600 37.55500 30.01800
H  48.82700 35.72300 23.88900
H  45.98300 30.22100 24.94900
H  45.18000 34.46000 32.44100
H  47.41800 36.14100 32.04900
H  45.17800 37.22600 30.39900
H  45.83900 37.84800 31.91300
H  44.53500 36.58800 31.88200
H  48.25000 33.77600 32.29700
H  47.13800 32.46700 32.53900
H  48.24700 33.88600 34.63300
H  47.09500 32.77100 34.81000
H  50.35400 39.21800 28.23600
H  48.81100 39.15400 29.10800
H  48.93000 40.01800 27.55000
H  51.21600 39.25000 26.06500
H  49.82000 40.33700 25.67700
H  50.81800 39.96400 24.43100
H  49.03700 33.44900 22.98000
H  46.80800 31.55800 22.79100
H  46.58800 34.86200 22.31400
H  46.64900 33.21600 21.45300
H  47.95200 34.49100 21.35600
H  48.91000 30.79400 24.66900
H  49.60400 31.26600 23.13700
H  47.36100 29.33100 22.98700
H  48.75000 28.85800 23.96400
H  49.02100 29.18900 22.29600
H  44.61700 28.67400 25.96700
H  43.84600 28.07400 27.49100
H  45.54600 27.80200 27.05500
H  43.45200 32.25500 30.75800
H  43.81700 30.60600 34.72000
H  42.31200 31.37300 34.55900
H  43.78000 32.35600 35.11000

