158

Mg 17.25300 -1.35400 27.54600
C  16.24700 0.79900 30.18500
C  19.25400 -3.04200 29.78200
C  18.73000 -2.77800 24.95600
C  15.80800 0.96700 25.38000
N  17.76200 -1.12900 29.70400
C  17.12100 -0.26200 30.54300
C  17.69900 -0.47100 32.06200
C  18.64700 -1.71900 31.88000
C  18.59100 -1.95300 30.35600
C  20.04200 -1.63200 32.50500
C  16.58000 -0.64100 33.24100
C  16.97100 0.13400 34.57500
H  18.43700 0.36500 34.87800
N  18.74200 -2.81200 27.35800
C  19.31800 -3.47500 28.38900
C  20.19500 -4.51400 27.84800
C  20.05100 -4.45600 26.43100
C  19.12700 -3.37500 26.18500
C  20.89500 -5.47900 28.78900
C  20.73200 -5.29200 25.37400
O  20.49200 -5.21800 24.16600
C  21.90300 -6.11200 25.76300
N  17.27000 -0.97100 25.40900
C  17.99300 -1.67700 24.57200
C  17.79800 -1.22900 23.10300
C  16.67700 -0.17700 23.27800
C  16.56800 -0.04700 24.76500
C  19.00900 -0.67800 22.26600
C  15.31500 -0.41700 22.58100
C  15.20100 0.09700 21.09100
N  16.04000 0.41100 27.70700
C  15.56900 1.26800 26.76700
C  14.79500 2.36100 27.28400
C  15.00100 2.19300 28.65700
C  15.86600 1.02900 28.87000
C  14.02100 3.51100 26.49600
C  14.67900 2.72800 29.93000
O  13.93400 3.62800 30.34900
C  15.53600 1.81800 30.96200
C  16.52900 2.80900 31.69300
O  17.68100 3.06800 31.29700
O  15.95600 3.22200 32.91000
C  16.80700 4.09200 33.79500
H  19.79600 -3.60600 30.54400
H  19.11100 -3.30900 24.08200
H  15.26900 1.75600 24.85000
H  18.24900 0.45500 32.23100
H  18.16900 -2.51900 32.44400
H  20.11800 -0.89400 33.30400
H  20.61600 -1.39400 31.60900
H  20.34400 -2.60800 32.88500
H  16.54600 -1.71300 33.43600
H  15.59300 -0.32000 32.91000
H  16.39800 -0.35500 35.36200
H  16.56500 1.14200 34.66300
H  21.94900 -5.65000 28.57200
H  20.32100 -6.39400 28.64300
H  20.74300 -5.30800 29.85400
H  22.31800 -6.62400 24.89500
H  21.65200 -6.88600 26.48800
H  22.74700 -5.50900 26.09900
H  17.31400 -1.98600 22.48600
H  16.98400 0.79100 22.88100
H  19.84500 -1.12200 22.80700
H  19.06800 0.41000 22.28900
H  19.06500 -0.98000 21.22000
H  14.52200 0.05600 23.15900
H  15.10800 -1.48400 22.66000
H  14.33900 0.76100 21.03300
H  15.01500 -0.76600 20.45300
H  16.07100 0.66900 20.76800
H  14.01600 3.22700 25.44400
H  14.52000 4.47700 26.58000
H  13.03300 3.67400 26.92600
H  14.86900 1.55700 31.78400
H  17.77100 4.45300 33.43600
H  17.07500 3.47000 34.64800
H  16.21400 4.89100 34.24200
Mg 5.96400 54.82500 42.01200
C  5.80300 51.26800 41.57500
C  9.01400 54.76900 40.47700
C  5.76000 58.12800 41.82300
C  2.74900 54.63700 43.42700
N  7.08300 53.19900 40.91200
C  6.92900 51.78000 40.96600
C  8.12500 51.04900 40.33500
C  9.17800 52.23900 40.18700
C  8.43100 53.48500 40.61600
C  10.49700 51.97700 40.93100
C  7.84700 50.30000 39.04200
C  6.91000 50.96900 38.06400
H  7.02100 50.51600 36.58500
N  7.18900 56.31000 41.22800
C  8.45000 56.06100 40.67500
C  8.98800 57.38700 40.30100
C  8.04800 58.40300 40.64700
C  6.92800 57.60200 41.23300
C  10.28800 57.52900 39.62600
C  8.30800 59.88200 40.50200
O  9.43200 60.29100 40.19400
C  7.25900 60.96300 40.81500
N  4.44200 56.12100 42.50500
C  4.68200 57.49900 42.49800
C  3.64900 58.33300 43.28600
C  2.69300 57.17900 43.76900
C  3.32200 55.86700 43.15300
C  4.20200 59.27300 44.38700
C  1.12700 57.31100 43.57600
C  0.34300 56.76900 42.33800
N  4.54800 53.28000 42.49800
C  3.30000 53.38200 43.10500
C  2.91400 52.10400 43.46700
C  3.74600 51.15300 42.80600
C  4.74700 51.97900 42.22000
C  1.77800 51.74800 44.35900
C  4.17200 49.76400 42.65500
O  3.74000 48.68900 43.01800
C  5.41600 49.80300 41.78300
C  5.20800 49.05900 40.46200
O  4.30100 49.40400 39.68200
O  5.98800 47.91400 40.29300
C  5.83600 47.10900 39.07200
H  10.07500 54.63600 40.25500
H  5.69700 59.21800 41.83900
H  1.88600 54.71900 44.09100
H  8.45400 50.34000 41.09500
H  9.32700 52.35700 39.11300
H  11.36200 51.96000 40.26800
H  10.56500 50.99100 41.39000
H  10.65400 52.66700 41.76000
H  7.54500 49.29100 39.32200
H  8.79800 50.08700 38.55400
H  6.99800 52.05600 38.08500
H  5.95400 50.63300 38.46400
H  10.21600 57.87600 38.59500
H  10.80900 56.57300 39.58700
H  10.90600 58.19400 40.23000
H  6.46200 60.74200 40.10400
H  7.66800 61.96400 40.67300
H  7.05500 60.88200 41.88300
H  3.15500 59.05300 42.63400
H  2.89200 57.04100 44.83200
H  5.28600 59.16800 44.40700
H  3.81000 58.90100 45.33300
H  3.92300 60.30400 44.16700
H  0.98100 58.38700 43.47400
H  0.64600 56.98800 44.50000
H  -0.43400 56.10200 42.71000
H  1.02400 56.28000 41.64100
H  -0.17100 57.54500 41.77100
H  1.86400 52.39200 45.23400
H  1.86900 50.72900 44.73700
H  0.87500 51.89700 43.76700
H  6.20900 49.31500 42.35000
H  6.65600 46.39300 39.13000
H  5.83700 47.76400 38.20100
H  4.88000 46.58500 39.05200

