158

Mg 25.58300 -6.84200 47.51900
C  26.98200 -4.08900 45.55100
C  22.79300 -6.66700 45.51100
C  24.72700 -9.67800 48.95400
C  28.88800 -7.14200 48.94100
N  25.03700 -5.65700 45.59500
C  25.69000 -4.55900 45.08000
C  24.82400 -3.86000 44.00400
C  23.42700 -4.57500 44.15500
C  23.78100 -5.75600 45.12500
C  22.30900 -3.52500 44.61500
C  25.40500 -3.84500 42.53500
C  25.87600 -2.53300 41.99100
H  25.07000 -2.07100 40.72900
N  24.00100 -8.01600 47.30700
C  22.93700 -7.78600 46.41700
C  21.98600 -8.86400 46.67200
C  22.51800 -9.77400 47.60100
C  23.81300 -9.20000 48.00500
C  20.73800 -8.89900 45.87000
C  21.90600 -11.09700 48.03800
O  20.84000 -11.44200 47.65100
C  22.66100 -12.08300 48.85200
N  26.69300 -8.28300 48.65400
C  26.02200 -9.34500 49.25100
C  26.81500 -10.04900 50.32000
C  28.19300 -9.32600 50.19400
C  27.93800 -8.20900 49.20000
C  26.17700 -10.12600 51.75800
C  29.45100 -10.11600 49.69100
C  30.75900 -9.71900 50.23100
N  27.47900 -5.80300 47.39800
C  28.66200 -6.02800 48.13100
C  29.53100 -4.92700 47.87200
C  28.98300 -4.24400 46.83100
C  27.69800 -4.70800 46.58400
C  30.83800 -4.63100 48.53300
C  29.15200 -3.14300 45.93200
O  30.13900 -2.39400 45.79200
C  27.83300 -2.92300 45.18700
C  27.08700 -1.65100 45.44600
O  27.16000 -0.72900 44.68100
O  26.47400 -1.53800 46.66700
C  25.61400 -0.41100 46.97200
H  21.93500 -6.58000 44.84100
H  24.32300 -10.55700 49.46100
H  29.84200 -7.09500 49.47100
H  24.79700 -2.86300 44.44400
H  23.22800 -4.96300 43.15600
H  21.37500 -3.70400 44.08300
H  22.68200 -2.51900 44.42700
H  22.07900 -3.58600 45.67900
H  24.67800 -4.27100 41.84400
H  26.18700 -4.59800 42.43200
H  26.93700 -2.60000 41.75000
H  25.77800 -1.80600 42.79700
H  20.90400 -9.46200 44.95100
H  20.45800 -7.87200 45.63800
H  19.86800 -9.33300 46.36500
H  23.62200 -12.25600 48.36800
H  22.16900 -13.04000 48.67700
H  22.64100 -11.96100 49.93500
H  26.88100 -11.08500 49.98900
H  28.52100 -8.82700 51.10600
H  25.30600 -9.48400 51.88700
H  26.90000 -9.77900 52.49600
H  25.93600 -11.16300 51.99200
H  29.33300 -10.03500 48.61100
H  29.29800 -11.17500 49.89800
H  31.41200 -9.34700 49.44300
H  31.20500 -10.51800 50.82400
H  30.51100 -9.02200 51.03200
H  30.92900 -3.58600 48.82900
H  31.64300 -4.75300 47.80900
H  31.09300 -5.23500 49.40400
H  28.04400 -3.03500 44.12300
H  24.65100 -0.74800 47.35400
H  25.39900 0.21100 46.10300
H  26.04800 0.29000 47.68600
Mg 16.23400 51.79400 26.66600
C  18.25900 50.50200 29.31800
C  13.96700 52.74100 29.09400
C  14.67700 53.52300 24.33800
C  18.39700 50.41300 24.36600
N  16.27700 51.86300 29.02300
C  17.14300 51.24400 29.83700
C  16.69900 51.25200 31.28500
C  15.17000 51.70900 31.15000
C  15.07000 52.11100 29.64800
C  14.11100 50.68300 31.67300
C  17.59300 52.21500 32.13000
C  17.79800 51.79900 33.58400
H  17.24800 52.60500 34.72600
N  14.51700 52.86300 26.68800
C  13.71500 53.15500 27.76600
C  12.60400 53.91000 27.27100
C  12.89000 54.31200 25.92800
C  14.08900 53.54600 25.55500
C  11.41700 54.26000 28.10400
C  12.19700 55.29100 25.04600
O  12.57900 55.63200 23.92300
C  10.97300 56.05600 25.56300
N  16.42900 51.90200 24.57100
C  15.67500 52.73000 23.80800
C  16.23300 52.82600 22.32900
C  17.33400 51.66900 22.36500
C  17.41200 51.28200 23.86600
C  15.05800 52.82000 21.26200
C  18.78100 52.05200 21.78000
C  19.66900 53.15700 22.45700
N  17.90400 50.55500 26.77700
C  18.66200 50.06900 25.72700
C  19.83800 49.37400 26.29100
C  19.65100 49.42400 27.65600
C  18.54400 50.26300 27.92400
C  20.95500 48.71100 25.48000
C  20.19500 49.01900 28.89600
O  21.16000 48.26500 29.04400
C  19.40100 49.68600 30.06000
C  18.78000 48.49200 30.81600
O  18.32500 47.46100 30.32500
O  18.97000 48.73600 32.21200
C  18.41600 47.67200 32.94800
H  13.27300 52.96900 29.90600
H  14.23500 54.17200 23.58000
H  19.03200 49.98700 23.58600
H  16.74100 50.20900 31.60000
H  14.98600 52.68800 31.59400
H  13.65200 51.07100 32.58300
H  14.60800 49.80200 32.08000
H  13.40900 50.47400 30.86500
H  17.15700 53.21100 32.05200
H  18.53900 52.34100 31.60500
H  18.87900 51.85000 33.71800
H  17.48600 50.77600 33.79500
H  11.70800 55.00300 28.84700
H  11.13900 53.36600 28.66300
H  10.52400 54.51500 27.53500
H  10.04300 55.50300 25.69800
H  10.75500 56.87400 24.87600
H  11.26900 56.60500 26.45600
H  16.75900 53.75600 22.11200
H  16.92000 50.81500 21.82900
H  15.34300 52.14500 20.45500
H  14.90700 53.81500 20.84300
H  14.10700 52.47000 21.66400
H  18.71000 52.28900 20.71800
H  19.39600 51.16100 21.65200
H  19.51000 54.13400 22.00200
H  20.68800 52.78400 22.34500
H  19.46000 53.19700 23.52600
H  21.57200 49.47700 25.01000
H  20.51300 48.02200 24.76100
H  21.59700 48.00200 26.00400
H  19.98100 50.31400 30.73700
H  18.61900 46.71700 32.46300
H  17.36400 47.82800 33.18700
H  19.04800 47.54800 33.82700

