158

Mg 47.63400 16.84700 29.05000
C  45.56500 16.24700 31.84300
C  50.03400 18.22200 30.95300
C  49.29000 17.83100 26.06600
C  45.02300 15.55300 26.94900
N  47.71000 17.23600 31.09800
C  46.79700 16.92200 32.09900
C  47.39200 17.39300 33.51300
C  48.54100 18.34800 33.04300
C  48.84500 17.82400 31.63500
C  48.18100 19.84600 33.05300
C  47.81600 16.26700 34.37700
C  48.35700 16.68500 35.82000
H  47.89900 18.02900 36.40000
N  49.44200 17.75100 28.61900
C  50.34800 18.07200 29.57600
C  51.62300 18.39900 28.98200
C  51.30700 18.55600 27.60100
C  49.95700 18.06400 27.35300
C  52.87800 18.51700 29.77900
C  52.17800 19.05300 26.45900
O  51.85700 19.13900 25.30200
C  53.58300 19.36900 26.77800
N  47.24500 16.72700 26.79700
C  48.07200 17.16000 25.83700
C  47.51600 16.94600 24.42600
C  46.18300 16.11500 24.73100
C  46.14000 16.12900 26.24800
C  47.41000 18.37700 23.71400
C  46.25200 14.63400 24.03900
C  45.02100 14.31500 23.13400
N  45.67600 16.13600 29.30200
C  44.78100 15.54100 28.35100
C  43.56000 15.09300 29.07400
C  43.89600 15.29500 30.44900
C  45.14100 15.92800 30.52400
C  42.37700 14.47300 28.46700
C  43.42000 15.06600 31.79600
O  42.46700 14.41600 32.17600
C  44.51300 15.68200 32.82100
C  43.81000 16.73500 33.61600
O  43.38300 17.80700 33.14200
O  43.65400 16.30100 34.84600
C  43.04000 17.26200 35.77200
H  50.84800 18.63100 31.55500
H  49.73200 18.17700 25.13000
H  44.21000 15.08100 26.39300
H  46.62400 17.93100 34.06900
H  49.46900 18.25700 33.60700
H  47.09300 19.87300 33.11900
H  48.44600 20.28900 32.09300
H  48.70800 20.34600 33.86500
H  48.60700 15.68000 33.91000
H  46.91800 15.65700 34.47700
H  49.44300 16.59700 35.78900
H  47.99000 15.89300 36.47200
H  53.53800 17.76600 29.34500
H  52.86000 18.17100 30.81200
H  53.36700 19.49200 29.78600
H  53.97000 18.39200 27.06600
H  53.58200 20.08100 27.60400
H  54.11300 19.80900 25.93400
H  48.21200 16.30200 23.88600
H  45.30400 16.65600 24.38100
H  47.91200 18.28900 22.75000
H  47.83400 19.18300 24.31400
H  46.33600 18.47800 23.56200
H  46.40200 13.85900 24.79100
H  47.18800 14.60600 23.48200
H  44.26700 15.10200 23.13800
H  44.60400 13.37100 23.48300
H  45.20000 14.09000 22.08300
H  42.71100 13.75600 27.71600
H  41.87500 15.31900 28.00000
H  41.81100 13.90400 29.20500
H  44.73300 14.81900 33.45000
H  43.70100 18.12100 35.88900
H  42.81800 16.83700 36.75100
H  42.15800 17.69900 35.30500
Mg 36.29600 49.29700 24.85400
C  36.39300 47.45900 27.80300
C  34.87800 51.93400 26.72800
C  35.83700 51.00600 22.00700
C  37.30200 46.53900 23.11900
N  35.66100 49.63700 26.95100
C  36.02600 48.81600 27.97600
C  35.82800 49.41900 29.37000
C  35.06400 50.79000 29.02100
C  35.22500 50.81100 27.45300
C  33.57800 50.81600 29.45700
C  37.18500 49.71200 30.04500
C  37.27800 49.60800 31.57300
H  35.95900 49.66400 32.43500
N  35.49400 51.27100 24.43200
C  35.04200 52.16200 25.31400
C  34.86800 53.41400 24.61900
C  35.18000 53.27500 23.27300
C  35.53800 51.80700 23.15900
C  34.49900 54.68000 25.38000
C  35.33000 54.27400 22.21000
O  35.70100 53.97200 21.11300
C  34.78600 55.63700 22.43800
N  36.33900 48.71600 22.78900
C  36.23800 49.66900 21.78700
C  36.58300 49.11600 20.37000
C  37.29100 47.82500 20.85800
C  36.98400 47.65100 22.32200
C  35.28400 48.92900 19.50600
C  38.82000 47.74100 20.75900
C  39.57400 48.22700 19.50400
N  36.76600 47.33400 25.29100
C  37.15200 46.32000 24.53600
C  37.51100 45.20700 25.34200
C  37.17700 45.55600 26.64100
C  36.75800 46.90000 26.51800
C  38.18900 44.01900 24.90200
C  37.03100 45.10200 27.96100
O  37.20100 43.98400 28.48900
C  36.68800 46.37500 28.83100
C  35.53500 46.01600 29.70100
O  34.38100 45.63200 29.41800
O  35.89000 46.02900 31.02900
C  34.96200 45.25600 31.87300
H  34.49100 52.73800 27.35700
H  35.78000 51.45000 21.01100
H  37.74200 45.69800 22.57800
H  35.31900 48.73900 30.05300
H  35.61200 51.64500 29.41600
H  32.87400 51.04500 28.65600
H  33.33500 51.54100 30.23300
H  33.36100 49.81100 29.82000
H  37.54300 50.70400 29.77200
H  37.80400 48.95100 29.56900
H  37.91900 50.41300 31.93100
H  37.77400 48.64500 31.70100
H  34.14700 54.45800 26.38700
H  33.67800 55.15900 24.84600
H  35.41500 55.26700 25.30600
H  35.47200 56.02200 23.19200
H  33.73900 55.44900 22.67800
H  34.93600 56.36300 21.63900
H  37.36000 49.72300 19.90500
H  36.87100 46.93600 20.38700
H  34.44700 49.00700 20.20100
H  35.37300 47.98700 18.96500
H  35.34700 49.78400 18.83300
H  38.90900 46.65600 20.71100
H  39.29600 48.04400 21.69200
H  38.99900 48.50500 18.62100
H  40.23400 47.41900 19.18600
H  40.27200 49.03600 19.71900
H  37.96800 43.14400 25.51400
H  39.26100 44.20900 24.95900
H  37.72300 43.86800 23.92900
H  37.56000 46.72600 29.38200
H  35.64900 45.01500 32.68300
H  34.58700 44.33300 31.43000
H  34.21000 45.96200 32.22600

