158

Mg 24.21100 -5.85200 45.68200
C  26.39900 -3.40600 44.23200
C  21.74100 -4.31900 43.77200
C  22.35200 -8.64400 46.14100
C  27.02900 -7.35000 47.19600
N  24.12100 -4.02600 44.24600
C  25.09800 -3.22700 43.75400
C  24.61500 -2.27800 42.69900
C  23.07100 -2.35000 42.92200
C  22.93200 -3.69200 43.69200
C  22.50600 -1.08700 43.61900
C  25.08600 -2.79200 41.32300
C  25.60900 -1.65800 40.39300
H  25.22800 -1.92700 38.89800
N  22.23600 -6.34100 45.20000
C  21.38300 -5.54600 44.47700
C  20.10000 -6.15800 44.32600
C  20.19700 -7.43500 45.01700
C  21.57400 -7.55700 45.56100
C  18.95900 -5.59500 43.56700
C  19.13700 -8.51200 45.12900
O  18.04200 -8.38900 44.58400
C  19.33200 -9.77500 45.98400
N  24.56000 -7.70600 46.63000
C  23.66100 -8.66600 46.64700
C  24.19900 -9.84300 47.48300
C  25.58300 -9.42100 48.06500
C  25.78900 -8.11700 47.27100
C  23.23300 -10.53000 48.51500
C  26.73300 -10.53300 48.04500
C  27.32600 -11.01700 49.33700
N  26.25300 -5.38200 45.89800
C  27.23700 -6.11200 46.53100
C  28.47700 -5.42000 46.35700
C  28.24900 -4.29800 45.50400
C  26.84200 -4.40100 45.18800
C  29.81200 -5.88800 46.86300
C  28.87800 -3.23100 44.76400
O  30.04100 -2.84100 44.66800
C  27.66300 -2.62000 43.98300
C  27.57900 -1.16200 44.16800
O  27.42900 -0.54900 45.23500
O  27.91600 -0.55900 42.99400
C  27.89600 0.87400 42.91600
H  21.01900 -3.74700 43.18500
H  21.91100 -9.64200 46.12800
H  27.98100 -7.68200 47.61400
H  25.10300 -1.36400 43.03800
H  22.57900 -2.57400 41.97500
H  23.13000 -0.19600 43.68900
H  22.19500 -1.32600 44.63600
H  21.55600 -0.91100 43.11300
H  24.24100 -3.28900 40.84700
H  25.79900 -3.61600 41.34300
H  26.68500 -1.54300 40.52300
H  25.17300 -0.73500 40.77600
H  18.93100 -6.14700 42.62800
H  19.00900 -4.52300 43.37600
H  18.04300 -5.79500 44.12400
H  18.32400 -10.07800 46.26600
H  19.89400 -9.60700 46.90200
H  19.66100 -10.56400 45.30800
H  24.32900 -10.71500 46.84200
H  25.36200 -9.17300 49.10300
H  22.43000 -9.84400 48.78500
H  23.79600 -10.75300 49.42100
H  22.87100 -11.51700 48.22800
H  27.55700 -10.13800 47.45000
H  26.45800 -11.40400 47.45100
H  26.93400 -10.39200 50.14000
H  28.39300 -10.79500 49.31400
H  27.20000 -12.08300 49.52400
H  30.10200 -6.78200 46.31100
H  29.79100 -5.95800 47.95000
H  30.45600 -5.04000 46.62900
H  27.89900 -2.75000 42.92700
H  27.04600 1.30500 43.44600
H  28.03500 1.29000 41.91900
H  28.84300 1.10800 43.40200
Mg 46.70700 25.73800 28.75000
C  47.60900 27.86900 31.54800
C  46.13100 23.30000 31.08900
C  46.35500 23.80100 26.25400
C  47.91000 28.35200 26.62300
N  46.94400 25.63700 31.10000
C  47.23000 26.64400 31.96000
C  46.98100 26.21700 33.40300
C  46.75200 24.67000 33.28300
C  46.64800 24.49300 31.69100
C  47.84600 23.81500 33.95200
C  45.72300 26.84400 34.15300
C  46.01700 27.56300 35.51900
H  46.70800 26.73700 36.63700
N  46.15900 23.88800 28.65900
C  45.90100 23.04400 29.74300
C  45.54800 21.72900 29.21900
C  45.67800 21.83000 27.81000
C  46.04700 23.23000 27.51600
C  45.11000 20.52000 30.11500
C  45.48300 20.79000 26.77200
O  45.60100 20.94400 25.56900
C  45.32200 19.45500 27.28400
N  46.99100 26.07200 26.64000
C  46.83400 25.04000 25.81000
C  47.16900 25.41600 24.35600
C  47.44500 26.95000 24.51600
C  47.45400 27.15400 26.02000
C  48.32200 24.67300 23.65800
C  46.42000 27.90200 23.81900
C  46.64600 27.98000 22.32800
N  47.56200 27.73300 28.96600
C  47.99700 28.62100 28.00800
C  48.58100 29.70100 28.69200
C  48.39700 29.53700 30.09000
C  47.76200 28.29100 30.20000
C  49.20400 30.94200 28.12800
C  48.61000 30.11700 31.45900
O  48.99100 31.23600 31.74300
C  48.09300 29.00700 32.43600
C  49.19800 28.74900 33.37200
O  50.31500 28.32600 33.03500
O  48.90800 29.07600 34.67100
C  49.77800 28.85400 35.81800
H  46.11900 22.41400 31.72800
H  46.43100 23.11400 25.40900
H  48.06300 29.11600 25.85800
H  47.92800 26.53500 33.84000
H  45.86500 24.31100 33.80500
H  47.59400 23.38800 34.92300
H  48.73600 24.44500 33.92700
H  48.16300 23.11300 33.18100
H  44.92600 26.15300 34.43000
H  45.16900 27.52700 33.50900
H  44.97000 27.76400 35.74300
H  46.43200 28.54500 35.29500
H  44.12400 20.17000 29.81000
H  45.13000 20.79900 31.16800
H  45.83000 19.71600 29.96300
H  46.24600 19.34700 27.85200
H  45.32000 18.73000 26.47100
H  44.35700 19.49700 27.78900
H  46.29800 25.34000 23.70500
H  48.44400 27.20500 24.16200
H  48.68100 23.99800 24.43500
H  49.14300 25.32600 23.36300
H  47.93000 24.09300 22.82300
H  46.48100 28.90700 24.23700
H  45.40300 27.53600 23.96100
H  47.53000 27.46500 21.95200
H  46.68500 29.04100 22.08200
H  45.77700 27.60500 21.78700
H  50.28200 30.82900 28.01200
H  48.95400 31.74700 28.81900
H  48.70600 31.11900 27.17500
H  47.32000 29.42300 33.08200
H  49.40700 29.54300 36.57800
H  50.80500 28.96900 35.47000
H  49.72500 27.79600 36.07400

