158

Mg 40.60500 9.24700 29.92800
C  42.73500 10.46800 32.57800
C  38.28500 8.44400 32.05500
C  38.87200 8.23400 27.24000
C  43.39400 10.03200 27.75300
N  40.60500 9.32900 32.07700
C  41.45400 9.94400 32.96000
C  40.93800 9.97600 34.43200
C  39.53200 9.28800 34.17900
C  39.45800 8.90800 32.66000
C  39.25700 8.09600 35.08500
C  41.01200 11.40000 34.99000
C  40.23000 11.62700 36.29600
H  40.91500 12.40800 37.39000
N  38.78300 8.45300 29.63700
C  37.95100 8.20900 30.67400
C  36.70200 7.65400 30.18300
C  36.80200 7.68000 28.75900
C  38.19000 8.13200 28.46000
C  35.54100 7.17600 31.10800
C  35.82600 7.31800 27.65900
O  36.06900 7.44800 26.43500
C  34.41200 6.74800 28.06000
N  41.12500 9.10400 27.75700
C  40.17500 8.67600 26.91000
C  40.71400 8.65600 25.47100
C  42.14500 9.17700 25.66600
C  42.20200 9.60100 27.14400
C  40.52000 7.29000 24.68800
C  42.62400 10.33100 24.72000
C  42.22800 11.74400 25.04400
N  42.63400 10.12400 30.09500
C  43.54900 10.35900 29.15800
C  44.79200 10.90000 29.76800
C  44.56200 10.95100 31.11600
C  43.18800 10.52200 31.23300
C  46.04900 11.23800 28.97400
C  45.07400 11.31800 32.40700
O  46.17200 11.74200 32.67700
C  43.93100 11.01500 33.52100
C  44.42700 9.88100 34.36300
O  44.71400 8.73100 34.02700
O  44.71300 10.40000 35.64800
C  45.33900 9.49000 36.53400
H  37.52000 8.05700 32.73300
H  38.31100 7.95700 26.34500
H  44.16200 10.20000 26.99600
H  41.58800 9.37500 35.06700
H  38.81200 10.03300 34.51600
H  40.17900 7.75800 35.55800
H  38.75300 7.29900 34.53800
H  38.57100 8.33100 35.89900
H  40.69800 12.06900 34.18900
H  42.09100 11.50800 35.10500
H  39.86000 10.64500 36.59100
H  39.38500 12.24900 36.00000
H  35.55800 7.67600 32.07600
H  35.43500 6.10700 31.29200
H  34.55600 7.40100 30.69700
H  33.99000 6.33700 27.14300
H  33.95500 7.60100 28.56100
H  34.43400 5.92000 28.76800
H  40.14300 9.45600 25.00100
H  42.84700 8.35900 25.50300
H  41.47200 6.98200 24.25500
H  39.81600 7.48100 23.87700
H  40.19100 6.47100 25.32800
H  42.31600 10.07500 23.70600
H  43.70500 10.19300 24.74700
H  42.95200 12.15300 25.74900
H  41.30100 11.71100 25.61800
H  42.06200 12.28000 24.10900
H  46.93200 10.90300 29.51900
H  46.15000 12.32000 28.88200
H  46.20100 10.70900 28.03400
H  43.74200 11.87400 34.16600
H  45.89100 10.01400 37.31400
H  45.77800 8.63700 36.01700
H  44.49000 9.09700 37.09200
Mg -2.00200 33.77200 26.33300
C  -3.48900 32.25700 28.94000
C  -0.30300 35.78900 28.50600
C  -0.41800 35.15600 23.72300
C  -3.83800 31.84500 24.14100
N  -2.06400 34.05200 28.44400
C  -2.58500 33.28700 29.31900
C  -2.35400 33.62500 30.82400
C  -1.49000 34.92000 30.60300
C  -1.29400 34.96100 29.07000
C  -2.16100 36.24600 31.05800
C  -1.75900 32.44600 31.60900
C  -2.43700 32.12900 32.98500
H  -1.61500 31.91300 34.22400
N  -0.60700 35.39200 26.12200
C  0.07500 36.01200 27.15900
C  1.01400 36.96900 26.58900
C  0.92700 36.86100 25.11300
C  -0.05100 35.78800 24.94300
C  1.92400 37.86700 27.36600
C  1.58200 37.70000 23.98200
O  1.63000 37.33600 22.77800
C  2.28600 39.03100 24.39600
N  -2.16500 33.62900 24.25300
C  -1.39700 34.23600 23.40400
C  -1.70500 33.79200 21.95100
C  -2.48500 32.50600 22.17900
C  -2.87300 32.66500 23.63700
C  -2.35100 34.97600 21.18100
C  -1.56000 31.27000 21.94500
C  -2.26100 30.19700 21.07800
N  -3.44100 32.34000 26.43300
C  -4.11900 31.63500 25.45200
C  -4.97800 30.63900 26.14000
C  -4.82400 30.95000 27.51500
C  -3.85700 31.87600 27.61900
C  -5.94400 29.69600 25.41000
C  -5.23800 30.57600 28.81800
O  -6.13900 29.85300 29.20000
C  -4.44200 31.43800 29.83900
C  -5.39800 32.42200 30.52600
O  -5.68500 33.57900 30.18500
O  -5.97300 31.79800 31.61000
C  -6.64100 32.69200 32.47300
H  0.30800 36.41100 29.16400
H  0.28200 35.36200 22.91100
H  -4.22000 31.09900 23.44200
H  -3.29600 33.85500 31.32100
H  -0.58300 34.88500 31.20700
H  -1.57500 36.68500 31.86500
H  -3.13700 36.04600 31.49900
H  -2.21900 36.97800 30.25200
H  -0.69800 32.58000 31.82200
H  -1.69800 31.60300 30.92000
H  -2.99900 31.23300 32.72200
H  -3.18000 32.85400 33.31800
H  1.63700 38.91800 27.34000
H  2.91300 37.69800 26.93900
H  1.98600 37.49300 28.38800
H  2.68800 39.45200 23.47400
H  3.08800 38.97300 25.13200
H  1.44600 39.63900 24.73200
H  -0.77100 33.68200 21.39900
H  -3.37200 32.40800 21.55200
H  -3.36700 34.77100 20.84300
H  -1.81200 35.23300 20.26900
H  -2.39600 35.85600 21.82300
H  -1.39300 30.78500 22.90700
H  -0.60800 31.51400 21.47300
H  -2.09100 29.22000 21.53100
H  -1.93400 30.02200 20.05300
H  -3.33100 30.34300 20.93400
H  -6.17800 30.27900 24.51900
H  -6.76900 29.50400 26.09600
H  -5.53700 28.69900 25.24300
H  -4.05500 30.62500 30.45300
H  -7.53900 33.18100 32.09500
H  -6.10400 33.49000 32.98500
H  -7.11500 32.01600 33.18500

