158

Mg -1.06300 7.74500 25.83200
C  -0.30100 9.75300 28.57800
C  -0.98500 4.95000 27.89000
C  -1.94800 5.77100 23.23800
C  -1.06000 10.53900 23.74500
N  -0.66900 7.36800 28.04700
C  -0.50600 8.36100 28.97100
C  -0.52800 7.79500 30.34500
C  -0.73700 6.24800 30.14200
C  -0.87600 6.14400 28.63600
C  0.43100 5.38000 30.75200
C  -1.58500 8.36200 31.27300
C  -1.57500 7.95300 32.79200
H  -0.18400 7.80100 33.56100
N  -1.33000 5.61200 25.54600
C  -1.24500 4.65700 26.50000
C  -1.35000 3.40600 25.89000
C  -1.57100 3.61200 24.45900
C  -1.60300 5.05000 24.34500
C  -1.16900 2.20600 26.71500
C  -1.54200 2.63700 23.35300
O  -1.59500 2.88300 22.12000
C  -1.44000 1.15600 23.70700
N  -1.46700 8.13500 23.82500
C  -1.84800 7.11600 22.98100
C  -2.20400 7.65800 21.59900
C  -1.91900 9.25100 21.74900
C  -1.57000 9.32300 23.23900
C  -1.40700 7.01100 20.44500
C  -3.21800 10.12200 21.41100
C  -3.02500 11.58100 20.96900
N  -0.69800 9.69100 26.08700
C  -0.76700 10.72700 25.14100
C  -0.34400 11.97500 25.77300
C  -0.16700 11.62000 27.10200
C  -0.46400 10.24100 27.26900
C  -0.22100 13.30100 25.09400
C  0.19800 12.01200 28.41200
O  0.63500 13.09900 28.75200
C  -0.01500 10.88900 29.49500
C  1.24500 10.81200 30.27200
O  2.25300 10.40600 29.81300
O  1.04200 11.44600 31.45200
C  2.24600 11.63200 32.27800
H  -1.16700 4.12700 28.58400
H  -2.35300 5.23600 22.37700
H  -0.90800 11.38300 23.07000
H  0.45300 8.09600 30.71300
H  -1.61200 5.84800 30.65200
H  1.13400 6.13300 31.10900
H  0.97600 4.81500 29.99500
H  0.07900 4.68700 31.51600
H  -2.59100 8.18700 30.89100
H  -1.46100 9.44500 31.24000
H  -2.32700 7.17200 32.90300
H  -1.91000 8.87500 33.26700
H  -1.46400 1.25600 26.26900
H  -1.88100 2.29500 27.53500
H  -0.15200 2.18700 27.10600
H  -0.55000 1.05800 24.32800
H  -1.26500 0.65700 22.75400
H  -2.25500 0.61600 24.18900
H  -3.27800 7.60400 21.42300
H  -1.00000 9.55600 21.24800
H  -1.19100 7.71800 19.64400
H  -2.20000 6.33700 20.12100
H  -0.55200 6.46600 20.84600
H  -3.91200 10.17900 22.25000
H  -3.77400 9.67200 20.58800
H  -3.58100 11.73300 20.04400
H  -1.99500 11.92800 20.88000
H  -3.44200 12.22700 21.74200
H  0.46400 13.26000 24.24800
H  0.23500 13.99400 25.80200
H  -1.20000 13.73700 24.89400
H  -0.86000 11.18200 30.11900
H  2.33600 10.89500 33.07600
H  2.10000 12.60200 32.75400
H  3.17900 11.65400 31.71500
Mg 5.21700 53.90800 42.41400
C  4.58500 50.33600 41.63000
C  8.30500 53.42700 41.33200
C  5.57300 57.19500 42.74800
C  1.84400 54.06800 43.44600
N  6.24100 52.08900 41.40300
C  5.88700 50.77500 41.32900
C  7.05000 49.98000 40.77200
C  8.30100 50.96700 40.90300
C  7.56100 52.25300 41.16300
C  9.39900 50.64700 41.97900
C  6.88600 49.56200 39.30900
C  6.16000 50.37700 38.17800
H  7.02200 50.62500 36.90700
N  6.81300 55.13600 42.15800
C  8.01800 54.77400 41.76600
C  8.89400 55.83800 41.77100
C  8.08800 56.95400 42.13600
C  6.73300 56.45800 42.33100
C  10.33500 55.79900 41.26800
C  8.62000 58.38400 42.34200
O  9.78200 58.63000 41.94900
C  7.90700 59.49400 43.03100
N  3.81600 55.40400 42.88800
C  4.29200 56.67200 43.07700
C  3.15700 57.58300 43.51500
C  1.95100 56.63300 43.47700
C  2.54200 55.23800 43.29100
C  3.41000 58.34400 44.85900
C  0.76400 56.98800 42.40900
C  -0.06700 58.26500 42.78300
N  3.55800 52.50300 42.48500
C  2.32400 52.78500 43.02500
C  1.53700 51.56700 43.11800
C  2.40600 50.56900 42.56200
C  3.62300 51.20200 42.20800
C  -0.00600 51.57100 43.51000
C  2.53300 49.16700 42.22000
O  1.71800 48.28100 42.31800
C  3.88700 48.98600 41.60300
C  3.89300 48.33100 40.26700
O  3.34300 48.79700 39.29200
O  4.52900 47.12500 40.33600
C  4.62400 46.34000 39.12700
H  9.37800 53.28600 41.19100
H  5.81300 58.21600 43.05100
H  0.81400 54.22900 43.77100
H  7.20500 49.06600 41.34600
H  8.78300 51.16000 39.94500
H  9.05600 49.78400 42.55100
H  9.62500 51.47200 42.65400
H  10.28700 50.38300 41.40500
H  6.28900 48.65700 39.42200
H  7.82200 49.16700 38.91300
H  5.89600 51.35700 38.57500
H  5.24500 49.98200 37.73700
H  11.00400 56.47900 41.79600
H  10.41800 56.00800 40.20200
H  10.82700 54.84800 41.47300
H  8.62600 60.31000 43.09800
H  7.63300 59.23600 44.05400
H  7.03100 59.75100 42.43500
H  3.08200 58.37900 42.77500
H  1.45100 56.55000 44.44300
H  3.96900 59.27100 44.73100
H  3.90400 57.63600 45.52400
H  2.51200 58.60800 45.41700
H  0.18800 56.12600 42.07400
H  1.34500 57.45400 41.61300
H  0.05200 58.48600 43.84400
H  -1.12500 58.06700 42.61100
H  0.28400 59.09700 42.17300
H  -0.35500 50.69400 42.96500
H  -0.58000 52.48000 43.33100
H  -0.12200 51.24400 44.54300
H  4.29800 48.28200 42.32700
H  4.32300 46.84800 38.21100
H  4.00500 45.44300 39.14700
H  5.64400 46.04400 38.88300

