158

Mg 47.06900 15.99100 27.82400
C  45.25400 15.27800 30.78200
C  48.97000 18.10700 29.83500
C  48.97200 16.67600 25.17600
C  44.99800 14.01000 25.95500
N  47.14600 16.51300 30.12600
C  46.33800 16.12600 31.13700
C  46.77300 16.67400 32.47100
C  47.75200 17.77000 32.10300
C  47.98900 17.47500 30.58200
C  47.39100 19.20000 32.51400
C  47.31500 15.60000 33.41500
C  47.10800 15.70800 34.92200
H  48.34400 15.58300 35.80500
N  48.64800 17.22000 27.53900
C  49.26400 18.00600 28.51700
C  50.45000 18.62900 27.92200
C  50.48800 18.30800 26.51500
C  49.26700 17.43200 26.33000
C  51.47200 19.46200 28.70800
C  51.37100 18.82800 25.41000
O  51.26100 18.47200 24.26200
C  52.55700 19.73400 25.73400
N  46.98000 15.46400 25.83000
C  47.96500 15.77000 24.93400
C  47.77800 14.96100 23.66100
C  46.45700 14.28500 23.82000
C  46.09500 14.52800 25.29400
C  47.81800 15.74900 22.34800
C  46.49800 12.75300 23.39800
C  45.99800 12.48200 21.89400
N  45.40300 14.92100 28.22700
C  44.61800 14.20300 27.30300
C  43.53200 13.63000 28.01300
C  43.71100 13.97000 29.38900
C  44.89200 14.83100 29.46700
C  42.43300 12.89000 27.25300
C  43.31700 13.75800 30.78700
O  42.44200 13.06400 31.31800
C  44.24700 14.63400 31.72600
C  43.41900 15.59500 32.44800
O  42.63500 16.33000 31.98600
O  43.74300 15.55100 33.77900
C  42.97600 16.34300 34.63500
H  49.53400 18.79900 30.46300
H  49.57900 16.80100 24.27700
H  44.32800 13.44500 25.30300
H  45.92500 17.15900 32.95300
H  48.64900 17.58000 32.69300
H  46.85000 19.37100 33.44500
H  46.99600 19.57000 31.56800
H  48.33200 19.73000 32.66000
H  48.36200 15.47900 33.13800
H  46.86300 14.65400 33.11600
H  46.39800 14.89900 35.09400
H  46.59400 16.62200 35.21900
H  51.71100 20.36500 28.14700
H  52.38800 18.96600 29.02800
H  51.07200 19.82100 29.65600
H  52.14300 20.71600 25.96400
H  53.24500 19.88300 24.90200
H  53.06300 19.35300 26.62100
H  48.59900 14.24400 23.66000
H  45.61600 14.69300 23.25800
H  48.62400 15.38300 21.71200
H  48.03600 16.79700 22.55500
H  46.91000 15.70000 21.74800
H  45.99600 12.08900 24.10200
H  47.55300 12.51300 23.52500
H  46.75600 11.83100 21.45700
H  45.87000 13.36000 21.26100
H  45.07500 11.90400 21.94900
H  42.13800 13.13000 26.23200
H  41.54800 13.33200 27.71100
H  42.38800 11.82900 27.49900
H  44.71400 13.98800 32.47000
H  43.34500 16.18600 35.64900
H  41.95300 15.99900 34.48100
H  43.04500 17.38600 34.32700
Mg 46.85200 44.64300 44.01700
C  43.39400 44.22000 43.52600
C  47.22500 41.20300 43.15900
C  50.13900 45.00900 43.53000
C  46.32900 48.10600 43.99400
N  45.50000 42.98500 43.33000
C  44.11000 43.06800 43.27900
C  43.51500 41.71300 43.02300
C  44.69400 40.74300 42.97400
C  45.89200 41.67600 43.19800
C  44.61000 39.54200 43.93400
C  42.54300 41.53800 41.80300
C  43.13200 42.23300 40.57300
H  42.90300 41.54700 39.21000
N  48.51100 43.29300 43.70700
C  48.44800 41.91200 43.42300
C  49.80900 41.38200 43.22800
C  50.70900 42.51700 43.43500
C  49.79400 43.67000 43.67100
C  50.17300 40.02700 42.88700
C  52.20200 42.44300 43.47100
O  52.83000 41.38900 43.33000
C  53.09600 43.58400 43.85100
N  48.04000 46.37900 43.69200
C  49.39200 46.23300 43.49600
C  50.09200 47.57700 43.17000
C  48.83000 48.53400 43.39800
C  47.65500 47.63700 43.66800
C  51.35400 47.68100 44.17800
C  48.55000 49.64300 42.30900
C  48.12100 51.13000 42.71200
N  45.18900 45.92200 43.86100
C  45.12000 47.26800 44.02300
C  43.79500 47.71600 44.22200
C  42.97700 46.50500 43.99800
C  43.95800 45.48500 43.69600
C  43.39500 49.14000 44.49300
C  41.65100 45.88900 43.91200
O  40.54700 46.38700 43.94400
C  41.89000 44.43100 43.59400
C  41.24800 43.59800 44.65600
O  40.31100 42.78100 44.50800
O  41.80700 43.91300 45.89500
C  41.17100 43.22200 47.06000
H  47.27600 40.18100 42.77800
H  51.14600 45.19600 43.15300
H  46.24000 49.18200 44.15800
H  42.91000 41.45600 43.89200
H  44.90200 40.29400 42.00200
H  44.53300 38.70700 43.23700
H  43.68500 39.54500 44.51000
H  45.46600 39.46000 44.60400
H  41.60100 41.97100 42.13800
H  42.52000 40.46200 41.62800
H  44.21100 42.33400 40.68900
H  42.64900 43.18600 40.79100
H  50.18700 39.33400 43.72800
H  51.18800 39.87800 42.51900
H  49.40900 39.66400 42.19900
H  52.72400 44.21000 44.66300
H  53.08900 44.33700 43.06300
H  54.07900 43.25400 44.18600
H  50.48300 47.57500 42.15300
H  49.18500 49.11800 44.24700
H  52.30500 47.73200 43.64700
H  51.38100 46.86700 44.90100
H  51.33800 48.50300 44.89400
H  47.62300 49.35400 41.81600
H  49.33200 49.55000 41.55500
H  48.50900 51.74300 41.89900
H  48.65500 51.45000 43.60700
H  47.05400 51.22700 42.91300
H  42.31300 49.04100 44.57400
H  43.57500 49.82700 43.66600
H  43.91800 49.37200 45.42100
H  41.33500 44.32600 42.66200
H  40.09900 43.36100 47.20200
H  41.69100 43.41500 47.99900
H  41.19900 42.15800 46.82300

