158

Mg 48.87400 46.25000 42.75600
C  45.58800 46.95000 42.06700
C  48.44900 43.26100 41.06500
C  52.09200 46.10100 42.59900
C  49.16200 49.73000 43.72300
N  47.21900 45.29000 41.62100
C  45.95700 45.73300 41.54100
C  45.01700 44.71000 40.74600
C  45.95000 43.53100 40.56300
C  47.28600 43.97800 41.23300
C  45.45100 42.13200 41.09800
C  44.53900 45.39000 39.41100
C  43.18300 44.93500 38.86100
H  43.10900 44.55500 37.33500
N  50.11100 44.72800 42.17400
C  49.78100 43.55000 41.57400
C  50.94500 42.70800 41.70100
C  52.08000 43.55500 42.17900
C  51.47000 44.87200 42.37100
C  50.85500 41.29400 41.46600
C  53.50400 43.04300 42.45700
O  53.87400 41.91300 42.05200
C  54.36800 43.86800 43.32700
N  50.40300 47.79100 42.90700
C  51.74100 47.40900 42.84200
C  52.66800 48.61900 43.13100
C  51.65100 49.68100 43.56400
C  50.32600 49.01000 43.47900
C  53.77300 48.31400 44.15400
C  51.79000 51.17700 43.17000
C  50.85000 51.70200 42.03800
N  47.66200 47.99500 42.96600
C  47.84800 49.26600 43.47600
C  46.63200 49.97500 43.60100
C  45.64500 49.10500 43.13800
C  46.37000 47.94000 42.65500
C  46.42900 51.35900 43.98900
C  44.23800 48.84000 42.86000
O  43.29600 49.60300 42.99900
C  44.20500 47.45600 42.23800
C  43.41400 46.40700 43.07400
O  43.85200 45.85800 44.05100
O  42.17300 46.27600 42.56200
C  41.50600 45.07400 43.14100
H  48.22800 42.34200 40.51900
H  53.17000 45.96700 42.49100
H  49.20300 50.81200 43.86300
H  44.19000 44.44900 41.40600
H  45.97600 43.49200 39.47400
H  46.14200 41.53100 41.68900
H  45.14400 41.47000 40.28800
H  44.60300 42.19300 41.78100
H  45.27600 45.15700 38.64200
H  44.58200 46.47900 39.43700
H  42.46500 45.73500 39.03800
H  42.86800 44.09800 39.48500
H  51.80200 40.77700 41.31100
H  50.46300 41.08400 40.47100
H  50.27200 40.75900 42.21600
H  53.81900 44.44800 44.06900
H  54.91100 44.53200 42.65500
H  54.99500 43.19100 43.90600
H  53.19200 48.83700 42.20100
H  51.76800 49.69400 44.64700
H  54.77000 48.27900 43.71500
H  53.61100 47.35000 44.63600
H  53.84100 49.14600 44.85500
H  52.83100 51.34300 42.89400
H  51.55300 51.69600 44.09900
H  51.40400 52.23200 41.26300
H  50.29200 52.50100 42.52600
H  50.10400 51.09600 41.52500
H  47.33500 51.82700 44.37500
H  45.62600 51.52400 44.70700
H  46.13100 51.94800 43.12100
H  43.73000 47.46600 41.25700
H  42.14900 44.23900 42.86300
H  40.50100 44.98400 42.72800
H  41.34900 45.17000 44.21600
Mg 9.79400 47.98500 25.80500
C  7.38600 47.88400 28.35800
C  12.12600 49.08000 27.99800
C  11.79100 48.79700 23.20300
C  7.21100 47.30600 23.48000
N  9.72800 48.35600 27.89500
C  8.66900 48.34000 28.77100
C  9.18500 48.60600 30.25600
C  10.52100 49.36700 29.95200
C  10.87900 48.81800 28.54500
C  10.46400 50.98800 30.05000
C  9.50400 47.29400 30.99500
C  9.12700 47.47700 32.49700
H  9.23000 46.17800 33.34300
N  11.78000 48.54200 25.59300
C  12.60800 48.97700 26.60800
C  13.94500 49.33300 26.09000
C  13.89600 48.97900 24.67100
C  12.46300 48.84000 24.40200
C  15.18000 49.74700 26.93000
C  14.96700 48.86200 23.67600
O  14.80000 48.50900 22.49300
C  16.35900 49.00600 24.19600
N  9.42900 48.12900 23.71300
C  10.45900 48.41700 22.92800
C  10.09400 48.14700 21.44400
C  8.79800 47.38900 21.55000
C  8.44400 47.62200 23.00200
C  10.05200 49.46200 20.55800
C  8.75600 45.92400 21.07300
C  7.91900 45.72700 19.77500
N  7.64400 47.69000 25.89700
C  6.75600 47.40400 24.83700
C  5.39300 47.17000 25.41500
C  5.64300 47.30400 26.82300
C  6.95800 47.59500 27.03200
C  4.09700 46.86500 24.55900
C  4.95100 47.24900 28.08000
O  3.83500 46.97800 28.45400
C  6.12800 47.64900 29.17400
C  6.25300 46.43100 29.94100
O  6.80300 45.38300 29.64500
O  5.46700 46.58900 30.97400
C  5.36600 45.46000 31.92200
H  12.96200 49.38700 28.63000
H  12.46800 49.14500 22.42000
H  6.49300 46.98200 22.72300
H  8.61100 49.24400 30.92700
H  11.33300 49.03000 30.59600
H  10.60900 51.35500 29.03300
H  11.07900 51.27400 30.90400
H  9.41800 51.18900 30.28200
H  10.56400 47.05100 30.92200
H  9.08800 46.41000 30.51200
H  8.07300 47.74300 32.57700
H  9.80100 48.23600 32.89500
H  14.72200 50.03800 27.87500
H  15.64900 50.64300 26.52100
H  15.96800 49.01100 27.09000
H  16.53700 50.00300 24.59900
H  16.99700 48.74600 23.35200
H  16.47600 48.29600 25.01500
H  10.84500 47.49500 20.99600
H  8.01700 47.98300 21.07700
H  9.07900 49.57700 20.08000
H  10.76100 49.26800 19.75400
H  10.43000 50.34300 21.07800
H  8.33900 45.21900 21.79300
H  9.81100 45.68000 20.95100
H  7.21700 44.90000 19.87700
H  8.61100 45.57600 18.94700
H  7.34100 46.59000 19.44400
H  3.81700 45.84200 24.80900
H  4.31400 46.86900 23.49100
H  3.43600 47.68200 24.84800
H  6.00800 48.52000 29.81800
H  5.03800 45.93000 32.84900
H  6.28300 44.91100 32.13400
H  4.59200 44.77200 31.58000

