158

Mg 9.38800 3.85900 27.38100
C  10.57000 2.17200 30.08900
C  7.67700 5.98800 29.53800
C  7.73400 5.14600 24.69400
C  10.33700 1.12900 25.26500
N  9.06200 3.95800 29.53800
C  9.78300 3.28700 30.43700
C  9.56400 3.88400 31.85300
C  8.48200 4.97700 31.68400
C  8.35900 4.96600 30.15400
C  7.14700 4.70000 32.42000
C  10.84200 4.39300 32.61100
C  10.67400 5.13300 33.97100
H  11.22400 4.53600 35.28500
N  8.01100 5.47400 27.16000
C  7.48700 6.23200 28.15100
C  6.63900 7.20700 27.53800
C  6.75000 7.08200 26.11000
C  7.55800 5.88100 25.91400
C  5.90600 8.27200 28.31800
C  6.13000 7.87100 24.94800
O  6.37000 7.61400 23.79000
C  5.14400 9.00400 25.30900
N  9.27500 3.31100 25.17800
C  8.46900 4.00100 24.39800
C  8.47900 3.40400 22.98600
C  9.43800 2.23500 23.10900
C  9.63200 2.13300 24.58500
C  7.14000 3.05100 22.29700
C  10.84900 2.51200 22.47300
C  11.76600 1.34800 22.08500
N  10.33700 2.03000 27.56400
C  10.75300 1.14000 26.58800
C  11.60300 0.11700 27.34300
C  11.52100 0.46300 28.68000
C  10.73600 1.59900 28.78500
C  12.48200 -0.93800 26.75800
C  11.92100 0.16800 30.02600
O  12.51500 -0.79600 30.43900
C  11.34700 1.23200 31.01300
C  10.61300 0.59000 32.13500
O  9.78700 -0.30400 32.04300
O  11.09300 1.14200 33.28900
C  10.75900 0.31900 34.48300
H  7.34400 6.68400 30.31100
H  7.10900 5.38900 23.83300
H  10.77200 0.39000 24.59000
H  9.16900 3.13600 32.54000
H  8.92000 5.93800 31.95400
H  6.34400 4.72900 31.68300
H  6.94000 5.39500 33.23300
H  7.07600 3.84300 33.09000
H  11.29300 5.22900 32.07500
H  11.70000 3.72300 32.56000
H  9.59200 5.24800 34.03900
H  10.89300 6.19600 33.87200
H  4.85100 8.36200 28.06100
H  6.42400 9.20000 28.07600
H  5.86200 8.12900 29.39800
H  5.52100 9.66300 26.09000
H  4.26200 8.44700 25.62700
H  4.92300 9.57700 24.40800
H  9.07600 4.13900 22.44500
H  9.08300 1.23700 22.85100
H  6.84400 3.51900 21.35800
H  6.24000 3.22100 22.88700
H  7.11100 1.96900 22.17000
H  11.55300 3.14100 23.01800
H  10.58100 2.97100 21.52200
H  12.15100 1.46800 21.07300
H  11.29600 0.38000 21.90800
H  12.62100 1.24700 22.75400
H  12.86200 -0.62600 25.78600
H  11.96400 -1.88700 26.62100
H  13.36800 -0.95700 27.39300
H  12.14700 1.77600 31.51600
H  11.23800 0.69900 35.38600
H  11.22500 -0.66600 34.46200
H  9.68400 0.29100 34.66000
Mg 41.79200 41.06200 26.10000
C  40.99700 43.31200 28.67300
C  42.86300 38.74400 28.57100
C  42.84300 39.07800 23.68600
C  41.13800 43.60300 23.76600
N  41.79600 41.03800 28.35000
C  41.39800 42.10000 29.15600
C  41.45600 41.65200 30.65600
C  42.25800 40.23600 30.55000
C  42.21200 39.94200 29.07800
C  43.66600 40.28800 31.10000
C  40.13400 41.45400 31.40200
C  39.67300 42.61300 32.32200
H  39.78000 42.50800 33.84000
N  42.63900 39.13100 26.13200
C  43.12200 38.39100 27.21900
C  43.66000 37.14100 26.68700
C  43.54700 37.18000 25.26800
C  42.97900 38.45600 24.96300
C  44.02000 36.09600 27.60800
C  43.99200 36.16900 24.15400
O  43.97000 36.39500 22.95000
C  44.52800 34.82300 24.61300
N  42.04700 41.31500 24.09700
C  42.39800 40.24400 23.32000
C  42.17100 40.55600 21.80700
C  41.30100 41.83000 21.83200
C  41.56700 42.33500 23.30000
C  43.51900 40.70700 21.06700
C  39.81100 41.75100 21.47600
C  38.96100 40.74000 22.29500
N  41.22600 43.06200 26.11500
C  41.00900 44.01200 25.06000
C  40.51800 45.23700 25.61000
C  40.44300 45.00500 26.97300
C  40.91900 43.72100 27.20100
C  40.08100 46.46900 24.82700
C  40.16900 45.59300 28.22900
O  39.85500 46.74800 28.51100
C  40.57500 44.51000 29.37000
C  41.66300 45.15600 30.18800
O  42.83600 45.26100 29.83300
O  41.18500 45.54300 31.40600
C  42.20400 46.32900 32.21300
H  43.20900 37.95300 29.24000
H  43.10400 38.53100 22.77700
H  40.77200 44.27900 22.99000
H  42.03600 42.44200 31.13300
H  41.73300 39.38200 30.97800
H  43.68600 39.98400 32.14700
H  43.96900 41.33100 31.00600
H  44.32000 39.70700 30.44900
H  40.14800 40.51600 31.95800
H  39.44900 41.28800 30.57100
H  38.66000 42.82300 31.97800
H  40.35200 43.41000 32.01800
H  43.16400 35.42100 27.62400
H  44.31500 36.35300 28.62500
H  44.83800 35.53800 27.15100
H  43.88100 34.24700 25.27500
H  45.44000 35.03100 25.17300
H  44.76800 34.29200 23.69200
H  41.56400 39.75500 21.38600
H  41.73600 42.56500 21.15500
H  43.95300 39.74000 20.81400
H  44.21700 41.34700 21.60700
H  43.26400 41.27300 20.17100
H  39.72400 41.61800 20.39800
H  39.37600 42.74500 21.57800
H  38.04600 41.20300 22.66500
H  39.54000 40.35300 23.13300
H  38.66000 39.90000 21.66900
H  39.13700 46.22700 24.33800
H  40.88000 46.78000 24.15400
H  39.94200 47.23800 25.58600
H  39.84500 44.43100 30.17600
H  42.25400 47.37300 31.90200
H  43.14100 45.77300 32.23100
H  41.81900 46.26700 33.23100

