158

Mg 27.15200 51.05800 26.10600
C  25.11600 52.19000 28.84000
C  29.48100 49.96300 28.40800
C  29.09400 50.22500 23.61400
C  24.87400 52.49600 23.96000
N  27.09800 50.89000 28.28600
C  26.15900 51.37600 29.27500
C  26.51000 50.94800 30.62900
C  28.02800 50.55100 30.51100
C  28.22300 50.48200 28.94600
C  29.07200 51.43600 31.29300
C  25.61300 49.77800 31.06300
C  25.18000 49.58600 32.58500
H  25.82900 50.38100 33.72300
N  28.99500 50.08200 25.99800
C  29.77000 49.63700 27.03900
C  30.98300 48.97800 26.56800
C  30.91000 49.09800 25.14600
C  29.65700 49.87700 24.85100
C  31.95100 48.26500 27.43700
C  31.82200 48.57600 24.04500
O  31.70100 48.86800 22.85000
C  32.88900 47.63100 24.45700
N  26.89700 51.20200 24.07500
C  27.88200 50.86200 23.23500
C  27.50800 50.93800 21.77200
C  26.12800 51.78000 21.84800
C  25.87600 51.76500 23.34800
C  28.72400 51.54800 21.04800
C  25.06300 51.12900 21.05000
C  24.26300 52.12100 20.14700
N  25.45200 52.19800 26.29200
C  24.55100 52.70300 25.33000
C  23.50100 53.46100 25.91500
C  23.69900 53.32600 27.29000
C  24.87500 52.53100 27.50200
C  22.46900 54.18900 25.22700
C  23.26500 53.78800 28.61600
O  22.37700 54.55000 28.90500
C  24.06500 52.90600 29.68300
C  24.71000 53.85600 30.67200
O  25.69100 54.44100 30.37400
O  24.04000 53.83900 31.87200
C  24.34000 54.94000 32.88000
H  30.24900 49.58000 29.08400
H  29.73200 49.93300 22.77700
H  24.26600 53.05900 23.24800
H  26.64500 51.81000 31.28300
H  28.11600 49.56100 30.95800
H  28.57500 52.39000 31.46600
H  29.86400 51.59800 30.56200
H  29.52000 51.02900 32.19900
H  26.04200 48.82600 30.75100
H  24.66600 49.92600 30.54300
H  25.30900 48.56900 32.95500
H  24.12900 49.86700 32.65100
H  31.89100 47.19800 27.22600
H  31.95300 48.41900 28.51600
H  32.91700 48.65500 27.11600
H  33.42600 47.47300 23.52200
H  32.38200 46.76300 24.87900
H  33.52200 48.04700 25.24100
H  27.45800 49.90200 21.43600
H  26.21800 52.85500 21.69700
H  28.36400 52.46700 20.58700
H  29.12300 50.81800 20.34400
H  29.50300 51.94300 21.70000
H  24.26500 50.64900 21.61500
H  25.38300 50.36900 20.33700
H  24.30500 51.80100 19.10600
H  24.76600 53.08700 20.17400
H  23.26800 52.15400 20.59100
H  21.65000 54.47600 25.88500
H  22.09400 53.60100 24.38900
H  22.91000 55.07300 24.76500
H  23.52100 52.14800 30.24600
H  24.70800 55.79100 32.30700
H  25.14400 54.65200 33.55600
H  23.48200 55.32100 33.43300
Mg 9.86100 48.36800 26.12900
C  8.07800 48.17600 29.06600
C  12.35100 50.01200 27.90000
C  11.67600 48.66500 23.33800
C  7.21300 47.46300 24.31000
N  10.30200 48.88100 28.30900
C  9.34300 48.67100 29.31500
C  9.84100 49.19200 30.70800
C  11.08700 50.11000 30.21600
C  11.25700 49.68900 28.70900
C  10.84500 51.67000 30.32600
C  10.24200 48.08000 31.78100
C  9.50000 48.18900 33.16200
H  9.58700 46.96900 34.04800
N  11.78600 49.13300 25.69700
C  12.63700 49.68000 26.58300
C  13.96000 49.85700 25.94200
C  13.78300 49.39300 24.59200
C  12.34500 49.16100 24.44200
C  15.17500 50.39600 26.71700
C  14.80800 49.25700 23.49100
O  14.55800 48.93500 22.35200
C  16.24100 49.48100 23.92900
N  9.48600 48.15700 24.08500
C  10.33700 48.25200 23.11100
C  9.63700 48.08000 21.68600
C  8.47500 47.23500 22.13400
C  8.39500 47.62200 23.57100
C  9.32700 49.55000 21.16800
C  8.63800 45.66500 21.89700
C  8.57000 44.62500 23.00600
N  7.97800 48.01400 26.52600
C  6.94100 47.59600 25.69800
C  5.83800 47.20600 26.50700
C  6.20300 47.44000 27.84100
C  7.54000 47.80400 27.80200
C  4.45500 46.77900 25.96200
C  5.73700 47.39300 29.14500
O  4.60200 47.05000 29.54800
C  6.90000 47.84000 30.04100
C  7.20000 46.67400 30.91100
O  7.86800 45.71600 30.58700
O  6.57900 46.85100 32.12800
C  6.40400 45.67900 32.94800
H  12.93600 50.78100 28.40900
H  12.28300 48.68100 22.43100
H  6.40300 46.96800 23.77100
H  8.99100 49.75800 31.08800
H  12.03100 49.91600 30.72400
H  9.81300 51.94500 30.54100
H  11.02700 52.10300 29.34200
H  11.62400 52.02700 31.00000
H  11.30900 48.26300 31.90500
H  10.09300 47.12600 31.27500
H  8.50100 48.59400 33.00000
H  10.04000 49.04900 33.55700
H  15.88900 49.59100 26.89500
H  14.82300 50.84100 27.64700
H  15.65000 51.15700 26.09800
H  16.54700 50.49600 24.18100
H  16.76300 49.18200 23.02000
H  16.57200 48.74800 24.66400
H  10.31600 47.61500 20.97100
H  7.57100 47.51300 21.59100
H  9.85400 50.37000 21.65600
H  8.26000 49.76600 21.13500
H  9.76500 49.60400 20.17100
H  9.70900 45.75100 21.70900
H  8.18900 45.33100 20.96200
H  8.63500 45.10100 23.98400
H  9.45300 44.02000 22.79900
H  7.67600 44.00600 22.93100
H  3.68700 47.46700 26.31600
H  4.25400 45.89700 26.56900
H  4.40300 46.61500 24.88500
H  6.41500 48.64100 30.60000
H  6.95500 44.80400 32.60300
H  5.35100 45.53600 33.19000
H  6.89700 45.86400 33.90300

