158

Mg 25.00100 0.99500 28.97200
C  27.16800 0.58100 31.69100
C  22.35800 0.89000 31.07500
C  22.91600 0.94800 26.12700
C  27.77400 0.36100 26.79900
N  24.73800 0.70000 31.08800
C  25.77400 0.69100 32.02600
C  25.21500 0.94300 33.43600
C  23.72000 0.91200 33.25000
C  23.59200 0.82500 31.71900
C  23.02300 -0.35500 34.03200
C  25.91700 2.19300 34.12000
C  25.08100 2.92100 35.27900
H  25.84500 3.06900 36.57100
N  22.87200 0.89700 28.67600
C  22.00000 0.88900 29.62200
C  20.67100 0.91500 29.05100
C  20.80100 0.94800 27.65200
C  22.22300 0.89500 27.38900
C  19.41200 0.84300 29.91300
C  19.72700 1.18000 26.57800
O  20.01000 1.44500 25.42600
C  18.22900 1.13400 26.95200
N  25.26100 0.63600 26.75100
C  24.27900 0.79200 25.82200
C  24.80500 0.98300 24.46000
C  26.35400 0.77300 24.64700
C  26.49800 0.54000 26.16700
C  24.23800 0.15200 23.30800
C  27.16800 1.98200 24.06200
C  27.22600 3.22800 24.96100
N  27.03900 0.63000 29.18700
C  28.01900 0.35700 28.24500
C  29.25100 -0.04500 28.92800
C  28.93200 0.11200 30.29400
C  27.61500 0.47200 30.37900
C  30.54100 -0.59500 28.25900
C  29.47100 0.12000 31.59500
O  30.54700 -0.31700 31.92700
C  28.36800 0.48100 32.66300
C  28.25500 -0.60400 33.67400
O  27.52900 -1.56800 33.56100
O  29.03200 -0.34700 34.75100
C  28.85500 -1.16800 35.94900
H  21.51700 1.03000 31.75700
H  22.23300 0.94600 25.27500
H  28.50600 0.17000 26.01100
H  25.60600 0.09300 33.99600
H  23.22600 1.84000 33.53900
H  23.81400 -0.96500 34.46800
H  22.49200 -0.93400 33.27600
H  22.33000 -0.07100 34.82400
H  26.24000 2.88100 33.33800
H  26.78000 1.68500 34.55100
H  24.18600 2.33800 35.49600
H  24.72800 3.90900 34.98100
H  18.72000 0.11000 29.49700
H  18.88400 1.78700 29.78100
H  19.60000 0.60300 30.95900
H  17.70700 1.33800 26.01700
H  17.94300 1.77900 27.78200
H  18.00600 0.09300 27.18100
H  24.61500 2.03800 24.26500
H  26.61800 -0.11400 24.07100
H  23.53400 -0.59400 23.67900
H  24.95700 -0.37900 22.68400
H  23.61800 0.76800 22.65600
H  26.76100 2.16900 23.06800
H  28.20200 1.67800 23.89400
H  28.25900 3.52800 25.13800
H  26.71000 2.98200 25.88900
H  26.70400 4.15600 24.73100
H  31.40000 -0.27200 28.84800
H  30.68100 -0.23000 27.24100
H  30.31300 -1.66000 28.28800
H  28.61500 1.38100 33.22500
H  29.19200 -2.17800 35.71400
H  27.86400 -1.21700 36.40000
H  29.41000 -0.69400 36.75900
Mg 48.61300 36.32800 27.45000
C  46.31600 35.31000 29.95400
C  48.86000 39.28100 29.07100
C  50.41000 37.43100 24.90000
C  47.75700 33.44100 25.66300
N  47.75900 37.13700 29.36700
C  46.85900 36.59000 30.25400
C  46.70700 37.44700 31.55600
C  47.29400 38.78100 31.01900
C  47.93600 38.38700 29.72600
C  46.14200 39.83100 30.85600
C  47.57000 36.85900 32.66200
C  46.88900 36.45000 34.04500
H  46.92500 37.56400 35.07200
N  49.74600 37.98400 27.18700
C  49.73600 39.06600 27.93300
C  50.74000 40.01800 27.44900
C  51.10000 39.56500 26.18500
C  50.40600 38.28000 26.01800
C  51.14100 41.30900 28.11600
C  52.00200 40.12600 25.07200
O  52.09400 39.66200 23.96000
C  52.83000 41.36900 25.30200
N  48.76100 35.59700 25.45200
C  49.70100 36.16400 24.67500
C  49.91300 35.38500 23.34900
C  49.23300 34.06400 23.68500
C  48.56200 34.33700 25.02700
C  49.10100 36.10500 22.29400
C  50.24200 32.83300 23.72700
C  49.82300 31.65900 22.83400
N  47.33500 34.65300 27.71400
C  47.07300 33.57300 26.88700
C  46.15800 32.65400 27.54600
C  45.78100 33.37600 28.71600
C  46.50900 34.50400 28.78300
C  45.70500 31.28800 27.02200
C  44.85100 33.31200 29.87700
O  44.09800 32.43200 30.20000
C  45.25700 34.51600 30.74700
C  45.74600 33.98100 31.99900
O  46.80700 33.41100 32.19100
O  44.70400 34.09000 32.89500
C  44.88100 33.46700 34.21300
H  48.89500 40.24000 29.59100
H  51.03200 37.60200 24.01900
H  47.69500 32.49700 25.11700
H  45.63900 37.52400 31.76100
H  47.95400 39.31400 31.70300
H  45.28300 39.48600 30.28100
H  46.56500 40.66700 30.29900
H  45.82600 40.23700 31.81700
H  48.41500 37.47900 32.96200
H  47.89900 35.86400 32.36100
H  47.27000 35.57600 34.57300
H  45.81500 36.39800 33.86600
H  52.13300 41.56500 27.74200
H  51.23200 41.15500 29.19100
H  50.44000 42.12900 27.96300
H  52.09300 42.15000 25.48900
H  53.34400 41.64000 24.38000
H  53.44200 41.31500 26.20300
H  50.95000 35.28800 23.02700
H  48.41900 33.76800 23.02300
H  48.55500 35.44100 21.62300
H  49.72000 36.83000 21.76500
H  48.39500 36.73700 22.83300
H  50.31300 32.36000 24.70600
H  51.25400 33.14200 23.46400
H  50.45600 31.54000 21.95400
H  48.81500 31.85700 22.47000
H  49.93100 30.71200 23.36100
H  46.25400 31.06200 26.10800
H  44.66400 31.29200 26.70200
H  45.91200 30.54400 27.79200
H  44.37700 35.14900 30.85900
H  45.85900 33.71500 34.62500
H  44.80900 32.39100 34.05200
H  44.07400 33.82200 34.85400

