158

Mg 30.61700 58.21700 38.97900
C  27.93200 56.23100 37.97100
C  32.69600 55.43700 38.43100
C  33.32600 60.22600 39.23300
C  28.43100 61.05600 38.79800
N  30.26200 56.07700 38.33900
C  29.11600 55.50800 37.83600
C  29.36600 54.06300 37.32900
C  30.81600 53.74600 37.84900
C  31.33600 55.20900 38.11300
C  30.98100 52.78300 39.08300
C  29.18300 53.86400 35.74600
C  29.15600 55.22100 34.92900
H  27.98200 55.48700 33.98200
N  32.74100 57.84600 38.98200
C  33.34100 56.62400 38.75200
C  34.80200 56.82900 38.75500
C  34.97000 58.22900 38.98100
C  33.68600 58.83800 39.01300
C  35.78400 55.69500 38.45500
C  36.31400 58.95700 39.05600
O  37.36400 58.27600 39.00500
C  36.52700 60.40100 39.46100
N  30.84200 60.23900 39.05300
C  32.03400 60.87100 39.32000
C  31.93000 62.40100 39.39600
C  30.40300 62.56600 39.14100
C  29.85500 61.19100 38.97700
C  32.43300 63.11800 40.71200
C  30.13100 63.50000 37.86600
C  30.51200 64.98400 38.06200
N  28.57000 58.61400 38.67000
C  27.85000 59.75100 38.58900
C  26.41600 59.38900 38.29000
C  26.50000 57.98400 38.11000
C  27.80000 57.60900 38.29200
C  25.26200 60.30300 38.18400
C  25.69100 56.90700 37.63900
O  24.48400 56.99400 37.36900
C  26.57500 55.64100 37.50900
C  26.01700 54.65500 38.59700
O  26.29900 54.64600 39.82400
O  25.38300 53.59900 37.97600
C  25.25400 52.43200 38.81500
H  33.38100 54.59600 38.30400
H  34.09900 60.98100 39.39400
H  27.64200 61.81000 38.81600
H  28.63700 53.33500 37.68500
H  31.40700 53.30200 37.04700
H  29.99000 52.44900 39.38900
H  31.29900 53.47600 39.86200
H  31.80600 52.11000 38.85100
H  28.16000 53.51200 35.62000
H  29.98200 53.25700 35.32000
H  30.04500 55.30000 34.30300
H  29.16800 56.13000 35.53000
H  35.40700 55.27900 37.52100
H  35.80200 54.95900 39.25800
H  36.75300 56.09600 38.15800
H  35.89300 60.69500 40.29800
H  36.38300 61.02600 38.58000
H  37.58500 60.50300 39.70100
H  32.56900 62.86300 38.64400
H  29.84300 63.06100 39.93300
H  31.65600 63.72400 41.17700
H  33.28300 63.72200 40.39300
H  32.72300 62.25800 41.31500
H  29.04400 63.50600 37.78800
H  30.61700 63.16200 36.95100
H  31.11000 64.98900 38.97300
H  29.61900 65.60600 38.12800
H  31.17300 65.60800 37.45900
H  24.28900 59.81400 38.13900
H  25.45300 60.96000 37.33600
H  25.20800 61.00800 39.01300
H  26.66800 55.23500 36.50200
H  26.27400 52.19300 39.11700
H  24.77200 51.64200 38.23900
H  24.63500 52.53800 39.70600
Mg 35.59200 48.22900 26.03000
C  35.98400 46.35700 28.93500
C  34.37100 50.80000 27.94900
C  35.39800 50.06200 23.23800
C  36.70200 45.48600 24.18300
N  35.29600 48.53600 28.22900
C  35.53400 47.63800 29.25100
C  35.29000 48.23900 30.58100
C  34.50900 49.53100 30.20300
C  34.71300 49.68300 28.67700
C  32.96800 49.49700 30.55900
C  36.59200 48.48900 31.42500
C  36.47800 48.33800 32.88800
H  36.00700 49.58700 33.62200
N  34.95000 50.15600 25.69200
C  34.48700 51.09600 26.60300
C  34.32200 52.38000 25.99700
C  34.60900 52.13200 24.61700
C  34.95400 50.69300 24.43400
C  33.92400 53.67300 26.72600
C  34.57400 53.17900 23.47300
O  34.90800 53.04000 22.30900
C  34.07700 54.57300 23.81200
N  35.97500 47.78600 23.99900
C  35.86700 48.75600 22.96600
C  36.14100 48.10700 21.58300
C  36.66500 46.70100 21.97200
C  36.43700 46.63100 23.42200
C  34.87200 48.03200 20.64700
C  38.20700 46.64200 21.69500
C  38.52800 46.09100 20.36500
N  36.02300 46.29200 26.44200
C  36.47900 45.28000 25.58600
C  36.76500 44.08400 26.35500
C  36.61200 44.45600 27.68000
C  36.15200 45.78000 27.67100
C  37.28700 42.80200 25.89400
C  36.69800 43.99400 29.01700
O  37.03800 42.88900 29.44200
C  36.35800 45.17700 29.86900
C  35.29700 44.81500 30.97300
O  34.13100 44.62500 30.81100
O  35.97100 44.64200 32.12800
C  35.11600 44.34000 33.30800
H  34.05800 51.68900 28.50100
H  35.41500 50.67800 22.33700
H  36.90000 44.61200 23.56000
H  34.74900 47.44000 31.08700
H  34.85100 50.41500 30.74100
H  32.71100 50.17200 31.37600
H  32.76200 48.54400 31.04500
H  32.25200 49.54000 29.73900
H  36.78300 49.52100 31.13100
H  37.42700 47.94200 30.98800
H  37.51800 48.28200 33.21000
H  35.87700 47.46100 33.12900
H  34.82300 54.28400 26.64000
H  33.81700 53.62300 27.80900
H  33.13100 54.21300 26.20900
H  33.02500 54.51600 24.09200
H  34.15000 55.16200 22.89800
H  34.63900 55.18400 24.51800
H  36.93100 48.63800 21.05200
H  36.14800 45.87700 21.47900
H  34.44100 47.03100 20.65000
H  35.21700 48.36700 19.66900
H  34.03600 48.61700 21.02900
H  38.63100 45.98000 22.45000
H  38.76300 47.55900 21.89100
H  38.66300 45.02100 20.52200
H  39.41300 46.54800 19.92100
H  37.68200 46.33600 19.72300
H  38.32300 42.83500 26.23000
H  37.26500 42.73500 24.80600
H  36.82800 41.92200 26.34300
H  37.33500 45.40800 30.29200
H  34.07600 44.65400 33.22500
H  35.55200 44.89400 34.13900
H  35.12800 43.26100 33.46300

