158

Mg -0.13400 7.04900 25.68200
C  0.79300 9.06000 28.55000
C  -0.15400 4.42000 27.78700
C  -0.57100 5.07200 23.08200
C  0.54000 9.75200 23.73000
N  0.58600 6.75600 27.88500
C  0.61100 7.70800 28.88300
C  0.63700 7.09800 30.31300
C  0.57500 5.63800 29.96300
C  0.36400 5.53700 28.47600
C  1.79600 4.76600 30.36100
C  -0.43300 7.59300 31.30200
C  0.10300 7.97700 32.73300
H  1.30500 7.23400 33.31300
N  -0.43700 5.01000 25.46600
C  -0.43900 4.07800 26.46900
C  -0.81100 2.79700 25.92500
C  -0.91300 2.92700 24.55300
C  -0.65100 4.34200 24.31200
C  -1.12000 1.64500 26.70700
C  -1.21800 1.87100 23.50700
O  -1.20100 2.21700 22.31500
C  -1.65200 0.38100 23.70500
N  0.15200 7.28000 23.74800
C  -0.32900 6.38300 22.87300
C  -0.38300 7.04400 21.45300
C  0.07700 8.49700 21.66900
C  0.19600 8.51800 23.18700
C  0.45800 6.36500 20.36400
C  -0.85400 9.54600 21.12300
C  -2.03000 9.96000 21.87600
N  0.51800 9.04600 26.03100
C  0.74800 10.03600 25.09100
C  1.04800 11.27200 25.74600
C  1.07300 10.97100 27.13500
C  0.82300 9.57700 27.25100
C  1.31000 12.67500 25.03800
C  1.30500 11.44100 28.47500
O  1.74100 12.51600 28.77800
C  0.98600 10.24600 29.47200
C  2.15900 10.12900 30.36000
O  3.09800 9.33800 30.23500
O  2.09100 11.05600 31.41900
C  3.33000 10.95400 32.25600
H  -0.21300 3.56000 28.45800
H  -0.58400 4.47400 22.16900
H  0.63500 10.59500 23.04100
H  1.62900 7.33600 30.69800
H  -0.28800 5.08900 30.34000
H  2.44200 4.69900 29.48500
H  1.57000 3.72600 30.59400
H  2.38400 5.23200 31.15200
H  -1.22900 6.85600 31.40900
H  -0.92800 8.43800 30.82300
H  -0.75400 7.94700 33.40600
H  0.49400 8.99400 32.71500
H  -2.13700 1.69000 27.09800
H  -0.33400 1.64400 27.46300
H  -0.98300 0.67100 26.23600
H  -1.05000 -0.14100 24.44900
H  -1.51500 -0.10600 22.74000
H  -2.67100 0.43400 24.08900
H  -1.40500 7.14500 21.08600
H  1.09100 8.67900 21.31100
H  0.67100 5.30800 20.52300
H  1.39000 6.93100 20.34900
H  0.00500 6.45900 19.37700
H  -1.20800 9.22100 20.14500
H  -0.29100 10.46200 20.94700
H  -1.96800 10.98100 22.25300
H  -2.22300 9.28500 22.71000
H  -2.91700 9.91600 21.24400
H  0.30300 13.06800 24.90200
H  1.89400 12.57000 24.12400
H  1.84300 13.37400 25.68200
H  0.05600 10.38000 30.02600
H  4.27000 11.23400 31.78100
H  3.35200 9.94500 32.66800
H  3.16500 11.71700 33.01700
Mg 7.50200 53.52500 41.44200
C  6.77700 50.00500 41.05100
C  10.51400 52.96200 40.09100
C  7.86200 56.87500 40.85100
C  4.20900 54.01900 42.25500
N  8.38300 51.69400 40.50900
C  8.08400 50.38500 40.54200
C  9.20600 49.44700 40.07200
C  10.48500 50.40900 40.21500
C  9.75600 51.79900 40.23600
C  11.49700 50.26900 41.35700
C  9.05000 48.81500 38.70500
C  8.31200 49.54800 37.57000
H  7.70600 48.72700 36.46900
N  9.05500 54.73700 40.90800
C  10.21900 54.28200 40.32600
C  11.10100 55.42200 40.17200
C  10.40000 56.58200 40.48100
C  9.02100 56.11000 40.76300
C  12.51300 55.25200 39.58200
C  10.92300 58.04300 40.30200
O  12.08100 58.17400 39.99500
C  10.00100 59.21400 40.49600
N  6.17600 55.20800 41.24800
C  6.56900 56.47300 41.11700
C  5.42600 57.49600 41.18300
C  4.25200 56.57500 41.74900
C  4.93500 55.15400 41.79600
C  5.70700 58.66000 42.22700
C  2.92400 56.55300 40.99700
C  2.87000 55.99300 39.57100
N  5.85500 52.27100 41.75900
C  4.59700 52.65300 42.10900
C  3.79900 51.47200 42.30700
C  4.63300 50.40600 41.95500
C  5.88400 50.97700 41.55800
C  2.35200 51.43100 42.46900
C  4.73000 48.97900 41.78900
O  3.88600 48.12800 41.93000
C  6.12100 48.61500 41.23900
C  5.87100 47.95100 39.88800
O  5.23900 48.53500 39.01400
O  6.28100 46.62500 39.84700
C  5.86900 45.82200 38.68900
H  11.55600 52.76900 39.82600
H  7.84200 57.91900 40.53000
H  3.17600 54.10400 42.59600
H  9.43800 48.61100 40.73300
H  11.08300 50.32900 39.30800
H  12.45100 49.92400 40.95900
H  11.22000 49.40300 41.95900
H  11.46500 51.22600 41.87800
H  8.55300 47.88200 38.97100
H  10.05300 48.58500 38.34600
H  9.00700 50.21100 37.05500
H  7.52000 50.13100 38.04000
H  13.06500 54.33600 39.79100
H  13.24900 55.92700 40.01900
H  12.53400 55.61100 38.55300
H  9.28200 59.34100 39.68700
H  10.69000 60.01600 40.76000
H  9.56900 59.07500 41.48700
H  5.21900 57.82200 40.16400
H  4.04500 56.88800 42.77200
H  6.69000 59.06500 41.99000
H  5.60900 58.23300 43.22500
H  5.06500 59.54000 42.19800
H  2.55200 57.57500 41.06400
H  2.24700 55.96800 41.61900
H  3.81800 55.59500 39.21100
H  2.53600 56.74700 38.85800
H  2.13900 55.18500 39.60100
H  1.82600 51.97800 41.68700
H  1.97700 51.78100 43.43100
H  2.11800 50.37900 42.30800
H  6.80600 48.05400 41.87500
H  6.70600 45.26100 38.27500
H  5.43200 46.41500 37.88500
H  5.18100 44.99900 38.88000

