158

Mg 44.25300 5.06400 48.88400
C  42.41900 8.05700 48.09600
C  41.52500 3.19000 47.83900
C  46.19600 2.42500 48.68500
C  47.15300 7.13200 49.04200
N  42.29200 5.56400 47.94600
C  41.70800 6.83200 47.76900
C  40.27900 6.65300 47.32700
C  39.99500 5.11800 47.47900
C  41.37700 4.57900 47.71700
C  39.04900 4.90400 48.68900
C  40.02700 7.07200 45.82500
C  38.56500 7.37600 45.47900
H  38.14300 7.09100 44.03200
N  43.86900 3.04500 48.59000
C  42.67800 2.41800 48.19000
C  42.85100 0.99400 48.23700
C  44.23400 0.73900 48.43600
C  44.84200 2.07900 48.67500
C  41.79900 0.06800 47.67900
C  44.95200 -0.62000 48.48000
O  44.42000 -1.73000 48.31600
C  46.38000 -0.65600 48.83500
N  46.37300 4.81900 48.88200
C  46.90000 3.60200 48.87300
C  48.41100 3.63400 48.92700
C  48.72500 5.16200 49.08400
C  47.31600 5.75500 49.03900
C  48.91900 2.62500 50.05600
C  49.77700 5.63100 48.06500
C  51.32400 5.28900 48.35800
N  44.72300 7.14800 48.83600
C  45.94400 7.83000 48.91700
C  45.69500 9.29100 48.94400
C  44.29400 9.38400 48.66200
C  43.79500 8.06800 48.51900
C  46.69500 10.38500 49.03600
C  43.20900 10.35400 48.32300
O  43.33300 11.54800 48.38500
C  42.01300 9.51800 47.82200
C  40.81900 9.76000 48.67800
O  40.76700 9.62600 49.88700
O  39.77100 10.15700 47.79300
C  38.47900 10.39100 48.44000
H  40.56000 2.73000 47.61000
H  46.94300 1.65500 48.48300
H  48.05200 7.69300 49.30400
H  39.67300 7.31500 47.94600
H  39.49900 4.70100 46.60200
H  38.31400 5.70400 48.78300
H  39.62200 4.94600 49.61500
H  38.68600 3.87700 48.69900
H  40.38000 6.31100 45.12800
H  40.62000 7.97600 45.69400
H  38.34700 8.41200 45.73800
H  37.99400 6.74600 46.16200
H  41.72900 -0.72700 48.42200
H  42.04500 -0.46000 46.75800
H  40.87600 0.59400 47.43700
H  46.65800 -1.68000 49.08600
H  46.55000 -0.10900 49.76300
H  47.00800 -0.24900 48.04300
H  48.68000 3.20900 47.96000
H  49.05900 5.19500 50.12100
H  49.64800 3.18400 50.64300
H  49.33900 1.78200 49.50800
H  48.13400 2.28100 50.73000
H  49.71800 6.71400 47.95700
H  49.50300 5.27900 47.07000
H  51.76800 5.02100 47.39900
H  51.47200 4.62300 49.20800
H  51.73100 6.26600 48.61900
H  47.31000 10.21600 48.15200
H  47.37800 10.27100 49.87800
H  46.31100 11.40500 49.00300
H  41.85500 9.55800 46.74400
H  37.89300 11.04100 47.79000
H  38.48900 10.78900 49.45400
H  37.98200 9.42500 48.53100
Mg 9.71400 47.67900 25.69600
C  7.88600 48.04300 28.65800
C  12.39000 49.06000 27.35200
C  11.40900 47.33400 22.88900
C  6.86600 46.70300 24.08300
N  10.10200 48.38600 27.83100
C  9.24400 48.35300 28.92000
C  9.95000 48.84200 30.26200
C  11.24100 49.39900 29.64700
C  11.28800 48.84900 28.19800
C  11.28300 50.95800 29.68500
C  10.22200 47.63400 31.28500
C  9.56400 47.84700 32.71700
H  9.17900 46.67000 33.60800
N  11.65200 48.11900 25.15000
C  12.59300 48.67500 25.98600
C  13.86700 48.82800 25.28900
C  13.61400 48.28200 23.95700
C  12.20100 47.85300 23.94600
C  15.14200 49.24400 25.94000
C  14.57500 48.17500 22.80900
O  14.35200 47.77500 21.64100
C  15.98900 48.70300 22.99400
N  9.14500 47.16500 23.77500
C  10.08500 46.99100 22.74600
C  9.47800 46.45000 21.46900
C  8.09100 46.02600 21.94200
C  8.01300 46.59300 23.37900
C  9.58400 47.60300 20.43900
C  7.92600 44.47600 22.13500
C  8.87600 43.62300 23.00000
N  7.79100 47.44900 26.23000
C  6.66700 47.09900 25.42500
C  5.44300 47.28600 26.16300
C  5.88100 47.58600 27.47900
C  7.32700 47.73300 27.47300
C  4.01300 47.08700 25.71500
C  5.46500 47.88700 28.89600
O  4.35800 47.93100 29.33600
C  6.71900 48.18600 29.66000
C  6.67100 47.15900 30.71800
O  7.24300 46.02700 30.60500
O  5.98500 47.64200 31.81000
C  5.41500 46.64500 32.65100
H  13.23300 49.51500 27.87600
H  11.92300 47.19600 21.93500
H  5.95800 46.35700 23.58400
H  9.35800 49.60400 30.76800
H  12.10500 49.04400 30.20800
H  10.38100 51.27600 30.20900
H  11.24900 51.29600 28.65000
H  12.19300 51.29900 30.17900
H  11.27800 47.54400 31.53700
H  9.89700 46.71200 30.80300
H  8.60100 48.32500 32.53400
H  10.33500 48.52300 33.08800
H  15.86400 48.44600 26.11400
H  14.94100 49.50000 26.98000
H  15.75100 50.01900 25.47500
H  15.92000 49.75900 23.25600
H  16.64400 48.59700 22.12900
H  16.47200 48.16900 23.81300
H  10.07300 45.59000 21.16100
H  7.30500 46.49100 21.34800
H  10.15800 48.41300 20.88900
H  8.54800 47.82800 20.18700
H  10.10300 47.18200 19.57700
H  8.23100 44.04900 21.17900
H  6.87900 44.20000 22.26300
H  9.42900 42.90400 22.39600
H  8.31700 43.11100 23.78300
H  9.67400 44.17200 23.50000
H  3.39300 47.97500 25.58900
H  3.48200 46.58500 26.52400
H  4.09200 46.38400 24.88600
H  6.69400 49.17800 30.10900
H  4.86000 47.04400 33.49900
H  6.27000 46.12100 33.07800
H  4.79500 45.96900 32.06300

