158

Mg 16.55000 -2.37900 28.78000
C  15.32400 -0.00500 31.09800
C  18.76700 -3.59000 31.18400
C  18.07600 -3.91500 26.39000
C  14.67700 -0.62200 26.38000
N  16.95800 -1.77900 30.91700
C  16.32200 -0.89400 31.66500
C  16.71600 -1.04400 33.18900
C  18.08000 -1.74300 33.05300
C  17.95100 -2.44500 31.60500
C  19.32200 -0.82400 33.06400
C  15.68100 -1.87600 34.13600
C  15.34100 -1.36400 35.60800
H  16.36400 -0.51600 36.32200
N  17.98700 -3.81600 28.82300
C  18.81500 -4.13500 29.84900
C  19.68100 -5.27400 29.36400
C  19.55000 -5.35000 27.93000
C  18.48100 -4.33900 27.66300
C  20.60000 -6.07700 30.35800
C  20.25200 -6.28100 26.93600
O  19.96600 -6.28400 25.73100
C  21.33000 -7.29900 27.28800
N  16.52700 -2.11900 26.67000
C  17.20900 -2.90900 25.88500
C  17.06000 -2.54900 24.39900
C  15.74700 -1.77000 24.50000
C  15.61600 -1.47200 25.90700
C  18.35600 -1.75000 23.87400
C  14.48200 -2.36300 23.76800
C  13.84100 -1.47300 22.69500
N  15.27500 -0.65600 28.69500
C  14.54200 -0.10500 27.63400
C  13.65900 0.94500 28.14400
C  13.95800 1.07600 29.50700
C  14.99300 0.10500 29.74900
C  12.69800 1.74900 27.23800
C  13.57800 1.74100 30.72100
O  12.77200 2.67700 30.85500
C  14.52900 1.02200 31.78700
C  15.27700 2.14600 32.38800
O  15.87500 2.94500 31.69300
O  15.07600 2.35800 33.71400
C  15.70800 3.48100 34.43800
H  19.47000 -3.99100 31.91600
H  18.43500 -4.42800 25.49500
H  14.00300 -0.31000 25.58000
H  16.88600 -0.04700 33.59400
H  18.06800 -2.45600 33.87700
H  19.89000 -0.83000 32.13400
H  19.98500 -1.12700 33.87500
H  19.06400 0.21100 33.28800
H  15.95300 -2.93000 34.19500
H  14.72900 -1.94200 33.60800
H  15.09900 -2.19600 36.27000
H  14.42100 -0.78100 35.56300
H  21.27900 -6.77100 29.86300
H  19.86300 -6.73000 30.82600
H  21.02100 -5.36500 31.06700
H  22.11200 -6.78900 27.85000
H  21.77700 -7.65800 26.36000
H  20.90600 -8.12400 27.85900
H  16.91400 -3.48400 23.85700
H  15.83500 -0.80400 24.00300
H  18.85700 -1.29700 24.72900
H  18.07100 -0.91100 23.23800
H  19.07700 -2.37100 23.34100
H  13.80500 -2.73900 24.53500
H  14.80200 -3.30600 23.32500
H  13.08500 -2.10800 22.23300
H  14.66500 -1.07500 22.10300
H  13.15000 -0.80300 23.20700
H  12.27800 0.93800 26.64300
H  13.30900 2.38500 26.59700
H  11.91200 2.24000 27.81200
H  13.72000 0.59100 32.37800
H  15.94000 4.31500 33.77600
H  16.64300 3.12400 34.87000
H  14.97900 3.89300 35.13500
Mg 6.75300 54.55000 41.75100
C  4.60700 51.72200 41.68000
C  9.25300 52.47400 40.50000
C  8.73700 57.23900 41.54100
C  4.11500 56.42900 42.99900
N  6.78700 52.40800 40.99200
C  5.83700 51.48100 41.08700
C  6.41500 50.06700 40.53000
C  8.00900 50.38300 40.49600
C  8.02700 51.83900 40.81800
C  8.81300 49.60600 41.45900
C  5.85600 49.73400 39.08300
C  5.25100 48.27500 38.87700
H  5.44300 47.64400 37.52100
N  8.67100 54.91500 40.91400
C  9.53800 53.91600 40.49500
C  10.83500 54.51300 40.03300
C  10.70500 55.87900 40.32400
C  9.36100 56.06900 40.95700
C  11.97700 53.72100 39.52300
C  11.72000 56.92000 40.10500
O  12.82500 56.62600 39.63100
C  11.43600 58.31600 40.32300
N  6.37900 56.66700 42.02000
C  7.44300 57.47400 42.02400
C  6.98700 58.88300 42.40400
C  5.53000 58.64600 43.04400
C  5.25800 57.23300 42.60300
C  7.95200 59.82100 43.28300
C  4.46300 59.74400 42.71000
C  3.84100 60.41500 43.97800
N  4.76600 54.26400 42.18400
C  3.76400 55.11300 42.70400
C  2.54300 54.39600 42.92100
C  2.88200 53.08100 42.61400
C  4.13900 53.04800 42.09600
C  1.21000 54.97200 43.30400
C  2.37900 51.67300 42.66200
O  1.35400 51.16200 43.17900
C  3.50100 50.84800 42.01800
C  3.01700 50.13000 40.85200
O  2.64200 50.64700 39.83800
O  2.76700 48.80500 41.11000
C  1.63800 48.22300 40.41700
H  10.08900 51.79600 40.31800
H  9.42300 58.08900 41.57200
H  3.31000 57.02200 43.43800
H  6.16300 49.39200 41.34800
H  8.35000 50.29600 39.46400
H  9.47600 48.90300 40.95500
H  8.21100 49.03000 42.16200
H  9.47100 50.29700 41.98600
H  6.62600 49.82500 38.31700
H  4.98200 50.36900 38.94000
H  4.20900 48.21400 39.19000
H  5.85600 47.68600 39.56600
H  12.61800 54.37800 38.93500
H  11.71400 52.81500 38.97600
H  12.54200 53.46200 40.41800
H  12.30400 58.89000 39.99800
H  11.54400 58.35000 41.40700
H  10.61200 58.92100 39.94400
H  6.80600 59.37600 41.44900
H  5.59500 58.60700 44.13100
H  8.83200 59.19700 43.43800
H  7.63000 60.06000 44.29600
H  8.27400 60.74200 42.79800
H  3.66700 59.37200 42.06600
H  4.89300 60.54200 42.10400
H  4.04000 61.48600 44.00600
H  4.37600 60.03500 44.84900
H  2.75500 60.33900 44.03300
H  0.57200 54.38800 43.96600
H  0.58300 55.20400 42.44300
H  1.33800 55.90300 43.85500
H  3.94300 50.11100 42.68900
H  1.85100 47.97500 39.37700
H  0.71800 48.80400 40.35000
H  1.35300 47.26300 40.84700

