158

Mg -1.56700 17.96700 26.39400
C  -2.33400 15.76500 29.12800
C  -2.23800 20.64300 28.49800
C  -1.46200 20.02400 23.67300
C  -1.68500 15.22900 24.26100
N  -2.12500 18.19800 28.59900
C  -2.21000 17.13300 29.47800
C  -2.37900 17.72000 30.92700
C  -2.61300 19.22100 30.68900
C  -2.34200 19.38500 29.18700
C  -4.14600 19.61800 30.98300
C  -1.32100 17.35900 32.01500
C  -1.44000 18.11100 33.33200
H  -0.99900 17.34000 34.60600
N  -1.68400 19.98600 26.10700
C  -1.99100 20.91500 27.10800
C  -2.01900 22.26300 26.51100
C  -1.79500 22.09300 25.08500
C  -1.58300 20.66700 24.90700
C  -2.39500 23.53100 27.25700
C  -1.82000 23.19700 23.93300
O  -1.62200 22.87800 22.75700
C  -2.14000 24.57700 24.25900
N  -1.56200 17.64800 24.29100
C  -1.34200 18.65500 23.37300
C  -1.29200 18.15600 21.92100
C  -1.18100 16.62400 22.18200
C  -1.50200 16.43400 23.65300
C  -2.56400 18.48400 21.06100
C  0.20000 16.05200 21.79100
C  1.51200 16.76000 22.25000
N  -1.97100 15.91800 26.56100
C  -1.92000 14.91200 25.60700
C  -2.28000 13.60500 26.23300
C  -2.47300 13.90000 27.61300
C  -2.27500 15.32600 27.74800
C  -2.33900 12.33200 25.48200
C  -2.69700 13.26900 28.83600
O  -2.81500 12.06300 29.12800
C  -2.51200 14.50200 29.98400
C  -1.25300 14.17800 30.73900
O  -0.19500 14.22600 30.33800
O  -1.66300 13.55400 31.88300
C  -0.67500 12.87800 32.68200
H  -2.45800 21.54200 29.07700
H  -1.32600 20.62600 22.77200
H  -1.70200 14.32100 23.65300
H  -3.26800 17.16800 31.23200
H  -1.94000 19.80200 31.31800
H  -4.75300 18.72600 31.13900
H  -4.56200 20.13600 30.11900
H  -4.18400 20.33000 31.80800
H  -0.37100 17.58400 31.53000
H  -1.40800 16.30100 32.26400
H  -2.50500 18.31100 33.44800
H  -0.90300 19.04300 33.15500
H  -3.35400 23.91300 26.90700
H  -1.64800 24.30600 27.08500
H  -2.48800 23.33900 28.32600
H  -3.19500 24.63100 24.52900
H  -1.87600 25.15500 23.37300
H  -1.47900 24.93400 25.04900
H  -0.38000 18.47300 21.41500
H  -2.01700 16.17100 21.64900
H  -3.29800 17.68300 20.97300
H  -2.27600 18.74400 20.04200
H  -3.05500 19.37100 21.46100
H  0.18300 16.03400 20.70100
H  0.20900 14.99900 22.07400
H  1.53800 17.71200 22.78000
H  2.15900 16.92700 21.38900
H  2.03200 15.99800 22.83100
H  -2.80100 12.54800 24.51800
H  -2.98200 11.69200 26.08700
H  -1.33400 11.91000 25.49700
H  -3.39700 14.46400 30.61900
H  0.13200 12.53300 32.03500
H  -1.15500 11.96900 33.04300
H  -0.29600 13.51200 33.48400
Mg 46.69600 15.82800 28.42800
C  44.93100 15.23700 31.40400
C  49.01500 17.67500 30.23700
C  48.19500 16.94600 25.51000
C  44.07400 14.48000 26.52800
N  46.88100 16.39300 30.56300
C  46.09200 16.02400 31.60500
C  46.61300 16.55400 32.95100
C  47.77800 17.44900 32.53500
C  47.91900 17.13700 31.02100
C  47.59200 19.00900 32.90000
C  46.98200 15.47600 33.99800
C  46.24100 15.44000 35.32700
H  45.98600 16.75300 35.99500
N  48.39400 17.06400 27.96000
C  49.26600 17.61200 28.88100
C  50.36000 18.26200 28.22500
C  50.14600 18.13800 26.80800
C  48.90200 17.33200 26.69000
C  51.55600 18.71400 29.03500
C  50.98200 18.69300 25.70900
O  50.73800 18.40200 24.52100
C  52.15600 19.54800 25.98700
N  46.22700 15.63800 26.30600
C  46.94400 16.24500 25.30700
C  46.36100 15.90800 23.88600
C  45.18100 14.93500 24.29100
C  45.12900 15.03000 25.79500
C  45.88600 17.20800 23.15400
C  45.21300 13.44800 23.84100
C  46.53900 12.81500 24.12500
N  44.89200 14.91600 28.86000
C  43.91300 14.39200 27.99300
C  42.83200 13.84700 28.77000
C  43.24700 14.10100 30.12900
C  44.46700 14.80000 30.17400
C  41.54200 13.15900 28.31800
C  42.78800 13.93900 31.43900
O  41.72200 13.51700 31.86800
C  43.86400 14.57800 32.33800
C  43.16300 15.56800 33.22700
O  43.05400 16.80100 32.99900
O  42.69400 14.95200 34.35400
C  42.08900 15.85200 35.29900
H  49.67400 18.18900 30.94100
H  48.50100 17.31900 24.53000
H  43.26400 13.94400 26.02800
H  45.88700 17.28200 33.31300
H  48.73800 17.25600 33.01400
H  46.57900 19.26700 33.20900
H  47.73800 19.66300 32.04100
H  48.29300 19.33700 33.66700
H  48.04400 15.50200 34.24300
H  46.83000 14.52200 33.49400
H  46.86500 14.88200 36.02600
H  45.24800 14.99200 35.35200
H  51.71700 19.79200 29.02300
H  52.33300 18.14200 28.52700
H  51.53200 18.37900 30.07100
H  53.00300 18.88300 26.15600
H  51.79600 20.05800 26.88000
H  52.45900 20.23400 25.19600
H  47.13600 15.43300 23.28500
H  44.24500 15.22200 23.81100
H  46.61600 17.56100 22.42600
H  45.71000 18.02900 23.84900
H  45.11600 16.98800 22.41400
H  44.92400 13.35600 22.79400
H  44.42500 12.87800 24.33200
H  47.29900 13.54900 24.39400
H  46.74900 12.31200 23.18100
H  46.46700 12.06300 24.91000
H  41.29100 13.48600 27.30900
H  40.72900 13.49900 28.96000
H  41.64100 12.07300 28.32000
H  44.41900 13.81400 32.88200
H  42.00100 15.43800 36.30400
H  41.12300 16.24600 34.98500
H  42.72600 16.69200 35.57700

