158

Mg 46.35700 24.88300 29.05200
C  47.14600 26.95200 31.79600
C  45.04500 22.62000 31.20900
C  46.38800 22.61600 26.53600
C  47.87400 27.28300 26.99800
N  46.13700 24.76700 31.25300
C  46.38800 25.85700 32.15300
C  45.80000 25.49700 33.55900
C  45.17000 24.10700 33.42300
C  45.45400 23.76400 31.89200
C  45.81700 23.00100 34.25300
C  44.88200 26.58400 34.17500
C  45.15800 26.95400 35.65400
H  43.96600 27.10000 36.58000
N  45.74800 22.88300 28.91200
C  45.20400 22.16700 29.89100
C  44.88100 20.87800 29.34800
C  45.40700 20.73700 28.06200
C  45.95600 22.08000 27.78900
C  44.14000 19.87100 30.10700
C  45.33800 19.60500 27.04900
O  46.00500 19.70500 26.06800
C  44.73600 18.30000 27.41500
N  47.08700 24.95100 27.11400
C  46.81100 23.92400 26.20800
C  47.15800 24.35300 24.78800
C  47.45400 25.87400 24.96000
C  47.53100 26.07200 26.45000
C  48.20400 23.46500 23.97300
C  46.41100 26.83000 24.27900
C  45.06000 26.85900 24.92700
N  47.26400 26.72900 29.29400
C  47.88800 27.55400 28.34500
C  48.29600 28.82800 28.92800
C  48.01100 28.53500 30.26500
C  47.52900 27.26700 30.45300
C  48.87500 30.16800 28.34400
C  48.13200 29.15500 31.54900
O  48.53500 30.25200 31.91400
C  47.57500 28.11900 32.60100
C  48.70500 27.75100 33.47900
O  49.66400 27.12000 33.13300
O  48.42200 28.13900 34.74100
C  49.38800 27.67400 35.78400
H  44.46000 22.00300 31.89300
H  46.28900 22.05000 25.60700
H  48.34700 28.05300 26.38400
H  46.63900 25.35900 34.24100
H  44.11100 24.16100 33.67400
H  45.23200 22.09100 34.11600
H  45.82400 23.19600 35.32500
H  46.81600 22.76900 33.88400
H  43.85000 26.28000 33.99700
H  44.94100 27.45300 33.52100
H  45.69100 27.90400 35.65800
H  45.95200 26.31900 36.04700
H  44.78900 19.02200 30.32000
H  43.31500 19.47400 29.51500
H  43.78800 20.22600 31.07600
H  45.20400 17.95700 28.33800
H  44.86500 17.54400 26.64100
H  43.67500 18.54800 27.45200
H  46.18400 24.26100 24.30600
H  48.45200 26.15600 24.62600
H  48.54900 22.61200 24.55700
H  49.11900 23.96900 23.66000
H  47.83700 22.94500 23.08800
H  46.29100 26.47300 23.25600
H  46.90500 27.80100 24.32500
H  44.92800 25.92800 25.47800
H  44.40400 26.93900 24.06000
H  45.01900 27.73500 25.57300
H  49.24100 29.83700 27.37200
H  49.58600 30.47700 29.11000
H  48.00100 30.81900 28.35800
H  46.73200 28.48700 33.18600
H  50.39400 27.75200 35.37100
H  49.07700 26.72100 36.21100
H  49.38500 28.36100 36.63000
Mg 6.91100 56.87600 41.37800
C  6.45200 53.27900 41.27900
C  9.91100 56.34700 39.70300
C  6.83300 60.03600 40.55600
C  3.66800 57.13800 42.80300
N  8.08800 55.00300 40.53200
C  7.70500 53.67700 40.65200
C  8.80500 52.81600 40.03300
C  10.06300 53.73000 40.02700
C  9.37000 55.12600 40.13700
C  10.93800 53.56400 41.26700
C  8.41000 52.33200 38.62600
C  8.63100 50.77400 38.28300
H  7.45800 50.10800 37.49500
N  8.22800 58.05800 40.36000
C  9.41600 57.64100 39.75700
C  10.03100 58.86200 39.21000
C  9.27900 59.95100 39.48700
C  7.99100 59.37800 40.09200
C  11.36700 58.80800 38.58800
C  9.59200 61.39500 39.25300
O  10.65900 61.65000 38.67100
C  8.77800 62.63900 39.70200
N  5.42900 58.31500 41.55500
C  5.71900 59.58500 41.23300
C  4.60200 60.54500 41.61800
C  3.54900 59.63900 42.29800
C  4.28000 58.30600 42.25300
C  4.88600 61.81000 42.47000
C  2.12000 59.59200 41.67800
C  0.95700 60.17200 42.57200
N  5.40900 55.46400 42.08900
C  4.22900 55.80800 42.74300
C  3.67000 54.54800 43.24900
C  4.47900 53.51100 42.67700
C  5.43400 54.14200 41.90900
C  2.47100 54.38300 44.10800
C  4.69700 52.06200 42.55200
O  4.13400 51.12700 43.08100
C  5.91200 51.89800 41.57100
C  5.43700 51.28000 40.31100
O  5.16300 51.85900 39.24400
O  5.38200 49.98800 40.56900
C  4.49600 49.17600 39.63800
H  10.89000 56.17900 39.24700
H  6.79800 61.12400 40.46500
H  2.73800 57.17000 43.37500
H  9.04600 51.96100 40.66500
H  10.63400 53.57900 39.11100
H  10.75000 54.18200 42.14400
H  11.90400 53.93000 40.91800
H  10.96300 52.50900 41.53900
H  8.99300 52.91300 37.91100
H  7.36000 52.55400 38.43500
H  8.94800 50.26300 39.19200
H  9.50700 50.71800 37.63700
H  11.91100 57.86300 38.59600
H  12.04600 59.42000 39.18300
H  11.34700 59.13800 37.55000
H  8.57500 62.39000 40.74400
H  7.82900 62.67700 39.16700
H  9.38700 63.53200 39.56400
H  4.30600 60.73900 40.58700
H  3.51200 59.92700 43.34900
H  4.75400 62.67100 41.81500
H  5.91000 61.69500 42.82500
H  4.17700 61.93600 43.28800
H  1.95400 58.52900 41.50400
H  2.21900 60.14000 40.74000
H  0.33300 60.86200 42.00300
H  1.34300 60.68200 43.45500
H  0.39800 59.32900 42.97700
H  1.56100 54.50100 43.51900
H  2.46200 54.96700 45.02800
H  2.46300 53.40300 44.58500
H  6.77800 51.34800 41.94000
H  3.48100 49.06300 40.02000
H  4.82900 48.13900 39.68100
H  4.42400 49.67700 38.67200

