158

Mg 24.92200 -5.49600 45.69400
C  26.84600 -2.82800 44.01300
C  22.38400 -4.86600 43.60700
C  23.66700 -8.19400 46.81300
C  28.01900 -6.16500 47.30000
N  24.77100 -4.13900 43.83000
C  25.57300 -3.09000 43.42700
C  24.87400 -2.38400 42.27500
C  23.38800 -2.85600 42.38700
C  23.49000 -4.03800 43.32300
C  22.37900 -1.71500 42.81300
C  25.56200 -2.55100 40.90500
C  25.35700 -1.41000 39.89200
H  26.21100 -1.42400 38.62200
N  23.14300 -6.40600 45.32700
C  22.20600 -6.04000 44.38900
C  21.05400 -6.90900 44.64200
C  21.40800 -7.94800 45.55600
C  22.84300 -7.54100 45.95400
C  19.75600 -6.71300 43.84800
C  20.48100 -9.06600 46.12200
O  19.35800 -9.20700 45.73300
C  20.91800 -9.94300 47.34400
N  25.74300 -6.97000 46.84300
C  24.97500 -8.01300 47.18700
C  25.78800 -9.09200 47.90800
C  27.16400 -8.39000 48.17000
C  26.97600 -7.10400 47.36300
C  25.17100 -9.58500 49.27100
C  28.42800 -9.17800 47.69400
C  29.57300 -9.23100 48.74200
N  26.98800 -4.50100 45.94200
C  28.09300 -4.89900 46.61700
C  29.13300 -3.98800 46.44100
C  28.78300 -3.18500 45.38600
C  27.43500 -3.52100 45.14800
C  30.42800 -4.10700 47.08400
C  29.22700 -2.15200 44.44800
O  30.40400 -1.76800 44.25900
C  27.97300 -1.92400 43.45000
C  27.66600 -0.46600 43.26600
O  26.94700 0.18900 44.00900
O  28.53800 0.07800 42.32500
C  28.50500 1.53400 41.98500
H  21.45900 -4.63300 43.07600
H  23.18800 -9.14300 47.06600
H  28.92400 -6.40600 47.86200
H  24.95800 -1.35400 42.62100
H  23.09300 -3.17400 41.38700
H  21.88300 -1.52500 41.86100
H  22.79000 -0.74400 43.09000
H  21.68400 -2.11700 43.55000
H  25.10000 -3.44100 40.47700
H  26.60900 -2.78000 41.10400
H  25.70100 -0.52600 40.43000
H  24.29800 -1.25800 39.68500
H  19.38300 -7.66400 43.47000
H  19.88400 -6.10700 42.95100
H  18.97800 -6.12300 44.33200
H  20.01700 -10.33700 47.81400
H  21.33800 -9.33400 48.14500
H  21.57200 -10.76900 47.06400
H  25.86100 -9.97300 47.27000
H  27.19700 -8.05900 49.20800
H  24.16000 -9.19900 49.40600
H  25.83600 -9.42900 50.12100
H  24.98300 -10.65400 49.18000
H  28.81100 -8.78600 46.75200
H  28.09900 -10.17100 47.38700
H  29.54800 -10.18400 49.27000
H  29.33100 -8.55900 49.56500
H  30.54500 -9.05500 48.28100
H  31.05500 -3.22300 46.96300
H  30.83800 -5.01600 46.64500
H  30.26700 -4.20800 48.15700
H  28.33900 -2.15300 42.44800
H  28.04500 1.73700 41.01800
H  29.49900 1.97200 41.89100
H  28.02100 2.12900 42.75900
Mg 16.67600 -1.20800 27.47600
C  15.76300 0.96900 30.06600
C  18.91400 -2.64900 29.58300
C  18.00700 -2.71700 24.85000
C  14.71500 0.72300 25.31100
N  17.40400 -0.79500 29.58400
C  16.72500 -0.02700 30.47800
C  17.20800 -0.35300 31.89300
C  18.31000 -1.35000 31.60700
C  18.15900 -1.69200 30.19500
C  19.79200 -0.91000 32.02300
C  16.01900 -0.88300 32.77400
C  15.83900 -0.31000 34.13700
H  17.06300 0.47400 34.72300
N  18.21700 -2.56700 27.24200
C  18.99000 -3.08200 28.25600
C  19.79400 -4.22000 27.71300
C  19.56300 -4.22900 26.31900
C  18.54600 -3.16200 26.05700
C  20.60800 -5.12900 28.64300
C  20.28800 -5.10000 25.26700
O  20.18400 -4.96300 24.06700
C  21.34400 -6.13500 25.61800
N  16.43600 -1.02600 25.32800
C  17.11400 -1.75900 24.47100
C  16.80000 -1.46100 23.02800
C  15.83500 -0.23700 23.17200
C  15.56400 -0.20800 24.68400
C  18.04500 -1.14000 22.11400
C  14.51400 -0.45500 22.40300
C  14.44200 0.04100 20.99700
N  15.40600 0.42800 27.61700
C  14.74100 1.15600 26.65600
C  13.99100 2.24700 27.24800
C  14.32400 2.14800 28.61300
C  15.28800 1.06800 28.71000
C  13.09600 3.17100 26.56400
C  14.08400 2.72200 29.97400
O  13.43100 3.67400 30.34400
C  15.01000 1.93400 30.90200
C  15.88200 2.83700 31.61500
O  17.09300 3.03500 31.47600
O  15.17200 3.48100 32.64000
C  15.94500 4.47000 33.43300
H  19.54200 -3.15600 30.31800
H  18.29800 -3.22100 23.92500
H  14.24600 1.40300 24.59700
H  17.61200 0.61000 32.20600
H  18.16400 -2.31700 32.08800
H  19.76500 -0.07000 32.71700
H  20.32900 -0.81300 31.07900
H  20.27100 -1.72500 32.56600
H  16.22100 -1.94700 32.89500
H  15.15200 -0.70300 32.13800
H  15.62600 -1.04400 34.91400
H  14.89300 0.23100 34.10000
H  20.18600 -6.13200 28.57300
H  20.75400 -4.71800 29.64200
H  21.59400 -5.26600 28.19800
H  21.30400 -6.91500 24.85700
H  21.18700 -6.66700 26.55600
H  22.33500 -5.68300 25.64500
H  16.21300 -2.32300 22.71100
H  16.37200 0.64000 22.81200
H  18.93000 -1.68600 22.44500
H  18.29300 -0.08300 22.02400
H  17.78300 -1.51700 21.12500
H  13.68100 0.04100 22.90200
H  14.36700 -1.53400 22.35400
H  13.60300 0.73300 20.93300
H  14.26900 -0.83400 20.37000
H  15.33100 0.59000 20.68700
H  13.41800 4.21300 26.55100
H  12.14800 3.08200 27.09400
H  13.10500 2.83300 25.52800
H  14.35000 1.40900 31.59300
H  16.51300 3.98700 34.22800
H  15.20200 5.03100 34.00000
H  16.51500 5.15100 32.80100

