158

Mg 26.46600 0.88800 29.27200
C  28.34700 0.33900 32.06400
C  23.61700 1.04800 31.30900
C  24.70500 1.36900 26.53000
C  29.26000 -0.11300 27.23400
N  25.96000 0.57700 31.44900
C  27.01600 0.53600 32.35300
C  26.43500 0.58700 33.81900
C  24.91300 0.55200 33.56800
C  24.82300 0.77000 32.04800
C  24.07800 -0.59000 34.11300
C  26.96800 1.78900 34.60200
C  27.57600 1.51900 35.97900
H  27.04400 2.46700 37.01600
N  24.48600 1.12600 28.94100
C  23.46700 1.21200 29.85300
C  22.21100 1.47300 29.21800
C  22.46600 1.49800 27.82900
C  23.95900 1.31800 27.70400
C  20.90400 1.60700 30.01200
C  21.55900 1.63700 26.60200
O  21.86900 1.66300 25.40800
C  20.04300 1.57100 26.82300
N  26.88100 0.56200 27.10400
C  26.01100 1.00100 26.22800
C  26.62300 1.07700 24.84200
C  28.09800 0.62000 25.02000
C  28.12800 0.33400 26.51900
C  25.92000 0.31500 23.73800
C  29.12600 1.68400 24.65400
C  30.38200 1.21400 24.08700
N  28.43600 0.31100 29.58300
C  29.44400 -0.12100 28.71000
C  30.60200 -0.50500 29.42000
C  30.35600 -0.19500 30.79400
C  28.92800 0.17700 30.83300
C  31.76800 -1.14600 28.71000
C  30.78600 -0.22100 32.21800
O  31.81400 -0.58100 32.78800
C  29.47000 0.10500 33.03700
C  29.29400 -1.06700 33.95600
O  28.95500 -2.19900 33.57000
O  29.67600 -0.65000 35.18400
C  29.92100 -1.69400 36.16400
H  22.89300 1.31200 32.08200
H  24.31700 1.81900 25.61400
H  30.02500 -0.48200 26.54700
H  26.63100 -0.41300 34.20400
H  24.52800 1.50900 33.92000
H  23.49400 -0.13500 34.91300
H  24.74800 -1.26800 34.64300
H  23.48400 -1.13500 33.37900
H  26.15100 2.50800 34.66400
H  27.70800 2.29500 33.98400
H  28.65000 1.63500 35.83500
H  27.45200 0.49100 36.31800
H  20.50100 2.51200 29.55800
H  20.91200 1.89100 31.06500
H  20.34200 0.67700 29.92900
H  19.87100 0.74300 27.51100
H  19.55700 1.18700 25.92600
H  19.67000 2.47700 27.30000
H  26.55800 2.15200 24.67500
H  28.27200 -0.30400 24.46800
H  24.98800 -0.18100 24.00800
H  26.63200 -0.24300 23.13000
H  25.57000 1.10600 23.07400
H  29.41000 2.19100 25.57600
H  28.63900 2.48400 24.09600
H  30.22500 0.21900 23.67200
H  31.13500 1.03900 24.85600
H  30.75200 1.86600 23.29600
H  32.64900 -1.06000 29.34500
H  31.89900 -0.69900 27.72400
H  31.65900 -2.20000 28.45200
H  29.55000 1.01700 33.62900
H  29.73400 -2.72800 35.87500
H  29.26600 -1.49900 37.01300
H  30.94400 -1.57200 36.51900
Mg 45.15200 3.61500 47.40400
C  43.14500 6.43700 46.67100
C  42.25700 1.67600 46.83000
C  47.10500 0.90500 47.39300
C  47.88900 5.75200 47.36300
N  43.05600 3.99600 46.72600
C  42.51700 5.21200 46.56900
C  40.99200 5.13000 46.47200
C  40.65600 3.65700 46.79400
C  42.04600 3.06100 46.76700
C  40.04800 3.40900 48.17400
C  40.45800 5.52500 45.11700
C  39.50800 6.72300 44.98400
H  39.83700 7.71000 43.88300
N  44.77300 1.61900 47.03300
C  43.55000 1.06200 46.84900
C  43.70500 -0.33700 46.78400
C  45.08000 -0.60400 47.05700
C  45.76100 0.67000 47.18900
C  42.58800 -1.29000 46.65000
C  45.69300 -2.00800 47.31300
O  44.91300 -2.97200 47.39400
C  47.13100 -2.24800 47.56000
N  47.21300 3.35600 47.04400
C  47.80600 2.15200 47.43400
C  49.30700 2.35000 47.69400
C  49.48600 3.89700 47.48100
C  48.10100 4.37500 47.26300
C  49.73900 1.74300 49.08400
C  50.42200 4.30000 46.30300
C  51.65100 5.09800 46.79400
N  45.48300 5.67500 47.22000
C  46.64900 6.40800 47.24100
C  46.34000 7.83000 47.21400
C  44.97400 7.90800 47.00600
C  44.49300 6.55200 46.91900
C  47.30500 8.95600 47.09900
C  43.87400 8.85400 46.81600
O  43.77800 10.12300 46.81700
C  42.59900 7.84600 46.70800
C  41.70000 8.14600 47.86400
O  41.65100 7.59000 48.93400
O  40.72500 9.01300 47.40700
C  39.65400 9.29900 48.37700
H  41.36800 1.06300 46.66500
H  47.84800 0.12700 47.57900
H  48.79200 6.28300 47.67200
H  40.50700 5.78300 47.19700
H  39.94800 3.09000 46.19100
H  40.77000 2.89000 48.80500
H  39.27700 2.67700 47.93400
H  39.54700 4.25200 48.65000
H  40.20600 4.60900 44.58200
H  41.31700 5.70500 44.47100
H  39.51800 7.31100 45.90200
H  38.48800 6.34800 44.90700
H  41.59400 -0.93900 46.37400
H  42.62100 -1.85400 47.58200
H  42.78700 -2.09200 45.93900
H  47.26700 -3.32000 47.69800
H  47.44200 -1.65400 48.41900
H  47.76400 -1.81300 46.78700
H  49.80100 1.86900 46.85000
H  49.75800 4.27300 48.46800
H  49.97600 0.69200 48.91600
H  48.84900 1.89100 49.69600
H  50.57100 2.31000 49.50100
H  49.81900 4.88900 45.61200
H  50.64900 3.38200 45.76000
H  52.57800 4.52800 46.72600
H  51.55700 5.54800 47.78200
H  51.60900 5.89900 46.05600
H  46.88900 9.82700 47.60500
H  47.58900 9.10800 46.05800
H  48.20000 8.67300 47.65200
H  42.09000 8.07000 45.77100
H  39.74000 10.31600 48.76000
H  39.55200 8.59700 49.20500
H  38.71100 9.38700 47.83700

