158

Mg 36.59000 49.28800 24.95900
C  36.49000 47.45300 28.05400
C  35.09600 51.94300 26.67000
C  36.45700 50.84400 21.99500
C  37.73200 46.40600 23.28500
N  35.84400 49.61400 27.07300
C  36.01300 48.76400 28.15200
C  35.57600 49.50300 29.41300
C  34.83400 50.81300 28.91400
C  35.33300 50.86100 27.48500
C  33.29100 50.98900 29.01200
C  36.60300 49.69100 30.48100
C  35.97500 49.43300 31.85900
H  34.54000 49.84000 32.16800
N  35.97200 51.10200 24.51200
C  35.38700 52.07400 25.30400
C  35.11900 53.29700 24.44400
C  35.53400 52.90300 23.10300
C  36.02100 51.54500 23.12400
C  34.64800 54.67300 25.04200
C  35.33400 53.78600 21.78300
O  35.77800 53.39900 20.70600
C  34.81400 55.21000 21.85900
N  36.96000 48.68800 22.94000
C  36.81100 49.53000 21.88700
C  37.22000 48.90400 20.51500
C  37.79000 47.53600 21.08000
C  37.53300 47.59100 22.53800
C  36.07300 48.77500 19.45700
C  39.33700 47.22400 20.73200
C  40.43500 47.93100 21.59300
N  36.97800 47.31000 25.44100
C  37.50200 46.23400 24.67600
C  37.64800 45.07500 25.54800
C  37.32600 45.56400 26.81000
C  36.89900 46.87300 26.75000
C  38.04200 43.73000 25.07700
C  37.22300 45.17400 28.21600
O  37.47000 44.10500 28.82100
C  36.64900 46.38100 29.10200
C  35.38700 45.90600 29.78800
O  34.27100 45.84300 29.22400
O  35.61800 45.66600 31.11900
C  34.47700 45.32000 32.00900
H  34.89400 52.89200 27.17000
H  36.60900 51.28500 21.00800
H  38.25400 45.65500 22.68900
H  34.79600 48.86000 29.81800
H  35.17300 51.58600 29.60400
H  32.76700 50.15700 29.48300
H  32.95300 51.03800 27.97700
H  32.90700 51.85700 29.54800
H  36.81300 50.75800 30.55400
H  37.50200 49.07800 30.40600
H  36.60400 49.93900 32.59200
H  36.08700 48.37000 32.07500
H  35.41500 55.42900 25.21300
H  34.19400 54.48200 26.01400
H  33.84900 54.93000 24.34600
H  33.72800 55.12900 21.88900
H  35.21100 55.57000 20.91000
H  35.25700 55.87500 22.60200
H  38.04400 49.51100 20.14300
H  37.26000 46.65000 20.73100
H  35.97700 47.78900 19.00300
H  36.36200 49.38900 18.60400
H  35.11200 49.11400 19.84400
H  39.47600 47.56800 19.70700
H  39.57900 46.16900 20.85500
H  40.04700 48.79500 22.13300
H  41.40900 48.02400 21.11300
H  40.62100 47.16400 22.34400
H  38.75800 43.95700 24.28700
H  37.19300 43.12100 24.76900
H  38.61900 43.21700 25.84700
H  37.43500 46.71200 29.78100
H  34.81700 45.10000 33.02100
H  34.03700 44.37800 31.68100
H  33.90900 46.25000 31.97600
Mg 17.39600 52.67100 26.33100
C  19.40400 50.98000 28.59200
C  15.10300 53.19900 29.05300
C  15.03000 54.10300 24.26600
C  19.25900 51.43100 23.66500
N  17.36100 52.18000 28.55000
C  18.42400 51.63100 29.23700
C  18.14400 51.58600 30.76600
C  16.54800 51.86900 30.79600
C  16.31400 52.56800 29.40400
C  15.62000 50.69200 31.03500
C  18.96400 52.66700 31.54000
C  19.13600 52.41500 33.02100
H  17.99500 51.69400 33.66500
N  15.32200 53.58300 26.55800
C  14.67500 53.75800 27.73800
C  13.33100 54.24500 27.39500
C  13.32400 54.66300 26.07800
C  14.57500 54.08800 25.56300
C  12.26400 54.24500 28.41000
C  12.23400 55.36900 25.23400
O  12.30100 55.63200 24.06400
C  10.97100 55.73300 25.99400
N  17.16100 52.81600 24.29400
C  16.21800 53.55300 23.65800
C  16.37500 53.40300 22.10000
C  17.73700 52.72300 21.98100
C  18.04200 52.19100 23.41500
C  15.21800 52.66800 21.34100
C  18.85400 53.67600 21.24600
C  19.27900 54.85100 22.09200
N  19.09400 51.58400 26.11000
C  19.76900 51.13000 24.95200
C  20.96000 50.38600 25.38400
C  20.86700 50.34900 26.80600
C  19.67800 50.97700 27.20000
C  22.04400 49.85800 24.47300
C  21.53900 49.93500 28.03200
O  22.57100 49.29000 28.04400
C  20.69300 50.35700 29.22100
C  20.35400 49.29600 30.15500
O  19.72300 48.27100 29.91200
O  20.94000 49.56900 31.37200
C  20.66100 48.54000 32.41500
H  14.47400 53.46000 29.90700
H  14.35200 54.63200 23.59400
H  19.74600 50.94800 22.81500
H  18.21700 50.55900 31.12500
H  16.30500 52.62800 31.53900
H  14.88500 50.61300 30.23400
H  15.02700 50.76000 31.94800
H  16.12700 49.74100 30.87700
H  18.56700 53.67400 31.41100
H  19.95100 52.64600 31.07900
H  19.25800 53.35800 33.55400
H  20.01400 51.77400 33.10100
H  11.96100 55.21100 28.81200
H  12.47200 53.64500 29.29600
H  11.42300 53.71200 27.96500
H  11.19900 56.37600 26.84400
H  10.43400 54.81800 26.24600
H  10.40300 56.26800 25.23400
H  16.41900 54.43000 21.73600
H  17.73100 51.83000 21.35500
H  15.52000 51.88100 20.65000
H  14.47200 53.27500 20.82900
H  14.64400 52.22500 22.15500
H  18.50700 53.91600 20.24100
H  19.65900 52.95500 21.09900
H  18.93400 55.71500 21.52300
H  20.35500 54.77400 22.24700
H  18.72300 54.80600 23.02800
H  22.03900 48.79800 24.72500
H  22.98300 50.38300 24.64700
H  21.67700 49.88200 23.44700
H  21.22700 51.11600 29.79300
H  20.85000 47.51500 32.09900
H  19.57800 48.62900 32.50400
H  21.09800 48.65700 33.40700

