158

Mg 48.76000 34.62400 25.76700
C  46.78100 33.24200 28.27300
C  48.96900 37.48600 27.63000
C  50.40300 36.01500 23.27600
C  48.15200 31.72900 23.90300
N  47.92100 35.29300 27.73400
C  47.25900 34.52500 28.59500
C  47.11100 35.22600 29.98000
C  47.54400 36.68100 29.59800
C  48.13800 36.55700 28.20100
C  46.41100 37.78300 29.67300
C  48.13800 34.60000 31.04400
C  47.70400 34.41100 32.42400
H  46.49600 35.24900 32.92000
N  49.75600 36.44900 25.56200
C  49.69400 37.54700 26.38000
C  50.61000 38.55900 25.90900
C  51.10100 38.08200 24.68900
C  50.36500 36.81300 24.44900
C  51.00200 39.74700 26.83400
C  52.28100 38.52200 23.88400
O  52.72000 37.85300 23.02800
C  52.81800 39.89200 24.18800
N  49.22200 33.98600 23.83500
C  49.80800 34.76200 22.95600
C  50.16400 33.96100 21.66200
C  49.51600 32.53700 21.91200
C  48.89300 32.74600 23.33200
C  49.92600 34.65700 20.24900
C  50.44100 31.35500 21.85900
C  51.70100 31.40700 22.74400
N  47.60000 32.87900 25.89200
C  47.54400 31.73800 25.12800
C  46.64400 30.76600 25.71800
C  46.33100 31.30700 26.96800
C  46.86000 32.62100 26.97200
C  46.31700 29.48000 25.18600
C  45.72600 31.03000 28.20700
O  45.16800 30.06500 28.59200
C  46.09600 32.25400 29.09800
C  46.65000 31.70200 30.32600
O  47.78300 31.31900 30.41100
O  45.65800 31.50800 31.27300
C  46.11300 30.60600 32.32300
H  49.05300 38.38300 28.24700
H  51.06100 36.46700 22.53100
H  48.04000 30.89400 23.20800
H  46.11000 35.19700 30.41000
H  48.33400 37.05900 30.24600
H  46.16200 38.41000 28.81700
H  46.79000 38.48400 30.41700
H  45.49400 37.27200 29.96800
H  49.01800 35.24200 31.07000
H  48.47100 33.63500 30.66100
H  48.56800 34.46600 33.08700
H  47.43700 33.37100 32.61400
H  50.54700 39.82100 27.82200
H  50.70000 40.61700 26.25000
H  52.07200 39.83700 27.02100
H  53.62300 39.71300 24.90000
H  52.17700 40.66900 24.60400
H  53.24400 40.33400 23.28700
H  51.23100 33.84700 21.85600
H  48.75200 32.32500 21.16500
H  49.26500 35.51800 20.34200
H  49.52200 33.98400 19.49300
H  50.90300 34.97600 19.88600
H  50.77200 31.26200 20.82500
H  49.98300 30.37200 21.97400
H  51.74100 32.40400 23.18300
H  52.59800 31.25400 22.14400
H  51.90000 30.65400 23.50600
H  46.71100 28.71900 25.86000
H  46.78900 29.36200 24.21100
H  45.23200 29.44500 25.08500
H  45.10900 32.67800 29.28200
H  45.36200 30.72900 33.10300
H  47.01000 30.96000 32.83100
H  46.16300 29.57700 31.96700
Mg -0.30000 42.89000 26.54800
C  1.92600 43.12600 29.26100
C  -2.80900 42.66600 28.76200
C  -2.28500 42.19900 23.95100
C  2.47600 43.19300 24.30200
N  -0.40800 42.62900 28.81100
C  0.61700 42.90900 29.65200
C  0.04900 42.87500 31.12900
C  -1.48100 42.47900 30.90700
C  -1.59600 42.56900 29.41100
C  -1.86700 41.02700 31.47800
C  0.36000 44.23100 31.90100
C  1.00700 44.39700 33.33400
H  0.71400 43.24300 34.36200
N  -2.30500 42.59200 26.33700
C  -3.12700 42.61800 27.36700
C  -4.47800 42.51400 26.85400
C  -4.39500 42.16500 25.46000
C  -2.94000 42.33900 25.15100
C  -5.77100 42.83800 27.72900
C  -5.46800 41.73700 24.40700
O  -5.15600 41.46100 23.25200
C  -6.86700 41.73000 24.86800
N  0.06800 42.78900 24.35300
C  -0.93700 42.38900 23.56200
C  -0.37700 42.42400 22.06800
C  1.10400 42.88000 22.16600
C  1.22300 42.98000 23.68600
C  -0.49100 40.94600 21.58200
C  1.28900 44.19700 21.41500
C  1.97000 44.12900 20.00100
N  1.74100 43.04300 26.67500
C  2.75400 43.21200 25.74200
C  4.01500 43.41200 26.46000
C  3.73100 43.26700 27.81500
C  2.37400 43.12700 27.90500
C  5.26400 43.83700 25.72900
C  4.26800 43.43400 29.13300
O  5.44200 43.61100 29.45600
C  3.10000 43.36200 30.15300
C  3.44200 42.17900 30.97000
O  3.68600 41.02400 30.54100
O  3.71200 42.62700 32.25000
C  4.28500 41.50300 33.11100
H  -3.69500 42.57700 29.39400
H  -2.88900 42.04400 23.05400
H  3.29900 43.41100 23.61700
H  0.58900 42.04700 31.58800
H  -2.16500 43.27600 31.19700
H  -0.94900 40.53000 31.79100
H  -2.38900 40.41800 30.73900
H  -2.54300 41.05000 32.33300
H  -0.56600 44.80600 31.91500
H  1.04400 44.84900 31.32000
H  0.60300 45.31100 33.77000
H  2.08100 44.56600 33.25600
H  -6.40800 43.46900 27.10900
H  -5.68500 43.43600 28.63600
H  -6.30500 41.92400 27.98700
H  -6.85500 41.55800 25.94400
H  -7.52900 41.03800 24.34700
H  -7.36600 42.68800 24.73000
H  -1.04900 42.99900 21.43100
H  1.83200 42.12300 21.87300
H  0.23200 40.44100 22.22300
H  -0.23300 40.74100 20.54300
H  -1.41700 40.38900 21.72000
H  1.96200 44.82800 21.99500
H  0.36900 44.75300 21.23600
H  1.16900 44.39000 19.31000
H  2.35100 43.14000 19.74700
H  2.75800 44.86600 19.84500
H  5.63000 42.96200 25.19200
H  6.02300 44.27300 26.37900
H  4.84000 44.55400 25.02500
H  2.96700 44.36700 30.55300
H  4.58400 40.55100 32.67200
H  3.50200 41.23800 33.82100
H  5.08600 41.96300 33.69000

