158

Mg -2.51300 17.57900 27.16300
C  -2.70100 15.53800 30.13300
C  -3.13800 20.28500 29.23400
C  -2.88500 19.47000 24.40500
C  -3.18300 14.77600 25.30800
N  -2.82100 17.85900 29.51600
C  -2.62300 16.95800 30.47400
C  -2.58300 17.61100 31.90300
C  -2.96800 19.10900 31.58000
C  -3.04100 19.10200 30.05400
C  -4.21800 19.67400 32.18800
C  -1.18300 17.42100 32.60900
C  -1.03200 18.19600 33.98200
H  -0.70700 17.43800 35.20100
N  -2.82800 19.54300 26.83700
C  -2.95500 20.48300 27.82500
C  -2.75200 21.79000 27.23300
C  -2.56400 21.52900 25.84700
C  -2.82900 20.14600 25.65200
C  -2.81500 23.10600 28.05700
C  -2.19200 22.51600 24.67200
O  -2.23200 22.28100 23.47200
C  -1.91500 23.97500 25.02600
N  -2.95200 17.15300 25.14700
C  -3.00400 18.11200 24.17100
C  -3.13900 17.49500 22.71100
C  -3.27500 15.96900 23.02300
C  -3.12500 15.97700 24.58000
C  -4.13900 18.13300 21.76400
C  -2.31800 15.00500 22.22700
C  -1.00000 14.72300 23.00400
N  -2.80200 15.60400 27.55600
C  -2.96700 14.55500 26.70400
C  -3.01100 13.28000 27.38100
C  -2.92100 13.64400 28.72800
C  -2.77000 15.03800 28.82000
C  -3.20500 11.86200 26.85000
C  -2.99800 13.09200 30.05300
O  -3.09000 11.94200 30.45800
C  -2.93100 14.30800 31.07700
C  -1.83600 14.14700 31.97900
O  -0.65100 14.10000 31.77800
O  -2.34200 14.13700 33.24300
C  -1.45400 13.87200 34.35400
H  -3.23000 21.18800 29.84200
H  -2.77500 19.96500 23.43800
H  -3.22700 13.82800 24.76700
H  -3.42500 17.25100 32.49300
H  -2.06400 19.67100 31.81300
H  -4.20400 20.75400 32.33400
H  -4.30800 19.15700 33.14300
H  -5.12200 19.57300 31.58700
H  -0.41200 17.84300 31.96500
H  -0.92600 16.37300 32.76000
H  -1.91200 18.83400 34.06700
H  -0.14500 18.80300 33.80200
H  -1.86700 23.64200 28.02000
H  -3.07200 22.99200 29.11000
H  -3.72900 23.63500 27.78500
H  -2.86100 24.44500 25.29500
H  -1.59900 24.49300 24.12000
H  -1.07900 23.98200 25.72500
H  -2.20100 17.70500 22.19600
H  -4.27800 15.67700 22.71300
H  -4.66700 18.95400 22.25000
H  -4.86500 17.39300 21.43000
H  -3.69200 18.60300 20.88800
H  -2.10700 15.48500 21.27100
H  -2.73800 14.05600 21.89300
H  -0.65300 15.52000 23.66200
H  -0.29600 14.45300 22.21600
H  -1.10100 13.73000 23.44200
H  -2.25500 11.37600 26.62700
H  -3.66100 11.80800 25.86200
H  -3.71700 11.25700 27.59900
H  -3.80600 14.46900 31.70600
H  -1.27200 12.80000 34.42000
H  -2.00600 14.09000 35.26800
H  -0.55200 14.47400 34.24700
Mg 9.58800 47.85800 24.76400
C  7.61400 48.17200 27.63200
C  12.11500 49.44500 26.45900
C  11.46600 47.89700 21.99300
C  6.71000 47.12500 22.92700
N  9.78300 48.76100 26.82100
C  8.88000 48.66100 27.86800
C  9.51800 49.02000 29.24700
C  10.85900 49.78600 28.64600
C  10.96800 49.27800 27.24700
C  10.73900 51.31900 28.58900
C  9.84100 47.78300 30.18000
C  9.22500 47.83000 31.62400
H  9.31700 46.58300 32.53900
N  11.57000 48.39100 24.36400
C  12.48900 48.95100 25.21900
C  13.74200 48.96800 24.55800
C  13.60900 48.34900 23.27500
C  12.14800 48.14600 23.16900
C  14.96800 49.49800 25.24600
C  14.60300 48.11000 22.18100
O  14.32900 47.69900 21.03000
C  16.07800 48.29100 22.47700
N  9.14500 47.67400 22.74500
C  10.10700 47.65600 21.76500
C  9.60800 47.12900 20.42200
C  8.06900 46.80500 20.72100
C  7.92000 47.24600 22.22500
C  9.77100 48.14000 19.18700
C  7.70600 45.32400 20.47700
C  7.93400 44.35400 21.67200
N  7.54500 47.64500 25.12900
C  6.41400 47.36400 24.32100
C  5.21800 47.36700 25.09500
C  5.64300 47.55500 26.39300
C  7.02300 47.77500 26.35800
C  3.93600 46.95800 24.58400
C  5.19700 47.61000 27.76100
O  4.08300 47.41800 28.21200
C  6.45500 47.99100 28.57200
C  6.60300 46.88000 29.60500
O  7.24600 45.83100 29.39200
O  6.04100 47.18600 30.81200
C  5.84700 46.09100 31.77800
H  12.81000 49.98400 27.10700
H  12.09900 47.79200 21.11000
H  5.74200 46.90400 22.47200
H  8.88400 49.67400 29.84400
H  11.70800 49.49900 29.26500
H  10.73500 51.62400 29.63600
H  9.73500 51.62600 28.29700
H  11.54500 51.77400 28.01300
H  10.90500 47.89500 30.38700
H  9.64800 46.86400 29.62600
H  8.15700 47.86500 31.41000
H  9.47900 48.77300 32.10900
H  15.24000 50.37800 24.66300
H  15.68300 48.67700 25.29900
H  14.87700 50.03700 26.18900
H  16.73900 47.84300 21.73500
H  16.37200 47.89300 23.44800
H  16.21900 49.35800 22.65100
H  10.27400 46.30000 20.18000
H  7.39400 47.41300 20.11900
H  8.87200 48.18500 18.57300
H  10.68000 48.01100 18.60000
H  9.78300 49.15700 19.57800
H  8.21300 44.92400 19.59800
H  6.63600 45.42500 20.29300
H  8.72700 44.65700 22.35500
H  8.20200 43.36300 21.30700
H  6.98700 44.27000 22.20600
H  3.71900 47.70700 23.82200
H  3.19200 47.06600 25.37300
H  3.96500 45.92200 24.24800
H  6.20900 48.90400 29.11400
H  6.48400 46.21700 32.65300
H  6.14300 45.14600 31.32200
H  4.81100 45.95400 32.08700

