158

Mg 48.19600 33.87400 27.35100
C  46.18000 32.77600 30.00600
C  48.60800 36.89100 29.10800
C  49.28200 35.26500 24.55700
C  46.93500 31.12600 25.48000
N  47.64700 34.65200 29.40300
C  46.84100 33.99800 30.33900
C  46.81900 34.72900 31.60700
C  47.28600 36.19300 31.23300
C  47.90500 35.95700 29.81400
C  46.20700 37.30500 31.24800
C  47.88800 34.06500 32.51500
C  47.56700 34.13800 34.06400
H  48.49800 35.03800 34.97900
N  49.09600 35.78800 26.96000
C  49.20100 36.83600 27.84200
C  50.02900 37.80200 27.22800
C  50.20400 37.39200 25.85300
C  49.54600 36.09600 25.72100
C  50.63900 39.02700 27.84200
C  50.91100 38.07000 24.70000
O  50.93400 37.56000 23.56100
C  51.48300 39.47000 24.81600
N  47.95100 33.45800 25.27300
C  48.61600 34.10800 24.30800
C  48.55800 33.35300 22.99100
C  47.72500 32.09200 23.29200
C  47.57200 32.18300 24.80800
C  47.94100 34.24200 21.82800
C  48.42500 30.72700 22.81700
C  49.60400 30.35600 23.62600
N  47.12700 32.16200 27.73000
C  46.75300 31.07200 26.89800
C  46.00500 30.12300 27.54100
C  45.74900 30.81800 28.77200
C  46.42000 32.02500 28.81800
C  45.44500 28.78000 27.05800
C  44.89900 30.76500 29.92400
O  44.10600 29.88000 30.31200
C  45.15000 32.03700 30.76400
C  45.45200 31.70500 32.17400
O  46.40700 31.10100 32.63500
O  44.43400 32.23200 33.02000
C  44.41100 31.70700 34.44300
H  48.93200 37.77400 29.66300
H  49.85700 35.44500 23.64700
H  46.51500 30.30200 24.90000
H  45.83200 34.77100 32.06800
H  48.10100 36.36800 31.93600
H  45.18200 37.00900 31.47100
H  46.15700 37.71700 30.24000
H  46.46400 38.10200 31.94600
H  48.91300 34.41900 32.40900
H  48.14700 33.04900 32.21800
H  47.56700 33.11400 34.43800
H  46.57600 34.55500 34.23900
H  50.18800 39.96400 27.51500
H  51.70100 39.10600 27.61100
H  50.72000 38.88700 28.92000
H  50.81400 40.18200 25.30000
H  51.68600 39.93100 23.84900
H  52.43200 39.41500 25.35000
H  49.54400 33.07700 22.61600
H  46.74500 32.03600 22.81900
H  47.71100 35.23400 22.21600
H  46.97400 33.82500 21.54800
H  48.60600 34.37500 20.97500
H  48.84400 30.81100 21.81400
H  47.82300 29.82500 22.70800
H  50.39800 30.23200 22.89000
H  49.44600 29.40100 24.12700
H  49.87700 31.07300 24.39900
H  45.41000 28.76800 25.96800
H  44.38200 28.84300 27.29000
H  45.92700 27.92300 27.52800
H  44.15000 32.47100 30.74000
H  44.80700 30.69600 34.54000
H  43.44100 31.70700 34.93900
H  44.99300 32.34300 35.11000
Mg -0.22800 43.41000 26.24300
C  2.08100 42.83100 28.73800
C  -2.70000 42.29600 28.33400
C  -2.44300 43.65500 23.62600
C  2.37200 43.96300 23.99500
N  -0.22900 42.49800 28.26900
C  0.78400 42.58100 29.11800
C  0.26100 42.39800 30.58600
C  -1.15900 41.81600 30.36000
C  -1.41700 42.18300 28.89300
C  -1.41300 40.34400 30.59700
C  0.44700 43.71900 31.39900
C  1.07500 43.62200 32.76500
H  0.69500 42.34000 33.54400
N  -2.28400 43.07900 26.01900
C  -3.09400 42.62900 27.00000
C  -4.44800 42.69300 26.45200
C  -4.41200 43.16600 25.17700
C  -3.02800 43.27300 24.85700
C  -5.60800 42.19500 27.33500
C  -5.60000 43.50900 24.25300
O  -5.40200 43.81400 23.08900
C  -6.98000 43.50800 24.70400
N  -0.01700 43.53900 24.03200
C  -1.10500 43.83000 23.28800
C  -0.73600 44.33200 21.87300
C  0.76500 44.60800 22.00300
C  1.10400 44.00600 23.38800
C  -1.12700 43.34900 20.81800
C  1.20500 46.10500 22.00700
C  0.62900 47.06000 23.11000
N  1.87100 43.40400 26.28800
C  2.80300 43.63800 25.31600
C  4.10600 43.65400 25.93800
C  3.89800 43.34300 27.28400
C  2.54100 43.20200 27.40100
C  5.51600 43.81100 25.24500
C  4.52000 43.02500 28.55300
O  5.66300 42.77200 28.82800
C  3.31700 42.96700 29.58200
C  3.54200 41.76200 30.42400
O  3.57800 40.64300 29.95600
O  3.89100 42.17400 31.66200
C  4.45700 41.14600 32.60300
H  -3.54200 42.03600 28.97900
H  -3.12200 43.96900 22.83000
H  3.20700 44.19300 23.32900
H  0.82000 41.57500 31.03200
H  -1.75200 42.42300 31.04400
H  -2.02200 40.18700 31.48700
H  -0.42700 39.88100 30.63200
H  -1.82200 39.72500 29.79800
H  -0.54500 44.10500 31.63600
H  0.92100 44.48600 30.78700
H  0.61200 44.45500 33.29400
H  2.13800 43.77100 32.57800
H  -6.52700 41.96300 26.79700
H  -5.64800 42.87800 28.18300
H  -5.24800 41.26900 27.78300
H  -7.46600 42.53400 24.76400
H  -7.65000 44.10900 24.09000
H  -6.96400 43.98600 25.68400
H  -1.24800 45.24700 21.57600
H  1.40700 44.13000 21.26300
H  -0.38900 43.20200 20.03000
H  -2.01600 43.70500 20.29600
H  -1.37600 42.35300 21.18200
H  0.94700 46.60400 21.07300
H  2.29400 46.07400 22.03400
H  1.29500 47.36800 23.91600
H  -0.21300 46.59500 23.62000
H  0.31400 47.98300 22.62300
H  5.35000 44.73300 24.68800
H  5.97000 43.01500 24.65600
H  6.14700 44.11800 26.08000
H  3.48800 43.77600 30.29200
H  5.19300 40.53500 32.07900
H  3.69900 40.49900 33.04500
H  4.93100 41.79200 33.34200

