158

Mg 42.10800 41.29000 26.58700
C  41.54800 43.51700 29.12400
C  42.98600 38.99600 29.09500
C  42.35800 38.99100 24.27600
C  41.28200 43.68800 24.25500
N  42.37200 41.35300 28.90100
C  41.91900 42.31700 29.69500
C  42.02300 41.88900 31.12500
C  42.91600 40.59400 31.09900
C  42.73300 40.23500 29.58000
C  44.41300 40.76400 31.47700
C  40.57000 41.70100 31.81900
C  40.20500 42.64000 32.98300
H  39.82100 41.99800 34.28400
N  42.77100 39.32400 26.67800
C  43.07100 38.55300 27.77300
C  43.51900 37.26000 27.34800
C  43.22000 37.22100 25.90000
C  42.73900 38.54600 25.57600
C  44.03700 36.16200 28.29500
C  43.41400 36.07300 24.93400
O  43.30900 36.13900 23.72500
C  43.81700 34.74400 25.32800
N  42.07900 41.34800 24.45500
C  42.00900 40.26700 23.75100
C  41.67300 40.51900 22.35300
C  41.22500 41.98800 22.38900
C  41.50600 42.36700 23.79600
C  42.91600 40.19800 21.35300
C  39.73100 42.30400 21.88400
C  39.60600 43.07500 20.54400
N  41.72100 43.26800 26.60800
C  41.34500 44.16300 25.62500
C  40.74800 45.29600 26.21600
C  40.90100 45.13600 27.54300
C  41.48200 43.92700 27.77000
C  40.32100 46.54900 25.46200
C  40.65300 45.85100 28.77600
O  40.35600 47.00400 29.01600
C  41.11500 44.80400 29.86200
C  42.19300 45.30700 30.79200
O  43.36800 45.28600 30.56900
O  41.64400 45.70000 31.95100
C  42.47900 46.51900 32.80200
H  43.06900 38.21100 29.84900
H  42.41100 38.26400 23.46200
H  40.83900 44.43600 23.59500
H  42.56300 42.72800 31.56400
H  42.53100 39.85900 31.80500
H  44.76200 41.79600 31.42700
H  44.99600 40.15600 30.78600
H  44.43500 40.43700 32.51700
H  40.44200 40.69400 32.21800
H  39.78900 41.80400 31.06600
H  39.31100 43.19300 32.69600
H  40.99400 43.32200 33.29900
H  45.01500 35.78200 28.00000
H  43.36400 35.30600 28.33000
H  44.07100 36.52800 29.32200
H  44.64600 34.73000 26.03500
H  44.02500 33.94300 24.61900
H  42.91700 34.44200 25.86300
H  40.80500 39.92300 22.07100
H  42.00400 42.59000 21.92100
H  43.81500 40.15600 21.96900
H  43.04200 41.05800 20.69600
H  42.89500 39.26900 20.78300
H  39.21300 42.71200 22.75200
H  39.27100 41.36000 21.59400
H  38.93000 43.90300 20.75700
H  39.08400 42.51000 19.77100
H  40.61300 43.37100 20.25300
H  40.74100 46.60700 24.45800
H  40.65600 47.45900 25.96000
H  39.24200 46.57400 25.30800
H  40.32300 44.44000 30.51700
H  42.86900 47.30600 32.15700
H  43.23100 45.94600 33.34400
H  41.76700 47.00200 33.47200
Mg 30.18400 57.96100 41.16400
C  27.49500 56.50300 39.52300
C  32.24000 55.67600 39.75500
C  32.72700 60.08100 41.65400
C  27.92500 60.56000 41.99100
N  29.91100 56.35100 39.79500
C  28.72400 55.85000 39.33200
C  28.93700 54.54300 38.57900
C  30.41300 54.17100 39.02300
C  30.89300 55.46300 39.74600
C  30.69300 52.90600 39.85000
C  28.69300 54.68100 37.00800
C  27.73800 53.61900 36.36400
H  26.83100 54.21500 35.23300
N  32.31800 57.92400 40.77600
C  32.93600 56.81700 40.22700
C  34.32500 57.05400 40.15000
C  34.58100 58.38700 40.73500
C  33.20500 58.84500 41.07400
C  35.12100 56.06000 39.53600
C  35.88100 59.06600 40.91500
O  36.93300 58.60800 40.40600
C  35.99500 60.34900 41.60700
N  30.33200 60.01600 41.79300
C  31.47100 60.62200 42.01100
C  31.32500 62.06000 42.53500
C  29.82800 62.19900 42.82100
C  29.31700 60.83200 42.16700
C  32.28300 62.40000 43.70900
C  29.22100 63.47000 42.14200
C  27.97400 64.05900 42.84500
N  28.09600 58.28600 41.10400
C  27.33100 59.37200 41.51600
C  25.87600 59.23700 41.19800
C  25.92200 58.12800 40.30700
C  27.26400 57.60400 40.29500
C  24.79200 60.12700 41.44300
C  25.12500 57.26900 39.48500
O  23.90800 57.30000 39.19700
C  26.14800 56.15100 38.99100
C  25.76800 54.79100 39.53400
O  26.09000 54.23200 40.57000
O  25.02200 54.27100 38.56200
C  24.26000 53.02700 38.75800
H  32.83400 54.80400 39.47700
H  33.49100 60.84900 41.79000
H  27.20900 61.32300 42.30400
H  28.28800 53.78300 39.01400
H  31.03000 54.01000 38.13900
H  31.53100 52.38300 39.38900
H  29.80500 52.32700 40.10400
H  31.02800 53.24500 40.83000
H  29.64800 54.51000 36.51000
H  28.19700 55.62300 36.77200
H  27.00900 53.22400 37.07100
H  28.27100 52.78000 35.91800
H  34.76000 55.95700 38.51300
H  35.08200 55.12900 40.10200
H  36.19700 56.21700 39.46400
H  35.63500 61.09000 40.89300
H  37.03800 60.49700 41.88600
H  35.39100 60.28100 42.51200
H  31.65700 62.69400 41.71300
H  29.56600 62.20600 43.87900
H  31.88600 63.11400 44.43100
H  33.17300 62.78600 43.21300
H  32.57200 61.53200 44.30200
H  28.93600 63.36200 41.09600
H  29.92700 64.30100 42.14300
H  28.14500 65.06800 43.22200
H  27.58400 63.33800 43.56300
H  27.13400 64.05100 42.14900
H  24.72500 60.92100 40.70000
H  25.08200 60.51400 42.42000
H  23.84400 59.59100 41.39500
H  26.25500 56.11900 37.90600
H  24.83500 52.37200 39.41300
H  24.00100 52.52700 37.82500
H  23.32400 53.18700 39.29400

