158

Mg 41.24900 8.37400 29.47700
C  43.32800 9.80200 32.02800
C  39.42900 6.96700 31.67900
C  39.48100 7.36900 26.77400
C  43.69800 9.58800 27.14600
N  41.46300 8.29200 31.61500
C  42.20500 9.04300 32.49900
C  41.71200 8.87900 33.90800
C  40.68000 7.72500 33.78000
C  40.43300 7.70300 32.24300
C  41.10200 6.29800 34.34300
C  41.24200 10.22400 34.47500
C  41.13600 10.16600 36.05600
H  41.57900 11.35600 36.89600
N  39.60800 7.35400 29.25100
C  39.01900 6.78400 30.31900
C  37.90800 6.03600 29.77400
C  37.72600 6.37300 28.44000
C  38.99600 7.02800 28.06500
C  37.08600 5.15800 30.63500
C  36.67900 5.94900 27.46100
O  36.84500 6.20200 26.25400
C  35.38600 5.24100 27.75300
N  41.64700 8.24100 27.36200
C  40.68200 7.89300 26.43000
C  41.30600 7.73500 25.07600
C  42.41900 8.89200 25.13200
C  42.65300 8.86700 26.62900
C  41.85100 6.31100 24.66400
C  41.94400 10.30400 24.71800
C  42.98800 10.88800 23.76400
N  43.18100 9.36300 29.55100
C  44.01900 9.82000 28.53200
C  45.14000 10.48500 29.10800
C  44.85200 10.55500 30.43800
C  43.69100 9.88100 30.68700
C  46.24000 11.02200 28.25800
C  45.31400 11.12300 31.72200
O  46.23500 11.84800 31.96500
C  44.26700 10.72000 32.77100
C  45.00500 9.87600 33.75800
O  45.63100 8.88600 33.55200
O  44.73400 10.43900 34.99900
C  45.53000 9.81600 36.07000
H  38.78100 6.36600 32.32100
H  38.93200 7.14500 25.85700
H  44.33700 10.10000 26.42300
H  42.43000 8.45100 34.60700
H  39.74200 8.03700 34.24100
H  42.08600 6.33500 34.81100
H  41.18000 5.48200 33.62300
H  40.28800 6.00200 35.00400
H  40.21200 10.30800 34.13000
H  41.75800 11.08600 34.05200
H  41.67200 9.31500 36.47600
H  40.06500 10.04100 36.21200
H  37.83700 4.51800 31.10000
H  36.38400 4.63800 29.98300
H  36.44700 5.63400 31.37900
H  34.96500 5.46000 28.73400
H  35.62800 4.17800 27.76800
H  34.62500 5.56000 27.04100
H  40.65600 8.13000 24.29400
H  43.34300 8.56400 24.65600
H  41.55200 5.57100 25.40700
H  42.93900 6.23900 24.64100
H  41.34600 6.09600 23.72300
H  41.79100 10.96200 25.57300
H  40.99700 10.20200 24.18900
H  43.68200 10.14800 23.36600
H  43.51500 11.73800 24.19700
H  42.47200 11.24300 22.87300
H  45.85400 11.43000 27.32400
H  46.93500 10.25200 27.92400
H  46.71500 11.81100 28.84000
H  43.87200 11.65700 33.16600
H  45.30900 10.30000 37.02100
H  46.58000 9.60300 35.87000
H  45.16800 8.79200 36.16100
Mg 35.98200 48.16500 25.51900
C  36.40800 46.31000 28.61600
C  35.07300 50.86000 27.43300
C  35.19200 49.53700 22.66000
C  36.68000 45.08800 23.87500
N  35.72400 48.49300 27.77300
C  36.01500 47.66400 28.84000
C  35.86500 48.33000 30.18500
C  35.51800 49.87800 29.78800
C  35.41500 49.73800 28.25700
C  34.06300 50.27300 30.35000
C  37.18100 48.29400 31.01400
C  36.96300 47.67600 32.43700
H  35.64900 47.76600 33.29800
N  35.40800 50.05000 25.12400
C  35.04500 51.04400 26.02300
C  34.76000 52.24700 25.27100
C  34.79500 51.89500 23.88400
C  35.13600 50.37500 23.79400
C  34.39700 53.45400 25.99800
C  34.41400 52.73300 22.69100
O  34.52300 52.29000 21.58800
C  34.12500 54.25800 22.84700
N  35.98700 47.41700 23.63100
C  35.54400 48.20800 22.64800
C  35.50800 47.43300 21.32600
C  36.40500 46.20200 21.62100
C  36.36700 46.20000 23.11100
C  34.03500 46.96100 20.87000
C  37.88400 46.29800 21.08600
C  38.91300 47.11000 21.93100
N  36.41500 46.09100 26.04100
C  36.74800 45.04200 25.24500
C  37.02700 43.97800 26.06300
C  36.92300 44.39700 27.40400
C  36.46000 45.68600 27.33200
C  37.46000 42.61600 25.56900
C  37.11900 44.02700 28.81900
O  37.52500 42.98400 29.29600
C  36.62200 45.20900 29.64300
C  35.47100 44.86200 30.34200
O  34.36000 45.00400 29.91400
O  35.71800 44.23500 31.53800
C  34.49400 43.78900 32.23200
H  34.81000 51.71000 28.06600
H  34.91000 49.86900 21.65900
H  37.00200 44.19300 23.33800
H  34.98100 47.92000 30.67300
H  36.31500 50.55100 30.10400
H  34.11700 51.28600 30.74800
H  33.91600 49.67200 31.24700
H  33.19600 50.17500 29.69600
H  37.69800 49.25200 31.05900
H  37.85500 47.67700 30.41900
H  37.84900 47.97900 32.99400
H  37.12900 46.61300 32.26200
H  33.33000 53.62100 26.15200
H  34.75400 54.28600 25.39100
H  35.05800 53.67100 26.83700
H  33.65500 54.49400 21.89300
H  34.98600 54.91900 22.95500
H  33.36800 54.52100 23.58500
H  35.98100 48.08900 20.59600
H  36.04100 45.25300 21.22800
H  33.29000 47.45700 21.49200
H  33.87200 45.88400 20.81400
H  33.88500 47.34800 19.86200
H  37.78900 46.81900 20.13400
H  38.32200 45.34000 20.80700
H  39.15100 46.49700 22.80000
H  38.66000 48.13400 22.20700
H  39.76900 47.14100 21.25700
H  38.31200 42.19200 26.09900
H  37.72400 42.62800 24.51200
H  36.62000 41.94700 25.75500
H  37.42500 45.51800 30.31300
H  33.83600 43.21100 31.58400
H  33.95400 44.56900 32.76900
H  34.85600 43.15200 33.03900

