158

Mg 47.31700 25.05500 28.25300
C  47.81800 27.54600 30.66000
C  46.52600 22.81000 30.64800
C  46.95900 22.76600 25.87500
C  48.64600 27.44100 25.88800
N  47.30900 25.13000 30.34300
C  47.51800 26.28100 31.16400
C  47.24700 25.92900 32.61500
C  46.84400 24.46000 32.61100
C  46.92300 24.03800 31.10800
C  47.66600 23.53600 33.58200
C  46.29800 26.92900 33.37300
C  45.71700 26.42200 34.73300
H  46.68800 26.03400 35.84700
N  46.76800 23.08100 28.25300
C  46.45200 22.27000 29.31700
C  46.18500 20.90700 28.90700
C  46.31800 20.96100 27.43300
C  46.70300 22.27300 27.13100
C  46.05900 19.76200 29.88200
C  46.13800 19.75500 26.53100
O  46.39300 19.72800 25.35900
C  45.74100 18.43700 27.06400
N  47.97800 25.03500 26.26500
C  47.61000 23.98800 25.44900
C  47.75100 24.34300 23.97100
C  47.80900 25.88400 23.95900
C  48.19600 26.15400 25.43200
C  48.88400 23.53600 23.21400
C  46.57300 26.61900 23.52500
C  45.35000 26.55700 24.47800
N  48.19200 26.99800 28.22500
C  48.68400 27.80300 27.22400
C  49.00200 29.09900 27.73200
C  48.67700 29.08200 29.11800
C  48.25600 27.72500 29.32100
C  49.53000 30.29600 26.86800
C  48.73100 29.83600 30.39000
O  48.98100 31.00600 30.55700
C  48.21200 28.83000 31.39300
C  49.30600 28.66900 32.41400
O  50.49800 28.33700 32.24400
O  48.95600 29.24700 33.65300
C  49.82000 29.01200 34.87200
H  46.27500 22.16000 31.48900
H  46.87900 21.98900 25.11100
H  48.67900 28.19100 25.09500
H  48.25100 25.96200 33.04000
H  45.78200 24.38600 32.84400
H  48.51300 24.05200 34.03400
H  48.17800 22.74300 33.03700
H  47.11800 22.91500 34.29100
H  45.48400 27.28700 32.74200
H  46.83300 27.74400 33.86100
H  45.08200 25.54700 34.59300
H  44.97500 27.18900 34.95300
H  46.63100 18.88400 29.58200
H  45.04400 19.37600 29.79800
H  46.05300 19.94000 30.95700
H  45.21100 17.89200 26.28300
H  45.10300 18.47600 27.94600
H  46.73300 18.02200 27.24200
H  46.82000 24.06100 23.47800
H  48.60800 26.32800 23.36400
H  49.36900 22.85000 23.90800
H  49.61600 24.24800 22.83300
H  48.45600 22.87500 22.46000
H  46.38600 26.01500 22.63800
H  46.88200 27.59700 23.15600
H  44.36900 26.46200 24.01200
H  45.34700 27.37900 25.19300
H  45.59600 25.63800 25.01100
H  50.08300 30.90900 27.58000
H  48.64500 30.74000 26.41100
H  50.19800 29.88400 26.11200
H  47.36300 29.22000 31.95400
H  50.62000 29.75000 34.91900
H  50.32900 28.04900 34.91300
H  49.25200 29.14100 35.79300
Mg 47.41800 35.23300 27.68800
C  45.86700 33.48200 30.25900
C  47.64400 37.93600 29.87600
C  48.38100 37.27700 25.12800
C  46.75000 32.60500 25.50200
N  46.97400 35.59500 29.82800
C  46.34900 34.73900 30.74100
C  46.38900 35.26400 32.20600
C  46.38200 36.83300 31.85000
C  47.04300 36.81000 30.44300
C  45.07200 37.56400 31.84300
C  47.71600 34.88700 32.88700
C  47.48700 34.30500 34.30600
H  47.59800 35.38300 35.41900
N  48.09200 37.22800 27.52800
C  48.14300 38.16300 28.53300
C  48.74500 39.40900 28.02700
C  48.96800 39.23000 26.61400
C  48.44000 37.87600 26.35700
C  49.06100 40.51600 29.04400
C  49.56200 40.17000 25.54000
O  49.73700 39.86200 24.38300
C  49.96300 41.55900 26.05900
N  47.62600 34.96100 25.61200
C  48.03100 35.96700 24.72800
C  48.06500 35.37600 23.30200
C  47.63100 33.88500 23.49500
C  47.38500 33.75700 24.99000
C  47.19400 36.22900 22.30400
C  48.64700 32.79000 22.93100
C  50.04600 32.66600 23.61800
N  46.58900 33.35600 27.82500
C  46.40800 32.34900 26.89700
C  45.66700 31.18300 27.46900
C  45.42300 31.70000 28.76900
C  46.04900 32.93500 28.93400
C  45.23300 29.91800 26.80500
C  44.80700 31.37300 30.04000
O  44.18200 30.33100 30.37700
C  44.94700 32.51700 30.94700
C  45.28000 32.02400 32.27500
O  46.34400 31.48300 32.58200
O  44.22100 32.20800 33.16400
C  44.47500 31.51800 34.44800
H  47.65300 38.75100 30.60300
H  48.67900 37.70500 24.16800
H  46.56600 31.75600 24.84100
H  45.58400 35.05600 32.91100
H  46.90500 37.36800 32.64200
H  44.79300 38.09300 32.75500
H  44.27100 36.83100 31.74700
H  45.04900 38.23600 30.98600
H  48.32600 35.78700 32.96000
H  48.33200 34.18200 32.32900
H  48.25500 33.53200 34.27500
H  46.45200 33.96300 34.35000
H  49.90400 41.11200 28.69200
H  49.22200 40.26700 30.09300
H  48.21000 41.19300 28.97500
H  49.11700 42.07700 26.51100
H  50.39900 42.12600 25.23600
H  50.75400 41.42000 26.79600
H  49.11200 35.34700 23.00000
H  46.68900 33.77900 22.95700
H  46.84900 37.18200 22.70600
H  46.26800 35.80500 21.91700
H  47.87900 36.43600 21.48200
H  48.83900 32.89000 21.86200
H  48.22800 31.78500 22.98600
H  50.88100 32.78400 22.92700
H  50.15800 31.72500 24.15600
H  50.10700 33.49500 24.32400
H  45.65600 29.90100 25.80100
H  44.15300 29.77300 26.79000
H  45.61500 29.09100 27.40400
H  43.94300 32.93500 31.01400
H  44.86600 30.53500 34.18800
H  43.59000 31.39100 35.07200
H  45.10600 32.04700 35.16200

