158

Mg 45.86700 3.98400 48.09700
C  44.57900 7.12300 47.24300
C  42.72200 2.65300 47.36000
C  47.12000 0.89700 48.45800
C  49.11900 5.30800 48.40200
N  43.93400 4.81500 47.35900
C  43.66200 6.15300 47.10600
C  42.21800 6.37000 46.62500
C  41.58100 5.01800 46.86800
C  42.83700 4.09600 47.15800
C  40.53600 4.97700 47.97000
C  42.12900 6.78700 45.12800
C  40.87800 7.77800 44.86800
H  40.05800 7.59700 43.61800
N  45.07500 2.10300 47.84600
C  43.77000 1.70700 47.58500
C  43.67500 0.29200 47.56200
C  44.95600 -0.20300 47.74100
C  45.79300 0.99300 48.05100
C  42.40700 -0.44600 47.13400
C  45.34500 -1.61200 47.58300
O  44.52200 -2.42100 47.22900
C  46.74700 -2.03500 47.60600
N  47.85100 3.24100 48.59500
C  48.08400 1.88900 48.73400
C  49.60900 1.68400 49.20300
C  50.24200 3.06600 48.91900
C  49.06700 3.95700 48.57700
C  49.76000 1.11100 50.64700
C  51.44000 3.12000 47.92400
C  52.81000 2.50900 48.41000
N  46.67200 5.81300 47.95800
C  48.05600 6.24300 48.11000
C  48.09100 7.68100 47.79700
C  46.75000 8.08600 47.55200
C  45.91000 6.90100 47.66900
C  49.41500 8.48600 47.81100
C  45.92000 9.27700 47.28700
O  46.17800 10.45400 47.22800
C  44.46800 8.65400 46.99100
C  43.48700 9.24700 47.91600
O  43.11600 8.78000 48.99600
O  42.90400 10.30000 47.30700
C  41.67500 10.76700 47.98500
H  41.70800 2.25600 47.28000
H  47.43600 -0.08100 48.82800
H  50.11200 5.73500 48.55700
H  41.74200 7.17200 47.18900
H  41.07700 4.55700 46.01900
H  40.27000 6.00100 48.23500
H  40.78800 4.38300 48.84900
H  39.70900 4.48900 47.45600
H  42.04300 5.88500 44.52300
H  43.05000 7.30800 44.86700
H  41.22300 8.81100 44.90300
H  40.22600 7.61700 45.72700
H  42.51000 -0.75300 46.09300
H  41.56000 0.24000 47.13400
H  42.09700 -1.23700 47.81600
H  46.76700 -3.08400 47.30900
H  47.03600 -2.13700 48.65200
H  47.43700 -1.46700 46.98200
H  50.00300 0.87700 48.58600
H  50.57400 3.36700 49.91300
H  50.00800 0.05500 50.54200
H  48.87900 1.13100 51.28900
H  50.61600 1.64800 51.05500
H  51.65200 4.17700 47.76200
H  51.21400 2.54000 47.02900
H  53.01100 1.68600 47.72500
H  52.67100 2.01200 49.37000
H  53.65600 3.18800 48.52300
H  49.72800 8.57300 48.85100
H  49.17800 9.46500 47.39500
H  50.20000 8.08900 47.16700
H  44.34200 8.90900 45.93900
H  41.20400 11.28200 47.14800
H  41.85000 11.46700 48.80200
H  40.96700 9.98700 48.26700
Mg 47.71500 25.16900 28.31800
C  48.89300 27.14800 30.98500
C  46.85100 22.70100 30.57900
C  47.42500 23.04900 25.74000
C  49.07500 27.46700 26.07800
N  47.78100 25.05400 30.52700
C  48.33600 25.92000 31.43000
C  48.16300 25.39900 32.88700
C  47.42700 24.03800 32.68900
C  47.33400 23.92800 31.16600
C  48.12200 22.85000 33.40400
C  47.50400 26.33900 33.93400
C  46.47200 25.96700 34.94500
H  46.57000 26.55300 36.39500
N  47.13300 23.22100 28.18600
C  46.77100 22.35200 29.20500
C  46.24400 21.12300 28.69300
C  46.51400 21.15000 27.29800
C  46.98900 22.53700 26.99800
C  45.67000 20.06800 29.55400
C  46.31000 20.10500 26.23700
O  46.66700 20.26800 25.08700
C  45.82800 18.75800 26.72700
N  48.38000 25.18600 26.19000
C  47.91700 24.24300 25.30500
C  48.09500 24.60200 23.82600
C  48.42100 26.10200 23.96200
C  48.62100 26.29500 25.48900
C  49.24300 23.70800 23.27400
C  47.31800 27.04000 23.37300
C  46.04100 27.00800 24.13000
N  48.71100 26.96800 28.40100
C  49.15700 27.83800 27.38700
C  49.66100 28.98100 28.03000
C  49.45400 28.81300 29.34200
C  49.05700 27.47800 29.59600
C  50.22500 30.18900 27.49700
C  49.59500 29.52200 30.64000
O  49.96800 30.66900 30.89100
C  49.28000 28.40500 31.72100
C  50.53000 28.14700 32.46700
O  51.51200 27.61700 32.03600
O  50.37600 28.55700 33.74200
C  51.42400 28.16200 34.74200
H  46.36500 22.04800 31.30800
H  47.26500 22.37700 24.89400
H  49.31600 28.20700 25.31200
H  49.15800 25.18900 33.27800
H  46.43200 24.12400 33.12600
H  48.33000 23.17300 34.42400
H  48.98700 22.48000 32.85400
H  47.40000 22.03400 33.43800
H  47.21500 27.20600 33.34100
H  48.35400 26.55200 34.58300
H  46.44000 24.88500 35.08000
H  45.46000 26.23800 34.64500
H  44.59300 20.05600 29.38900
H  45.90200 20.17600 30.61400
H  46.09400 19.12500 29.20800
H  46.47300 18.10300 27.31400
H  45.50500 18.18000 25.86100
H  44.85600 18.94900 27.18000
H  47.13900 24.46800 23.31900
H  49.37600 26.36400 23.50700
H  49.73100 24.16100 22.41100
H  48.79700 22.76000 22.97300
H  50.02900 23.54400 24.01100
H  47.07200 26.89200 22.32100
H  47.82300 27.98300 23.58300
H  46.08400 26.45700 25.07000
H  45.33400 26.39800 23.56600
H  45.65900 28.01000 24.32400
H  51.10600 30.35900 28.11600
H  49.48500 30.98000 27.61600
H  50.60100 30.01900 26.48800
H  48.49600 28.66600 32.43100
H  52.32300 27.99200 34.15000
H  51.10600 27.21800 35.18600
H  51.58000 29.03400 35.37800

