158

Mg 36.66700 49.84300 26.09000
C  36.58900 47.92400 28.89100
C  35.94300 52.61000 27.89000
C  36.59900 51.70500 23.08700
C  37.17800 47.03900 24.08400
N  36.33600 50.22300 28.16400
C  36.37200 49.29800 29.19700
C  36.17300 49.98900 30.61600
C  35.81400 51.42000 30.19200
C  36.16700 51.45700 28.67900
C  34.38700 52.02400 30.49400
C  37.47700 49.79800 31.45500
C  37.38400 49.57400 32.94300
H  36.01300 49.68900 33.79800
N  36.32200 51.87300 25.59700
C  36.01600 52.87400 26.47900
C  35.89400 54.14100 25.78700
C  36.14000 53.84400 24.43200
C  36.31600 52.40100 24.32000
C  35.52800 55.43500 26.49900
C  36.10800 54.82300 23.24300
O  36.41200 54.61200 22.08500
C  35.78400 56.24300 23.52200
N  36.94700 49.43700 23.83800
C  36.86100 50.34200 22.88000
C  37.27100 49.78500 21.50200
C  37.63200 48.33100 21.84900
C  37.31900 48.26900 23.38700
C  36.10500 49.97500 20.41900
C  38.97200 47.81100 21.36700
C  40.23000 48.20200 22.12000
N  36.80200 47.86700 26.40300
C  37.08500 46.79900 25.50000
C  37.11100 45.59000 26.24000
C  37.00900 45.94100 27.57700
C  36.75200 47.33600 27.59200
C  37.31500 44.18400 25.61000
C  37.01900 45.49400 28.94100
O  37.18300 44.40700 29.42100
C  36.73200 46.80600 29.83900
C  35.49800 46.63700 30.69700
O  34.36200 46.86900 30.33500
O  35.81800 46.18900 31.90500
C  34.68600 45.95600 32.80000
H  35.60200 53.48500 28.44600
H  36.56800 52.29100 22.16600
H  37.34900 46.15900 23.46200
H  35.35200 49.51500 31.15400
H  36.47100 52.16200 30.64600
H  33.68300 51.25800 30.81900
H  33.94600 52.34200 29.54900
H  34.45000 52.73300 31.31900
H  38.07100 50.71000 31.39500
H  38.11600 48.99400 31.09100
H  38.15400 50.16900 33.43500
H  37.63400 48.56300 33.26200
H  34.61000 55.83600 26.07000
H  36.36100 56.12000 26.34000
H  35.43300 55.28500 27.57500
H  36.00100 56.86800 22.65600
H  36.37300 56.61100 24.36200
H  34.71300 56.30700 23.71400
H  38.15500 50.28900 21.11100
H  36.84400 47.65700 21.51200
H  35.08800 49.92700 20.80900
H  36.21900 49.32500 19.55200
H  36.30700 51.00800 20.13500
H  39.05800 47.91200 20.28500
H  38.88100 46.72500 21.34600
H  40.00100 48.89400 22.93000
H  40.82700 48.82200 21.45000
H  40.72300 47.27400 22.41000
H  37.93100 43.68500 26.35800
H  37.83000 44.09700 24.65400
H  36.31100 43.77700 25.48800
H  37.53100 47.03500 30.54400
H  34.37300 44.91700 32.69500
H  33.83100 46.63000 32.74900
H  34.96500 45.97000 33.85400
Mg -10.25500 17.72200 42.94200
C  -6.81000 16.70100 42.63000
C  -9.10400 20.96400 41.99300
C  -13.37000 18.55200 42.13300
C  -11.04200 14.40600 43.34900
N  -8.22900 18.71100 42.25200
C  -6.95500 18.10200 42.39500
C  -5.80100 19.10200 42.15600
C  -6.53600 20.42600 42.18200
C  -8.00500 20.01500 42.20700
C  -6.18300 21.36800 43.36300
C  -5.02400 18.96600 40.81700
C  -5.74700 18.57300 39.52200
H  -4.95800 18.64900 38.20200
N  -11.13300 19.49900 42.22400
C  -10.51200 20.71000 41.95100
C  -11.48500 21.63100 41.56000
C  -12.77500 20.97600 41.55500
C  -12.51200 19.62400 41.94200
C  -11.15300 23.00700 41.01900
C  -14.13700 21.61700 40.99200
O  -14.15100 22.78100 40.61200
C  -15.37700 20.86600 40.85400
N  -11.91500 16.62100 42.70000
C  -13.09900 17.22900 42.50000
C  -14.27900 16.22500 42.68900
C  -13.54400 14.87900 42.95100
C  -12.05500 15.31100 42.97000
C  -15.41400 16.61600 43.73400
C  -13.78200 13.83200 41.81800
C  -13.80000 12.31000 42.19800
N  -9.20000 15.89800 43.08500
C  -9.66100 14.58000 43.15000
C  -8.60800 13.61700 43.14400
C  -7.46000 14.39300 42.97100
C  -7.85500 15.78300 42.87300
C  -8.83000 12.15200 43.42200
C  -5.96300 14.33200 42.89100
O  -5.12300 13.47900 42.89200
C  -5.51800 15.84300 42.50000
C  -4.46000 16.23800 43.48800
O  -3.26200 16.28000 43.35600
O  -5.04900 16.82400 44.59300
C  -4.06000 17.34500 45.62300
H  -8.80600 21.99800 41.80800
H  -14.43300 18.76100 41.99200
H  -11.40500 13.41300 43.62200
H  -5.06600 19.02600 42.95800
H  -6.37700 21.07100 41.31800
H  -5.35300 20.98500 43.95800
H  -7.01600 21.51500 44.05000
H  -5.83100 22.32600 42.97900
H  -4.38400 18.08800 40.91000
H  -4.39600 19.83900 40.64200
H  -6.67100 19.13500 39.38500
H  -6.07300 17.54300 39.66900
H  -11.76000 23.47000 40.24100
H  -10.19000 23.00700 40.50700
H  -10.99900 23.69500 41.85000
H  -15.84700 20.59800 41.80100
H  -15.16200 19.98600 40.24700
H  -16.11200 21.49400 40.35200
H  -14.97800 16.18700 41.85400
H  -13.71500 14.47200 43.94800
H  -16.35400 16.99500 43.33200
H  -14.89200 17.26500 44.43700
H  -15.61600 15.65800 44.21200
H  -12.95100 13.87700 41.11500
H  -14.59400 14.06400 41.12900
H  -14.85600 12.08200 42.04700
H  -13.48700 12.25100 43.24100
H  -13.14200 11.73400 41.54700
H  -8.85200 11.53000 42.52800
H  -9.70500 11.94400 44.03900
H  -7.95300 11.82300 43.97900
H  -5.21300 15.77700 41.45500
H  -3.30600 16.60200 45.88000
H  -4.58000 17.49700 46.56900
H  -3.59400 18.28000 45.31100

