158

Mg 46.80300 16.39700 27.51600
C  45.19000 16.16700 30.64600
C  48.78400 18.85500 28.96100
C  48.11700 16.85100 24.47700
C  44.21100 14.57200 26.08500
N  47.01400 17.26500 29.63400
C  46.28800 17.00800 30.74100
C  46.94500 17.58600 32.07100
C  47.96400 18.62400 31.48400
C  47.90100 18.26500 29.94800
C  47.66400 20.14300 31.83000
C  47.52700 16.45800 32.94600
C  47.16100 16.42000 34.44500
H  48.41200 16.17400 35.33900
N  48.26100 17.59500 26.80700
C  48.97400 18.56000 27.56000
C  49.92000 19.15600 26.69700
C  49.84000 18.52000 25.38700
C  48.74100 17.58000 25.50100
C  50.83000 20.25800 27.24500
C  50.64300 18.71400 24.10100
O  50.49200 18.04000 23.06000
C  51.84100 19.59100 24.02500
N  46.14100 15.86400 25.52000
C  46.96400 16.04100 24.46500
C  46.43800 15.26500 23.23900
C  45.36700 14.34000 23.82500
C  45.30900 14.85600 25.26100
C  45.83500 16.27300 22.22200
C  45.30200 12.80500 23.57000
C  46.68400 12.17400 23.77800
N  45.12600 15.58100 28.16700
C  44.10500 14.98600 27.47400
C  43.03200 14.57500 28.32000
C  43.38000 15.00800 29.60800
C  44.71600 15.60100 29.44700
C  41.86400 13.65100 27.93100
C  43.01800 14.98300 31.07400
O  42.06300 14.45800 31.65900
C  44.20800 15.77800 31.78200
C  43.51000 17.01200 32.37200
O  43.36200 18.09200 31.76200
O  43.05200 16.68900 33.62200
C  41.98300 17.58500 34.16100
H  49.43100 19.63200 29.37300
H  48.50100 17.00400 23.46600
H  43.33500 14.03700 25.71400
H  46.21700 18.21700 32.58200
H  48.94000 18.52900 31.95900
H  47.72500 20.80200 30.96400
H  48.41700 20.65700 32.42800
H  46.65600 20.28500 32.22100
H  48.61100 16.50700 32.84200
H  47.08900 15.52400 32.59500
H  46.53400 15.55700 34.66800
H  46.71500 17.39600 34.63800
H  51.66500 20.60800 26.63700
H  51.22800 19.88300 28.18800
H  50.23000 21.11600 27.54600
H  51.53400 20.60300 24.29300
H  52.44700 19.50400 23.12300
H  52.55100 19.15900 24.73000
H  47.27300 14.78600 22.72800
H  44.41100 14.66400 23.41300
H  46.35500 17.23200 22.20100
H  44.79500 16.50100 22.45600
H  45.94500 15.83500 21.23000
H  44.86500 12.62100 22.58800
H  44.65600 12.34400 24.31600
H  47.32500 12.79500 24.40500
H  47.24200 12.04900 22.85100
H  46.47300 11.26000 24.33300
H  41.28500 14.05700 27.10200
H  41.22400 13.46000 28.79300
H  42.28400 12.69800 27.61000
H  44.55600 15.03200 32.49600
H  41.24900 16.94800 34.65400
H  41.48600 18.11500 33.34900
H  42.29300 18.30500 34.91900
Mg 6.79600 55.08400 42.56500
C  6.20000 51.49900 42.00600
C  9.50100 54.73800 40.61300
C  6.79400 58.38800 42.45200
C  3.33100 55.08400 43.70700
N  7.70100 53.20700 41.51000
C  7.25100 51.97400 41.30600
C  8.23200 51.20800 40.45500
C  9.49100 52.11800 40.37700
C  8.89000 53.45500 40.86100
C  10.66200 51.61200 41.18100
C  7.59400 50.89100 39.08600
C  8.05500 49.57300 38.39400
H  7.09600 49.13300 37.27400
N  8.13600 56.39500 41.91200
C  9.15500 56.08200 41.08100
C  9.83000 57.27000 40.75900
C  9.16300 58.34400 41.33200
C  7.97600 57.74000 41.95900
C  11.10300 57.27300 39.93400
C  9.56100 59.83400 41.29800
O  10.48500 60.25900 40.63400
C  8.87400 60.82900 42.26300
N  5.26200 56.51500 42.93800
C  5.57600 57.85400 42.95900
C  4.30000 58.69800 43.17600
C  3.24100 57.67000 43.51200
C  3.96800 56.32100 43.47300
C  4.53100 59.84300 44.24500
C  1.97400 57.64600 42.60000
C  0.65800 57.57600 43.33500
N  5.15900 53.65700 42.99700
C  3.91400 53.79700 43.54800
C  3.44500 52.55800 43.92000
C  4.27800 51.61500 43.33400
C  5.29300 52.32000 42.72600
C  2.15500 52.26000 44.67600
C  4.45800 50.20700 43.11200
O  3.82000 49.26900 43.49600
C  5.74000 50.08200 42.21000
C  5.37900 49.30600 40.99800
O  4.86200 49.66500 40.00300
O  5.77800 48.04900 41.24300
C  5.68200 47.06000 40.23500
H  10.32800 54.75200 39.90000
H  6.76700 59.47700 42.38000
H  2.27800 55.11500 43.99400
H  8.51300 50.23200 40.85200
H  9.90300 52.25200 39.37600
H  11.55800 51.55400 40.56300
H  10.48400 50.72100 41.78300
H  10.95300 52.37900 41.89800
H  7.95000 51.72700 38.48400
H  6.51200 51.01900 39.09900
H  8.15600 48.73100 39.07800
H  9.04400 49.71700 37.96100
H  10.72800 57.36500 38.91500
H  11.68500 56.35700 40.02900
H  11.69700 58.15000 40.19300
H  8.58300 60.39800 43.22000
H  7.96100 61.10800 41.73800
H  9.44700 61.70300 42.57300
H  4.00200 59.10900 42.21200
H  3.02000 57.91500 44.55100
H  5.41600 59.66600 44.85600
H  3.68400 60.01400 44.90900
H  4.51700 60.77000 43.67100
H  2.05800 56.79000 41.93100
H  1.94800 58.62900 42.12900
H  0.10400 58.45500 43.00400
H  0.61800 57.56800 44.42400
H  0.11100 56.67900 43.04400
H  2.12400 51.46200 45.41700
H  1.53700 51.90000 43.85300
H  1.61500 53.12900 45.05200
H  6.39600 49.47100 42.83000
H  6.61000 47.03800 39.66600
H  4.92800 47.29200 39.48200
H  5.50700 46.05100 40.60900

