158

Mg 8.97300 3.08900 28.09100
C  10.04300 1.43300 30.98800
C  7.17700 5.24400 30.01200
C  7.23200 4.05900 25.27500
C  10.14900 0.36400 26.20200
N  8.54400 3.36200 30.24000
C  9.26300 2.59400 31.19400
C  8.90700 3.07000 32.57000
C  7.99400 4.31800 32.27600
C  7.82100 4.33500 30.76700
C  6.60100 4.15600 33.00300
C  10.17900 3.40800 33.32600
C  10.30400 2.99100 34.76400
H  10.80300 4.00100 35.85400
N  7.65900 4.60400 27.62700
C  7.11600 5.41600 28.55600
C  6.24600 6.40200 27.97100
C  6.33300 6.09400 26.59200
C  7.10700 4.86000 26.39800
C  5.55600 7.49600 28.70200
C  5.57900 6.84500 25.44900
O  5.79000 6.59200 24.29800
C  4.73100 7.95700 25.72000
N  8.93100 2.45400 25.93500
C  8.07700 2.93500 25.04900
C  8.16500 2.12700 23.69500
C  9.41400 1.20900 24.04000
C  9.44100 1.32400 25.48400
C  6.87500 1.43500 23.34700
C  10.74700 1.60200 23.33500
C  11.68400 0.45100 22.87200
N  10.01200 1.35500 28.47500
C  10.45400 0.37600 27.58800
C  11.28500 -0.58300 28.31000
C  11.16600 -0.24000 29.65100
C  10.36400 0.89000 29.67700
C  12.03400 -1.67200 27.68700
C  11.51500 -0.58000 31.04200
O  12.16000 -1.50600 31.49900
C  10.78600 0.49700 31.92100
C  9.88400 -0.10200 32.95500
O  8.73000 -0.37700 32.64400
O  10.59800 -0.36100 34.07600
C  9.72600 -0.91800 35.15700
H  6.61100 5.93900 30.63600
H  6.53300 4.41000 24.51400
H  10.50200 -0.48800 25.61700
H  8.36600 2.24100 33.02500
H  8.37600 5.28800 32.59300
H  6.35800 5.09000 33.51100
H  6.47800 3.31500 33.68600
H  5.82500 4.09800 32.24000
H  10.45100 4.46300 33.35100
H  11.06500 2.95500 32.88100
H  10.99100 2.16000 34.92500
H  9.31500 2.64700 35.06400
H  5.86200 7.60600 29.74200
H  4.49300 7.25800 28.65600
H  5.52800 8.41600 28.11900
H  4.11200 7.79000 26.60200
H  4.14000 8.09000 24.81300
H  5.40200 8.76200 26.01700
H  8.27900 2.86800 22.90400
H  9.13700 0.19700 23.74500
H  7.10200 0.37900 23.19800
H  6.36400 1.61800 22.40200
H  6.16300 1.47700 24.17100
H  11.33100 2.18200 24.05000
H  10.51700 2.34600 22.57300
H  12.61600 0.48800 23.43700
H  11.99000 0.46600 21.82600
H  11.24200 -0.53600 23.01100
H  11.41000 -2.54200 27.48500
H  12.88800 -1.95100 28.30500
H  12.46900 -1.34900 26.74100
H  11.50400 0.95300 32.60200
H  9.13200 -1.74700 34.77100
H  9.03000 -0.21800 35.62000
H  10.39300 -1.37700 35.88700
Mg 8.87700 47.55000 27.56700
C  6.68500 47.16300 30.22800
C  11.27100 48.42600 29.75300
C  10.73500 48.46300 25.02000
C  5.94700 47.52800 25.40300
N  8.88200 47.74400 29.73100
C  7.97300 47.48200 30.65200
C  8.51100 47.60500 32.06200
C  9.95200 48.09300 31.94400
C  10.02800 48.16600 30.38200
C  10.35000 49.46600 32.67200
C  8.42700 46.32300 32.95400
C  9.16700 46.22800 34.34200
H  8.50000 45.64100 35.55900
N  10.80900 48.14700 27.36000
C  11.68300 48.38400 28.39100
C  12.96100 48.81100 27.88200
C  12.86300 48.72600 26.46400
C  11.46900 48.37000 26.17700
C  14.16200 48.99000 28.73200
C  13.91200 48.94000 25.32400
O  13.80700 48.67500 24.13100
C  15.21000 49.53200 25.61300
N  8.39300 47.88700 25.57600
C  9.36700 48.34100 24.74200
C  8.81200 48.73700 23.33700
C  7.28200 48.31200 23.41500
C  7.18100 47.89800 24.83100
C  8.99000 50.24100 23.05300
C  6.97900 47.02400 22.52500
C  6.57300 47.37200 21.09300
N  6.73000 47.24700 27.71200
C  5.71000 47.28400 26.77900
C  4.44100 46.91000 27.37300
C  4.78900 46.79900 28.71700
C  6.17700 47.11200 28.86300
C  3.24100 46.72800 26.58000
C  4.25400 46.48700 30.01200
O  3.13200 46.11200 30.36900
C  5.42200 46.65900 30.98600
C  5.70300 45.22300 31.44300
O  6.47800 44.42300 30.92700
O  4.97200 45.01300 32.61100
C  5.15500 43.70600 33.33100
H  11.98700 48.68500 30.53600
H  11.41000 48.87400 24.26600
H  5.05000 47.58400 24.78200
H  8.02900 48.41800 32.60400
H  10.68800 47.37500 32.30700
H  10.12000 50.28100 31.98500
H  11.41700 49.31700 32.83300
H  9.74600 49.68400 33.55400
H  8.75800 45.45600 32.38200
H  7.37900 46.21100 33.23000
H  9.40700 47.24300 34.66000
H  10.10200 45.77400 34.01300
H  14.94600 48.31300 28.39300
H  14.00100 48.79400 29.79200
H  14.53600 50.00400 28.59200
H  15.12100 50.37900 26.29500
H  15.55200 49.90400 24.64700
H  15.90800 48.92400 26.18900
H  9.30400 48.07300 22.62700
H  6.67800 49.21700 23.34500
H  9.70400 50.61800 23.78600
H  8.06600 50.80400 23.18300
H  9.46200 50.53200 22.11500
H  6.22700 46.38900 22.99200
H  7.83100 46.34400 22.53200
H  7.29300 46.87100 20.44700
H  6.40300 48.41400 20.82300
H  5.68100 46.82800 20.78200
H  3.42600 46.10100 25.70800
H  2.92200 47.72800 26.28700
H  2.52200 46.27200 27.26000
H  5.16200 47.24100 31.87000
H  6.12500 43.78500 33.82200
H  5.31700 42.86900 32.65100
H  4.26900 43.57200 33.95200

