158

Mg -1.91300 16.91200 26.93900
C  -2.57500 14.50200 29.45900
C  -2.49600 19.37500 29.29000
C  -2.12700 19.24800 24.44100
C  -1.90500 14.38600 24.65500
N  -2.50500 16.89000 29.07000
C  -2.55800 15.80300 29.94700
C  -2.53000 16.25200 31.42000
C  -2.62900 17.82300 31.34100
C  -2.54900 18.08100 29.80400
C  -3.89500 18.41800 32.08400
C  -1.32400 15.58500 32.23600
C  -0.66000 16.28400 33.45400
H  -0.36200 15.46400 34.70100
N  -2.13600 18.98500 26.85700
C  -2.35200 19.79900 27.95300
C  -2.26600 21.23300 27.61400
C  -2.20300 21.26900 26.19700
C  -2.23300 19.78200 25.74900
C  -2.38900 22.34800 28.59600
C  -2.06300 22.38700 25.26200
O  -1.92700 22.19000 24.03100
C  -2.21800 23.80400 25.69100
N  -2.09500 16.83200 24.82300
C  -2.00700 17.93900 24.00200
C  -1.82100 17.50200 22.53100
C  -1.69200 15.93500 22.75200
C  -1.85900 15.67200 24.17300
C  -3.01000 17.93200 21.63200
C  -0.34200 15.37200 22.26200
C  0.97100 15.88500 22.96400
N  -2.12800 14.81200 26.97200
C  -2.10200 13.89300 25.98200
C  -2.30900 12.60300 26.50100
C  -2.41700 12.78500 27.86100
C  -2.30500 14.15200 28.13100
C  -2.42000 11.28100 25.70600
C  -2.60300 12.06700 29.00800
O  -2.80500 10.89600 29.17300
C  -2.66300 13.14700 30.14800
C  -1.67100 12.71600 31.14100
O  -0.44100 12.63300 30.99100
O  -2.28800 12.41800 32.28100
C  -1.63300 11.54100 33.27800
H  -2.24700 20.14100 30.02800
H  -2.14900 19.96100 23.61500
H  -2.02700 13.65600 23.85300
H  -3.42800 15.87900 31.91300
H  -1.72500 18.22000 31.80200
H  -4.41100 17.61600 32.61100
H  -4.66600 18.66400 31.35300
H  -3.52900 19.18700 32.76500
H  -0.46300 15.37000 31.60400
H  -1.81400 14.72100 32.68500
H  -1.25900 17.11000 33.83700
H  0.26300 16.78000 33.15500
H  -1.43300 22.86200 28.69100
H  -2.67500 22.04600 29.60400
H  -3.12500 23.02900 28.17100
H  -3.25400 23.89200 26.01800
H  -2.13000 24.39200 24.77700
H  -1.44800 24.12700 26.39200
H  -0.81700 17.84800 22.28400
H  -2.44100 15.43300 22.13800
H  -3.62900 18.58800 22.24300
H  -3.64700 17.11400 21.29600
H  -2.76000 18.61800 20.82200
H  -0.22800 15.70500 21.23100
H  -0.47100 14.29000 22.24400
H  0.73600 16.60000 23.75200
H  1.58700 16.29000 22.16000
H  1.49100 14.99300 23.31400
H  -1.78200 10.43400 25.95900
H  -2.23000 11.51400 24.65800
H  -3.47800 11.02500 25.75900
H  -3.66200 13.05000 30.57400
H  -2.30100 11.34300 34.11600
H  -0.70200 11.96000 33.66100
H  -1.42100 10.60100 32.76700
Mg 40.55600 9.85100 30.12100
C  42.41000 10.79500 32.95100
C  38.26800 8.20200 32.22000
C  39.03600 8.54100 27.45600
C  43.09700 11.09700 28.13400
N  40.47600 9.47500 32.34900
C  41.24900 10.08500 33.32300
C  40.60200 10.07500 34.74500
C  39.29800 9.10700 34.47900
C  39.36500 8.90300 32.92300
C  39.14400 7.89600 35.34500
C  40.17100 11.54600 35.03800
C  39.49800 11.76000 36.34300
H  40.13400 12.46300 37.52600
N  38.85400 8.49300 29.82000
C  38.04800 8.00300 30.82000
C  36.91500 7.20700 30.21400
C  37.16500 7.19400 28.76100
C  38.36900 8.14000 28.59600
C  35.76200 6.72900 31.08800
C  36.51600 6.49300 27.65300
O  36.81000 6.60900 26.45300
C  35.45200 5.51100 27.91700
N  40.88200 9.96800 28.03300
C  40.11400 9.34100 27.14400
C  40.77100 9.38400 25.76900
C  42.02400 10.25200 25.93900
C  42.03400 10.49300 27.44100
C  41.03400 8.01900 25.16200
C  42.05200 11.58700 25.02800
C  43.15000 11.50700 24.00100
N  42.36400 10.72200 30.42000
C  43.29500 11.21800 29.48800
C  44.42400 11.87300 30.12600
C  44.11900 11.76600 31.50400
C  42.90800 10.99600 31.63900
C  45.60100 12.40100 29.41900
C  44.57500 11.99800 32.89500
O  45.48500 12.69900 33.32500
C  43.38700 11.41900 33.84600
C  44.05900 10.35400 34.76700
O  44.46100 9.25500 34.46600
O  43.87400 10.78500 36.09200
C  44.08800 9.82100 37.20100
H  37.41900 7.92300 32.84700
H  38.49700 8.11500 26.60700
H  43.83400 11.52300 27.45000
H  41.23700 9.67800 35.53700
H  38.41400 9.72700 34.62800
H  38.08200 7.66100 35.41000
H  39.54500 8.30900 36.27100
H  39.61400 7.01700 34.90500
H  39.55100 11.99300 34.26000
H  41.12700 12.06100 35.13000
H  39.19200 10.75400 36.62800
H  38.58600 12.34900 36.25000
H  35.79800 5.64100 31.13600
H  34.85400 7.13000 30.63700
H  35.75200 7.04700 32.13000
H  34.89300 5.10100 27.07600
H  34.77000 5.91800 28.66300
H  35.93700 4.61500 28.30600
H  40.06700 9.92900 25.14000
H  42.88500 9.64700 25.65300
H  40.59600 7.28100 25.83300
H  42.08900 7.75200 25.09700
H  40.58600 7.93300 24.17100
H  42.24600 12.38000 25.75000
H  41.04500 11.69400 24.62300
H  43.03700 10.48900 23.63100
H  44.14700 11.66200 24.41300
H  42.91500 12.30100 23.29200
H  46.45100 12.69300 30.03600
H  45.32200 13.23600 28.77700
H  46.03200 11.64600 28.76100
H  43.10200 12.28100 34.44900
H  43.38900 9.94500 38.02700
H  45.10000 9.99700 37.56800
H  43.99300 8.80100 36.82800

