158

Mg 0.08700 43.10000 25.90800
C  2.17100 42.57500 28.59200
C  -2.60200 42.05200 28.01900
C  -1.98900 43.33300 23.22800
C  2.79600 43.91400 23.94400
N  -0.16800 42.37400 28.10400
C  0.85600 42.48100 29.02200
C  0.28200 42.37400 30.50600
C  -1.19100 41.91900 30.17700
C  -1.33100 42.19100 28.68900
C  -1.55500 40.45000 30.56400
C  0.53900 43.75600 31.33800
C  0.65300 43.70200 32.85800
H  0.58300 42.35500 33.55500
N  -2.06900 42.79200 25.71900
C  -2.94400 42.41500 26.68600
C  -4.29500 42.50000 26.10100
C  -4.14600 42.79100 24.69100
C  -2.68600 42.98200 24.49600
C  -5.55800 42.22600 26.99700
C  -5.15900 42.89100 23.61500
O  -4.84700 43.09500 22.47900
C  -6.62800 42.86900 23.82300
N  0.39900 43.39700 23.82300
C  -0.63000 43.57000 22.90800
C  -0.08700 44.11500 21.56100
C  1.38700 44.52800 22.00100
C  1.56600 43.88300 23.33000
C  -0.15200 43.06000 20.44700
C  1.55000 46.05800 22.01400
C  0.60400 46.78100 22.90900
N  2.04100 43.16200 26.15100
C  3.06200 43.46200 25.24000
C  4.37600 43.28800 25.87000
C  4.05300 42.92600 27.18500
C  2.61500 42.92100 27.28700
C  5.70400 43.46300 25.27200
C  4.65800 42.52200 28.52800
O  5.81800 42.19900 28.83300
C  3.43000 42.37900 29.53200
C  3.59100 41.04500 30.19900
O  3.07300 40.00300 29.86800
O  4.43600 41.17800 31.25200
C  4.59700 39.98600 32.13200
H  -3.42100 41.81700 28.70200
H  -2.60600 43.63300 22.37800
H  3.63500 44.25600 23.33500
H  0.76200 41.53600 31.01200
H  -1.95200 42.51500 30.68000
H  -1.29800 40.38000 31.62100
H  -0.94800 39.80300 29.93000
H  -2.60900 40.23600 30.38800
H  -0.33900 44.39600 31.24400
H  1.45700 44.19100 30.94300
H  -0.12200 44.34300 33.27800
H  1.63300 44.15800 32.99900
H  -6.41800 41.97600 26.37600
H  -5.76700 43.12900 27.57000
H  -5.16600 41.39000 27.57700
H  -6.96800 43.78400 24.30800
H  -6.96400 42.06200 24.47400
H  -7.28300 42.73200 22.96300
H  -0.66700 45.01300 21.34800
H  2.15600 44.06800 21.38000
H  -0.52100 43.50200 19.52100
H  -0.73200 42.16000 20.64700
H  0.84700 42.85200 20.06300
H  1.57600 46.48400 21.01000
H  2.50000 46.22200 22.52300
H  1.03000 47.24200 23.80100
H  -0.22000 46.11900 23.17300
H  0.17000 47.58600 22.31800
H  6.44600 42.87900 25.81600
H  6.11300 44.46700 25.15800
H  5.41600 43.03000 24.31400
H  3.40500 43.05100 30.39000
H  3.79200 40.02600 32.86600
H  5.51600 40.10200 32.70800
H  4.54000 39.08000 31.52800
Mg -4.75800 24.93400 26.06600
C  -3.18400 26.60800 28.66600
C  -6.24000 22.95000 28.21500
C  -5.56200 23.11800 23.39300
C  -2.98100 27.04100 23.85600
N  -4.73900 24.84700 28.25800
C  -3.97100 25.58100 29.09500
C  -4.36600 25.30300 30.56300
C  -5.07400 23.94200 30.39200
C  -5.42800 23.90600 28.88600
C  -4.19100 22.75000 30.78000
C  -5.14700 26.48500 31.16900
C  -6.13500 26.12600 32.30100
H  -5.68000 25.11800 33.37900
N  -5.69900 23.26300 25.85900
C  -6.20800 22.52700 26.88100
C  -6.87000 21.29800 26.40800
C  -6.70500 21.37700 24.98500
C  -5.96800 22.66600 24.69400
C  -7.65800 20.36600 27.30300
C  -7.11700 20.34100 23.88100
O  -6.91100 20.49200 22.70000
C  -7.77400 19.06500 24.27800
N  -4.52000 25.15000 23.88900
C  -4.93400 24.25900 22.94900
C  -4.76200 24.87300 21.49500
C  -3.90100 26.12000 21.78100
C  -3.78200 26.10500 23.26800
C  -4.29600 23.95100 20.34000
C  -4.47700 27.52900 21.25500
C  -3.44700 28.40100 20.51800
N  -3.32300 26.50400 26.15300
C  -2.68500 27.25900 25.22400
C  -1.76900 28.25300 25.89500
C  -1.90800 27.99100 27.19500
C  -2.86800 26.89900 27.31700
C  -0.95500 29.24300 25.13800
C  -1.49300 28.46500 28.52400
O  -0.72300 29.34800 28.87800
C  -2.32400 27.55000 29.46400
C  -1.42100 26.91200 30.43200
O  -0.30800 26.46500 30.13900
O  -1.89800 26.93000 31.77100
C  -1.13000 26.05800 32.64600
H  -6.94700 22.41500 28.85200
H  -5.76000 22.55300 22.47900
H  -2.52600 27.69500 23.10900
H  -3.46100 25.16600 31.15400
H  -6.00200 23.87000 30.95800
H  -4.32700 21.93100 30.07400
H  -4.46000 22.38800 31.77200
H  -3.12400 22.96100 30.70300
H  -5.68000 26.98600 30.36100
H  -4.43400 27.20100 31.57800
H  -7.06500 25.80400 31.83200
H  -6.35100 27.07100 32.79800
H  -8.68300 20.52600 26.96800
H  -7.68300 20.56900 28.37300
H  -7.30800 19.34700 27.14100
H  -8.69400 19.18300 24.85200
H  -6.96500 18.61300 24.85200
H  -8.09400 18.41600 23.46300
H  -5.73700 25.21800 21.14900
H  -2.93900 25.98000 21.28700
H  -4.28300 22.89200 20.59900
H  -3.27400 24.24500 20.10100
H  -4.90100 23.98400 19.43400
H  -4.75500 28.11400 22.13200
H  -5.27100 27.26700 20.55600
H  -2.63500 27.73600 20.22300
H  -3.15200 29.26300 21.11600
H  -3.92000 28.76900 19.60800
H  -0.92000 28.85600 24.12000
H  0.03800 29.44300 25.54200
H  -1.49200 30.18800 25.06800
H  -3.02700 28.20200 29.98300
H  -0.09800 26.40700 32.69100
H  -1.09300 25.09000 32.14700
H  -1.48400 25.98800 33.67500

