158

Mg 17.78000 -0.85100 27.93700
C  16.22400 1.01200 30.52500
C  19.74900 -2.29100 30.36700
C  19.38600 -2.51200 25.50400
C  15.86000 0.76500 25.72600
N  17.72800 -0.79600 30.34200
C  17.15100 0.06200 31.11400
C  17.67700 -0.15200 32.56800
C  18.84700 -1.19200 32.48400
C  18.77200 -1.46700 30.94900
C  20.17200 -0.62600 32.95300
C  16.43900 -0.57900 33.53100
C  16.41400 0.24400 34.81400
H  17.71800 0.81500 35.36000
N  19.28600 -2.31600 27.95700
C  19.90700 -2.86400 29.07600
C  20.85000 -3.80200 28.68100
C  20.77500 -3.87600 27.24600
C  19.79300 -2.90100 26.82500
C  21.74800 -4.66700 29.61700
C  21.44100 -4.79300 26.26900
O  21.20900 -4.67200 25.04400
C  22.49300 -5.81800 26.75600
N  17.57800 -0.94900 25.87900
C  18.45500 -1.61200 25.06400
C  18.22800 -1.23700 23.59500
C  17.03500 -0.20400 23.64100
C  16.78400 -0.09200 25.14600
C  19.48200 -0.67200 22.89100
C  15.76300 -0.66700 22.89900
C  15.11600 0.35500 21.99300
N  16.36100 0.57400 28.02800
C  15.65800 1.08500 27.06400
C  14.68200 2.04300 27.57000
C  14.96700 2.08100 28.88000
C  15.94600 1.12600 29.12900
C  13.59700 2.86900 26.88300
C  14.68000 2.70200 30.18800
O  13.97800 3.63600 30.49500
C  15.48800 2.02400 31.27400
C  16.27500 3.00300 32.06900
O  17.46400 3.18000 31.84500
O  15.51400 3.68800 32.99400
C  16.26900 4.63100 33.83200
H  20.35500 -2.76900 31.13900
H  19.84000 -3.06200 24.67700
H  15.29400 1.39100 25.03300
H  18.16900 0.76400 32.89400
H  18.57700 -2.13100 32.96800
H  20.75300 -1.45700 33.35300
H  20.08200 0.21700 33.63900
H  20.68800 -0.19500 32.09500
H  16.43300 -1.63300 33.80900
H  15.51800 -0.53100 32.95000
H  16.00200 -0.42000 35.57300
H  15.67800 1.04600 34.75500
H  21.44300 -5.71400 29.61500
H  21.59500 -4.29600 30.63000
H  22.80400 -4.64400 29.34600
H  22.15100 -6.50000 27.53400
H  23.39300 -5.35400 27.16000
H  22.79100 -6.44500 25.91700
H  17.96400 -2.17700 23.11000
H  17.28500 0.79600 23.28600
H  20.30400 -0.62800 23.60600
H  19.41100 0.33000 22.46800
H  19.65400 -1.33700 22.04500
H  15.00600 -0.95000 23.63000
H  16.05000 -1.45500 22.20200
H  14.47500 -0.01900 21.19400
H  15.94400 0.93300 21.58100
H  14.38900 0.93300 22.56300
H  13.44800 2.43400 25.89400
H  13.76900 3.94500 26.87000
H  12.66400 2.65300 27.40400
H  14.62700 1.54500 31.74100
H  16.76200 5.35800 33.18600
H  16.86000 4.17400 34.62600
H  15.62600 5.35400 34.33400
Mg 43.83800 4.12200 46.71500
C  42.04700 7.07300 46.94800
C  40.82000 2.41500 46.67400
C  45.52900 1.42100 45.75300
C  46.80800 6.00000 46.34400
N  41.65800 4.75800 46.69800
C  41.21400 5.97500 47.00300
C  39.69500 5.89700 47.37100
C  39.38500 4.42600 47.33900
C  40.71700 3.79200 46.86800
C  38.91400 3.87700 48.75800
C  38.87100 6.81300 46.38300
C  39.43000 7.09800 44.96000
H  38.41300 7.10600 43.75500
N  43.27700 2.08300 46.26700
C  41.99800 1.61100 46.26100
C  41.98000 0.25600 45.90600
C  43.33300 -0.12100 45.56200
C  44.13400 1.15100 45.80000
C  40.88300 -0.73700 46.16000
C  43.87500 -1.37900 45.06400
O  43.08000 -2.32400 44.74500
C  45.35000 -1.56300 44.73600
N  45.89200 3.80900 45.88700
C  46.38600 2.57300 45.85800
C  47.91500 2.44400 45.50800
C  48.33200 3.95100 45.84300
C  46.96700 4.67500 46.07400
C  48.60700 1.35600 46.41700
C  49.24400 4.60900 44.79500
C  50.43800 5.42100 45.35100
N  44.35400 6.10400 46.67000
C  45.61100 6.72900 46.49300
C  45.46900 8.18400 46.70800
C  44.05500 8.34000 46.83700
C  43.43300 7.05800 46.80000
C  46.61300 9.15200 46.63300
C  42.99300 9.33100 47.13400
O  43.05000 10.56400 47.22800
C  41.66800 8.50800 47.12200
C  40.99300 8.80100 48.40100
O  41.33000 8.29400 49.44800
O  39.93200 9.70200 48.28600
C  39.14100 10.17700 49.42000
H  39.87400 1.87200 46.62400
H  46.05300 0.46600 45.68300
H  47.75500 6.54400 46.37000
H  39.66100 6.25800 48.39900
H  38.77100 4.19900 46.46800
H  39.73300 3.35900 49.25800
H  38.24600 3.02500 48.63400
H  38.34200 4.55900 49.38700
H  38.56000 7.68300 46.96200
H  37.90000 6.34600 46.22000
H  40.21100 6.37000 44.73800
H  39.70800 8.15000 44.89900
H  40.15300 -0.70600 45.35200
H  40.24100 -0.32400 46.93900
H  41.09100 -1.76700 46.45100
H  45.99700 -1.49300 45.61000
H  45.67400 -0.80200 44.02600
H  45.51400 -2.53900 44.28000
H  48.11700 2.20500 44.46400
H  48.84100 4.13800 46.78800
H  48.76700 0.34500 46.04000
H  47.98900 1.27300 47.31100
H  49.64400 1.61000 46.63500
H  48.58000 5.19600 44.16000
H  49.65400 3.88800 44.08700
H  51.36700 5.07500 44.89700
H  50.51700 5.41000 46.43800
H  50.34800 6.48400 45.12700
H  47.46700 8.53900 46.91900
H  46.39100 9.94800 47.34400
H  46.79300 9.59200 45.65200
H  41.02400 8.74300 46.27500
H  39.10900 11.24300 49.64300
H  39.36300 9.63900 50.34200
H  38.10700 9.89000 49.23100

