158

Mg 34.59700 3.23500 29.85200
C  32.29200 3.68400 32.35900
C  37.15800 3.35500 32.06700
C  36.70100 2.49300 27.25200
C  31.90000 3.38300 27.52700
N  34.65500 3.44600 31.96900
C  33.61000 3.58200 32.83300
C  34.15200 3.43900 34.23200
C  35.68900 3.52000 34.10300
C  35.86400 3.50700 32.60400
C  36.39900 4.60500 35.04600
C  33.52400 2.27300 35.09400
C  33.19100 2.43200 36.63400
H  33.95800 3.53400 37.35900
N  36.63500 3.01100 29.69200
C  37.55700 3.08000 30.73100
C  38.96300 2.83200 30.21700
C  38.78300 2.52200 28.84600
C  37.31400 2.60600 28.52000
C  40.21400 3.05600 31.17500
C  39.85600 2.16700 27.90300
O  39.65100 1.96800 26.66400
C  41.23100 2.15900 28.34600
N  34.37700 2.80500 27.69100
C  35.35200 2.60300 26.83200
C  34.82400 2.87700 25.38800
C  33.31900 2.87800 25.53100
C  33.13600 3.06700 27.05300
C  35.38100 4.13900 24.75600
C  32.40900 1.84900 24.75700
C  32.43100 0.43300 25.28000
N  32.56100 3.49200 29.79800
C  31.59100 3.59100 28.80700
C  30.26700 3.87700 29.48000
C  30.57100 3.88500 30.80500
C  31.89900 3.61700 30.98700
C  28.93600 4.00800 28.69100
C  29.90600 4.09100 32.16200
O  28.70600 4.29200 32.43000
C  31.01000 3.87600 33.15700
C  30.96000 5.10800 34.07400
O  31.59400 6.13900 33.93800
O  30.25700 4.79800 35.19500
C  30.39300 5.79200 36.27000
H  37.91700 3.18800 32.83400
H  37.32000 2.45300 26.35400
H  31.02400 3.50800 26.88700
H  33.88500 4.34500 34.77600
H  36.01300 2.49300 34.26900
H  36.72400 5.41700 34.39600
H  37.21100 4.07200 35.54200
H  35.67100 5.00500 35.75100
H  34.17600 1.40000 35.08700
H  32.52500 2.00900 34.74700
H  33.35800 1.47800 37.13500
H  32.11500 2.61100 36.64400
H  40.57300 4.06600 30.97800
H  41.12200 2.50800 30.92200
H  40.01200 3.07800 32.24600
H  41.92000 1.98700 27.51900
H  41.25600 1.22100 28.90100
H  41.67700 2.93800 28.96300
H  35.16100 2.03700 24.78000
H  32.92800 3.82300 25.15500
H  36.01900 4.58800 25.51700
H  34.65400 4.86100 24.38300
H  35.91200 3.85300 23.84700
H  32.71000 1.92000 23.71200
H  31.39100 2.23500 24.80400
H  31.43900 -0.01100 25.19900
H  32.77600 0.37300 26.31200
H  33.15800 -0.09500 24.66300
H  28.21300 3.27800 29.05200
H  29.14600 3.73900 27.65500
H  28.68000 5.06800 28.68900
H  30.68600 2.99600 33.71200
H  29.73600 6.63800 36.06700
H  31.33800 6.23600 36.58200
H  29.88300 5.31300 37.10600
Mg 49.63100 45.79600 42.69800
C  46.31900 46.22500 41.80600
C  49.48100 42.68300 41.32200
C  53.04900 45.43900 43.11800
C  49.98400 49.13800 43.18600
N  48.09400 44.59700 41.69300
C  46.77900 44.94300 41.45200
C  45.99200 43.90800 40.74100
C  46.97200 42.72700 40.89900
C  48.26200 43.33900 41.26200
C  46.48800 41.59500 41.88000
C  45.63600 44.31800 39.25200
C  44.35100 43.72500 38.84700
H  43.90500 43.84800 37.36600
N  51.04200 44.26200 42.34700
C  50.75900 43.01700 41.85600
C  51.89900 42.15900 41.78800
C  52.98700 42.93400 42.14600
C  52.36900 44.30600 42.61400
C  51.78900 40.71300 41.33200
C  54.43400 42.49400 42.21600
O  54.79500 41.48800 41.65800
C  55.52400 43.17700 42.97900
N  51.27300 47.05900 43.19700
C  52.54600 46.70400 43.35800
C  53.43200 47.93100 43.57100
C  52.41800 49.05600 43.83000
C  51.09500 48.38900 43.47900
C  54.50500 47.80200 44.70300
C  52.79900 50.23000 42.87500
C  54.00900 51.13100 43.28900
N  48.41200 47.49500 42.48800
C  48.72900 48.72000 42.75900
C  47.53000 49.52000 42.65000
C  46.47500 48.56700 42.33600
C  47.15600 47.30100 42.23500
C  47.50700 51.01700 42.99300
C  45.04300 48.40300 42.11100
O  44.10400 49.20200 42.22300
C  44.89200 46.78600 41.74100
C  44.04300 46.12000 42.82400
O  44.15500 46.33600 43.96800
O  43.10700 45.37000 42.16100
C  42.28100 44.57000 43.06900
H  49.43000 41.66300 40.93600
H  54.10600 45.24500 43.31100
H  50.08700 50.21100 43.36000
H  45.12100 43.82900 41.39100
H  47.09900 42.20400 39.95100
H  47.12300 41.42900 42.75100
H  46.53500 40.66400 41.31700
H  45.43500 41.68900 42.14700
H  46.28700 43.76200 38.57700
H  45.62800 45.39500 39.08400
H  43.64500 44.29000 39.45700
H  44.40500 42.66300 39.08900
H  52.73300 40.25800 41.03100
H  50.96900 40.64500 40.61800
H  51.47200 40.17000 42.22300
H  55.35400 43.10500 44.05300
H  55.64100 44.18600 42.58300
H  56.45000 42.62900 42.80700
H  53.91700 47.91400 42.59500
H  52.45600 49.41900 44.85800
H  54.23400 48.48800 45.50500
H  55.49700 47.87300 44.25700
H  54.43700 46.81700 45.16300
H  51.96100 50.92600 42.84800
H  52.84400 49.81600 41.86700
H  53.69900 52.16500 43.44400
H  54.92300 50.95600 42.72200
H  54.29100 50.87300 44.30900
H  48.23200 51.65600 42.49000
H  47.73800 51.22500 44.03700
H  46.47100 51.34300 42.89800
H  44.36000 46.55600 40.81800
H  41.41500 44.12600 42.57700
H  41.89500 45.19900 43.87000
H  42.92600 43.81100 43.51200

