158

Mg 49.18200 46.96900 44.11400
C  46.15600 46.99500 42.28200
C  49.97600 44.10700 42.58300
C  52.34500 47.72500 44.99900
C  48.23000 50.28300 45.11400
N  48.06800 45.68700 42.79800
C  46.86600 45.83000 42.16600
C  46.40100 44.49200 41.44900
C  47.58200 43.55600 41.78700
C  48.59700 44.43400 42.51400
C  47.11100 42.34200 42.64300
C  46.31200 44.67700 39.91100
C  45.02300 44.12200 39.34800
H  45.27900 43.22500 38.09900
N  50.93000 45.99300 43.91700
C  51.05000 44.82100 43.17800
C  52.49600 44.50100 43.16000
C  53.18100 45.44200 43.91900
C  52.18700 46.42500 44.38900
C  53.09800 43.42300 42.18200
C  54.71800 45.33500 44.27800
O  55.46100 44.46400 43.81300
C  55.38800 46.34800 45.26700
N  50.12900 48.76800 44.97800
C  51.41200 48.72900 45.30900
C  51.68800 49.94100 46.15700
C  50.43900 50.88500 46.10500
C  49.50800 49.98300 45.37200
C  52.16000 49.59600 47.62300
C  50.71300 52.31600 45.39400
C  51.61500 53.28700 46.16800
N  47.55200 48.37200 43.86600
C  47.35700 49.57700 44.36000
C  46.06100 50.11300 43.91800
C  45.55600 49.14800 43.09300
C  46.48700 48.06900 43.10800
C  45.48900 51.43600 44.34900
C  44.41000 48.76600 42.24200
O  43.41100 49.43500 42.02800
C  44.72600 47.39100 41.63000
C  43.58900 46.42300 41.78800
O  43.39300 45.65000 42.71400
O  42.61400 46.51800 40.73700
C  41.53200 45.51100 40.87400
H  50.34600 43.21900 42.06600
H  53.41400 47.90500 45.13100
H  47.93400 51.27700 45.45400
H  45.43400 44.20000 41.85900
H  48.13400 43.13200 40.94900
H  47.54300 42.31000 43.64300
H  47.50800 41.47700 42.11200
H  46.04000 42.33000 42.84300
H  47.08700 44.09800 39.40900
H  46.48100 45.72100 39.65100
H  44.35600 44.91900 39.01800
H  44.47700 43.54100 40.09000
H  53.90900 42.85100 42.63100
H  53.55400 43.93600 41.33500
H  52.38100 42.62500 41.99100
H  55.56300 47.31700 44.79800
H  56.33900 45.95800 45.62900
H  54.71000 46.40200 46.11800
H  52.46100 50.52300 45.65600
H  50.08100 51.16300 47.09700
H  52.45600 48.62400 48.01600
H  51.26600 49.90500 48.16500
H  52.78300 50.43800 47.92600
H  49.77600 52.81600 45.15000
H  51.12600 52.06100 44.41800
H  51.11500 54.23900 46.34700
H  52.51000 53.61100 45.63700
H  51.83000 52.88700 47.15900
H  45.74700 51.76500 45.35500
H  44.40400 51.38400 44.26200
H  45.86200 52.25800 43.73800
H  44.91000 47.56300 40.57000
H  40.87200 45.78700 41.69600
H  41.90600 44.53300 41.17800
H  40.97800 45.32700 39.95300
Mg 9.53600 46.76900 26.55100
C  7.58400 46.77400 29.49700
C  12.28000 47.72700 28.49900
C  11.38600 46.57900 23.81100
C  6.61300 46.05300 24.74000
N  9.83700 47.38700 28.73900
C  8.95500 47.13600 29.76600
C  9.63300 47.36000 31.06900
C  11.07000 48.06300 30.76700
C  11.07800 47.75200 29.24100
C  11.24300 49.52400 31.27500
C  9.80700 46.04600 31.91300
C  9.23100 46.15300 33.35200
H  9.48500 45.13900 34.34500
N  11.47000 47.15000 26.17700
C  12.46800 47.46500 27.10000
C  13.66900 47.70900 26.37300
C  13.41900 47.41000 25.01700
C  12.06900 47.04000 24.96900
C  15.01800 48.19200 27.02800
C  14.36200 47.60100 23.80100
O  14.01500 47.24000 22.67900
C  15.66100 48.39200 23.94000
N  9.05700 46.43500 24.57900
C  10.05300 46.31900 23.58500
C  9.43700 45.85200 22.21700
C  7.96300 45.38300 22.64200
C  7.85700 45.93300 24.08800
C  9.37900 46.85200 21.10500
C  7.68200 43.86600 22.41200
C  8.43400 43.01500 23.47100
N  7.49400 46.48100 26.94200
C  6.41700 46.30600 26.10300
C  5.14800 46.24100 26.83500
C  5.56800 46.34600 28.19500
C  7.00200 46.50800 28.20500
C  3.73800 46.13300 26.23900
C  5.07900 46.42200 29.59600
O  3.94200 46.40300 30.01800
C  6.38900 46.60100 30.51900
C  6.42600 45.33200 31.28100
O  7.05300 44.34000 30.87500
O  5.69100 45.44800 32.44800
C  5.90900 44.32500 33.37900
H  13.13100 48.09800 29.07400
H  11.94100 46.48400 22.87500
H  5.68700 45.71400 24.27200
H  8.99600 48.10100 31.55200
H  11.90400 47.53700 31.23200
H  11.86900 49.61000 32.16300
H  10.23900 49.82800 31.57200
H  11.68000 50.19300 30.53400
H  10.83900 45.69600 31.91900
H  9.39600 45.16400 31.42000
H  8.16800 46.27000 33.14400
H  9.55100 47.13100 33.71400
H  14.88300 48.00900 28.09400
H  15.16800 49.26600 26.90900
H  15.89700 47.63200 26.70900
H  15.37800 49.42100 24.16200
H  16.25300 48.41400 23.02400
H  16.35200 48.01100 24.69200
H  10.06100 44.98400 22.00700
H  7.27800 45.85000 21.93300
H  8.51300 47.50700 21.19500
H  9.37900 46.28900 20.17200
H  10.27400 47.46700 21.01000
H  8.10400 43.55900 21.45500
H  6.61300 43.65500 22.42800
H  7.72100 42.27700 23.83800
H  8.79200 43.59800 24.31900
H  9.25700 42.46500 23.01400
H  3.05400 45.90500 27.05700
H  3.74900 45.38600 25.44600
H  3.44700 47.05900 25.74300
H  6.22300 47.44000 31.19500
H  6.38000 44.65400 34.30500
H  6.53200 43.50100 33.03100
H  4.96600 43.83400 33.61900

