158

Mg 2.18700 -2.08600 44.14900
C  5.68900 -1.52600 43.32900
C  1.48100 0.52400 42.06900
C  -0.89800 -3.14200 44.29200
C  3.31100 -5.23400 45.33800
N  3.48800 -0.67000 42.86900
C  4.84300 -0.71800 42.61300
C  5.22100 0.22500 41.49900
C  3.95500 1.11800 41.40200
C  2.87600 0.32000 42.14900
C  3.98200 2.60600 41.91700
C  5.57100 -0.54500 40.10200
C  6.75300 0.06000 39.37200
H  6.50900 0.57700 37.95300
N  0.45200 -1.34000 43.35200
C  0.32300 -0.27800 42.48800
C  -1.10100 0.03200 42.42800
C  -1.77500 -0.95500 43.17200
C  -0.75600 -1.82900 43.71700
C  -1.66600 1.14800 41.58900
C  -3.26200 -1.13600 43.17900
O  -3.95200 -0.37400 42.53600
C  -3.98800 -2.20900 43.99900
N  1.33000 -3.89800 44.93900
C  0.03600 -4.13400 44.63300
C  -0.36200 -5.59300 44.78300
C  1.00800 -6.27100 45.05800
C  1.95900 -5.08300 45.03000
C  -1.48200 -5.84700 45.92100
C  1.37600 -7.41100 44.06100
C  1.44200 -8.80200 44.66700
N  4.08100 -3.06900 44.60800
C  4.33400 -4.34200 45.07600
C  5.76600 -4.53500 45.20800
C  6.35900 -3.44900 44.56600
C  5.26300 -2.63200 44.09800
C  6.44400 -5.53900 46.07100
C  7.57200 -2.76800 44.19500
O  8.75800 -2.98600 44.43100
C  7.20300 -1.58100 43.26300
C  7.86800 -0.34100 43.77000
O  8.78500 0.23400 43.22800
O  7.28300 0.12000 44.92600
C  7.45100 1.58600 45.16100
H  1.24300 1.46800 41.57400
H  -1.91000 -3.55300 44.30200
H  3.64800 -6.23700 45.61000
H  6.10600 0.80300 41.76700
H  3.70500 1.20500 40.34500
H  3.63700 3.27400 41.12800
H  4.97200 2.91800 42.24900
H  3.29800 2.69700 42.76000
H  4.72200 -0.46500 39.42300
H  5.76000 -1.60200 40.29100
H  7.47500 -0.75600 39.39200
H  7.09300 0.93300 39.92900
H  -0.91000 1.86000 41.26100
H  -2.44600 1.72400 42.08700
H  -2.25500 0.67200 40.80500
H  -4.99800 -1.87600 44.23700
H  -3.44600 -2.35000 44.93400
H  -3.99800 -3.08200 43.34600
H  -0.80900 -5.88800 43.83400
H  0.81500 -6.66900 46.05500
H  -1.26400 -6.69600 46.57000
H  -2.47700 -5.89000 45.47800
H  -1.44200 -5.02500 46.63600
H  2.34600 -7.23800 43.59300
H  0.78700 -7.41000 43.14400
H  1.56200 -8.68200 45.74400
H  2.27400 -9.42800 44.34500
H  0.52000 -9.37700 44.58400
H  6.45000 -6.39500 45.39700
H  5.89900 -5.79500 46.98000
H  7.45800 -5.15500 46.18300
H  7.61500 -1.73700 42.26700
H  7.03800 1.92700 44.21100
H  8.48700 1.89600 45.29000
H  6.87500 2.07100 45.94900
Mg 24.09100 -5.79100 45.10800
C  26.38500 -3.52000 43.74300
C  21.78900 -4.38000 43.05600
C  22.26200 -8.53100 45.45700
C  26.79800 -7.34700 46.70900
N  24.09700 -4.06200 43.65900
C  25.13800 -3.32700 43.20800
C  24.75200 -2.50100 41.99800
C  23.20100 -2.51500 42.14800
C  23.02900 -3.77700 42.95900
C  22.44300 -1.22700 42.63000
C  25.32800 -2.94300 40.64100
C  26.10000 -1.92800 39.77600
H  25.78900 -1.89500 38.22600
N  22.17600 -6.31800 44.60500
C  21.35600 -5.56700 43.72800
C  20.09400 -6.31400 43.52500
C  20.21100 -7.52800 44.25400
C  21.52500 -7.47000 44.85900
C  19.02900 -5.87300 42.53200
C  19.07400 -8.55200 44.38300
O  18.09100 -8.40800 43.65800
C  19.10300 -9.71900 45.28300
N  24.49600 -7.59800 45.91000
C  23.58500 -8.60800 45.97200
C  24.11400 -9.86100 46.60100
C  25.46800 -9.41200 46.99800
C  25.65100 -8.05500 46.54500
C  23.26700 -10.56300 47.78700
C  26.66200 -10.36900 46.68400
C  27.43800 -10.87900 47.91500
N  26.15100 -5.45300 45.31800
C  27.09400 -6.14100 46.05900
C  28.29100 -5.40900 45.98600
C  28.04100 -4.41700 45.10200
C  26.76000 -4.50000 44.61700
C  29.60900 -5.75000 46.56800
C  28.72100 -3.28500 44.54300
O  29.82800 -2.84800 44.64300
C  27.63100 -2.70800 43.48000
C  27.40100 -1.26300 43.73600
O  26.63500 -0.76500 44.64100
O  28.16900 -0.52300 42.85600
C  28.11800 0.93800 42.91000
H  21.04800 -3.99500 42.35200
H  21.75600 -9.49400 45.55200
H  27.53600 -7.97300 47.21600
H  25.17600 -1.50700 42.14300
H  22.75600 -2.61700 41.15800
H  21.61800 -0.96700 41.96700
H  23.18600 -0.43300 42.71200
H  21.95300 -1.44600 43.57800
H  24.46900 -3.32000 40.08600
H  25.85400 -3.88700 40.78500
H  27.15700 -2.11400 39.96300
H  25.92200 -0.92500 40.16600
H  18.04600 -5.90400 43.00300
H  18.98200 -6.52900 41.66300
H  19.17800 -4.87000 42.13200
H  18.10500 -10.09600 45.50400
H  19.72500 -9.48000 46.14500
H  19.56400 -10.57400 44.78800
H  24.09900 -10.67100 45.87100
H  25.30100 -9.27800 48.06600
H  23.09400 -11.62100 47.58900
H  22.27200 -10.13000 47.89300
H  23.76700 -10.37400 48.73600
H  27.42400 -9.89600 46.06600
H  26.30500 -11.28400 46.21000
H  27.35000 -10.17900 48.74700
H  28.48600 -10.75700 47.64400
H  27.16800 -11.87800 48.25800
H  29.37400 -6.40600 47.40600
H  30.23600 -4.89100 46.80800
H  30.19700 -6.34500 45.86900
H  27.98300 -2.81800 42.45400
H  27.15000 1.27400 42.54000
H  28.85800 1.39200 42.25100
H  28.29800 1.16600 43.96100

