158

Mg 47.02200 34.32100 28.02000
C  45.26600 32.50400 30.29600
C  47.30400 36.85400 30.19000
C  48.11700 36.31300 25.45200
C  46.06300 31.98500 25.58200
N  46.46100 34.57300 30.02500
C  45.84200 33.64100 30.82200
C  45.97200 34.03300 32.28900
C  46.27700 35.57100 32.20800
C  46.64400 35.72200 30.78200
C  45.10100 36.49600 32.69900
C  47.16000 33.32100 32.99700
C  46.93000 33.05200 34.47500
H  46.15800 34.05400 35.20500
N  47.89900 36.23200 27.94100
C  47.98000 37.12000 28.95900
C  48.72500 38.23300 28.62000
C  48.91000 38.20200 27.23500
C  48.34000 36.90400 26.80000
C  49.09200 39.24600 29.68000
C  49.55500 39.21900 26.31500
O  49.71600 38.95100 25.11600
C  50.05700 40.50800 26.83300
N  47.20300 34.05400 25.81500
C  47.55900 35.07700 25.03600
C  47.36500 34.74400 23.50800
C  46.97400 33.25400 23.54900
C  46.78800 33.06000 25.09100
C  46.26300 35.62600 22.73800
C  47.93400 32.22700 22.92200
C  48.94500 31.53100 23.80800
N  46.00300 32.52400 27.89800
C  45.69200 31.67800 26.85700
C  44.99200 30.55300 27.43100
C  44.74000 30.91000 28.76900
C  45.41800 32.06600 28.98000
C  44.56700 29.31800 26.61800
C  44.06300 30.42300 29.98200
O  43.51000 29.35100 30.22700
C  44.21900 31.58200 30.89800
C  44.37100 31.12100 32.33000
O  45.32900 30.59900 32.78000
O  43.23400 31.25300 33.03100
C  43.30500 30.88100 34.47900
H  47.34800 37.55100 31.02900
H  48.33400 36.96200 24.60000
H  45.68100 31.22600 24.89600
H  45.01500 33.84300 32.77400
H  47.13000 35.86500 32.82000
H  45.04500 36.67100 33.77300
H  44.12200 36.08000 32.46000
H  45.27600 37.41500 32.13900
H  48.07900 33.88800 32.85100
H  47.37200 32.36100 32.52500
H  47.89800 32.91900 34.95900
H  46.36100 32.12900 34.58700
H  50.13600 39.52000 29.52300
H  49.00600 38.86900 30.69900
H  48.45100 40.12100 29.57600
H  49.29000 41.20400 27.17200
H  50.45500 41.11000 26.01700
H  50.86400 40.44900 27.56400
H  48.36100 34.89200 23.09100
H  45.98500 33.06300 23.13300
H  45.66300 35.02900 22.05000
H  46.81600 36.43300 22.25700
H  45.55900 35.94900 23.50600
H  48.48500 32.82200 22.19300
H  47.38400 31.46500 22.36900
H  49.94700 31.68200 23.40600
H  48.71700 30.46900 23.72200
H  48.89700 31.71200 24.88200
H  45.18600 29.14400 25.73700
H  43.50900 29.30000 26.35600
H  44.68700 28.37400 27.15000
H  43.29000 32.15100 30.88400
H  43.56200 29.83200 34.62000
H  42.31800 31.09500 34.89000
H  44.03000 31.50800 34.99900
Mg -4.33500 25.06100 26.03800
C  -2.78800 26.83200 28.65300
C  -5.41600 22.67300 28.28100
C  -5.50100 23.49100 23.50600
C  -2.46800 27.15800 23.73500
N  -4.18100 24.82300 28.27000
C  -3.54300 25.72400 29.06200
C  -3.94600 25.46400 30.52300
C  -4.53700 23.93900 30.37700
C  -4.71800 23.72800 28.89400
C  -3.66200 22.81700 31.00800
C  -5.09400 26.51500 30.94200
C  -5.45900 26.62300 32.40100
H  -5.06300 25.44100 33.33100
N  -5.32900 23.32500 25.90700
C  -5.76600 22.51000 26.93500
C  -6.66800 21.55000 26.36200
C  -6.50700 21.59600 24.93100
C  -5.73700 22.82000 24.70600
C  -7.50300 20.67300 27.19100
C  -7.09400 20.65000 23.82700
O  -6.91900 20.82100 22.65900
C  -7.88600 19.46500 24.16000
N  -3.96700 25.27100 23.86400
C  -4.83800 24.65100 23.11800
C  -4.84500 25.18500 21.54800
C  -3.77500 26.28600 21.66200
C  -3.41700 26.28200 23.15500
C  -4.51500 24.01900 20.63900
C  -4.30900 27.69200 21.15900
C  -4.29400 27.88600 19.67400
N  -2.90400 26.68300 26.12100
C  -2.18800 27.43300 25.09700
C  -1.37400 28.45700 25.70700
C  -1.61000 28.26900 27.10000
C  -2.51000 27.17800 27.28400
C  -0.63500 29.50500 25.09800
C  -1.33900 28.83600 28.38700
O  -0.69800 29.84900 28.74700
C  -2.12700 27.95400 29.36900
C  -1.32100 27.46900 30.56800
O  -0.23700 26.92200 30.52100
O  -1.98700 27.82200 31.72200
C  -1.27000 27.46500 32.90200
H  -5.79700 21.98900 29.04300
H  -5.95100 23.04200 22.61800
H  -1.87700 27.78700 23.06600
H  -3.03700 25.43600 31.12400
H  -5.52100 24.01700 30.83900
H  -2.68400 23.26300 31.19300
H  -3.51700 22.01700 30.28200
H  -4.07000 22.41500 31.93500
H  -5.95000 26.17800 30.35700
H  -4.82200 27.50400 30.57300
H  -6.53500 26.76800 32.50500
H  -5.16500 27.62800 32.70300
H  -7.22600 19.63000 27.03500
H  -8.50000 20.83100 26.77900
H  -7.43500 20.88600 28.25800
H  -8.64100 19.67900 24.91600
H  -7.31500 18.60000 24.50000
H  -8.40900 19.15100 23.25700
H  -5.78400 25.64200 21.23600
H  -2.96400 26.03700 20.97800
H  -4.44800 23.04300 21.12100
H  -3.66100 24.19500 19.98500
H  -5.34200 23.88800 19.94100
H  -3.78000 28.53900 21.59500
H  -5.35400 27.71200 21.46900
H  -3.97200 26.96900 19.18000
H  -3.82400 28.80500 19.32500
H  -5.35700 27.96900 19.44500
H  -0.66800 29.51100 24.00800
H  0.40200 29.41000 25.42100
H  -1.06500 30.45300 25.42200
H  -2.87900 28.60400 29.81600
H  -1.81900 27.87300 33.75100
H  -0.27600 27.90900 32.86500
H  -1.26500 26.37900 32.99600

