158

Mg 24.52200 -8.08600 47.95600
C  26.89800 -5.71000 46.95600
C  22.33300 -6.61900 45.63600
C  22.48900 -10.77900 48.09600
C  26.95100 -9.77200 49.81500
N  24.61800 -6.19000 46.61200
C  25.67700 -5.37300 46.29500
C  25.46400 -4.45500 45.09200
C  23.92200 -4.68600 44.86000
C  23.51600 -5.88000 45.80400
C  22.92700 -3.53800 45.01500
C  26.36700 -4.89400 43.85300
C  26.83900 -3.70100 42.90500
H  26.19800 -3.59700 41.51400
N  22.64000 -8.64900 46.97200
C  21.88800 -7.87000 46.10100
C  20.70900 -8.61900 45.77700
C  20.71900 -9.80800 46.49200
C  22.00700 -9.76900 47.20600
C  19.60600 -8.09400 44.79100
C  19.65300 -10.92000 46.53500
O  18.60000 -10.74200 46.01000
C  19.83200 -12.14900 47.29800
N  24.65300 -9.96100 48.91600
C  23.62800 -10.87000 48.87500
C  23.93500 -12.09000 49.75900
C  25.28200 -11.71500 50.49900
C  25.65400 -10.44200 49.71500
C  22.76900 -12.34500 50.77400
C  26.35800 -12.89700 50.41700
C  27.48100 -12.85500 51.50100
N  26.46900 -7.81400 48.42500
C  27.33600 -8.54000 49.16200
C  28.68200 -7.97900 49.17400
C  28.48900 -6.82200 48.40000
C  27.15200 -6.78900 47.90300
C  29.96200 -8.48300 49.82400
C  29.14600 -5.63100 47.87500
O  30.28700 -5.24200 48.03600
C  28.20800 -4.94600 46.85100
C  28.06000 -3.47600 47.16800
O  27.56800 -2.90500 48.17100
O  28.72600 -2.77800 46.20000
C  28.54500 -1.28400 46.24800
H  21.70100 -6.22200 44.83900
H  21.92400 -11.67600 48.36000
H  27.70300 -10.26600 50.43400
H  25.67400 -3.44100 45.43200
H  23.82600 -5.05300 43.83800
H  22.56500 -3.29700 44.01500
H  23.51300 -2.66100 45.29200
H  22.10400 -3.73500 45.70100
H  25.76800 -5.62200 43.30600
H  27.08300 -5.55800 44.33700
H  27.88100 -3.94700 42.69800
H  26.94000 -2.79100 43.49600
H  19.88100 -7.27100 44.13100
H  18.75800 -7.70000 45.35000
H  19.16100 -8.97300 44.32400
H  20.70800 -12.70100 46.95800
H  19.01800 -12.87100 47.23500
H  19.83900 -11.95300 48.37000
H  23.93600 -12.84700 48.97500
H  25.22800 -11.40200 51.54100
H  22.56200 -13.41300 50.83000
H  21.85900 -11.77800 50.57700
H  23.22800 -12.13800 51.74100
H  26.87600 -12.75600 49.46800
H  25.87400 -13.87400 50.41800
H  27.28100 -12.16100 52.31800
H  28.44300 -12.67300 51.02300
H  27.42700 -13.88300 51.85900
H  29.81500 -8.87600 50.83000
H  30.69700 -7.68100 49.89700
H  30.29900 -9.33600 49.23500
H  28.66900 -5.08600 45.87400
H  29.17300 -0.79600 46.99300
H  27.51500 -0.96700 46.41000
H  28.84300 -0.95700 45.25200
Mg -9.89700 39.60500 42.50900
C  -8.68700 36.52000 41.61400
C  -7.23200 41.11800 41.02300
C  -11.61100 42.60200 42.85000
C  -13.03800 37.91600 43.14700
N  -8.25100 38.86700 41.19600
C  -7.88100 37.56800 41.12300
C  -6.60200 37.39400 40.34000
C  -6.07900 38.87400 40.46300
C  -7.23800 39.71100 40.93900
C  -4.85000 38.99100 41.41800
C  -6.87400 36.85800 38.91400
C  -6.10500 35.50700 38.55500
H  -5.06400 35.59300 37.36800
N  -9.42000 41.63100 42.17400
C  -8.23100 42.01800 41.61000
C  -8.19700 43.43700 41.65400
C  -9.38700 43.91400 42.25100
C  -10.17200 42.68900 42.47800
C  -6.99900 44.24900 41.09700
C  -9.74700 45.42100 42.49500
O  -9.05800 46.37200 42.13900
C  -10.98300 45.76700 43.35100
N  -12.00200 40.18600 42.85900
C  -12.44000 41.48200 42.93900
C  -13.91500 41.56800 43.04700
C  -14.40400 40.07500 43.20300
C  -13.05800 39.35300 43.04100
C  -14.29100 42.44100 44.30300
C  -15.52100 39.51300 42.31400
C  -16.68900 38.94100 43.14100
N  -10.71800 37.65000 42.48300
C  -11.94600 37.11400 42.83800
C  -11.90700 35.70600 42.84100
C  -10.58300 35.38500 42.39000
C  -9.94900 36.59000 42.19000
C  -13.10300 34.77600 43.21000
C  -9.60000 34.33700 42.15700
O  -9.75500 33.09800 42.22300
C  -8.30400 34.98400 41.66600
C  -7.18600 34.69300 42.63000
O  -7.05000 35.23100 43.72100
O  -6.21900 33.82200 42.03600
C  -5.10000 33.63100 42.92800
H  -6.35500 41.66400 40.66900
H  -12.02800 43.60900 42.91300
H  -14.00500 37.42300 43.25900
H  -6.00200 36.68600 40.91300
H  -5.85900 39.22900 39.45700
H  -4.49000 37.96300 41.44000
H  -5.02900 39.44600 42.39300
H  -4.14200 39.57200 40.82700
H  -6.76300 37.54700 38.07700
H  -7.94000 36.65000 38.81400
H  -6.84100 34.74000 38.31500
H  -5.65000 34.96500 39.38400
H  -7.25800 45.27200 40.82200
H  -6.66500 43.82600 40.15000
H  -6.15300 44.37100 41.77400
H  -10.86200 46.76700 43.76700
H  -11.12700 45.01100 44.12300
H  -11.77500 45.68200 42.60700
H  -14.32400 41.98200 42.12600
H  -14.71500 39.91400 44.23500
H  -15.16000 42.03200 44.81900
H  -14.59400 43.45100 44.03000
H  -13.45500 42.40000 45.00200
H  -15.09800 38.63000 41.83600
H  -15.73900 40.31400 41.60700
H  -17.56200 39.11000 42.51100
H  -16.76200 39.40300 44.12600
H  -16.66800 37.85500 43.05300
H  -12.93600 34.31200 44.18200
H  -13.28100 33.93600 42.53900
H  -14.00000 35.39600 43.22500
H  -8.03200 34.65500 40.66400
H  -5.33800 33.02100 43.79900
H  -4.70100 34.58700 43.26900
H  -4.27000 33.17900 42.38400

