158

Mg 8.36200 3.06400 27.29200
C  9.67100 1.52400 30.19100
C  6.61400 5.10600 29.18200
C  7.43100 4.52900 24.45500
C  10.17000 0.62300 25.44200
N  8.11000 3.23900 29.43400
C  8.79700 2.55600 30.45100
C  8.41300 3.13700 31.81100
C  7.27600 4.19500 31.41300
C  7.31200 4.19300 29.93700
C  5.92700 3.97600 32.03800
C  9.63900 3.87000 32.49100
C  10.27300 3.26600 33.82900
H  10.39100 4.33600 34.89500
N  7.09200 4.61200 26.84700
C  6.50500 5.38600 27.73200
C  5.73900 6.41800 27.07600
C  5.92400 6.23500 25.68300
C  6.79900 5.06700 25.59600
C  4.94500 7.54800 27.74600
C  5.44100 7.08300 24.55300
O  5.78600 6.84100 23.40900
C  4.58600 8.34300 24.72900
N  8.73300 2.61400 25.23900
C  8.26700 3.40400 24.22800
C  8.78600 2.92100 22.86000
C  9.39100 1.51500 23.15700
C  9.38500 1.53600 24.71100
C  7.79400 3.04100 21.66600
C  10.78500 1.18200 22.35700
C  10.87800 -0.03200 21.40300
N  9.58400 1.32300 27.65700
C  10.16500 0.47100 26.82100
C  10.96600 -0.46000 27.55500
C  10.86500 -0.13700 28.90600
C  9.89300 0.96100 28.91800
C  11.94000 -1.51000 26.95400
C  11.27900 -0.35800 30.26900
O  12.12600 -1.14300 30.66000
C  10.53000 0.70500 31.15400
C  9.69500 -0.02200 32.11100
O  8.52700 -0.30800 31.95500
O  10.42800 -0.21300 33.26400
C  9.52100 -0.69800 34.31800
H  6.20000 5.92200 29.77700
H  7.43500 5.18200 23.58000
H  10.71600 -0.10800 24.84200
H  8.01400 2.31800 32.41000
H  7.61400 5.20100 31.65900
H  5.69400 2.91300 32.09100
H  5.16300 4.46400 31.43200
H  6.00900 4.32100 33.06900
H  9.52500 4.95000 32.57800
H  10.46100 3.69900 31.79600
H  11.27500 2.91500 33.57900
H  9.67400 2.47400 34.27800
H  5.03200 7.47400 28.83000
H  3.92100 7.29500 27.47200
H  5.13300 8.57500 27.43100
H  4.15000 8.53600 23.74800
H  5.25400 9.14900 25.03200
H  3.76800 8.26500 25.44500
H  9.64700 3.55800 22.65800
H  8.61800 0.80600 22.86100
H  6.82400 3.31000 22.08400
H  7.70800 2.10100 21.12100
H  8.23700 3.79800 21.01800
H  11.64700 1.19600 23.02400
H  11.00600 1.97700 21.64500
H  10.76700 0.19900 20.34400
H  10.08000 -0.74700 21.60400
H  11.79300 -0.62100 21.46700
H  12.81000 -0.97500 26.57300
H  11.38800 -2.04900 26.18400
H  12.08400 -2.23600 27.75500
H  11.13600 1.33100 31.80900
H  8.98300 0.13100 34.77800
H  10.20400 -1.19100 35.00900
H  8.80300 -1.50200 34.15600
Mg 31.26200 58.72600 39.81200
C  28.17600 57.00500 38.93100
C  32.93200 56.03400 38.61300
C  33.96000 60.64900 39.82000
C  29.26700 61.43800 40.64200
N  30.59200 56.80600 38.89300
C  29.35200 56.26100 38.62700
C  29.52700 54.91100 38.08700
C  30.99700 54.55600 38.26800
C  31.54500 55.86800 38.58100
C  31.36000 53.56100 39.42500
C  29.15600 54.81300 36.60500
C  28.09000 53.72400 36.19700
H  27.25000 54.18600 34.95900
N  33.23200 58.38000 39.37400
C  33.74700 57.19000 38.87100
C  35.13500 57.31200 38.66100
C  35.48300 58.63500 39.01500
C  34.22200 59.31500 39.41900
C  35.99600 56.23300 38.05100
C  36.90200 59.17600 38.83900
O  37.85900 58.47500 38.55100
C  37.21100 60.64700 38.91400
N  31.53400 60.79600 40.08500
C  32.78100 61.33200 40.23300
C  32.72400 62.72200 40.84600
C  31.17700 62.96600 41.00700
C  30.57600 61.62800 40.49700
C  33.68600 62.89800 42.07400
C  30.65200 64.28800 40.16400
C  29.87800 65.31100 41.04000
N  29.14800 59.18300 39.92900
C  28.49200 60.25800 40.31400
C  27.07900 60.08700 40.26400
C  26.95200 58.84600 39.76000
C  28.20300 58.28400 39.54400
C  26.06800 61.10800 40.61300
C  25.89800 57.85400 39.42700
O  24.68900 57.87800 39.43900
C  26.69200 56.59800 38.80400
C  26.30200 55.37300 39.60500
O  26.95800 54.96300 40.52800
O  25.20600 54.68300 38.99900
C  25.04900 53.38400 39.63700
H  33.52900 55.16200 38.34000
H  34.85100 61.27900 39.83000
H  28.62700 62.27800 40.91900
H  29.03500 54.12700 38.66300
H  31.45500 54.20800 37.34200
H  32.04500 54.06400 40.10700
H  31.80700 52.63000 39.07600
H  30.45400 53.29000 39.96800
H  30.03400 54.61400 35.99100
H  28.79400 55.78400 36.26800
H  27.42600 53.65100 37.05900
H  28.60600 52.79200 35.97000
H  36.18100 56.43400 36.99600
H  35.59400 55.23000 38.19900
H  36.86500 56.22700 38.70900
H  36.42400 61.24700 38.45600
H  38.09100 60.97900 38.36200
H  37.23500 60.72200 40.00100
H  33.14000 63.44600 40.14500
H  31.08900 63.03000 42.09100
H  33.25300 63.60900 42.77800
H  34.70400 63.20600 41.83700
H  33.71300 61.92500 42.56500
H  30.00800 63.85700 39.39900
H  31.48000 64.76600 39.63900
H  30.38400 66.25700 40.84300
H  29.88300 65.04400 42.09700
H  28.85000 65.39000 40.68800
H  26.15300 61.89100 39.85900
H  26.08300 61.43400 41.65300
H  25.10600 60.63500 40.41800
H  26.45800 56.43900 37.75200
H  25.86100 52.72000 39.34000
H  24.02000 53.06800 39.46300
H  25.20500 53.60400 40.69300

