158

Mg -0.21900 6.95100 26.66400
C  1.13200 9.66100 28.67900
C  0.06800 4.98100 29.50000
C  -2.01100 4.66200 25.13800
C  0.31500 8.87100 23.89800
N  0.41100 7.34100 28.82500
C  0.87000 8.48500 29.39600
C  0.97400 8.28500 30.90200
C  1.15300 6.82300 31.03700
C  0.60600 6.31200 29.66100
C  2.57700 6.32300 31.45500
C  -0.30900 8.84700 31.62000
C  -0.21100 9.25100 33.12400
H  0.94600 8.81300 33.93700
N  -0.80700 5.11900 27.19900
C  -0.62000 4.48000 28.33200
C  -1.27800 3.23400 28.35800
C  -1.97700 3.10000 27.17000
C  -1.60300 4.28000 26.44600
C  -1.25800 2.32500 29.54300
C  -2.92900 2.08800 26.70400
O  -3.42700 2.11400 25.57700
C  -3.17000 0.84200 27.46400
N  -0.57200 6.62900 24.76300
C  -1.44800 5.67900 24.28500
C  -1.77800 5.74500 22.74300
C  -1.19600 7.18200 22.46700
C  -0.29700 7.57100 23.75300
C  -1.09700 4.60000 21.90000
C  -2.35100 8.13500 22.16900
C  -2.25700 8.96400 20.81500
N  0.44100 8.90400 26.31100
C  0.60700 9.52400 25.11000
C  1.14100 10.85700 25.29600
C  1.30800 10.99800 26.73900
C  0.95500 9.75500 27.28300
C  1.60700 11.81100 24.18800
C  1.68600 11.90900 27.80400
O  2.07700 13.13000 27.74100
C  1.41500 11.09800 29.13600
C  2.67100 11.13800 29.90100
O  3.73000 10.62200 29.54500
O  2.59000 11.88300 31.04800
C  3.80800 11.88200 31.91500
H  0.24500 4.39400 30.40400
H  -2.53500 3.88500 24.57800
H  0.44300 9.53800 23.04300
H  1.84500 8.82100 31.27900
H  0.48700 6.51500 31.84300
H  2.74600 5.99300 32.48000
H  3.28000 7.13900 31.28900
H  2.95700 5.53900 30.80000
H  -1.20300 8.25600 31.42200
H  -0.38500 9.78900 31.07800
H  -1.03600 8.77300 33.65300
H  -0.32800 10.32600 33.25700
H  -2.25500 2.15700 29.95000
H  -0.52300 2.55700 30.31400
H  -0.98800 1.34600 29.14900
H  -3.72900 0.16000 26.82300
H  -3.81100 1.00400 28.33100
H  -2.23500 0.34400 27.71900
H  -2.84800 5.53700 22.73200
H  -0.54100 7.16500 21.59600
H  -0.34000 4.11700 22.51900
H  -0.66300 5.01200 20.99000
H  -1.89200 3.88200 21.69800
H  -2.47400 8.95200 22.88000
H  -3.28800 7.58000 22.12200
H  -2.53200 9.99700 21.02600
H  -3.09500 8.59600 20.22300
H  -1.27300 9.05900 20.35500
H  0.84800 11.58300 23.43900
H  2.59600 11.63300 23.76600
H  1.57500 12.89100 24.33600
H  0.56300 11.44500 29.72100
H  3.87500 12.90600 32.28100
H  4.76200 11.92000 31.39000
H  3.82800 11.12200 32.69700
Mg 25.52400 1.66000 29.51400
C  27.34700 1.58000 32.44800
C  22.54500 1.88300 31.26200
C  24.01600 1.68500 26.52600
C  28.58900 1.46600 27.75900
N  25.04600 1.63800 31.66600
C  25.98200 1.82800 32.65700
C  25.23100 2.02300 34.00500
C  23.69400 2.07400 33.59700
C  23.73000 1.81200 32.07900
C  22.80300 1.07900 34.43900
C  25.70300 3.30700 34.82300
C  26.29800 3.20500 36.21500
H  25.98700 4.31900 37.25700
N  23.57300 1.64500 28.98600
C  22.51100 1.78500 29.82500
C  21.33500 1.76900 29.01600
C  21.70400 1.56300 27.67100
C  23.15300 1.65600 27.69900
C  19.85500 1.74800 29.65900
C  20.85800 1.29500 26.39100
O  21.34200 1.01900 25.28700
C  19.36700 1.22800 26.49100
N  26.26900 1.62100 27.33800
C  25.41000 1.76800 26.30500
C  26.07600 1.96500 24.93600
C  27.57200 1.93100 25.38100
C  27.52600 1.64000 26.90400
C  25.65200 0.94900 23.82600
C  28.29900 3.15200 25.03600
C  28.07000 4.47000 25.81300
N  27.53200 1.28300 29.87800
C  28.71200 1.32800 29.14100
C  29.89400 1.14900 29.99100
C  29.38300 1.23400 31.26100
C  27.99700 1.35500 31.16100
C  31.40700 0.92700 29.58500
C  29.76700 1.43500 32.61500
O  30.89400 1.38600 33.12100
C  28.45700 1.66500 33.47900
C  28.36200 0.60200 34.41300
O  27.85800 -0.48200 34.13700
O  29.01800 0.91100 35.54200
C  28.90300 -0.05100 36.63400
H  21.62900 2.20500 31.76200
H  23.48900 1.77500 25.57400
H  29.55900 1.67200 27.30200
H  25.41100 1.10900 34.57200
H  23.26100 3.06500 33.73400
H  23.43100 0.44100 35.06100
H  22.14900 0.48200 33.80400
H  22.19100 1.56600 35.19800
H  24.88600 4.02700 34.86700
H  26.44400 3.71100 34.13300
H  27.38600 3.18300 36.16000
H  26.06800 2.24700 36.68100
H  19.10800 2.25900 29.05200
H  19.88500 1.98500 30.72300
H  19.56400 0.73400 29.38600
H  18.98400 0.80600 25.56100
H  18.94800 2.22400 26.63800
H  19.14900 0.55000 27.31500
H  25.76900 2.94000 24.55800
H  28.05900 1.08900 24.88900
H  26.39800 0.16200 23.71900
H  25.39500 1.45200 22.89400
H  24.74900 0.42700 24.14300
H  27.92400 3.31000 24.02500
H  29.35900 2.92600 25.14900
H  27.60500 4.30400 26.78500
H  27.44000 5.19000 25.29100
H  29.03600 4.96800 25.89700
H  31.84600 1.70500 28.96000
H  31.53100 -0.10300 29.24900
H  31.89000 0.95300 30.56200
H  28.43000 2.64400 33.95700
H  27.85600 -0.21400 36.88900
H  29.27300 0.34300 37.58000
H  29.43200 -0.98500 36.44100

