158

Mg 26.24700 -0.68900 29.32000
C  28.30800 -1.19300 32.25700
C  23.61300 -0.17900 31.53600
C  24.16400 -0.60700 26.69600
C  28.83100 -1.89500 27.41000
N  26.03500 -0.58200 31.66300
C  26.99600 -0.68100 32.60400
C  26.48200 -0.31500 34.01200
C  24.91200 -0.01900 33.70600
C  24.81600 -0.34300 32.19800
C  23.92000 -0.72600 34.71700
C  27.17900 0.90800 34.74600
C  27.97600 0.57500 36.01800
H  27.37600 1.25000 37.30000
N  24.14600 -0.34100 29.13100
C  23.23900 -0.10900 30.14000
C  21.91400 -0.00900 29.54800
C  22.08200 -0.07700 28.12700
C  23.48600 -0.38300 27.94300
C  20.69900 0.28400 30.47200
C  21.04800 -0.04700 27.03600
O  21.27300 -0.11000 25.83200
C  19.61800 0.16900 27.46900
N  26.41800 -1.20900 27.36700
C  25.52800 -0.88200 26.40500
C  26.11000 -0.85300 25.08000
C  27.58200 -1.41000 25.26500
C  27.62000 -1.48100 26.76900
C  25.27200 -1.61000 23.98700
C  28.72200 -0.59200 24.58500
C  29.02900 0.77500 25.19800
N  28.16500 -1.40400 29.66300
C  29.13600 -1.90600 28.82800
C  30.34000 -2.28800 29.57300
C  30.05700 -1.87500 30.86300
C  28.74600 -1.38000 30.91400
C  31.63000 -2.60600 28.90400
C  30.72700 -1.77800 32.15000
O  31.85900 -2.16900 32.51500
C  29.54100 -1.40700 33.14100
C  29.43900 -2.46100 34.12800
O  28.71600 -3.48000 34.09000
O  30.27100 -2.20400 35.16400
C  30.04500 -3.08500 36.35000
H  22.80700 0.05100 32.23600
H  23.53200 -0.51500 25.81000
H  29.66900 -2.20000 26.78100
H  26.57500 -1.20700 34.63000
H  24.79800 1.05800 33.83200
H  23.65300 -1.75600 34.48300
H  22.94600 -0.23700 34.70500
H  24.45200 -0.74900 35.66900
H  26.49600 1.73000 34.96100
H  27.91300 1.44100 34.14100
H  29.04100 0.73700 35.85300
H  27.96700 -0.49600 36.22100
H  20.01600 -0.56200 30.54500
H  20.13900 1.18300 30.21300
H  20.96200 0.53700 31.50000
H  19.36300 -0.57900 28.21900
H  18.92900 0.16400 26.62400
H  19.46600 1.16500 27.88200
H  26.12600 0.15300 24.66000
H  27.71300 -2.41200 24.85800
H  24.76700 -0.93700 23.29400
H  24.56000 -2.15100 24.61000
H  25.89900 -2.31000 23.43600
H  28.54400 -0.43800 23.52100
H  29.68300 -1.10000 24.66200
H  30.04700 0.71100 25.58100
H  28.33900 0.97300 26.01800
H  28.86100 1.51100 24.41200
H  31.94600 -1.64000 28.51000
H  31.45300 -3.19900 28.00700
H  32.45200 -2.95600 29.53000
H  29.75300 -0.46000 33.63700
H  30.88100 -2.82100 36.99700
H  30.14600 -4.09700 35.95800
H  29.14400 -2.95900 36.95000
Mg 52.72500 24.27100 45.77500
C  50.29300 26.13700 44.41500
C  51.93700 21.60500 43.82700
C  55.88100 22.89500 46.34600
C  54.15300 27.37500 46.95100
N  51.26900 23.94500 44.36300
C  50.41900 24.80800 43.88200
C  49.58300 24.25700 42.71500
C  49.90700 22.77900 42.71600
C  51.12300 22.75300 43.65300
C  48.65000 21.82800 43.17600
C  49.98100 25.01500 41.42400
C  48.97800 25.04300 40.28800
H  49.39900 24.28000 38.89700
N  53.64000 22.39700 45.31400
C  53.09700 21.38200 44.55200
C  53.91000 20.24000 44.66300
C  55.09200 20.57800 45.38700
C  54.93700 22.03200 45.73800
C  53.39900 18.92400 44.12200
C  56.16300 19.58300 45.82000
O  56.05200 18.39300 45.48300
C  57.14100 19.92400 46.82000
N  54.74900 25.07800 46.56600
C  55.78500 24.28300 46.68300
C  56.91600 25.07900 47.49900
C  56.52100 26.55200 47.45500
C  55.04300 26.35700 47.00400
C  57.00900 24.47500 48.89100
C  57.32400 27.42700 46.45600
C  58.37000 28.29800 47.13100
N  52.19800 26.21400 46.03500
C  52.79800 27.33900 46.59300
C  51.90600 28.53800 46.46800
C  50.92100 28.00100 45.65700
C  51.14300 26.65600 45.39400
C  52.11900 29.97600 47.00600
C  49.79100 28.49200 44.94100
O  49.22300 29.57200 44.81600
C  49.28700 27.29600 44.10100
C  49.21900 27.88100 42.67600
O  50.17200 28.21600 42.02200
O  47.89300 27.99500 42.38800
C  47.34400 28.48100 41.08500
H  51.54800 20.75300 43.26600
H  56.87900 22.49700 46.54100
H  54.63500 28.31900 47.21700
H  48.51100 24.40600 42.84100
H  50.32900 22.45100 41.76600
H  48.76700 20.87100 42.66600
H  47.71400 22.26800 42.83200
H  48.63100 21.60500 44.24300
H  50.83100 24.48000 41.00000
H  50.41200 25.97200 41.72100
H  48.78400 26.11100 40.19000
H  48.06300 24.49400 40.51000
H  54.02600 18.60900 43.28800
H  52.32900 18.90100 43.91500
H  53.45000 18.05100 44.77300
H  58.08200 20.18100 46.33300
H  57.32800 19.08300 47.48900
H  56.90000 20.76700 47.46800
H  57.75900 24.77400 46.87900
H  56.58400 26.96900 48.46000
H  58.00400 24.76000 49.23300
H  56.94700 23.38800 48.84100
H  56.19800 24.83400 49.52500
H  56.61400 28.04800 45.90900
H  57.92700 26.77000 45.82900
H  58.45300 29.28400 46.67500
H  59.35700 27.83400 47.15300
H  58.02200 28.49700 48.14500
H  52.59700 30.65000 46.29500
H  52.94300 30.00600 47.71900
H  51.31100 30.38000 47.61600
H  48.30400 27.05600 44.50500
H  47.51700 28.00600 40.11900
H  47.91200 29.39100 40.89200
H  46.26000 28.54600 41.17800

