158

Mg 8.93800 3.63100 27.99900
C  10.06100 1.92100 30.86800
C  7.12000 5.86400 30.00800
C  7.47100 5.03400 25.27000
C  10.13100 1.06900 25.97900
N  8.58800 3.72900 30.11400
C  9.24600 3.02900 31.12400
C  9.08400 3.75800 32.42900
C  8.07900 4.89800 32.22400
C  7.87900 4.82400 30.67100
C  6.69400 4.80000 33.05000
C  10.40800 4.13600 33.18800
C  10.69400 3.54200 34.59000
H  11.37900 4.42400 35.67200
N  7.62500 5.34300 27.68300
C  7.00800 6.11100 28.60400
C  6.29600 7.19100 27.97600
C  6.27800 6.86400 26.62200
C  7.19600 5.74000 26.43500
C  5.58200 8.28200 28.72500
C  5.39800 7.45800 25.52100
O  5.38500 6.99000 24.42300
C  4.44600 8.68600 25.78100
N  8.92400 3.13900 25.93100
C  8.30500 3.94100 24.97600
C  8.29300 3.28600 23.60200
C  9.22500 2.04100 23.73100
C  9.40300 2.05700 25.29600
C  6.81600 2.89000 23.21800
C  10.53400 2.12200 22.97800
C  10.63300 1.17000 21.78700
N  9.94700 1.87500 28.31300
C  10.38100 0.94800 27.43500
C  11.02900 -0.09600 28.09900
C  10.93000 0.19400 29.44000
C  10.21600 1.41300 29.54300
C  11.67700 -1.26500 27.39000
C  11.36700 -0.15000 30.84500
O  12.00300 -1.06500 31.24900
C  10.73900 0.96800 31.78500
C  9.85700 0.28500 32.78500
O  8.79100 -0.22500 32.56000
O  10.38800 0.31500 34.06400
C  9.63200 -0.41400 35.07300
H  6.55100 6.44300 30.73800
H  7.13100 5.47400 24.33100
H  10.53000 0.24300 25.38800
H  8.66200 3.02100 33.11200
H  8.56200 5.84900 32.45000
H  6.44800 5.81400 33.36500
H  6.92400 4.23800 33.95500
H  5.87900 4.37700 32.46300
H  10.33800 5.21300 33.33800
H  11.26800 3.92300 32.55400
H  11.47400 2.78300 34.53900
H  9.77300 3.09400 34.96500
H  4.50000 8.21100 28.60600
H  5.92800 9.22300 28.29900
H  5.87100 8.35300 29.77300
H  3.78500 8.88400 24.93700
H  5.02500 9.58100 26.01000
H  3.80600 8.61900 26.66000
H  8.36000 4.04000 22.81800
H  8.72500 1.09500 23.52300
H  6.12900 3.26400 23.97800
H  6.68800 1.81000 23.15300
H  6.61500 3.40100 22.27700
H  11.32800 1.73600 23.61800
H  10.67300 3.09700 22.51300
H  11.03500 1.60300 20.87100
H  9.68700 0.72300 21.48000
H  11.27000 0.30800 21.98700
H  11.11500 -1.67600 26.55100
H  11.92600 -2.10900 28.03200
H  12.58300 -0.82100 26.97600
H  11.58500 1.42000 32.30200
H  10.13900 -1.34500 35.32400
H  8.61000 -0.64800 34.77500
H  9.49300 0.21600 35.95200
Mg -2.09700 34.73900 27.40400
C  -3.61400 33.01800 30.18400
C  -0.35600 36.63300 29.44600
C  -1.24500 36.67100 24.75200
C  -3.98600 32.67700 25.23900
N  -2.10400 34.85300 29.60900
C  -2.72000 34.05600 30.58300
C  -2.15700 34.38200 31.94700
C  -1.38600 35.74500 31.63800
C  -1.21700 35.76300 30.12500
C  -1.98600 36.95200 32.29800
C  -1.33800 33.18100 32.48800
C  -1.95100 32.43800 33.64300
H  -1.25000 32.41000 34.96100
N  -0.90400 36.36500 27.10200
C  -0.19500 37.00200 28.12900
C  0.64200 38.07100 27.64100
C  0.32200 38.05500 26.22500
C  -0.59900 36.99700 25.93500
C  1.48400 39.01700 28.56700
C  0.89500 38.92700 25.17600
O  0.47100 38.86200 24.03600
C  1.98300 39.79300 25.49300
N  -2.66200 34.73100 25.37100
C  -2.25500 35.68900 24.52500
C  -2.69200 35.45100 23.00200
C  -3.46900 34.10300 23.17000
C  -3.34500 33.73800 24.63500
C  -3.49200 36.63600 22.30800
C  -2.84700 33.06200 22.19500
C  -1.60300 32.25600 22.70000
N  -3.48500 33.14400 27.64600
C  -4.01900 32.35100 26.66400
C  -4.83100 31.31100 27.30500
C  -4.73100 31.56800 28.69500
C  -3.86200 32.62400 28.83900
C  -5.63300 30.26500 26.65500
C  -5.16500 31.10000 30.01400
O  -5.87500 30.22100 30.41400
C  -4.42300 31.98600 31.02200
C  -5.54400 32.58700 31.84700
O  -6.35800 33.44300 31.43400
O  -5.63200 32.03800 33.09700
C  -6.85000 32.15700 33.84700
H  0.27800 37.17000 30.15400
H  -1.02100 37.22000 23.83500
H  -4.49800 32.05800 24.50000
H  -3.05600 34.59400 32.52700
H  -0.32900 35.70100 31.90000
H  -2.95500 37.13600 31.83600
H  -1.38800 37.82100 32.02000
H  -1.97300 36.87200 33.38500
H  -0.39300 33.65600 32.75300
H  -1.18000 32.52100 31.63500
H  -1.98900 31.43400 33.22000
H  -2.92400 32.90500 33.79900
H  1.23800 38.91100 29.62300
H  1.31100 40.05100 28.26900
H  2.51900 38.74700 28.35300
H  2.15200 40.46000 24.64700
H  2.88300 39.30300 25.86500
H  1.68600 40.53400 26.23600
H  -1.81900 35.30100 22.36600
H  -4.52600 34.30900 22.99700
H  -4.56000 36.45100 22.18900
H  -3.03500 36.87100 21.34700
H  -3.39700 37.44100 23.03700
H  -2.43300 33.43800 21.26000
H  -3.68900 32.39500 22.00500
H  -0.69800 32.37200 22.10200
H  -2.02700 31.25400 22.76700
H  -1.31900 32.53700 23.71400
H  -5.72000 30.43500 25.58200
H  -6.66900 30.36000 26.98000
H  -5.51500 29.19200 26.80900
H  -3.87700 31.27800 31.64700
H  -7.76200 32.34700 33.28100
H  -6.80300 32.89400 34.64800
H  -7.06000 31.15000 34.20900

