158

Mg -0.33700 7.00700 26.97500
C  0.57100 9.08600 29.52700
C  -0.61200 4.35200 29.41200
C  -1.04400 4.92400 24.50000
C  0.52800 9.46000 24.63000
N  -0.09900 6.78700 29.30500
C  0.21900 7.85100 30.13500
C  0.11100 7.42700 31.60400
C  0.11300 5.86800 31.48500
C  -0.24400 5.59300 29.98500
C  1.51700 5.23400 31.77600
C  -1.18700 7.95900 32.32200
C  -1.31300 8.19800 33.84800
H  -0.06900 7.88000 34.73700
N  -0.85100 5.00000 26.96300
C  -0.95000 4.08900 28.04800
C  -1.24100 2.76700 27.51000
C  -1.29800 2.87500 26.05800
C  -1.03400 4.32800 25.80900
C  -1.30400 1.57600 28.37900
C  -1.52500 1.82400 25.04300
O  -1.49300 2.00100 23.81500
C  -1.62500 0.45000 25.50800
N  -0.14000 7.17000 24.77600
C  -0.55100 6.13100 23.99500
C  -0.54100 6.53600 22.50200
C  -0.12000 8.04800 22.55100
C  0.04100 8.28600 24.03300
C  0.20200 5.69900 21.50800
C  -0.99500 9.03900 21.84100
C  -2.03600 9.76100 22.63200
N  0.42300 8.85100 27.04500
C  0.67900 9.79800 26.03400
C  1.11700 11.02200 26.57400
C  1.05500 10.85500 27.91700
C  0.71200 9.47200 28.13300
C  1.52300 12.36300 25.78800
C  1.26700 11.46500 29.20900
O  1.71000 12.61100 29.45600
C  0.99900 10.33700 30.26700
C  2.20500 10.21900 31.09200
O  3.22900 9.72200 30.70600
O  1.93500 10.75900 32.35600
C  3.15000 10.86400 33.18800
H  -0.63000 3.62900 30.22900
H  -1.17800 4.26000 23.64400
H  0.74200 10.24800 23.90400
H  1.01700 7.82600 32.05900
H  -0.67300 5.43800 32.10600
H  1.95200 4.91100 30.83000
H  1.39800 4.31900 32.35700
H  2.02800 5.98000 32.38400
H  -2.01600 7.31600 32.02700
H  -1.52300 8.90100 31.88900
H  -2.11500 7.66900 34.36200
H  -1.57500 9.24900 33.96400
H  -1.38000 1.84700 29.43200
H  -0.48800 0.91800 28.08200
H  -2.23100 1.06400 28.12000
H  -2.47000 0.35800 26.19000
H  -0.66500 0.11400 25.89900
H  -1.76700 -0.19300 24.63900
H  -1.60000 6.41300 22.27200
H  0.93900 8.13700 22.30900
H  0.81900 5.01400 22.09000
H  0.88500 6.31600 20.92400
H  -0.46200 5.05000 20.93700
H  -1.49300 8.38100 21.12800
H  -0.41900 9.81600 21.33800
H  -2.93900 10.03800 22.08900
H  -1.54200 10.72300 22.77100
H  -2.25000 9.27800 23.58500
H  2.20200 12.22500 24.94600
H  2.07100 13.15300 26.30200
H  0.62600 12.84400 25.39800
H  0.17300 10.64500 30.90900
H  3.09300 11.61400 33.97700
H  4.07400 11.05900 32.64400
H  3.42100 9.91400 33.65000
Mg 29.94900 57.50700 39.75400
C  27.10900 55.61400 38.90900
C  31.93200 54.74300 39.04300
C  32.59700 59.63600 39.53000
C  27.78000 60.45800 39.93000
N  29.57300 55.52100 39.06000
C  28.31300 54.92900 38.90900
C  28.41700 53.47100 38.58000
C  29.91900 53.09800 38.91300
C  30.54100 54.52300 39.01400
C  30.22500 52.22400 40.15600
C  27.98100 53.10900 37.18400
C  28.59800 53.97600 36.03400
H  27.69600 54.74000 35.02600
N  31.95700 57.23200 39.34200
C  32.58500 55.97700 39.10400
C  33.97400 56.24500 39.02000
C  34.19400 57.64100 39.11400
C  32.83900 58.25700 39.40200
C  34.98600 55.05500 38.86100
C  35.58300 58.23900 39.04800
O  36.52700 57.49400 38.90400
C  35.79800 59.71200 39.18000
N  30.16700 59.74800 39.72100
C  31.34500 60.35200 39.75200
C  31.25600 61.80600 40.11200
C  29.68900 62.05800 40.19400
C  29.12400 60.66800 39.95500
C  32.04800 62.23300 41.37400
C  29.11000 63.26200 39.35800
C  29.76500 64.64500 39.67000
N  27.89900 57.93400 39.70300
C  27.19200 59.15800 39.86000
C  25.78800 58.80900 39.83100
C  25.70500 57.42200 39.40800
C  27.02200 56.99200 39.33200
C  24.61000 59.82600 39.92800
C  24.76900 56.41100 38.95000
O  23.51300 56.36100 38.90500
C  25.65300 55.06200 38.75800
C  25.20900 54.08000 39.82700
O  25.54500 54.11500 40.98700
O  24.25700 53.28700 39.27300
C  23.59400 52.40000 40.16700
H  32.47300 53.82400 38.80900
H  33.42100 60.35100 39.47000
H  27.11400 61.32200 39.99100
H  27.78800 52.91800 39.27900
H  30.36600 52.54700 38.08600
H  31.11300 51.63200 39.93300
H  29.39300 51.57200 40.42400
H  30.43300 52.88100 41.00000
H  26.89300 53.05800 37.14700
H  28.32200 52.08400 37.03600
H  29.28400 53.36800 35.44300
H  29.18900 54.82900 36.36700
H  34.64500 54.34400 38.10900
H  35.11900 54.51500 39.79900
H  35.92800 55.34500 38.39600
H  35.14200 60.24900 38.49500
H  36.78800 59.95200 38.79300
H  35.72600 60.00000 40.22900
H  31.55800 62.41300 39.25900
H  29.40500 62.37500 41.19700
H  32.54600 61.36300 41.80100
H  31.38600 62.62200 42.14800
H  32.79700 62.99700 41.16600
H  28.09000 63.45900 39.68900
H  29.28500 63.06000 38.30100
H  30.79100 64.43700 39.97400
H  29.36700 65.20600 40.51600
H  29.77600 65.25300 38.76500
H  25.07100 60.70600 40.37700
H  23.79800 59.44300 40.54500
H  24.20700 60.10400 38.95400
H  25.40000 54.71900 37.75400
H  24.25600 51.88800 40.86600
H  22.99200 51.67900 39.61500
H  22.94500 53.04400 40.76100

