158

Mg 36.13300 1.90300 30.01400
C  33.77700 3.07900 32.32600
C  38.48200 1.68300 32.35700
C  38.28000 1.08700 27.55000
C  33.59300 2.42400 27.44200
N  36.07300 2.18200 32.19900
C  34.96200 2.65900 32.91900
C  35.30200 2.69400 34.37400
C  36.92300 2.56400 34.35400
C  37.20300 2.11700 32.90700
C  37.75800 3.82700 34.60400
C  34.62400 1.57400 35.20000
C  34.09200 1.82300 36.68100
H  34.61000 3.07600 37.33200
N  38.05500 1.29600 30.02300
C  38.93100 1.31000 31.12600
C  40.20400 0.84900 30.71200
C  40.12600 0.54500 29.30000
C  38.79200 1.04200 28.84900
C  41.28800 0.60200 31.77200
C  41.13800 -0.12300 28.45100
O  40.87000 -0.51400 27.28900
C  42.47500 -0.48200 28.97500
N  35.99300 1.64200 27.76600
C  37.01200 1.35400 26.99200
C  36.66200 1.47700 25.49600
C  35.16000 1.53000 25.51600
C  34.86500 1.95800 26.97800
C  37.23900 2.85900 25.00000
C  34.46700 0.11200 25.22400
C  33.59800 0.08900 24.00400
N  34.15000 2.43300 29.94600
C  33.24700 2.58800 28.83300
C  31.99200 3.05100 29.30000
C  32.15900 3.17200 30.67300
C  33.50100 2.87700 30.97100
C  30.81200 3.38100 28.48600
C  31.44200 3.63600 31.82900
O  30.32000 4.08200 32.05400
C  32.45000 3.58900 32.99900
C  32.45200 4.89600 33.62300
O  33.12900 5.85000 33.25900
O  31.70000 4.93200 34.77600
C  32.03300 6.07600 35.70200
H  39.23100 1.64900 33.15100
H  39.07500 0.83200 26.84700
H  32.81300 2.55300 26.68900
H  35.07400 3.66900 34.80500
H  37.34200 1.75100 34.94700
H  38.75400 3.60800 34.99000
H  37.32700 4.57200 35.27200
H  37.84200 4.32200 33.63700
H  35.32100 0.73600 35.17800
H  33.84900 1.17100 34.54700
H  34.25200 1.09600 37.47700
H  33.02300 1.91100 36.48600
H  40.95600 0.65500 32.80900
H  41.97800 1.43100 31.61800
H  41.83000 -0.32300 31.57400
H  42.76900 0.28600 29.69100
H  43.13200 -0.43300 28.10600
H  42.55000 -1.52500 29.28100
H  37.05000 0.62400 24.93800
H  34.75000 2.37500 24.96200
H  38.18100 2.66800 24.48600
H  37.34200 3.68800 25.70000
H  36.66400 3.33500 24.20600
H  33.74300 -0.08000 26.01500
H  35.19100 -0.70100 25.18200
H  32.68000 -0.49100 24.09900
H  34.03900 -0.36900 23.11900
H  33.32100 1.11800 23.77500
H  31.10400 4.26800 27.92300
H  30.01900 3.68900 29.16700
H  30.65600 2.45700 27.93000
H  31.96400 2.86200 33.64900
H  31.70800 7.02500 35.27400
H  33.07200 6.05500 36.03200
H  31.46400 5.87800 36.61100
Mg 42.71000 40.76100 26.47500
C  41.43100 43.00500 28.99400
C  43.76200 38.69400 28.90000
C  43.76500 38.75600 24.04000
C  41.88700 43.10100 24.07500
N  42.58600 40.85300 28.74000
C  41.95200 41.74800 29.55500
C  42.07800 41.43400 30.99900
C  42.92400 40.09500 30.88800
C  43.15400 39.85400 29.45400
C  44.13400 39.98700 31.79300
C  40.70600 41.23800 31.68800
C  40.64700 40.73600 33.18500
H  40.39300 41.72500 34.30900
N  43.49200 38.96000 26.47800
C  43.87300 38.24700 27.59000
C  44.34700 36.98600 27.22200
C  44.24700 36.95600 25.77600
C  43.88200 38.31300 25.34700
C  44.91500 35.90100 28.20600
C  44.51000 35.88000 24.70400
O  44.34900 35.94000 23.47000
C  45.00200 34.59600 25.34000
N  42.81300 40.92900 24.35800
C  43.32000 39.98800 23.57800
C  43.30600 40.38400 22.05900
C  42.74600 41.80500 22.06300
C  42.42400 42.00900 23.55200
C  44.65600 40.21400 21.25300
C  41.50600 41.92200 21.14300
C  40.23100 41.31200 21.70200
N  41.98000 42.67600 26.52600
C  41.63900 43.45600 25.47000
C  41.07400 44.73300 25.88500
C  40.96600 44.51700 27.28100
C  41.56200 43.28100 27.61200
C  40.93800 45.96000 25.02600
C  40.44300 45.21100 28.50900
O  40.02700 46.36800 28.68600
C  40.72800 44.13300 29.65900
C  41.63100 44.71700 30.66900
O  42.79600 45.04600 30.41800
O  40.96600 44.90800 31.86100
C  41.77000 45.56800 32.87000
H  44.02900 38.04400 29.73600
H  44.05600 38.18700 23.15500
H  41.61600 43.85800 23.33600
H  42.68000 42.20300 31.48400
H  42.34300 39.23500 31.22000
H  44.36100 40.84500 32.42700
H  44.98000 39.86100 31.11700
H  44.07100 39.12800 32.46100
H  39.96500 40.77500 31.03600
H  40.31700 42.25400 31.75800
H  41.61000 40.24600 33.32800
H  39.91700 39.93200 33.27700
H  44.41000 34.94200 28.09200
H  44.69800 36.17300 29.23900
H  45.98300 35.81400 28.00300
H  44.26400 34.19200 26.03400
H  45.90800 34.77200 25.91900
H  45.12100 33.88600 24.52100
H  42.53800 39.79900 21.55300
H  43.47900 42.53600 21.72300
H  45.41800 39.82500 21.92900
H  45.10300 41.06400 20.73800
H  44.38400 39.50400 20.47300
H  41.53600 41.42800 20.17100
H  41.44200 42.99300 20.95300
H  39.61600 41.01200 20.85400
H  39.68800 42.05300 22.29000
H  40.43300 40.49500 22.39500
H  39.89100 46.22200 24.87600
H  41.28000 45.77800 24.00700
H  41.49400 46.80500 25.43200
H  39.83100 43.69400 30.09500
H  42.72700 45.08100 33.05500
H  41.26200 45.51300 33.83300
H  41.87500 46.62300 32.62000

