158

Mg -0.21000 7.65900 27.36000
C  0.47500 9.98800 29.83700
C  -0.64200 5.28500 29.59300
C  -0.74100 5.58600 24.66800
C  0.81800 10.14000 25.04500
N  0.11500 7.69500 29.54500
C  0.06600 8.74500 30.38000
C  -0.17400 8.33100 31.77100
C  -0.39400 6.77700 31.68900
C  -0.27500 6.54400 30.17400
C  0.64400 5.93700 32.35700
C  -1.29800 9.06200 32.47400
C  -1.35800 8.94100 34.01900
H  -0.16700 8.47900 34.82300
N  -0.53300 5.73200 27.14700
C  -0.81600 4.92600 28.21800
C  -1.10900 3.59400 27.71800
C  -1.09500 3.60900 26.31800
C  -0.80100 5.05600 26.01600
C  -1.36100 2.40500 28.69300
C  -1.34300 2.47700 25.22200
O  -1.39100 2.64700 23.99900
C  -1.63700 1.02600 25.85400
N  0.10600 7.83100 25.12500
C  -0.28800 6.84900 24.28800
C  -0.29600 7.39200 22.85000
C  -0.08600 8.88500 22.97100
C  0.36200 8.95500 24.43800
C  0.65800 6.46200 22.03100
C  -1.46300 9.63900 22.84000
C  -1.79300 10.29800 21.41900
N  0.55100 9.63100 27.40100
C  0.98200 10.50300 26.40000
C  1.37700 11.82100 26.95400
C  1.22300 11.68000 28.33400
C  0.86500 10.28800 28.52100
C  1.80300 13.01400 26.15900
C  1.33900 12.28100 29.58100
O  1.61400 13.43600 29.93000
C  0.92400 11.20900 30.61100
C  1.92800 11.18300 31.64600
O  3.02300 10.65500 31.48800
O  1.48300 11.82800 32.75100
C  2.38400 11.81000 33.86700
H  -0.80100 4.58100 30.41300
H  -0.90400 4.87400 23.85700
H  0.96900 10.90000 24.27600
H  0.73100 8.41500 32.37300
H  -1.36000 6.40200 32.02800
H  1.45400 5.73500 31.65700
H  0.27300 4.95000 32.63700
H  1.07600 6.38800 33.25000
H  -2.17500 8.50700 32.14000
H  -1.39300 10.13500 32.30600
H  -2.25700 8.36200 34.22800
H  -1.62200 9.91300 34.43600
H  -2.41600 2.32600 28.95600
H  -0.87600 2.69000 29.62600
H  -0.99900 1.42500 28.38100
H  -1.99800 0.45100 25.00100
H  -2.42800 1.11700 26.59800
H  -0.73000 0.59300 26.27800
H  -1.32000 7.30600 22.48900
H  0.72200 9.19600 22.30900
H  0.95700 5.52100 22.49300
H  1.46300 7.00700 21.53700
H  0.04300 6.03200 21.24000
H  -1.40600 10.49200 23.51700
H  -2.35400 9.09500 23.15300
H  -2.79600 10.00100 21.11300
H  -1.00200 10.16200 20.68200
H  -1.74000 11.36800 21.62300
H  0.86600 13.33000 25.70100
H  2.55800 12.75100 25.41800
H  2.32100 13.69300 26.83700
H  0.02900 11.63900 31.06000
H  2.53600 10.76200 34.12400
H  2.07100 12.36300 34.75200
H  3.41400 12.11800 33.68600
Mg 45.18200 4.11100 46.29400
C  43.43000 7.12200 46.28500
C  42.06100 2.50400 45.80200
C  46.69100 1.23600 45.48900
C  48.18000 5.90600 46.06900
N  42.99500 4.74800 45.95700
C  42.56000 6.06600 45.94500
C  41.03900 6.09400 45.81800
C  40.60600 4.60400 46.08900
C  41.92300 3.87600 45.97500
C  40.00000 4.35500 47.51300
C  40.50500 6.48100 44.48300
C  39.76800 7.81400 44.28900
H  40.29000 8.77000 43.22800
N  44.52000 2.15900 45.83700
C  43.19500 1.72100 45.66200
C  43.08000 0.24400 45.38100
C  44.44100 -0.15900 45.38100
C  45.33500 1.06700 45.56200
C  41.81600 -0.55200 45.07300
C  44.96200 -1.48600 45.04000
O  44.22100 -2.40500 44.68000
C  46.40600 -1.85500 44.91700
N  47.12600 3.69400 45.84500
C  47.51000 2.41100 45.65100
C  49.09400 2.29700 45.47200
C  49.55700 3.78900 45.57900
C  48.18300 4.53600 45.79800
C  49.84100 1.36800 46.51000
C  50.36700 4.41200 44.38200
C  51.61600 5.19300 44.75900
N  45.73000 6.12500 46.27100
C  46.98900 6.70700 46.22300
C  46.83600 8.14700 46.36900
C  45.44300 8.36900 46.43400
C  44.81400 7.10800 46.37500
C  47.87600 9.21800 46.41900
C  44.42100 9.40000 46.50400
O  44.47000 10.63100 46.59600
C  43.09500 8.59900 46.38500
C  42.35400 8.85700 47.63800
O  42.27400 8.07800 48.56200
O  41.62500 9.98800 47.45800
C  40.57000 10.31100 48.40700
H  41.11700 1.95600 45.75800
H  47.38400 0.43900 45.20900
H  49.19900 6.29600 46.01100
H  40.60600 6.73700 46.58400
H  39.83900 4.30700 45.37500
H  40.31200 5.17200 48.16300
H  40.30200 3.40600 47.95700
H  38.91300 4.27700 47.49000
H  39.89600 5.76900 43.92600
H  41.39400 6.73700 43.90800
H  39.81000 8.40400 45.20400
H  38.71200 7.57600 44.15900
H  40.95600 0.09500 45.25000
H  41.78200 -1.39200 45.76700
H  41.88300 -0.86800 44.03200
H  46.56500 -1.33600 43.97200
H  46.50800 -2.94000 44.94000
H  47.04700 -1.50300 45.72500
H  49.27800 1.96800 44.44900
H  50.10100 4.03100 46.49200
H  50.36600 0.61600 45.92200
H  49.10400 0.96600 47.20500
H  50.58400 2.00300 46.99300
H  49.65800 5.07300 43.88400
H  50.58500 3.67600 43.60900
H  51.87900 5.26600 45.81500
H  51.37400 6.11200 44.22500
H  52.52600 4.79300 44.31200
H  47.62400 10.21200 46.78800
H  48.38700 9.28100 45.45800
H  48.64000 8.86400 47.11100
H  42.52200 9.00400 45.55100
H  40.60200 9.92000 49.42400
H  39.73300 9.82800 47.90200
H  40.31500 11.35700 48.57100

