158

Mg 49.59200 35.52200 27.78700
C  47.31400 34.18900 30.32000
C  50.13000 38.20300 29.84600
C  51.30200 36.96900 25.29300
C  48.61300 32.96700 25.74100
N  48.80900 36.11300 29.87200
C  47.90100 35.44600 30.70300
C  47.63900 36.27400 31.95000
C  48.51800 37.55500 31.71700
C  49.18000 37.28400 30.44000
C  47.73900 38.93300 31.80200
C  47.99600 35.61300 33.30800
C  49.25000 34.69600 33.32300
H  50.55300 35.17700 33.96800
N  50.81100 37.22300 27.72300
C  50.92900 38.18700 28.67300
C  51.99200 39.16300 28.23600
C  52.38400 38.67800 26.99900
C  51.52100 37.52200 26.61600
C  52.47400 40.21700 29.23500
C  53.46800 39.29900 26.13400
O  53.75700 38.76500 25.08900
C  54.07300 40.71300 26.48500
N  49.98200 35.01300 25.76500
C  50.66100 35.78100 24.86600
C  50.85300 35.07900 23.48900
C  49.94500 33.81100 23.64000
C  49.46700 33.90700 25.12800
C  50.59900 36.00700 22.23700
C  50.60100 32.42700 23.29500
C  49.62500 31.61700 22.49900
N  48.26300 33.94600 27.97300
C  48.04800 32.88400 27.04700
C  47.11500 31.89200 27.55600
C  46.77100 32.40200 28.83200
C  47.50700 33.61500 29.08100
C  46.68300 30.63600 26.86700
C  45.90900 32.13600 29.96100
O  45.09400 31.24200 30.15400
C  46.07800 33.33000 30.88100
C  46.26600 32.88500 32.26300
O  47.18300 32.22300 32.70600
O  45.26600 33.34200 33.08700
C  45.21500 32.87600 34.47300
H  50.26300 39.13200 30.40500
H  51.73000 37.47400 24.42400
H  48.52800 32.04600 25.16100
H  46.57300 36.49500 31.89800
H  49.24200 37.63100 32.52800
H  47.52900 39.53200 30.91600
H  48.36800 39.58700 32.40500
H  46.81300 38.94500 32.37800
H  47.11700 35.07100 33.65600
H  48.10500 36.30800 34.14100
H  49.61500 34.29900 32.37600
H  49.08100 33.84100 33.97800
H  53.20700 39.69600 29.85100
H  51.61500 40.57200 29.80400
H  52.83400 41.10300 28.71000
H  53.30600 41.48400 26.41400
H  54.77500 40.92300 25.67700
H  54.54800 40.62500 27.46200
H  51.90200 34.80900 23.37100
H  49.05800 33.97200 23.02700
H  50.46200 37.07500 22.40500
H  49.74000 35.58600 21.71500
H  51.54800 35.97400 21.70200
H  50.82800 31.84300 24.18800
H  51.55200 32.51100 22.77000
H  48.71300 32.08800 22.13100
H  49.27900 30.65300 22.87100
H  50.08000 31.53400 21.51100
H  45.90500 30.86800 26.13900
H  46.31600 29.91500 27.59700
H  47.58000 30.23000 26.40000
H  45.22300 34.00300 30.81900
H  44.78600 31.87500 34.52000
H  44.73600 33.58600 35.14700
H  46.22100 32.74500 34.87100
Mg 30.37200 58.72000 40.11100
C  27.45800 57.05000 39.07900
C  32.19200 56.08300 38.98500
C  33.04200 60.80600 40.32700
C  28.28500 61.43600 41.02600
N  29.82400 56.84800 38.97000
C  28.61400 56.36300 38.78700
C  28.64500 54.93300 38.28200
C  30.12800 54.46100 38.60100
C  30.81000 55.87800 38.87400
C  30.34100 53.40900 39.77300
C  28.25400 54.94300 36.77800
C  26.91900 54.28500 36.24600
H  26.00500 55.06100 35.29200
N  32.38700 58.48600 39.72500
C  32.90800 57.29600 39.33700
C  34.35700 57.44700 39.35500
C  34.68700 58.80100 39.68800
C  33.35000 59.42500 40.01700
C  35.39900 56.35900 39.13500
C  36.04600 59.38500 39.71200
O  37.03700 58.76700 39.28900
C  36.37400 60.68300 40.34100
N  30.63900 60.78700 40.53300
C  31.82900 61.39000 40.66100
C  31.64900 62.91800 40.96400
C  30.16400 63.04200 41.48500
C  29.62700 61.66600 40.98700
C  32.69200 63.77900 41.78100
C  29.47000 64.25400 41.00000
C  28.73100 64.96500 42.11900
N  28.27600 59.13900 40.11700
C  27.58600 60.25500 40.63800
C  26.13800 60.00400 40.52900
C  26.05700 58.77300 39.87500
C  27.39600 58.35400 39.63900
C  25.09000 60.90100 40.98900
C  25.14100 57.78900 39.43000
O  23.90300 57.75900 39.37500
C  26.02200 56.63000 39.02800
C  25.60800 55.52300 39.94400
O  25.94600 55.50100 41.11400
O  25.05700 54.53300 39.22800
C  25.13300 53.13600 39.64400
H  32.73900 55.18800 38.67900
H  33.90200 61.47700 40.35200
H  27.64300 62.16200 41.53000
H  28.02800 54.32200 38.94100
H  30.64300 54.09400 37.71300
H  29.36100 53.05600 40.09600
H  30.97000 53.82500 40.56000
H  30.93600 52.52900 39.52900
H  29.04800 54.50200 36.17500
H  28.11600 55.98300 36.48200
H  26.23000 54.03200 37.05200
H  27.16800 53.37900 35.69400
H  36.23700 56.41000 39.83100
H  35.86200 56.46400 38.15400
H  35.10500 55.32000 38.98500
H  36.02100 61.47000 39.67500
H  37.46400 60.70200 40.33400
H  35.98500 60.70800 41.35800
H  31.64400 63.30600 39.94500
H  30.09900 62.88800 42.56200
H  33.09200 64.59900 41.18400
H  33.51800 63.13400 42.08300
H  32.40500 64.21200 42.73900
H  28.82000 63.94600 40.18100
H  30.15400 64.89000 40.43700
H  27.66700 64.73500 42.17300
H  28.69600 66.05000 42.02400
H  29.20500 64.74000 43.07400
H  24.19100 60.29500 41.09600
H  25.02500 61.68700 40.23600
H  25.38400 61.22900 41.98600
H  25.75900 56.20900 38.05700
H  26.08100 52.97100 40.15700
H  25.04400 52.64500 38.67500
H  24.42600 52.85900 40.42500

