158

Mg 1.75600 -2.78000 44.67400
C  5.20900 -2.60800 43.68300
C  1.07300 -0.45500 42.21400
C  -1.47400 -3.72700 44.71100
C  2.54200 -5.89200 46.25100
N  3.05000 -1.67500 43.22300
C  4.42200 -1.66200 42.99900
C  4.89000 -0.56900 41.99300
C  3.47500 0.07000 41.59000
C  2.43400 -0.76000 42.34300
C  3.40700 1.60400 41.95700
C  5.59000 -1.28800 40.67200
C  7.10000 -0.94400 40.31800
H  7.42800 -0.41700 38.91600
N  0.03600 -1.97500 43.85100
C  -0.03600 -1.01200 42.89100
C  -1.41700 -0.64800 42.65300
C  -2.23700 -1.54900 43.48000
C  -1.23100 -2.47800 44.06600
C  -1.83300 0.57300 41.79800
C  -3.68500 -1.46600 43.62800
O  -4.35500 -0.62200 43.10700
C  -4.38500 -2.43500 44.44600
N  0.67400 -4.49200 45.57800
C  -0.66400 -4.59300 45.48300
C  -1.17200 -5.77800 46.21800
C  0.08200 -6.57000 46.56500
C  1.18600 -5.58100 46.19200
C  -2.09800 -5.43600 47.41200
C  0.08400 -7.99300 45.89100
C  0.59200 -9.21100 46.65200
N  3.51800 -3.95300 45.08900
C  3.65700 -5.12700 45.74200
C  5.08000 -5.40100 45.88400
C  5.73400 -4.38800 45.11000
C  4.72800 -3.54800 44.60300
C  5.76300 -6.57300 46.49700
C  7.00900 -3.85400 44.74700
O  8.13900 -4.22000 45.08600
C  6.70100 -2.90600 43.59300
C  7.62100 -1.80200 43.63000
O  8.64300 -1.63900 42.95700
O  7.25100 -0.85500 44.57900
C  8.11500 0.31000 44.53100
H  0.95300 0.38300 41.52400
H  -2.49100 -4.05900 44.49400
H  2.76600 -6.83800 46.74900
H  5.59200 0.15100 42.41500
H  3.32500 -0.08500 40.52100
H  4.42000 2.00400 41.97400
H  2.89600 1.68000 42.91700
H  2.83900 2.05700 41.14500
H  4.95000 -1.16700 39.79800
H  5.52400 -2.35800 40.86900
H  7.69100 -1.83800 40.51500
H  7.42800 -0.24100 41.08500
H  -1.67100 0.22500 40.77800
H  -1.13200 1.37100 42.04300
H  -2.85400 0.92300 41.95400
H  -4.30600 -3.40700 43.96100
H  -5.36600 -2.06900 44.74800
H  -3.91400 -2.43000 45.42900
H  -1.81500 -6.32200 45.52600
H  0.05700 -6.69100 47.64800
H  -2.43700 -6.31800 47.95600
H  -3.02800 -4.94300 47.12800
H  -1.62600 -4.80500 48.16600
H  0.72300 -7.95500 45.00800
H  -0.91800 -8.31300 45.60500
H  0.99500 -8.94900 47.63000
H  1.47000 -9.62500 46.15600
H  -0.17700 -9.97800 46.73600
H  6.81200 -6.49200 46.21300
H  5.29400 -7.49900 46.16500
H  5.82300 -6.51700 47.58400
H  6.90800 -3.43500 42.66300
H  9.00400 -0.13900 44.97200
H  7.75200 1.12200 45.16200
H  8.49000 0.59300 43.54700
Mg 16.77400 51.56400 26.30700
C  18.76400 50.15500 28.75400
C  14.29200 52.01500 28.56900
C  14.76500 52.35000 23.78800
C  19.20600 50.46800 23.88600
N  16.53900 51.12500 28.40900
C  17.53900 50.67400 29.22100
C  17.06500 50.71100 30.71800
C  15.59700 51.15100 30.54300
C  15.41500 51.35100 29.11100
C  14.52300 50.18200 31.13200
C  17.93700 51.64900 31.74900
C  17.86700 51.27600 33.21400
H  16.85900 52.00800 34.16400
N  14.85600 52.30400 26.24700
C  13.99800 52.41400 27.23200
C  12.75500 53.11600 26.75600
C  12.87400 53.19500 25.38000
C  14.16700 52.56100 25.04900
C  11.64400 53.53600 27.62300
C  11.93700 53.77800 24.42800
O  12.11000 53.82400 23.19800
C  10.59900 54.36700 24.90000
N  16.95500 51.40200 24.13200
C  15.94700 51.74300 23.34500
C  16.29800 51.58200 21.85400
C  17.87100 51.46700 21.89700
C  18.04800 51.03100 23.39200
C  15.38700 50.57200 21.11200
C  18.68000 52.72900 21.56000
C  19.72800 52.45800 20.41100
N  18.54400 50.46800 26.23100
C  19.49200 50.28300 25.25600
C  20.68500 49.69100 25.87400
C  20.48300 49.60200 27.22700
C  19.18600 50.15600 27.41400
C  21.88100 49.12300 25.17100
C  21.10400 49.26800 28.47300
O  22.21500 48.86600 28.77900
C  20.00200 49.67300 29.56900
C  19.59300 48.58400 30.35300
O  18.78300 47.77200 30.02300
O  20.19900 48.68800 31.60500
C  19.67700 47.66100 32.51100
H  13.43500 52.13900 29.23400
H  14.17100 52.61300 22.91000
H  20.09800 50.19300 23.32100
H  17.17000 49.66400 31.00300
H  15.33900 52.16800 30.83700
H  13.85700 50.83700 31.69400
H  14.90100 49.58700 31.96400
H  14.09700 49.52300 30.37600
H  17.75100 52.72300 31.72600
H  18.98100 51.47100 31.49000
H  18.91200 51.34900 33.51800
H  17.66200 50.20500 33.19700
H  11.37400 54.59000 27.55600
H  11.74500 53.21400 28.65900
H  10.88400 52.85100 27.24800
H  9.99100 54.59200 24.02400
H  10.84600 55.25600 25.48000
H  10.03500 53.63600 25.47900
H  15.96000 52.50800 21.38900
H  18.16000 50.59100 21.31600
H  14.76200 49.85200 21.64100
H  16.03700 49.95000 20.49600
H  14.81100 51.23300 20.46400
H  19.20200 53.06400 22.45600
H  17.95000 53.48100 21.26200
H  19.35600 52.72400 19.42200
H  19.96300 51.40000 20.29400
H  20.59600 53.08000 20.63200
H  21.66000 48.72800 24.17900
H  22.07700 48.27400 25.82500
H  22.82200 49.67300 25.18900
H  20.40400 50.48400 30.17700
H  20.02300 46.66000 32.25400
H  18.59100 47.66300 32.41500
H  20.00700 47.94900 33.50900

