158

Mg 17.27100 -1.89500 27.69100
C  16.18400 0.22600 30.29000
C  19.19200 -3.58600 29.95300
C  18.71400 -3.51900 25.05300
C  15.47100 0.15700 25.42900
N  17.68600 -1.64000 29.87600
C  17.03600 -0.79000 30.75500
C  17.36300 -1.05100 32.22100
C  18.45400 -2.22400 32.16000
C  18.44100 -2.54100 30.60000
C  19.94200 -1.97000 32.72600
C  16.22100 -1.39600 33.15500
C  16.20100 -0.57100 34.43500
H  17.53900 -0.44800 35.15700
N  18.77700 -3.35600 27.58600
C  19.41000 -3.93600 28.61900
C  20.24600 -5.04800 28.14000
C  20.12400 -4.97300 26.67100
C  19.24800 -3.88900 26.35000
C  21.19900 -5.90700 29.03500
C  20.90600 -5.85400 25.65000
O  20.74800 -5.62900 24.44600
C  21.93700 -6.92200 26.05700
N  17.29100 -1.59800 25.58500
C  17.88000 -2.41200 24.71000
C  17.46900 -2.13600 23.24400
C  16.18800 -1.18000 23.42400
C  16.29900 -0.87400 24.95600
C  18.70500 -1.55700 22.47600
C  14.81100 -1.84200 22.99800
C  13.94600 -2.55500 24.02100
N  16.02000 -0.17400 27.74400
C  15.34000 0.53500 26.74200
C  14.50100 1.52500 27.32600
C  14.85900 1.54400 28.71500
C  15.78400 0.40900 28.89000
C  13.39500 2.29200 26.70100
C  14.68400 2.13400 30.06700
O  13.96900 3.11700 30.28500
C  15.53700 1.35500 31.09000
C  16.38200 2.26100 31.89600
O  17.61900 2.31900 31.91000
O  15.58600 2.82100 32.86800
C  16.29400 3.49600 33.93500
H  19.72500 -4.28500 30.60100
H  19.06400 -4.14900 24.23200
H  14.75200 0.75000 24.86000
H  17.83400 -0.12400 32.54900
H  18.21700 -3.15700 32.66900
H  20.70000 -2.00100 31.94300
H  20.29500 -2.67500 33.47900
H  20.04300 -0.96200 33.12600
H  16.26100 -2.44500 33.44900
H  15.34300 -1.11500 32.57200
H  15.53600 -0.99900 35.18500
H  15.92300 0.42900 34.10200
H  20.84800 -6.93200 28.91000
H  21.21700 -5.73500 30.11100
H  22.23100 -5.82700 28.69300
H  22.22500 -7.63400 25.28400
H  21.48100 -7.49300 26.86700
H  22.80300 -6.41900 26.48600
H  17.25100 -3.13300 22.86100
H  16.35400 -0.19100 22.99700
H  18.31000 -0.73700 21.87700
H  19.17900 -2.25300 21.78500
H  19.44700 -1.20400 23.19200
H  14.79600 -2.49200 22.12300
H  14.35300 -1.00200 22.47600
H  14.43200 -2.77300 24.97100
H  13.58900 -3.50000 23.61300
H  13.06900 -1.96800 24.29500
H  13.73900 3.25900 26.33300
H  12.52300 2.31600 27.35400
H  12.97200 1.67200 25.91100
H  14.74000 0.95500 31.71700
H  17.08100 4.12300 33.51800
H  16.71400 2.83700 34.69500
H  15.67300 4.21300 34.47200
Mg 26.99500 49.78100 26.31100
C  25.02400 51.05900 29.05900
C  29.34100 48.74100 28.50600
C  29.00900 49.43800 23.69700
C  24.55900 51.23400 24.26000
N  27.22200 50.17100 28.52500
C  26.29600 50.51900 29.44400
C  26.87400 50.24100 30.89200
C  28.22000 49.54800 30.61500
C  28.24500 49.47200 29.09500
C  29.52400 50.24400 31.16200
C  25.77000 49.42500 31.73000
C  26.31400 48.64100 32.93800
H  25.68300 48.81500 34.26000
N  28.98900 49.16500 26.15200
C  29.76800 48.67700 27.15500
C  30.96700 48.07800 26.63100
C  30.93500 48.44900 25.22200
C  29.58500 49.05600 24.97500
C  31.94600 47.30300 27.49500
C  31.95800 48.18500 24.17800
O  31.88100 48.64900 23.06900
C  33.02200 47.23100 24.58900
N  26.83000 50.37300 24.32800
C  27.78500 50.02100 23.42400
C  27.23700 50.30200 22.00000
C  25.75400 50.52100 22.13100
C  25.64400 50.62500 23.67800
C  27.85700 51.37600 21.01500
C  24.83800 49.48800 21.32900
C  24.27400 48.41100 22.21600
N  25.18300 50.87800 26.55300
C  24.31600 51.48700 25.63200
C  23.21500 52.14000 26.25600
C  23.52600 52.02700 27.66400
C  24.63500 51.22200 27.79700
C  22.00200 52.79200 25.61800
C  23.02400 52.33500 28.93000
O  21.98500 52.94600 29.26000
C  23.96000 51.71100 29.92600
C  24.58100 52.82500 30.78200
O  25.56700 53.56300 30.50900
O  23.79500 53.00900 31.87500
C  24.19400 54.14300 32.64900
H  30.03800 48.21700 29.16400
H  29.58900 49.18400 22.80700
H  23.98800 51.59700 23.40300
H  27.11600 51.09200 31.52900
H  28.22200 48.49500 30.89500
H  30.12100 49.61400 31.82200
H  29.16500 51.07400 31.77100
H  30.24300 50.50500 30.38500
H  25.26300 48.77200 31.02000
H  25.13100 50.19200 32.16600
H  27.39500 48.73500 33.04400
H  26.10200 47.58200 32.78900
H  31.64400 47.23700 28.54100
H  32.87100 47.87700 27.55400
H  32.18100 46.29800 27.14500
H  33.67500 47.15300 23.72000
H  32.53200 46.27100 24.74700
H  33.61200 47.58800 25.43400
H  27.29800 49.29500 21.58700
H  25.40900 51.46900 21.71800
H  28.78500 51.74900 21.44800
H  27.20100 52.20700 20.75600
H  28.13300 50.87800 20.08600
H  25.32800 48.93000 20.53100
H  23.97100 49.95700 20.86300
H  24.57900 48.57600 23.25000
H  24.74200 47.46100 21.95700
H  23.19200 48.28400 22.18600
H  21.96000 53.73500 26.16400
H  21.11100 52.18200 25.76700
H  22.14200 53.01000 24.56000
H  23.41800 50.97800 30.52500
H  25.03100 53.95900 33.32200
H  23.27900 54.32600 33.21300
H  24.36200 55.08300 32.12400

