158

Mg 41.04100 41.77700 26.46900
C  40.36400 43.87500 29.26000
C  42.50500 39.65500 28.54100
C  42.06600 40.05500 23.71200
C  39.83300 44.34100 24.42400
N  41.39200 41.76700 28.68000
C  40.84800 42.63600 29.60700
C  40.97600 42.09900 31.01300
C  41.91600 40.84000 30.75700
C  41.93100 40.68400 29.23700
C  43.38600 40.92000 31.22700
C  39.65500 41.92100 31.82700
C  39.80900 41.26800 33.25000
H  39.00000 41.87800 34.34400
N  42.06700 40.08800 26.21500
C  42.58000 39.32000 27.16100
C  43.08000 38.09000 26.58800
C  42.87000 38.19800 25.20500
C  42.35800 39.50600 24.97800
C  43.68100 36.96900 27.38700
C  43.09300 37.14500 24.19300
O  42.84800 37.25200 23.00600
C  43.67200 35.82400 24.62400
N  40.90700 42.12700 24.40100
C  41.44000 41.29000 23.44700
C  41.25400 41.87100 22.01400
C  40.18700 43.02600 22.30000
C  40.27600 43.21600 23.78000
C  42.65200 42.38400 21.41100
C  38.70400 42.77300 21.84200
C  38.13900 41.46700 22.25400
N  40.26400 43.71300 26.68800
C  39.87800 44.65500 25.78900
C  39.62700 45.88700 26.43400
C  39.74200 45.62600 27.78700
C  40.15800 44.27700 27.92200
C  39.21400 47.14200 25.79100
C  39.63400 46.23100 29.09200
O  39.35600 47.31500 29.44200
C  40.02000 45.13300 30.13600
C  41.16600 45.57600 31.02000
O  42.31800 45.66000 30.64800
O  40.81200 45.87400 32.26000
C  41.92800 46.19800 33.20100
H  42.67500 38.81000 29.21100
H  42.29000 39.47800 22.81300
H  39.44000 45.17600 23.84000
H  41.62800 42.84800 31.46300
H  41.41700 39.96800 31.17700
H  44.16700 40.86900 30.46800
H  43.46700 40.10800 31.94900
H  43.47100 41.81600 31.84300
H  39.02500 41.34800 31.14700
H  39.18200 42.88000 32.04200
H  40.87900 41.27800 33.46000
H  39.48400 40.23000 33.17700
H  44.48000 36.59900 26.74400
H  42.88700 36.28700 27.69100
H  44.21200 37.42600 28.22200
H  43.21300 35.34000 25.48600
H  44.75700 35.91900 24.68100
H  43.56000 35.19300 23.74200
H  40.78400 41.11400 21.38600
H  40.57900 43.93500 21.84300
H  42.65900 43.47300 21.36300
H  42.82100 41.99200 20.40800
H  43.49600 42.13800 22.05600
H  38.60300 42.89700 20.76400
H  38.01100 43.53900 22.19100
H  37.12500 41.52800 22.64800
H  38.65700 40.97600 23.07800
H  38.18300 40.87200 21.34200
H  39.74200 47.22500 24.84100
H  39.44400 48.00800 26.41100
H  38.13900 47.28600 25.68800
H  39.17500 44.93900 30.79700
H  42.54600 46.96000 32.72700
H  42.40700 45.22700 33.32600
H  41.48000 46.63300 34.09400
Mg 26.47900 50.46000 26.47200
C  24.47700 51.75000 29.20200
C  28.73300 49.42400 28.79400
C  28.23900 49.23900 23.92200
C  24.27600 51.93400 24.26200
N  26.50800 50.58900 28.76900
C  25.59500 51.09700 29.67700
C  26.00200 50.81400 31.14000
C  27.47900 50.23900 30.91300
C  27.58100 50.00500 29.38300
C  28.58200 51.18700 31.51000
C  25.08100 49.79500 31.85100
C  24.60700 50.33700 33.22500
H  25.64800 50.26100 34.32000
N  28.23600 49.52500 26.34100
C  29.05700 49.13700 27.42600
C  30.25900 48.54400 26.90300
C  30.02300 48.29400 25.48000
C  28.78200 49.03000 25.14700
C  31.46200 48.06500 27.75500
C  30.87100 47.53700 24.41600
O  30.53800 47.40200 23.24200
C  32.09100 46.95900 24.86300
N  26.28900 50.61100 24.31100
C  27.11000 49.93000 23.47100
C  26.68500 50.02000 21.99900
C  25.32500 50.84900 22.12300
C  25.28600 51.21600 23.62100
C  27.74000 50.55600 20.99300
C  24.00200 50.06700 21.79900
C  22.80400 50.95100 21.25000
N  24.78000 51.52500 26.57100
C  24.00300 52.08100 25.60700
C  22.85000 52.74700 26.18100
C  23.03700 52.65800 27.54100
C  24.24100 51.92000 27.75400
C  21.88900 53.58100 25.31200
C  22.41400 53.03600 28.86700
O  21.33300 53.58800 29.13000
C  23.41300 52.45200 30.00400
C  23.81600 53.64700 30.88700
O  24.56900 54.56900 30.57800
O  23.24300 53.41600 32.11100
C  23.66900 54.27700 33.19800
H  29.47400 49.09100 29.52300
H  28.71000 48.68500 23.10700
H  23.57000 52.40900 23.57800
H  26.01900 51.67500 31.80800
H  27.59700 49.26400 31.38400
H  29.19500 51.78500 30.83600
H  29.36000 50.63400 32.03600
H  28.05900 51.84300 32.20600
H  25.65400 48.90700 32.11900
H  24.28400 49.46900 31.18200
H  23.71600 49.82700 33.59000
H  24.43000 51.41200 33.25400
H  32.38000 48.18900 27.18100
H  31.35900 47.03500 28.09700
H  31.60000 48.70600 28.62600
H  32.74600 47.83100 24.87100
H  32.38500 46.30200 24.04400
H  32.04500 46.44700 25.82400
H  26.45300 48.96800 21.83400
H  25.40900 51.75400 21.52100
H  27.37400 51.27200 20.25800
H  28.12200 49.74500 20.37300
H  28.54900 51.00000 21.57200
H  23.63800 49.50100 22.65600
H  24.19600 49.16900 21.21300
H  22.50600 50.55600 20.27900
H  23.12300 51.99100 21.17800
H  21.93100 50.90900 21.90200
H  21.29800 53.08500 24.54200
H  22.54100 54.31400 24.83600
H  21.26700 54.08600 26.05100
H  22.92400 51.68700 30.60800
H  23.55300 55.31000 32.87200
H  24.68200 53.98600 33.47500
H  23.02400 54.24300 34.07600

