158

Mg 7.98900 53.08800 41.81700
C  7.55900 49.63600 41.05600
C  11.06200 52.81600 40.42700
C  8.24600 56.43300 42.23000
C  4.56400 53.17000 42.56800
N  9.09900 51.46500 40.64800
C  8.70600 50.12800 40.45100
C  9.69500 49.48700 39.54200
C  11.04600 50.31700 39.83700
C  10.35100 51.57300 40.28900
C  11.89300 49.74600 40.96000
C  9.25000 49.71500 38.02400
C  9.19500 48.53200 37.08900
H  8.32100 48.56900 35.88700
N  9.43100 54.44300 41.32800
C  10.67800 54.12500 40.84700
C  11.34800 55.36200 40.67600
C  10.61400 56.34900 41.31400
C  9.34800 55.78000 41.66200
C  12.73100 55.39300 39.98300
C  11.18700 57.78200 41.54600
O  12.17100 58.07900 40.97900
C  10.42000 58.87000 42.24300
N  6.68600 54.56000 42.33900
C  6.94800 55.92400 42.40900
C  5.68000 56.80200 42.41800
C  4.55000 55.74400 42.38000
C  5.28500 54.38000 42.51000
C  5.73300 57.67700 43.74400
C  3.55800 55.79900 41.14800
C  2.06900 55.87900 41.41000
N  6.43300 51.76800 41.97800
C  5.08800 51.87700 42.39000
C  4.44700 50.56900 42.57200
C  5.43100 49.70000 42.12800
C  6.58200 50.43800 41.76100
C  3.11800 50.30500 43.19200
C  5.66300 48.29600 41.90500
O  4.98400 47.28600 42.05100
C  7.03900 48.23000 41.16400
C  6.66800 47.59800 39.82500
O  5.76700 47.86800 38.98800
O  7.55400 46.46800 39.75300
C  7.13500 45.57900 38.71200
H  12.10500 52.57900 40.20900
H  8.43900 57.46800 42.52000
H  3.47500 53.19000 42.65400
H  9.88600 48.42700 39.70700
H  11.65100 50.38800 38.93400
H  11.76100 48.66500 41.00100
H  11.66000 50.21700 41.91500
H  12.94700 49.94200 40.76400
H  9.90900 50.48200 37.61500
H  8.25100 50.14200 38.10500
H  9.10000 47.62100 37.68000
H  10.20000 48.49200 36.66900
H  12.51600 55.80000 38.99600
H  13.19200 54.41900 39.81900
H  13.56500 55.89500 40.47300
H  10.02800 58.55200 43.20900
H  9.67600 59.17600 41.50800
H  10.99500 59.79000 42.34800
H  5.62000 57.47900 41.56600
H  4.03200 55.82200 43.33600
H  5.60000 58.71400 43.43700
H  6.68900 57.49800 44.23500
H  4.99100 57.33200 44.46500
H  3.65700 55.00500 40.40800
H  3.74200 56.68000 40.53300
H  1.76500 56.77400 40.86800
H  1.80000 55.89600 42.46700
H  1.49400 55.03200 41.03600
H  2.26500 50.67700 42.62500
H  3.20100 50.82800 44.14500
H  3.06900 49.23500 43.39600
H  7.86400 47.68700 41.62500
H  7.61200 45.74300 37.74600
H  6.06500 45.47800 38.53200
H  7.50100 44.64200 39.13000
Mg -2.14500 33.84400 26.92200
C  -3.75600 32.05400 29.53900
C  -0.38600 35.51300 29.39000
C  -1.23700 35.90500 24.61300
C  -4.11100 32.01600 24.56000
N  -2.15200 33.81600 29.19800
C  -2.89400 33.03600 30.06500
C  -2.55200 33.31500 31.55000
C  -1.41900 34.44300 31.45700
C  -1.27500 34.63000 29.92600
C  -1.91700 35.79800 32.03900
C  -2.04800 31.97400 32.18500
C  -1.17100 31.94000 33.53400
H  -1.67900 31.07700 34.68500
N  -0.89100 35.45800 26.98300
C  -0.18000 35.93500 28.06700
C  0.77800 36.91200 27.53300
C  0.49300 37.07000 26.14500
C  -0.56900 36.16000 25.84000
C  1.70300 37.73100 28.41100
C  1.24800 37.82700 25.08300
O  1.04100 37.83800 23.90000
C  2.59000 38.45800 25.46800
N  -2.75700 33.98300 24.88500
C  -2.19400 35.01700 24.14000
C  -2.56100 34.87000 22.69400
C  -3.33400 33.47000 22.64600
C  -3.46200 33.11500 24.06900
C  -3.40000 36.06000 22.14900
C  -2.73200 32.38300 21.67500
C  -1.81900 31.27700 22.28400
N  -3.59200 32.27000 26.95800
C  -4.26800 31.64700 25.99400
C  -5.21900 30.68600 26.53800
C  -5.03600 30.80600 27.95000
C  -3.99600 31.74000 28.12400
C  -6.22100 29.80200 25.68200
C  -5.46500 30.33900 29.23700
O  -6.30200 29.57700 29.57800
C  -4.46900 31.08500 30.28000
C  -5.46100 31.65000 31.20900
O  -6.25200 32.55300 30.91000
O  -5.50000 30.99000 32.44000
C  -6.76500 31.16800 33.23200
H  0.29900 35.89600 30.14900
H  -0.78400 36.47200 23.79700
H  -4.69200 31.31700 23.95400
H  -3.46800 33.58500 32.07600
H  -0.58400 34.15300 32.09600
H  -2.55000 35.57700 32.89800
H  -2.52500 36.34200 31.31600
H  -1.12500 36.42200 32.45500
H  -1.48900 31.46400 31.40000
H  -2.96200 31.47900 32.51200
H  -0.99200 32.95700 33.88200
H  -0.17200 31.52500 33.40500
H  1.35700 38.76200 28.48600
H  2.69800 37.78700 27.96800
H  1.81200 37.31000 29.41000
H  2.90900 39.01600 24.58700
H  3.27000 37.61900 25.61400
H  2.72400 39.15100 26.29900
H  -1.69100 34.73900 22.05100
H  -4.34100 33.63400 22.26300
H  -3.47500 36.81900 22.92700
H  -4.41300 35.82700 21.82000
H  -3.00500 36.54600 21.25700
H  -2.13600 32.81300 20.86900
H  -3.62700 31.94100 21.23700
H  -1.39000 31.56000 23.24500
H  -1.11600 31.04400 21.48400
H  -2.44700 30.40800 22.48000
H  -6.30800 29.89900 24.59900
H  -7.25800 29.97400 25.96800
H  -6.19800 28.73600 25.91000
H  -3.92600 30.30400 30.81500
H  -6.80100 31.99600 33.94000
H  -6.89500 30.24200 33.79200
H  -7.62900 31.17300 32.56700

