158

Mg 24.93100 1.24200 29.80000
C  27.03500 0.84000 32.68900
C  22.22400 0.97400 31.99200
C  23.00400 1.32900 27.13700
C  27.68000 0.52200 27.88000
N  24.70300 0.83000 32.08400
C  25.70000 0.86400 33.05500
C  25.19700 1.07700 34.43800
C  23.64100 0.97300 34.19400
C  23.47600 0.84200 32.66500
C  22.88500 -0.08600 34.97100
C  25.58700 2.51600 35.01100
C  26.68200 2.67600 36.08200
H  26.50500 3.48400 37.33200
N  22.88500 1.06100 29.60300
C  21.95400 0.98800 30.59900
C  20.63000 0.93300 29.99000
C  20.83600 1.07400 28.56300
C  22.24100 1.14400 28.37000
C  19.31400 0.56700 30.78300
C  19.79100 1.03000 27.49600
O  20.00200 1.02400 26.31000
C  18.33300 0.73200 27.81300
N  25.28300 0.88200 27.83400
C  24.40000 1.21900 26.91300
C  24.98300 1.27200 25.45000
C  26.39900 0.64400 25.70800
C  26.51600 0.78400 27.24000
C  24.20900 0.63000 24.25800
C  27.56000 1.29900 24.90800
C  28.21500 2.47000 25.46000
N  26.97000 0.96200 30.15200
C  27.91100 0.61900 29.23700
C  29.24100 0.43500 29.89500
C  28.95600 0.58600 31.25200
C  27.55700 0.80500 31.35600
C  30.55800 0.08100 29.30900
C  29.42700 0.52700 32.50900
O  30.56900 0.38100 32.86800
C  28.27700 0.82800 33.49600
C  28.34200 -0.05100 34.65800
O  27.78200 -1.15500 34.66600
O  29.11600 0.40300 35.66100
C  29.40200 -0.35900 36.88800
H  21.35800 0.96900 32.65600
H  22.38300 1.47000 26.24900
H  28.61900 0.29900 27.36900
H  25.60800 0.36700 35.15600
H  23.07100 1.88600 34.36900
H  22.34500 -0.79400 34.34200
H  22.14400 0.46400 35.55000
H  23.46800 -0.68400 35.67200
H  24.73000 3.10200 35.34000
H  26.05000 3.07500 34.19700
H  27.60400 3.02600 35.61700
H  27.05100 1.73200 36.48200
H  19.46000 0.10700 31.76100
H  18.86700 -0.17900 30.12600
H  18.73400 1.47400 30.95300
H  17.87100 1.23900 28.66000
H  18.15200 -0.31200 28.06600
H  17.70400 0.87400 26.93500
H  24.98400 2.34200 25.24300
H  26.34600 -0.39900 25.39600
H  23.17800 0.33200 24.44500
H  24.82500 -0.19600 23.90400
H  24.24100 1.31500 23.41100
H  27.15800 1.60500 23.94200
H  28.30400 0.52400 24.72200
H  28.34000 3.21300 24.67300
H  29.21300 2.32300 25.87300
H  27.70300 3.03100 26.24200
H  30.72500 0.26700 28.24900
H  30.60600 -0.98900 29.51500
H  31.28800 0.67600 29.85800
H  28.57300 1.80600 33.87500
H  28.61600 -0.35800 37.64200
H  30.29800 0.05700 37.35000
H  29.40200 -1.44800 36.83100
Mg 47.68200 25.68700 28.36600
C  48.65500 27.86500 31.01900
C  46.86700 23.33200 30.76500
C  46.94700 23.73900 25.85600
C  49.26700 27.89800 26.14900
N  47.73800 25.65700 30.67700
C  48.18600 26.59500 31.49400
C  47.66900 26.34100 32.90200
C  47.14200 24.87300 32.84300
C  47.25000 24.60400 31.34400
C  47.86200 23.71300 33.63100
C  46.65900 27.39100 33.56100
C  46.91000 28.03500 34.92500
H  45.68700 28.51600 35.71900
N  47.12500 23.80700 28.26100
C  46.80400 22.98400 29.32400
C  46.36300 21.74000 28.87600
C  46.40700 21.79800 27.37200
C  46.87900 23.19200 27.08100
C  45.96200 20.58300 29.77100
C  46.19800 20.69800 26.37500
O  46.48400 20.82100 25.20600
C  45.64400 19.39400 26.82500
N  48.10400 25.82800 26.34000
C  47.53000 24.94100 25.50000
C  47.69300 25.26600 24.08300
C  48.52300 26.51300 24.05800
C  48.67400 26.76400 25.58300
C  47.92800 24.09300 23.14400
C  47.94900 27.62400 23.24500
C  48.25700 27.49400 21.75500
N  48.53700 27.65900 28.47900
C  49.19800 28.36300 27.48700
C  49.71800 29.54500 28.09100
C  49.51800 29.42100 29.43400
C  48.83500 28.23600 29.62900
C  50.57100 30.59600 27.37900
C  49.69300 30.05500 30.73100
O  50.27300 31.06900 31.07600
C  49.07100 29.04300 31.80300
C  50.10800 28.86000 32.86800
O  50.83300 27.86300 32.86400
O  49.88000 29.80200 33.83800
C  50.60800 29.45400 35.07900
H  46.46000 22.62400 31.49000
H  46.62100 23.08900 25.04200
H  49.68600 28.59900 25.42400
H  48.59700 26.37600 33.47300
H  46.06700 24.93100 33.01500
H  48.17800 22.91200 32.96300
H  47.11100 23.28200 34.29300
H  48.70300 24.09300 34.21100
H  45.71400 26.87400 33.73000
H  46.44700 28.22600 32.89400
H  47.61400 28.86700 34.90900
H  47.35600 27.26400 35.55400
H  46.53000 19.71000 29.45100
H  44.91900 20.27200 29.71300
H  46.26500 20.58900 30.81800
H  45.36700 18.88400 25.90300
H  44.73200 19.48300 27.41500
H  46.39000 18.87900 27.43100
H  46.69400 25.58400 23.78400
H  49.58100 26.35700 23.84500
H  48.13400 23.17100 23.68900
H  48.67800 24.24200 22.36800
H  46.95100 23.98700 22.67200
H  48.34100 28.61300 23.48300
H  46.87100 27.78100 23.25700
H  47.31800 27.63900 21.22200
H  48.60400 26.46400 21.67500
H  48.98500 28.24300 21.44400
H  51.40000 29.89100 27.31700
H  50.76100 31.46000 28.01600
H  50.23900 30.76600 26.35500
H  48.23400 29.47600 32.35000
H  50.07600 28.57700 35.44700
H  50.81500 30.38200 35.61200
H  51.59200 29.14300 34.72700

