158

Mg 24.60100 -8.14700 47.83800
C  27.22200 -5.95400 46.53400
C  22.74000 -6.95500 45.16200
C  22.41900 -10.49800 48.44700
C  27.02600 -9.56100 49.97500
N  24.93700 -6.48400 46.18300
C  26.07900 -5.83300 45.78700
C  25.83200 -4.86800 44.61200
C  24.35700 -5.16000 44.28700
C  23.94800 -6.24000 45.28700
C  23.35000 -3.88800 44.18700
C  26.86800 -5.16800 43.45900
C  27.70000 -3.92900 43.02400
H  27.57100 -3.58000 41.49300
N  22.84000 -8.68900 46.91300
C  22.17900 -8.01800 45.89200
C  20.85800 -8.62400 45.61300
C  20.77800 -9.73100 46.54700
C  22.02500 -9.66500 47.37300
C  19.95600 -8.15100 44.42100
C  19.52700 -10.70800 46.71400
O  18.51100 -10.63600 46.01400
C  19.50900 -11.76200 47.71500
N  24.77500 -9.84000 49.09400
C  23.59800 -10.56600 49.23500
C  23.83700 -11.65400 50.29500
C  25.31800 -11.36900 50.79400
C  25.77800 -10.22900 49.86000
C  22.71800 -11.83700 51.39700
C  26.26600 -12.58600 50.76500
C  27.12200 -12.78200 52.00700
N  26.65600 -7.78300 48.26300
C  27.45100 -8.41400 49.17100
C  28.77700 -7.78100 49.22100
C  28.69400 -6.79600 48.22300
C  27.40800 -6.81600 47.62700
C  29.95700 -8.12000 50.04700
C  29.34700 -5.69300 47.61600
O  30.43000 -5.22800 47.93400
C  28.42800 -5.10100 46.48700
C  28.11800 -3.66100 46.72600
O  27.19300 -3.22200 47.43500
O  28.87400 -2.92300 45.88600
C  28.64200 -1.46200 46.04100
H  22.14900 -6.58700 44.32000
H  21.70900 -11.29300 48.68700
H  27.69900 -9.73300 50.81700
H  25.85900 -3.92300 45.15500
H  24.30400 -5.75200 43.37300
H  23.95900 -3.01400 44.41500
H  22.65800 -3.98000 45.02400
H  22.81300 -3.80600 43.24100
H  26.35300 -5.59500 42.59900
H  27.61800 -5.84900 43.86100
H  28.72800 -4.12900 43.32600
H  27.63900 -3.02000 43.62300
H  19.96400 -8.85300 43.58700
H  20.13700 -7.15300 44.02200
H  18.89600 -8.10700 44.67200
H  20.31800 -12.40800 47.37500
H  18.51700 -12.19400 47.58900
H  19.56900 -11.46200 48.76200
H  23.74500 -12.59000 49.74300
H  25.31800 -10.94300 51.79700
H  23.04400 -12.06300 52.41200
H  22.03100 -12.64300 51.13900
H  22.17400 -10.89500 51.45600
H  26.93200 -12.58200 49.90200
H  25.67100 -13.49200 50.65600
H  26.85600 -13.74000 52.45400
H  27.06100 -12.03300 52.79600
H  28.15900 -12.81500 51.67500
H  30.26400 -7.23400 50.60100
H  30.79600 -8.43500 49.42600
H  29.79600 -8.80400 50.88100
H  29.00700 -5.19700 45.56800
H  29.23000 -0.74400 45.46900
H  28.84100 -1.21500 47.08400
H  27.61600 -1.16900 45.82000
Mg 16.56000 52.15500 24.80800
C  18.46800 51.31000 27.72600
C  13.81700 52.60300 26.90600
C  14.74100 52.46900 22.13900
C  19.43800 50.96100 22.87500
N  16.23600 51.98900 26.99400
C  17.20500 51.75800 28.00400
C  16.56300 51.99300 29.40900
C  15.06500 52.30800 29.13300
C  15.04500 52.40300 27.56900
C  13.90200 51.35400 29.58100
C  17.41200 53.15500 30.14000
C  17.69000 52.87900 31.64300
H  16.89400 51.91700 32.41300
N  14.51400 52.55900 24.55300
C  13.53400 52.66800 25.53100
C  12.26100 52.95800 24.85000
C  12.57500 53.06000 23.45100
C  13.98100 52.77000 23.30900
C  11.01200 53.17900 25.59000
C  11.61600 53.38800 22.25000
O  12.04000 53.43700 21.09200
C  10.07400 53.66600 22.48000
N  16.98600 51.63700 22.87300
C  16.08000 52.02400 21.87900
C  16.65600 51.95100 20.47500
C  18.20300 51.76600 20.75800
C  18.26600 51.46600 22.31000
C  16.01900 50.83300 19.65300
C  19.05400 53.04900 20.40900
C  20.46300 52.86000 19.99600
N  18.52300 51.18400 25.19600
C  19.59000 50.82500 24.36500
C  20.68600 50.38400 25.15200
C  20.29200 50.57900 26.46800
C  18.93800 51.01600 26.45300
C  22.01700 50.08900 24.60200
C  20.69600 50.47800 27.82600
O  21.79100 50.18000 28.27600
C  19.50600 50.92100 28.74400
C  19.10200 49.71600 29.43200
O  18.55500 48.75200 28.90200
O  19.55400 49.68100 30.72600
C  19.37700 48.45300 31.51900
H  13.03700 52.94100 27.59100
H  14.44500 52.82300 21.15000
H  20.29100 50.94300 22.19400
H  16.74900 51.05300 29.92900
H  14.93300 53.30200 29.55900
H  13.23400 51.85400 30.28200
H  14.41400 50.59300 30.17000
H  13.33700 50.89300 28.77100
H  16.83800 54.08100 30.09600
H  18.30300 53.38800 29.55700
H  17.70500 53.84600 32.14600
H  18.71800 52.52400 31.71800
H  10.41500 52.31000 25.31400
H  10.45700 54.09900 25.40300
H  11.10800 53.14000 26.67500
H  9.63900 54.08800 21.57400
H  9.95900 54.47400 23.20200
H  9.55100 52.78900 22.86100
H  16.45700 52.88500 19.94900
H  18.61100 50.91200 20.21800
H  15.49200 51.32800 18.83700
H  15.25900 50.39800 20.30200
H  16.79700 50.13300 19.34900
H  19.01600 53.70900 21.27600
H  18.46700 53.54100 19.63400
H  20.79700 53.52200 19.19600
H  20.68800 51.84500 19.67000
H  21.19000 52.92300 20.80500
H  22.01900 50.15100 23.51400
H  22.23700 49.02300 24.66400
H  22.75100 50.72400 25.09800
H  19.88500 51.60100 29.50700
H  18.35700 48.30800 31.87800
H  19.95300 48.52000 32.44200
H  19.66000 47.61100 30.88800

