158

Mg -2.28900 16.64500 25.66100
C  -2.52300 14.50500 28.39800
C  -4.07500 18.92500 27.49500
C  -2.23600 18.68100 23.03000
C  -1.40700 13.89300 23.57800
N  -3.06300 16.71600 27.76600
C  -2.96500 15.74300 28.75000
C  -3.54500 16.23000 30.11300
C  -4.30700 17.49800 29.70700
C  -3.78100 17.75200 28.23300
C  -5.83200 17.15500 29.54500
C  -2.39900 16.50000 31.14700
C  -2.41400 15.69000 32.46400
H  -2.52500 16.42000 33.80200
N  -2.82600 18.65400 25.42800
C  -3.60000 19.40100 26.24900
C  -3.73100 20.72000 25.70500
C  -3.15400 20.70600 24.35700
C  -2.67700 19.29100 24.23500
C  -4.39600 21.85700 26.46000
C  -3.11000 21.78600 23.35900
O  -2.55500 21.62300 22.26100
C  -3.65200 23.29800 23.58300
N  -1.88600 16.26800 23.57900
C  -1.84900 17.36900 22.73400
C  -1.28000 16.98900 21.35600
C  -1.00000 15.45600 21.53600
C  -1.35700 15.15400 23.03900
C  -2.27700 17.11100 20.16500
C  0.43900 15.22800 21.15600
C  1.49600 15.71200 22.28500
N  -2.07700 14.60700 25.87200
C  -1.81000 13.57900 24.91900
C  -1.94700 12.29300 25.57200
C  -2.12500 12.59700 26.94500
C  -2.26100 13.99900 27.06900
C  -1.88200 10.96100 24.95000
C  -2.30000 12.06700 28.30700
O  -2.31400 10.91800 28.65900
C  -2.49800 13.28700 29.26600
C  -1.38700 13.23300 30.17000
O  -0.30400 13.77000 30.05300
O  -1.71600 12.38900 31.16200
C  -0.84000 12.21000 32.32500
H  -4.80200 19.49900 28.07400
H  -2.14800 19.39200 22.20600
H  -1.21500 13.11300 22.83900
H  -4.30800 15.52200 30.43800
H  -4.20300 18.36100 30.36500
H  -6.01200 16.46100 28.72400
H  -6.42100 18.06100 29.40800
H  -6.24300 16.91200 30.52500
H  -2.42000 17.55000 31.43900
H  -1.37800 16.30700 30.81800
H  -1.45200 15.19000 32.57400
H  -3.18900 14.92800 32.54200
H  -5.48600 21.85200 26.42800
H  -4.03100 22.88200 26.38500
H  -4.06500 21.78700 27.49600
H  -3.44700 24.04400 22.81500
H  -3.09100 23.68600 24.43300
H  -4.71000 23.43800 23.80200
H  -0.40000 17.62500 21.25400
H  -1.67900 14.84800 20.93700
H  -3.23500 17.36600 20.62000
H  -2.42900 16.25300 19.51000
H  -1.84000 17.96100 19.64100
H  0.82700 15.76600 20.29200
H  0.44700 14.16600 20.91100
H  0.98400 15.91500 23.22500
H  1.99000 16.60600 21.90400
H  2.27200 14.95900 22.41900
H  -0.82700 10.71300 24.83300
H  -2.33500 11.03300 23.96100
H  -2.29500 10.30700 25.71700
H  -3.39800 13.26300 29.88000
H  0.02800 11.60500 32.06400
H  -1.26400 11.69600 33.18800
H  -0.47400 13.20200 32.58900
Mg -2.73900 34.82500 26.67800
C  -3.84800 33.19400 29.57300
C  -0.96000 36.91000 28.67200
C  -1.89200 36.57700 23.86000
C  -4.62800 32.54800 24.83700
N  -2.43300 34.94800 28.95200
C  -2.92100 34.22900 29.92400
C  -2.37700 34.60900 31.31300
C  -1.48300 35.88700 30.94500
C  -1.61200 35.95300 29.41900
C  -1.82900 37.07500 31.71800
C  -1.65400 33.39900 31.96900
C  -2.39600 32.89800 33.32800
H  -1.49600 32.74600 34.54400
N  -1.59300 36.49000 26.26200
C  -0.94400 37.19700 27.26200
C  -0.14100 38.19000 26.63700
C  -0.19400 37.90900 25.26700
C  -1.20400 36.92100 25.06400
C  0.81100 39.17200 27.37500
C  0.63400 38.48100 24.05900
O  0.33700 38.29300 22.94600
C  1.92400 39.36700 24.34000
N  -3.57100 34.83700 24.70100
C  -2.94900 35.60300 23.72300
C  -3.53400 35.20300 22.38600
C  -4.06300 33.75100 22.67600
C  -4.12300 33.71800 24.19500
C  -4.51500 36.21800 21.71800
C  -3.19200 32.58300 22.15700
C  -3.29900 32.24700 20.67500
N  -3.99000 33.21900 27.07700
C  -4.67300 32.40100 26.25500
C  -5.48300 31.45000 26.92300
C  -5.17500 31.76700 28.28700
C  -4.24400 32.81800 28.25800
C  -6.50500 30.57800 26.39600
C  -5.35800 31.31800 29.67200
O  -5.98200 30.38600 30.15000
C  -4.57800 32.28000 30.54100
C  -5.54800 32.92500 31.49500
O  -6.31300 33.86600 31.23800
O  -5.52400 32.33900 32.70700
C  -6.50800 32.63700 33.69400
H  -0.33700 37.71300 29.07300
H  -1.62100 37.05800 22.91700
H  -5.11900 31.80600 24.20400
H  -3.21300 34.90700 31.94600
H  -0.47500 35.80000 31.35100
H  -0.92200 37.58800 32.03600
H  -2.47400 36.85800 32.56900
H  -2.36500 37.77800 31.08100
H  -0.60200 33.60800 32.16000
H  -1.51300 32.61200 31.22800
H  -2.73000 31.87100 33.17900
H  -3.26800 33.52500 33.51500
H  1.80300 38.74100 27.51100
H  0.45800 39.39300 28.38300
H  0.94200 40.02500 26.70900
H  2.59500 38.90800 25.06600
H  1.57400 40.36800 24.59500
H  2.46100 39.37700 23.39100
H  -2.67700 35.21000 21.71300
H  -5.03700 33.65600 22.19700
H  -5.47600 35.76700 21.47100
H  -4.24300 36.59100 20.73100
H  -4.80900 37.02300 22.39200
H  -3.46600 31.65300 22.65600
H  -2.17000 32.92300 22.32600
H  -4.14400 32.72200 20.17500
H  -3.46800 31.18200 20.52000
H  -2.39300 32.55600 20.15300
H  -6.17900 29.54700 26.54000
H  -6.66300 30.76600 25.33400
H  -7.42200 30.80700 26.93700
H  -3.98300 31.79300 31.31300
H  -6.04700 33.30500 34.42100
H  -6.78200 31.69200 34.16300
H  -7.36700 33.13500 33.24300

