158

Mg 24.14400 -4.15100 46.24900
C  25.96200 -1.49100 44.96800
C  21.39900 -3.11100 44.61600
C  22.75300 -7.13100 47.09600
C  27.26700 -5.45800 47.56200
N  23.84100 -2.50900 44.85600
C  24.64700 -1.49800 44.48400
C  23.92900 -0.61300 43.47200
C  22.37900 -0.94200 43.78900
C  22.55400 -2.25400 44.49000
C  21.65600 0.15900 44.61300
C  24.36500 -0.94900 41.99800
C  24.89000 0.22600 41.19700
H  24.93800 0.06100 39.66600
N  22.32700 -5.03600 45.84400
C  21.30000 -4.47200 45.13500
C  20.13000 -5.33000 45.08700
C  20.44200 -6.46200 45.91900
C  21.89100 -6.25900 46.30200
C  18.88500 -4.98900 44.31600
C  19.55500 -7.58500 46.35000
O  18.44400 -7.53200 45.95800
C  19.84500 -8.81700 47.17400
N  24.88100 -6.06200 47.31100
C  24.08100 -7.11300 47.53100
C  24.82000 -8.25500 48.27400
C  26.35200 -7.67600 48.30700
C  26.15200 -6.28500 47.75000
C  24.25200 -8.82800 49.65800
C  27.35300 -8.41400 47.36200
C  28.62700 -8.92300 48.02800
N  26.21100 -3.58800 46.44200
C  27.37700 -4.16700 46.95900
C  28.43700 -3.18300 46.88700
C  27.99200 -2.22000 46.01800
C  26.62500 -2.48500 45.75300
C  29.67100 -3.19100 47.54100
C  28.37000 -1.07200 45.29600
O  29.45500 -0.56900 45.17300
C  27.11600 -0.55000 44.45800
C  26.70400 0.79100 44.87900
O  26.47500 1.15400 46.01100
O  26.90900 1.62100 43.77000
C  26.75000 3.01400 43.96200
H  20.43700 -2.65700 44.37200
H  22.39700 -8.11900 47.39700
H  28.20300 -5.82300 47.98800
H  24.06700 0.44700 43.68800
H  21.80900 -1.03100 42.86500
H  22.22600 1.07600 44.46300
H  21.60900 -0.17200 45.65000
H  20.66900 0.48000 44.28000
H  23.62500 -1.34600 41.30300
H  25.16300 -1.68800 42.05300
H  25.89200 0.40500 41.58700
H  24.26100 1.08600 41.42600
H  18.36500 -5.77900 43.77400
H  19.11100 -4.19900 43.59900
H  18.17300 -4.60300 45.04500
H  19.18200 -9.65700 46.96800
H  20.02200 -8.47700 48.19400
H  20.82500 -9.16900 46.85100
H  25.06000 -9.10300 47.63300
H  26.74600 -7.53800 49.31400
H  24.91500 -8.53300 50.47100
H  24.22700 -9.91700 49.63300
H  23.23400 -8.50600 49.88000
H  27.68400 -7.74400 46.56800
H  26.81500 -9.19500 46.82600
H  29.41600 -8.30000 47.60600
H  28.81900 -9.96500 47.77100
H  28.51100 -8.74200 49.09600
H  29.61700 -3.42100 48.60500
H  30.14700 -2.21100 47.56700
H  30.38700 -3.87400 47.08400
H  27.12800 -0.47100 43.37100
H  26.89100 3.24800 45.01700
H  25.77700 3.30400 43.56500
H  27.62600 3.28200 43.37100
Mg 16.29300 -1.48100 27.88200
C  15.13400 0.47500 30.50300
C  18.42300 -3.10800 30.03300
C  17.90400 -3.00800 25.29600
C  14.58700 0.43600 25.58800
N  16.69000 -1.22200 30.05400
C  16.15200 -0.41300 30.97000
C  16.79200 -0.58900 32.39000
C  17.86300 -1.62100 32.08600
C  17.63700 -1.97300 30.58500
C  19.36900 -1.32200 32.31300
C  15.73200 -0.96800 33.39500
C  15.73100 -0.13300 34.75100
H  16.94200 0.66600 35.14700
N  17.75700 -3.14200 27.67900
C  18.43700 -3.67600 28.76700
C  19.22400 -4.80900 28.26600
C  19.23400 -4.66600 26.85000
C  18.22200 -3.64500 26.55200
C  20.09300 -5.66600 29.15300
C  20.04300 -5.35000 25.66100
O  19.68500 -5.35200 24.48300
C  21.08100 -6.29400 26.08200
N  16.39600 -1.20800 25.78300
C  17.06200 -2.00500 24.94300
C  16.79300 -1.63500 23.47000
C  15.60900 -0.69000 23.50400
C  15.49800 -0.50300 25.06500
C  18.08000 -1.13400 22.75900
C  14.28100 -1.15300 22.71600
C  13.49500 -0.07000 21.96800
N  14.96900 -0.06700 27.96300
C  14.35600 0.68800 26.94100
C  13.50600 1.67000 27.54100
C  13.75100 1.63600 28.90700
C  14.74900 0.61500 29.14500
C  12.65700 2.68600 26.87900
C  13.48900 2.31000 30.18700
O  12.70600 3.23300 30.45100
C  14.37000 1.55400 31.26300
C  15.21900 2.57900 31.86400
O  16.15500 3.13500 31.29300
O  14.59700 3.02700 32.99600
C  15.16000 4.20400 33.60200
H  19.17900 -3.44400 30.74500
H  18.54100 -3.39900 24.50000
H  14.05900 0.96400 24.79200
H  17.31000 0.34300 32.61500
H  17.66300 -2.57200 32.58000
H  19.45600 -0.61500 33.13800
H  19.81000 -0.94200 31.39100
H  19.90000 -2.19500 32.69300
H  15.86400 -2.01500 33.66600
H  14.74600 -0.79700 32.96300
H  15.44300 -0.75900 35.59600
H  14.96500 0.60200 34.50500
H  20.13700 -6.65600 28.69900
H  19.67100 -5.74500 30.15400
H  21.07400 -5.19100 29.19200
H  20.67800 -7.19000 26.55400
H  21.82100 -5.75300 26.67200
H  21.64600 -6.55800 25.18900
H  16.51000 -2.59300 23.03400
H  15.93300 0.28700 23.14400
H  18.55800 -0.36100 23.35900
H  17.98100 -0.63700 21.79400
H  18.86700 -1.85500 22.53700
H  13.68700 -1.58900 23.52000
H  14.57000 -1.94800 22.02800
H  13.70000 -0.21000 20.90700
H  13.91000 0.84800 22.38500
H  12.41600 -0.21500 22.03100
H  12.83800 2.62600 25.80500
H  12.92400 3.68400 27.22600
H  11.59800 2.44300 26.95500
H  13.78000 1.08000 32.04600
H  14.75200 4.23900 34.61200
H  14.81500 5.05100 33.00900
H  16.24800 4.20300 33.66700

