158

Mg 35.85300 1.06100 29.53400
C  33.70200 2.27000 32.19400
C  38.48700 1.50400 31.70600
C  37.97000 0.39000 27.03000
C  33.24600 1.66400 27.31500
N  36.03500 1.88200 31.75100
C  35.05500 2.18700 32.64900
C  35.64900 2.24700 34.04900
C  37.20500 2.31000 33.79000
C  37.25800 1.90500 32.29600
C  37.87100 3.69200 34.08700
C  35.18300 1.04800 34.97100
C  35.23100 1.32000 36.53000
H  36.29100 2.27400 37.11800
N  37.92500 0.86600 29.40300
C  38.82300 1.02500 30.44100
C  40.08500 0.52300 29.95900
C  39.99000 0.18400 28.56000
C  38.60800 0.57700 28.26300
C  41.23100 0.25500 30.92800
C  41.09100 -0.29300 27.50900
O  40.79100 -0.39300 26.31500
C  42.45400 -0.57200 27.98900
N  35.63400 1.07200 27.59200
C  36.58700 0.57400 26.64500
C  36.01600 0.48100 25.18900
C  34.59400 0.56500 25.47800
C  34.47600 1.23000 26.86200
C  36.61200 1.55500 24.22800
C  33.80700 -0.76200 25.33700
C  32.65500 -0.82500 24.36900
N  33.87100 1.62900 29.71900
C  32.97900 1.94900 28.69500
C  31.68200 2.34900 29.26100
C  31.90000 2.44300 30.62500
C  33.23100 2.04600 30.84900
C  30.40600 2.45400 28.50900
C  31.24500 2.67100 31.88800
O  30.10500 3.04400 32.11300
C  32.42000 2.50400 33.00100
C  32.41800 3.68200 33.89200
O  32.36600 4.85700 33.47600
O  32.47600 3.29300 35.18300
C  32.88800 4.35900 36.08200
H  39.27200 1.41000 32.46000
H  38.53500 0.17300 26.12100
H  32.39000 1.69100 26.63800
H  35.25600 3.20600 34.38600
H  37.60600 1.55900 34.47100
H  37.08900 4.45100 34.05700
H  38.53600 3.83200 33.23500
H  38.32600 3.64000 35.07700
H  35.62100 0.09300 34.67800
H  34.12600 0.86900 34.77800
H  35.19700 0.34200 37.01000
H  34.28500 1.82400 36.72800
H  41.37600 -0.82500 30.95100
H  40.85700 0.39400 31.94200
H  42.08400 0.89300 30.69400
H  42.43700 -1.41000 28.68600
H  42.94700 0.33200 28.34700
H  42.91900 -1.01000 27.10700
H  36.25300 -0.49900 24.77400
H  34.19500 1.27500 24.75500
H  37.61000 1.86300 24.53700
H  35.85700 2.33400 24.12000
H  36.72600 1.04400 23.27200
H  33.40100 -0.95800 26.32900
H  34.44300 -1.63700 25.20700
H  31.74600 -0.70400 24.95800
H  32.71400 -1.76900 23.82600
H  32.58400 -0.01400 23.64400
H  30.42500 1.58100 27.85700
H  30.32300 3.32800 27.86300
H  29.59200 2.48200 29.23400
H  32.14400 1.62500 33.58300
H  32.03000 5.01400 36.23300
H  33.62400 5.02500 35.63100
H  33.39100 3.92300 36.94500
Mg 54.07200 24.54400 44.88300
C  51.43600 26.77100 44.37600
C  51.96100 21.93500 44.20200
C  56.86100 22.53800 44.61100
C  56.15700 27.13300 45.62000
N  51.95100 24.41500 44.20700
C  51.01800 25.43500 44.17500
C  49.54400 24.84900 44.06700
C  49.79500 23.35500 44.45900
C  51.35700 23.21200 44.27400
C  49.43400 23.00200 45.90700
C  48.73700 25.03500 42.71200
C  49.45300 25.03400 41.33800
H  49.72000 23.57100 40.87300
N  54.38100 22.50600 44.41700
C  53.34500 21.59300 44.24200
C  54.02500 20.28800 44.08000
C  55.44600 20.47000 44.07400
C  55.64500 21.90200 44.38200
C  53.24200 19.01700 43.87000
C  56.46200 19.31900 43.83200
O  56.08800 18.18700 43.75300
C  57.91800 19.58800 43.62500
N  56.22700 24.86400 44.92100
C  57.15000 23.88400 44.88900
C  58.60800 24.39200 45.07300
C  58.37500 25.93200 45.41700
C  56.84400 26.00400 45.20500
C  59.30700 23.53900 46.21700
C  59.23400 26.91600 44.53300
C  58.61200 27.48100 43.18100
N  53.88800 26.56000 44.96900
C  54.79700 27.50500 45.41800
C  54.21300 28.78400 45.56900
C  52.93100 28.62300 45.03400
C  52.77800 27.21700 44.70400
C  54.78200 29.98800 46.23400
C  51.60800 29.14200 44.70900
O  51.22900 30.29100 44.86000
C  50.61500 27.97700 44.27200
C  50.09000 28.39200 42.93100
O  50.73900 28.64800 41.91800
O  48.73100 28.61300 43.09000
C  47.95800 28.75200 41.83100
H  51.28000 21.14300 43.88600
H  57.79000 21.96700 44.54700
H  56.81700 27.92400 45.98200
H  48.83100 25.28600 44.76600
H  49.36800 22.71700 43.68500
H  49.69600 21.94500 45.93400
H  48.37400 23.20300 46.06500
H  50.08100 23.60600 46.54300
H  48.11100 25.92600 42.74200
H  48.06900 24.18000 42.60100
H  50.44000 25.49700 41.32700
H  48.78800 25.50700 40.61500
H  53.01800 18.93400 42.80700
H  52.33100 19.06200 44.46600
H  53.80500 18.10400 44.06300
H  57.98800 20.51000 43.04900
H  58.19500 18.70600 43.04800
H  58.50000 19.66800 44.54300
H  59.07600 24.36200 44.09000
H  58.46700 26.03500 46.49800
H  59.57300 24.20100 47.04200
H  60.20000 23.06600 45.80900
H  58.61100 22.86200 46.71300
H  60.22200 26.46900 44.41900
H  59.38500 27.77100 45.19200
H  59.13300 27.15700 42.28000
H  58.65800 28.57000 43.13700
H  57.57400 27.17200 43.05800
H  55.71100 30.37600 45.81700
H  54.92900 29.78800 47.29500
H  53.99700 30.74300 46.17300
H  49.83800 28.02300 45.03600
H  48.52600 29.22300 41.02900
H  46.96900 29.18100 41.99300
H  47.81200 27.77100 41.38000

