158

Mg 29.90400 58.55500 40.20300
C  27.36600 56.28000 39.46500
C  32.23600 55.99600 39.67100
C  32.13500 60.90000 40.07400
C  27.37800 61.14900 39.63200
N  29.80900 56.43300 39.59300
C  28.67800 55.68600 39.33200
C  29.02400 54.34900 38.75300
C  30.49300 54.18300 39.29900
C  30.91100 55.64700 39.59400
C  30.75500 53.23400 40.57800
C  28.86600 54.28300 37.19400
C  27.74000 53.33900 36.73100
H  26.81600 54.07200 35.73900
N  31.94200 58.49800 39.95300
C  32.73900 57.31300 39.81200
C  34.17700 57.74900 39.82200
C  34.18500 59.21300 40.07200
C  32.73700 59.58100 40.02800
C  35.24200 56.67000 39.62900
C  35.45400 60.09400 40.35000
O  36.55800 59.56200 40.33100
C  35.30400 61.65900 40.61300
N  29.73400 60.68800 39.93400
C  30.81200 61.43200 39.97900
C  30.62300 62.95400 39.97100
C  29.08200 63.00300 39.74100
C  28.69400 61.53700 39.72700
C  31.06400 63.76500 41.25800
C  28.70600 63.83500 38.49600
C  27.78500 65.00900 38.60900
N  27.75700 58.75000 40.04800
C  26.95000 59.81000 39.73100
C  25.63800 59.32000 39.52800
C  25.70500 57.96800 39.53100
C  27.05400 57.64400 39.70600
C  24.47800 60.28500 39.33200
C  24.95100 56.81200 39.41000
O  23.71700 56.65600 39.25200
C  26.00200 55.62700 39.30300
C  25.68900 54.57100 40.23700
O  25.82800 54.64900 41.43900
O  24.97900 53.54400 39.64500
C  24.45800 52.51500 40.52600
H  33.00100 55.21600 39.66600
H  32.88800 61.69100 40.07500
H  26.60400 61.91400 39.54500
H  28.40200 53.66200 39.32600
H  31.02400 53.83400 38.41400
H  31.42900 52.43100 40.28100
H  29.77600 52.82600 40.83100
H  31.04400 53.92000 41.37300
H  29.79300 53.93200 36.74000
H  28.70200 55.31500 36.88500
H  27.12400 52.93200 37.53300
H  28.27700 52.49000 36.30700
H  34.89600 55.98600 38.85400
H  35.21800 56.18500 40.60500
H  36.25200 57.01500 39.41100
H  36.25400 62.09100 40.92900
H  34.65500 61.74600 41.48400
H  34.93900 62.24500 39.76900
H  31.19800 63.25100 39.09400
H  28.65800 63.43900 40.64700
H  30.23600 64.41000 41.55300
H  31.94700 64.39100 41.13000
H  31.36800 63.00400 41.97700
H  28.20400 63.12700 37.83700
H  29.60200 64.21300 38.00300
H  26.77000 64.69100 38.37000
H  28.11100 65.87900 38.03900
H  27.67400 65.26400 39.66200
H  24.55000 60.75900 38.35400
H  24.51100 60.93400 40.20700
H  23.63100 59.60800 39.43600
H  25.81400 55.39000 38.25500
H  23.44400 52.73700 40.86100
H  25.03300 52.34000 41.43500
H  24.37600 51.56700 39.99300
Mg -5.57300 25.24900 26.22100
C  -3.79000 26.69500 28.85700
C  -6.88200 23.00800 28.28700
C  -7.03200 23.83300 23.47400
C  -3.71100 27.27100 24.00100
N  -5.46700 25.07500 28.36800
C  -4.69300 25.72900 29.25000
C  -5.11200 25.29700 30.70200
C  -5.82700 23.90400 30.45400
C  -6.18000 24.05600 28.97300
C  -4.98500 22.65200 30.80200
C  -6.10500 26.35700 31.32400
C  -5.86400 26.63100 32.84500
H  -5.35700 25.30700 33.71000
N  -6.97100 23.78900 25.97900
C  -7.30200 22.86700 26.95800
C  -8.21800 21.88000 26.40100
C  -8.30800 22.16500 24.98900
C  -7.42900 23.33500 24.77500
C  -8.73800 20.72500 27.17100
C  -9.04000 21.49600 23.91900
O  -9.12200 21.85300 22.72700
C  -9.69000 20.23100 24.24400
N  -5.40000 25.44700 24.03200
C  -6.12100 24.79100 23.14300
C  -5.82200 25.17400 21.65700
C  -4.95200 26.41400 21.90900
C  -4.64400 26.38800 23.39000
C  -5.06300 24.02800 20.88600
C  -5.61300 27.76300 21.46100
C  -5.43300 28.14600 20.00500
N  -3.98200 26.67800 26.36500
C  -3.33600 27.37800 25.33000
C  -2.36600 28.22700 26.00100
C  -2.55600 28.02500 27.37400
C  -3.48100 27.05600 27.53400
C  -1.40400 29.31000 25.34200
C  -2.06100 28.41100 28.68700
O  -1.28700 29.29200 29.02000
C  -2.87600 27.51100 29.73200
C  -2.01300 26.66300 30.62800
O  -1.57000 25.55500 30.34400
O  -1.83900 27.22400 31.82700
C  -1.07600 26.58900 32.86400
H  -7.24500 22.15600 28.86600
H  -7.40700 23.30800 22.59300
H  -3.37900 27.99800 23.25700
H  -4.20700 25.15700 31.29400
H  -6.81100 23.79500 30.90900
H  -5.56600 21.93500 31.38100
H  -4.07100 22.99800 31.28500
H  -4.63500 22.23200 29.85900
H  -7.13100 25.99100 31.28400
H  -6.14400 27.33800 30.85100
H  -6.74900 27.10000 33.27400
H  -5.05500 27.35900 32.91500
H  -9.82000 20.82000 27.26000
H  -8.42400 20.58500 28.20500
H  -8.48500 19.78800 26.67500
H  -8.95600 19.50800 24.59800
H  -10.27600 19.83000 23.41700
H  -10.39100 20.45100 25.04900
H  -6.70600 25.50800 21.11200
H  -4.02600 26.38200 21.33600
H  -4.05000 24.34900 20.64300
H  -5.76000 23.81900 20.07500
H  -4.98400 23.11900 21.48200
H  -5.12000 28.63200 21.89700
H  -6.65500 27.91000 21.74400
H  -6.47500 28.30900 19.72700
H  -5.06200 27.28800 19.44400
H  -4.98900 29.12100 19.80300
H  -0.78600 28.97200 24.51100
H  -0.76600 29.75100 26.10800
H  -2.00200 30.09700 24.88300
H  -3.44400 28.17000 30.38900
H  -0.70000 25.57500 32.73100
H  -1.68800 26.67500 33.76200
H  -0.24300 27.29200 32.85100

