158

Mg 34.97800 49.37500 26.74500
C  35.42600 46.82800 29.13200
C  34.00000 51.49000 29.29100
C  34.38900 51.60000 24.50000
C  35.80000 46.96800 24.36000
N  34.78300 49.20600 28.96500
C  35.05600 48.08400 29.73400
C  35.01000 48.37700 31.20300
C  34.18400 49.71800 31.19600
C  34.30500 50.24300 29.71000
C  32.70100 49.50100 31.55700
C  36.47000 48.54600 31.85700
C  36.55400 47.94600 33.25300
H  36.33500 48.98900 34.39300
N  34.30100 51.36100 26.84900
C  34.06300 52.10800 28.03000
C  33.91300 53.50800 27.61100
C  34.00500 53.55300 26.18900
C  34.25900 52.14100 25.76800
C  33.71100 54.64800 28.58700
C  34.03400 54.75000 25.27500
O  34.43900 54.72400 24.08100
C  33.63100 56.12600 25.90900
N  34.68900 49.16900 24.69400
C  34.56200 50.30200 23.95700
C  34.75400 49.97800 22.45600
C  35.60500 48.71800 22.60000
C  35.42200 48.27100 23.98200
C  33.40200 49.75700 21.69100
C  37.12900 48.91400 22.39200
C  37.85200 47.95200 21.52800
N  35.58100 47.36100 26.72900
C  35.87100 46.54300 25.67500
C  36.24300 45.19000 26.12900
C  36.09400 45.30500 27.53800
C  35.66800 46.61100 27.77600
C  36.62200 44.03700 25.30900
C  36.20700 44.62800 28.83000
O  36.55100 43.49500 29.09800
C  35.79000 45.62000 29.89200
C  34.59300 45.10900 30.61800
O  33.48300 44.95200 30.18300
O  35.07400 44.63800 31.83000
C  34.16300 43.77100 32.54700
H  33.64200 52.19600 30.04300
H  34.49000 52.38700 23.75000
H  36.15600 46.28300 23.58700
H  34.53900 47.59000 31.79300
H  34.58700 50.40800 31.93700
H  32.05400 49.78600 30.72700
H  32.47400 50.15100 32.40100
H  32.54200 48.46100 31.84200
H  36.72400 49.60200 31.76400
H  37.09400 47.87900 31.26300
H  37.56400 47.54900 33.35100
H  35.85200 47.13800 33.46200
H  34.48600 55.41200 28.51600
H  33.73700 54.26300 29.60700
H  32.68400 54.99600 28.48100
H  32.58400 56.08000 26.20900
H  33.69100 56.82200 25.07200
H  34.33800 56.44800 26.67300
H  35.41600 50.73300 22.03400
H  35.32700 47.95100 21.87700
H  32.65500 49.70800 22.48400
H  33.45500 48.82600 21.12700
H  33.19700 50.54400 20.96500
H  37.68300 48.88800 23.33100
H  37.44100 49.86300 21.95600
H  38.17600 48.49000 20.63700
H  37.37100 46.99900 21.30700
H  38.70300 47.60800 22.11600
H  36.09200 44.07200 24.35700
H  36.44400 43.07400 25.78900
H  37.68700 44.03200 25.07700
H  36.60000 45.78000 30.60300
H  33.49400 44.35300 33.18100
H  34.78800 43.14100 33.18000
H  33.66600 43.15700 31.79500
Mg -10.77000 17.74700 41.47000
C  -7.36400 17.06100 41.44100
C  -10.03600 21.03200 40.66500
C  -14.01200 18.31400 41.13900
C  -11.27300 14.35100 41.37100
N  -8.85400 18.91000 41.19700
C  -7.60500 18.44600 41.21100
C  -6.57300 19.59400 40.87100
C  -7.50600 20.87900 41.12000
C  -8.90000 20.26500 41.01500
C  -7.28900 21.70300 42.42800
C  -6.16400 19.35800 39.40800
C  -4.68500 18.94900 39.17400
H  -4.41100 17.91000 38.12000
N  -11.92000 19.45300 40.99600
C  -11.40300 20.69200 40.68900
C  -12.52100 21.59600 40.49600
C  -13.70000 20.86900 40.76400
C  -13.24000 19.49500 41.04300
C  -12.33500 23.07800 40.01200
C  -15.14000 21.43900 40.60900
O  -15.34200 22.59700 40.40700
C  -16.38200 20.52500 40.76100
N  -12.41800 16.53100 40.93200
C  -13.66000 16.97100 41.08500
C  -14.70900 15.84100 41.17300
C  -13.79500 14.53800 41.04100
C  -12.37700 15.19400 41.19900
C  -15.59700 15.90100 42.48000
C  -13.85800 13.73100 39.74900
C  -13.80100 12.19700 39.80100
N  -9.64000 16.01300 41.45600
C  -9.94300 14.70800 41.38600
C  -8.79400 13.92100 41.51000
C  -7.74300 14.74500 41.50800
C  -8.31000 16.03300 41.50700
C  -8.68100 12.39100 41.60800
C  -6.31100 14.80900 41.53500
O  -5.45400 13.91500 41.50200
C  -6.02700 16.37400 41.47100
C  -5.28900 16.75900 42.74700
O  -4.11300 16.58900 42.91600
O  -6.15000 17.04400 43.80000
C  -5.53600 16.88700 45.12700
H  -9.78300 22.05900 40.39300
H  -15.09100 18.45000 41.04200
H  -11.47000 13.27700 41.38900
H  -5.80100 19.47800 41.63200
H  -7.30800 21.59400 40.32200
H  -6.26400 21.72600 42.79900
H  -7.97000 21.27600 43.16500
H  -7.67100 22.70200 42.21600
H  -6.27400 20.23400 38.76900
H  -6.89000 18.64400 39.01900
H  -4.30300 18.77600 40.18000
H  -4.23200 19.83700 38.73200
H  -12.59900 23.70100 40.86600
H  -13.02000 23.38400 39.22100
H  -11.30500 23.27100 39.71300
H  -16.15900 19.71100 40.07200
H  -17.33900 20.95300 40.46000
H  -16.48400 20.15400 41.78000
H  -15.39300 15.91100 40.32700
H  -14.00300 13.89600 41.89700
H  -15.68200 14.89500 42.89000
H  -16.61900 16.17900 42.22200
H  -15.10500 16.70200 43.03200
H  -13.13000 14.06300 39.00900
H  -14.82800 13.81600 39.25900
H  -14.81500 11.79800 39.81000
H  -13.19600 11.90500 40.65900
H  -13.40300 11.87500 38.83800
H  -9.63100 11.86800 41.49500
H  -8.08200 12.02500 42.44200
H  -8.14500 12.18300 40.68200
H  -5.44300 16.76900 40.64000
H  -6.19800 17.37500 45.84200
H  -4.62700 17.47200 45.26900
H  -5.34700 15.83900 45.36100

