158

Mg 43.11100 42.67900 26.57900
C  42.32800 44.70700 29.14600
C  44.29400 40.31400 28.89000
C  44.19100 40.88700 24.01100
C  42.31400 45.35500 24.37200
N  43.32500 42.48800 28.80000
C  42.78300 43.47300 29.61000
C  42.85600 43.01500 31.08700
C  43.77500 41.66500 30.97500
C  43.81600 41.43400 29.47900
C  45.21200 41.76400 31.62700
C  41.46300 42.86400 31.71900
C  41.38400 42.07100 32.99800
H  40.51800 42.50300 34.10500
N  44.08400 40.86800 26.45000
C  44.40400 40.00700 27.53500
C  45.00500 38.80400 26.96900
C  44.83300 38.89300 25.52600
C  44.36800 40.23700 25.26800
C  45.53500 37.66100 27.81900
C  45.17400 37.85500 24.48000
O  44.83600 38.05000 23.28900
C  45.72400 36.56100 24.82800
N  43.34000 43.09800 24.52100
C  43.75300 42.16300 23.64500
C  43.63500 42.59300 22.19400
C  42.74000 43.89900 22.33200
C  42.71400 44.12000 23.80300
C  45.03400 42.86300 21.68900
C  41.24600 43.69700 21.82300
C  40.40900 42.67300 22.60400
N  42.48300 44.70800 26.61700
C  42.22300 45.66400 25.70000
C  41.67800 46.83900 26.38700
C  41.70400 46.47800 27.73300
C  42.27500 45.20900 27.83600
C  41.19200 48.07900 25.67000
C  41.33700 46.86100 29.06300
O  40.79200 47.87200 29.42100
C  41.77300 45.77900 30.04600
C  42.78400 46.30600 31.03200
O  43.94500 46.57500 30.88900
O  42.18100 46.48600 32.27800
C  42.94200 47.21300 33.28200
H  44.65500 39.60600 29.63900
H  44.50900 40.33100 23.12600
H  42.03700 46.11200 23.63600
H  43.39600 43.68400 31.75700
H  43.23300 40.83000 31.41900
H  45.21900 40.97700 32.38100
H  45.40500 42.70900 32.13300
H  46.02700 41.63700 30.91400
H  40.83600 42.30300 31.02700
H  40.93100 43.77600 31.99000
H  42.37700 41.85700 33.39300
H  40.89400 41.12600 32.76200
H  45.62200 37.95800 28.86400
H  46.55200 37.49400 27.46400
H  44.96700 36.73500 27.71700
H  46.21200 36.26700 23.89800
H  45.12700 35.70100 25.13300
H  46.60400 36.57600 25.46900
H  43.04300 41.81400 21.71300
H  43.17600 44.71600 21.75600
H  45.14000 42.35000 20.73300
H  45.86300 42.42200 22.24300
H  45.18100 43.94200 21.63200
H  41.37500 43.43300 20.77400
H  40.91500 44.73500 21.83800
H  39.75400 42.07500 21.97000
H  39.74300 43.14500 23.32600
H  41.03500 42.04700 23.24000
H  41.96600 48.30700 24.93800
H  41.09500 48.93700 26.33500
H  40.26400 47.84200 25.15000
H  40.89000 45.38600 30.55000
H  43.72000 47.92500 33.00300
H  43.29400 46.43200 33.95500
H  42.44400 47.94900 33.91300
Mg 17.58200 53.05400 26.58300
C  19.47400 51.30000 29.00600
C  14.97300 53.26800 28.90500
C  15.63000 54.33400 24.24100
C  19.88000 52.00200 24.15800
N  17.36000 52.40400 28.69200
C  18.36400 51.95600 29.53400
C  17.93300 52.00500 31.01100
C  16.38500 52.27500 30.86700
C  16.26200 52.73100 29.40500
C  15.39400 51.12600 31.25700
C  18.71600 53.06600 31.77500
C  18.60900 53.35400 33.33700
H  17.82200 52.33600 34.12300
N  15.62200 53.96200 26.61700
C  14.75200 53.96300 27.66900
C  13.55000 54.57800 27.23300
C  13.68700 54.89600 25.87500
C  15.01000 54.44000 25.52400
C  12.34500 54.76200 28.18200
C  12.71400 55.60300 24.96600
O  12.99600 55.95500 23.77200
C  11.38000 56.02000 25.42300
N  17.68100 53.16300 24.45900
C  16.78800 53.76800 23.74900
C  17.19400 53.75900 22.22100
C  18.58100 53.15600 22.26000
C  18.76600 52.71800 23.69900
C  16.18000 52.92100 21.33500
C  19.74100 54.12200 21.82700
C  20.32600 55.19500 22.83600
N  19.24900 51.67800 26.55500
C  20.15100 51.47400 25.48100
C  21.23500 50.65000 25.94800
C  21.03300 50.49300 27.33800
C  19.82800 51.25700 27.68100
C  22.36100 50.13000 25.08600
C  21.61400 49.94400 28.55400
O  22.61300 49.27800 28.72500
C  20.53100 50.47900 29.71200
C  20.09600 49.24800 30.44600
O  19.51900 48.24800 29.93600
O  20.38100 49.37900 31.74300
C  20.06100 48.34700 32.74300
H  14.12900 53.16800 29.58900
H  15.25300 54.96700 23.43600
H  20.58600 51.85900 23.33800
H  18.13200 51.01100 31.41100
H  16.05000 53.18400 31.36600
H  15.04300 50.61400 30.36100
H  14.53200 51.59500 31.73200
H  15.83500 50.43400 31.97400
H  18.39400 53.98900 31.29200
H  19.77200 52.86200 31.59700
H  18.23500 54.36000 33.52800
H  19.67100 53.27600 33.57000
H  12.01100 55.79000 28.04200
H  12.65400 54.50200 29.19400
H  11.58100 54.06600 27.83500
H  10.89200 55.13000 25.82000
H  10.90500 56.36100 24.50300
H  11.44600 56.85900 26.11600
H  17.31500 54.80300 21.93300
H  18.79500 52.30000 21.62000
H  16.62100 52.14100 20.71500
H  15.67400 53.60300 20.65200
H  15.35200 52.49600 21.90200
H  19.38300 54.77100 21.02700
H  20.47700 53.46700 21.36100
H  20.08600 54.96400 23.87400
H  19.95000 56.21200 22.72400
H  21.40900 55.18600 22.70700
H  22.00100 49.17900 24.69400
H  23.27800 49.99800 25.66200
H  22.61400 50.84000 24.30000
H  21.11300 51.06400 30.42500
H  20.85900 47.61000 32.82800
H  19.11700 47.88200 32.45900
H  19.93300 48.99500 33.61000

