158

Mg 42.40700 42.04200 27.00300
C  41.57600 44.30100 29.64400
C  43.29300 39.71000 29.40600
C  43.88100 40.19900 24.58100
C  41.95200 44.74000 24.69000
N  42.35100 42.03600 29.29400
C  42.06100 43.07000 30.15300
C  42.21100 42.62800 31.65200
C  42.70800 41.21600 31.46700
C  42.84600 40.97300 29.96800
C  43.96200 40.71700 32.31600
C  40.96900 42.88800 32.59800
C  40.92000 42.06900 33.86700
H  40.92400 42.75800 35.24600
N  43.27900 40.18100 26.99600
C  43.48600 39.38800 28.06800
C  44.15000 38.22900 27.60100
C  44.41400 38.30800 26.21200
C  43.89700 39.61400 25.83200
C  44.49500 37.07500 28.42200
C  45.05200 37.38100 25.17800
O  44.97900 37.50800 23.96700
C  45.98200 36.24100 25.70600
N  42.98200 42.43000 24.98400
C  43.47300 41.44100 24.21100
C  43.65200 41.93600 22.78800
C  42.63900 43.18600 22.74900
C  42.53000 43.51900 24.26200
C  45.08800 42.35500 22.39100
C  41.34700 42.96400 21.94900
C  40.28900 42.04800 22.62900
N  41.78700 44.04000 27.08100
C  41.69300 45.02400 26.05500
C  41.30000 46.28000 26.66000
C  41.20300 46.01400 28.09900
C  41.54100 44.66600 28.23900
C  41.00600 47.55900 25.94900
C  40.94600 46.68400 29.39500
O  40.62600 47.83800 29.61900
C  41.17400 45.53800 30.47200
C  42.02900 46.13100 31.42900
O  43.17000 46.44000 31.15900
O  41.37000 46.52700 32.58800
C  41.95200 47.38200 33.62100
H  43.69700 38.94900 30.07700
H  44.20900 39.63800 23.70300
H  41.84100 45.60500 24.03400
H  42.93400 43.29600 32.12000
H  42.01000 40.51800 31.92900
H  44.10200 41.52500 33.03500
H  44.79500 40.58400 31.62600
H  43.79000 39.79300 32.86800
H  40.03300 42.63200 32.10200
H  41.06900 43.90500 32.97600
H  41.79500 41.42700 33.97300
H  40.03100 41.43900 33.90100
H  44.01400 37.01800 29.39900
H  45.55300 36.91100 28.63100
H  44.00700 36.22000 27.95400
H  46.59700 35.96000 24.85100
H  45.45000 35.31700 25.93200
H  46.70900 36.61200 26.42900
H  43.40400 41.26900 21.96200
H  43.16200 44.06600 22.37600
H  45.48700 41.85600 21.50800
H  45.76900 42.26700 23.23700
H  45.10100 43.38100 22.02300
H  41.57900 42.65400 20.93000
H  40.81800 43.91200 21.85000
H  40.89100 41.55000 23.38900
H  39.70800 41.38200 21.99200
H  39.58700 42.73900 23.09600
H  41.76100 47.89100 25.23500
H  40.86200 48.42500 26.59500
H  40.00500 47.47500 25.52600
H  40.20200 45.34400 30.92600
H  42.45800 46.63800 34.23700
H  41.11500 47.72400 34.23000
H  42.60900 48.01700 33.02600
Mg -1.24000 34.35000 25.77200
C  -2.97100 32.76900 28.33800
C  -0.19000 36.71100 27.98900
C  0.01900 36.01000 23.14100
C  -2.76100 32.06300 23.48700
N  -1.61600 34.71000 27.87700
C  -2.17900 33.84600 28.74400
C  -1.95700 34.29300 30.22300
C  -1.07900 35.61500 30.08400
C  -0.94200 35.67600 28.52200
C  -1.67700 36.86800 30.76100
C  -1.32800 33.33900 31.25700
C  -1.95900 33.31000 32.62700
H  -1.19000 32.57700 33.72300
N  -0.03000 36.01600 25.64000
C  0.18700 36.93300 26.61900
C  0.91700 38.02300 26.06200
C  1.09600 37.76100 24.64800
C  0.36700 36.51300 24.44300
C  1.53100 39.14600 26.91000
C  1.71400 38.64400 23.55900
O  1.62100 38.45800 22.39100
C  2.37000 39.88700 23.95400
N  -1.35300 34.08500 23.56700
C  -0.66700 34.85600 22.78500
C  -0.87300 34.39800 21.28500
C  -1.41900 32.94500 21.47300
C  -1.86700 32.99300 22.93200
C  -1.70800 35.24700 20.33500
C  -0.39300 31.71300 21.20500
C  0.26400 31.10300 22.51800
N  -2.57200 32.79300 25.86200
C  -3.04000 31.91500 24.87100
C  -3.91000 30.90800 25.39300
C  -3.90100 31.24700 26.75000
C  -3.01000 32.30900 26.97400
C  -4.80700 29.92800 24.65900
C  -4.52100 30.94700 27.97800
O  -5.34700 30.07200 28.21800
C  -3.86400 31.86000 29.10400
C  -4.91900 32.52000 29.96800
O  -5.53700 33.46700 29.56500
O  -5.04200 31.99100 31.23000
C  -5.97500 32.62300 32.16600
H  0.21100 37.42300 28.71400
H  0.44500 36.50200 22.26400
H  -3.11200 31.21700 22.89300
H  -2.92900 34.43500 30.69600
H  -0.03300 35.66100 30.38400
H  -2.32400 36.59900 31.59600
H  -2.14900 37.58200 30.08600
H  -0.93600 37.48700 31.26700
H  -0.29800 33.59700 31.50600
H  -1.22200 32.32600 30.87100
H  -2.91000 32.79500 32.49100
H  -2.12200 34.30500 33.04300
H  2.61600 39.09700 26.82000
H  1.34400 38.91000 27.95800
H  1.09300 40.10800 26.64500
H  1.63300 40.49200 24.48200
H  2.59800 40.47900 23.06700
H  3.31800 39.71100 24.46200
H  0.11000 34.35300 20.81700
H  -2.19700 32.87300 20.71300
H  -2.73800 34.91900 20.19500
H  -1.31500 35.37800 19.32700
H  -1.86400 36.24600 20.74300
H  0.34800 32.11300 20.51300
H  -0.87000 30.87900 20.69100
H  -0.02500 31.65900 23.41000
H  1.34800 31.21700 22.50200
H  0.04300 30.03600 22.52900
H  -4.32900 29.68400 23.71100
H  -5.71400 30.46000 24.37500
H  -4.93400 28.98700 25.19500
H  -3.13100 31.34200 29.72300
H  -6.64900 33.33300 31.68600
H  -5.45500 33.06100 33.01800
H  -6.52200 31.74100 32.49800

