158

Mg 50.00000 46.31800 42.92400
C  46.59700 46.82600 41.75900
C  49.82900 43.22800 41.61900
C  53.32300 46.18000 43.43500
C  50.06300 49.74400 43.65900
N  48.39600 45.17800 41.73000
C  47.16000 45.57100 41.37200
C  46.38100 44.31900 40.90200
C  47.26000 43.08500 41.20400
C  48.60400 43.81800 41.58000
C  46.70100 42.23700 42.30900
C  46.02300 44.52100 39.36200
C  44.53300 44.26500 39.05500
H  44.07900 44.74100 37.65000
N  51.35700 44.83800 42.80300
C  51.06700 43.58000 42.24900
C  52.30800 42.73500 42.29000
C  53.27700 43.56400 42.95700
C  52.71000 44.95800 43.04400
C  52.38400 41.31100 41.92100
C  54.73200 43.05400 43.27600
O  55.11900 41.95200 42.86600
C  55.70100 43.80200 44.08400
N  51.54900 47.74200 43.43300
C  52.86100 47.47400 43.58100
C  53.62000 48.67900 44.16700
C  52.55000 49.80400 44.22600
C  51.26600 49.07300 43.65900
C  54.29300 48.46500 45.53900
C  52.88800 51.06100 43.41600
C  54.11200 51.91000 43.76600
N  48.62600 47.97000 42.77700
C  48.78300 49.24000 43.24100
C  47.49100 49.91700 43.07500
C  46.63700 48.99100 42.50400
C  47.37200 47.88700 42.36500
C  47.34400 51.32200 43.59500
C  45.27100 48.73800 42.00600
O  44.27200 49.42400 41.84900
C  45.21600 47.25600 41.66100
C  44.44000 46.68400 42.89200
O  44.38200 47.15500 44.04100
O  43.75100 45.56800 42.56300
C  43.12900 44.82000 43.68800
H  49.90400 42.24900 41.14200
H  54.38400 45.93500 43.52100
H  50.16100 50.77900 43.99300
H  45.37100 44.26400 41.30800
H  47.47500 42.47200 40.32900
H  45.94100 42.73300 42.91300
H  47.56300 41.98600 42.92800
H  46.27200 41.28100 42.00800
H  46.61700 43.82900 38.76500
H  46.28000 45.54900 39.10600
H  43.83300 44.80200 39.69600
H  44.41500 43.18400 39.13300
H  53.33200 41.18100 41.40000
H  51.75000 41.01500 41.08500
H  52.17900 40.67400 42.78100
H  55.23000 44.14900 45.00300
H  56.05700 44.64300 43.48800
H  56.55100 43.21400 44.42900
H  54.37500 49.05900 43.47900
H  52.42700 50.11800 45.26200
H  54.09800 47.46300 45.92000
H  53.95000 49.23800 46.22500
H  55.36600 48.64600 45.46800
H  52.10300 51.78100 43.64500
H  52.96500 50.70700 42.38800
H  54.49800 51.49500 44.69800
H  53.77900 52.88000 44.13500
H  54.81600 51.96700 42.93600
H  47.54000 52.07800 42.83500
H  47.87800 51.57200 44.51200
H  46.29600 51.15500 43.84300
H  44.72600 46.99800 40.72200
H  43.05700 43.78100 43.36900
H  42.09600 45.09600 43.90000
H  43.69500 44.87500 44.61800
Mg 9.95100 47.97500 26.29700
C  8.22800 47.71500 29.37100
C  12.50500 49.67000 27.96500
C  11.72300 48.12600 23.36800
C  7.18800 46.90800 24.55700
N  10.26600 48.69300 28.40400
C  9.53500 48.32300 29.47800
C  10.14000 48.86200 30.77200
C  11.23500 49.76400 30.21600
C  11.35900 49.34200 28.79100
C  11.23600 51.27700 30.46800
C  10.55700 47.68800 31.66600
C  10.06200 47.68700 33.17600
H  10.19000 46.33400 33.94700
N  11.86300 48.63000 25.79800
C  12.77500 49.22200 26.65800
C  14.04300 49.22200 25.92400
C  13.79900 48.84700 24.61100
C  12.34100 48.56200 24.49300
C  15.36700 49.52400 26.67400
C  14.84100 48.61400 23.44300
O  14.54100 48.26600 22.28200
C  16.36100 48.77700 23.75400
N  9.53700 47.61600 24.19100
C  10.38800 47.75000 23.18200
C  9.83100 47.11500 21.86700
C  8.43800 46.55300 22.39600
C  8.33800 47.10800 23.75500
C  9.73200 48.06500 20.61500
C  8.40800 44.99700 22.29900
C  9.31400 44.22700 23.19200
N  8.06200 47.44100 26.78900
C  7.06200 47.02600 25.98800
C  5.87700 46.82400 26.82300
C  6.29000 47.01900 28.14300
C  7.66600 47.37000 28.09000
C  4.54600 46.50400 26.37300
C  5.89600 47.09800 29.55700
O  4.76400 46.81900 30.07100
C  7.19300 47.36600 30.35700
C  7.42500 46.03600 30.97100
O  8.09500 45.17500 30.57100
O  6.59500 45.81700 32.03600
C  6.74700 44.54600 32.73400
H  13.30600 50.23900 28.44200
H  12.24800 48.19200 22.41300
H  6.31700 46.67300 23.94100
H  9.31700 49.45500 31.17200
H  12.17100 49.40800 30.64800
H  10.55200 51.58500 31.25800
H  10.96400 51.78700 29.54400
H  12.17800 51.66500 30.85600
H  11.63600 47.65900 31.51100
H  10.14300 46.84100 31.11900
H  8.99500 47.91300 33.17400
H  10.52500 48.56900 33.61700
H  15.24600 49.72700 27.73800
H  15.91800 50.30300 26.14700
H  16.09300 48.72300 26.53200
H  16.70000 49.80100 23.91100
H  16.87400 48.37700 22.88000
H  16.70000 48.11200 24.54800
H  10.47800 46.28300 21.59000
H  7.55600 46.93100 21.88000
H  8.71300 48.41500 20.45300
H  10.11800 47.47800 19.78200
H  10.40100 48.92200 20.69900
H  8.68800 44.78000 21.26900
H  7.38900 44.66200 22.49500
H  9.66500 44.90800 23.96800
H  10.25300 44.01700 22.68000
H  8.83100 43.32500 23.56700
H  3.93700 47.38600 26.17400
H  3.98000 45.89500 27.07800
H  4.56100 45.88200 25.47800
H  7.04100 48.09100 31.15700
H  6.10200 43.79200 32.28200
H  6.48100 44.85000 33.74600
H  7.74700 44.11500 32.78600

