158

Mg 35.06200 3.36700 29.62900
C  32.79500 4.50600 32.06400
C  37.40900 3.04000 32.05700
C  37.23200 2.81600 27.21100
C  32.55700 3.79800 27.24000
N  35.13700 3.88500 31.78900
C  34.07100 4.10500 32.62000
C  34.47900 4.25500 34.05100
C  36.03400 4.12800 33.98100
C  36.26000 3.60300 32.53300
C  36.75900 5.41800 34.38100
C  33.78200 3.26900 34.93200
C  33.81600 3.48200 36.47200
H  34.57800 4.69200 37.12500
N  37.05700 2.94100 29.65600
C  37.87200 2.74900 30.75600
C  39.17200 2.30700 30.36600
C  39.13800 2.16600 28.92700
C  37.77200 2.57200 28.55800
C  40.35500 2.12200 31.28500
C  40.18900 1.69000 27.98500
O  39.92000 1.64300 26.76100
C  41.60700 1.16000 28.41000
N  34.88200 3.40500 27.50500
C  35.92200 3.14900 26.77800
C  35.64200 3.27700 25.20500
C  34.09800 3.29500 25.21300
C  33.81500 3.51600 26.72300
C  36.24800 4.47800 24.49500
C  33.42300 2.02500 24.64000
C  32.76900 1.00900 25.63100
N  33.12300 4.11700 29.60900
C  32.23500 4.18500 28.56500
C  30.96500 4.63700 28.97200
C  31.12100 4.86000 30.39300
C  32.50300 4.59000 30.67500
C  29.76600 4.85900 28.13000
C  30.46600 5.27700 31.58300
O  29.33800 5.74200 31.71800
C  31.54800 5.07900 32.73300
C  31.75700 6.41100 33.38700
O  32.33900 7.39500 32.90900
O  31.27200 6.33700 34.64900
C  31.43400 7.60500 35.39800
H  38.21500 2.84200 32.76700
H  37.88800 2.66500 26.35100
H  31.83700 4.03700 26.45600
H  34.21700 5.29100 34.26500
H  36.40000 3.34700 34.64800
H  37.61500 5.18700 35.01500
H  36.19300 6.19200 34.89800
H  37.27200 5.86300 33.52800
H  34.28100 2.32200 34.72400
H  32.73900 3.19800 34.62400
H  34.11300 2.61400 37.06000
H  32.75500 3.56000 36.71100
H  40.76200 1.14300 31.03000
H  40.07000 2.22500 32.33200
H  40.97700 2.97000 31.00000
H  42.03400 0.84900 27.45700
H  41.48500 0.21900 28.94700
H  42.08600 1.97200 28.95700
H  36.04000 2.37400 24.74200
H  33.64600 4.19000 24.78500
H  36.88400 4.17800 23.66300
H  36.89300 4.99800 25.20400
H  35.47900 5.13900 24.09500
H  34.03100 1.46600 23.92900
H  32.60300 2.46400 24.07200
H  33.46300 0.76100 26.43300
H  32.50100 0.09000 25.11000
H  31.79300 1.39400 25.92900
H  29.08400 5.58500 28.57200
H  29.30900 3.90800 27.85600
H  30.15500 5.25800 27.19400
H  31.13100 4.32000 33.39500
H  30.97600 8.41500 34.83000
H  32.46400 7.91400 35.57300
H  30.92000 7.33300 36.32000
Mg -12.50800 38.18000 40.75100
C  -10.73200 35.41800 39.85100
C  -10.25300 40.08800 38.80300
C  -14.60600 40.90700 40.86700
C  -14.98300 36.20400 41.99300
N  -10.71900 37.79300 39.43900
C  -10.14300 36.56700 39.33300
C  -8.87200 36.57800 38.49600
C  -8.51600 38.09700 38.50700
C  -9.87900 38.76800 38.95400
C  -7.39200 38.63100 39.50900
C  -9.09100 36.12400 37.04800
C  -7.90800 35.35000 36.51100
H  -6.91800 36.17000 35.62000
N  -12.37300 40.26300 40.10800
C  -11.37900 40.77600 39.32400
C  -11.61800 42.21700 39.12300
C  -12.92900 42.51400 39.73200
C  -13.35100 41.19800 40.28200
C  -10.63900 43.14700 38.22800
C  -13.59900 43.84600 39.73900
O  -13.02600 44.77400 39.17800
C  -14.85300 44.19700 40.43000
N  -14.55700 38.53700 41.31500
C  -15.17700 39.72100 41.32000
C  -16.59400 39.63400 41.87000
C  -16.62900 38.18000 42.31800
C  -15.36500 37.54700 41.78000
C  -16.95900 40.61300 43.03800
C  -17.88500 37.39300 42.11800
C  -18.93700 37.64700 43.14200
N  -12.75400 36.23200 41.02100
C  -13.75900 35.56500 41.63600
C  -13.40200 34.13100 41.79900
C  -12.26000 34.04000 41.03700
C  -11.92200 35.33900 40.62200
C  -14.19500 33.05400 42.42300
C  -11.29000 33.14000 40.57700
O  -11.25100 31.94500 40.79200
C  -10.22300 33.89500 39.71000
C  -8.87100 33.67100 40.38800
O  -8.02600 32.88900 39.92700
O  -8.68200 34.50000 41.49000
C  -7.44400 34.39100 42.10900
H  -9.67100 40.67100 38.08500
H  -15.23200 41.79900 40.80100
H  -15.51300 35.59500 42.72800
H  -7.92900 36.19100 38.88300
H  -8.29200 38.50200 37.52100
H  -7.88300 39.03200 40.39500
H  -6.77800 39.36700 38.99000
H  -6.81500 37.76400 39.83300
H  -9.26600 36.92800 36.33400
H  -9.95900 35.46500 37.06900
H  -8.39800 34.64200 35.84300
H  -7.31100 34.74700 37.19500
H  -9.62100 42.75800 38.26400
H  -10.57800 44.19600 38.51900
H  -11.07500 43.19000 37.23000
H  -15.46400 43.61400 39.74000
H  -15.02700 45.27300 40.43800
H  -14.89200 43.98500 41.49800
H  -17.39400 39.81100 41.15000
H  -16.42600 38.13200 43.38800
H  -17.12500 40.12000 43.99600
H  -17.94900 41.00000 42.79500
H  -16.21900 41.41200 43.08300
H  -17.67500 36.34700 41.89600
H  -18.21900 37.71100 41.13000
H  -19.46000 36.69100 43.12000
H  -19.63000 38.45500 42.90700
H  -18.45800 37.80700 44.10800
H  -15.23400 33.29200 42.65200
H  -13.62700 32.73700 43.29700
H  -14.21400 32.16800 41.78800
H  -10.17700 33.57200 38.67000
H  -6.56300 34.49900 41.47600
H  -7.41900 33.46300 42.68000
H  -7.49400 35.26100 42.76200

