158

Mg 2.30500 -1.99100 44.43700
C  5.51600 -1.14100 43.62200
C  1.03600 0.60500 42.72400
C  -0.77000 -3.29100 44.82400
C  3.61800 -5.17100 45.64700
N  3.21900 -0.50400 43.20900
C  4.52400 -0.31300 43.06600
C  4.83000 0.94200 42.24000
C  3.31600 1.63000 42.06500
C  2.45200 0.49700 42.69300
C  3.11900 3.09200 42.71800
C  5.56900 0.80800 40.91100
C  6.51600 1.97900 40.55900
H  6.82800 2.30300 39.08600
N  0.35800 -1.49300 43.70300
C  0.06900 -0.26900 43.15400
C  -1.39200 -0.14000 42.98300
C  -1.89000 -1.23000 43.73100
C  -0.73200 -2.10900 44.09900
C  -2.08500 1.03400 42.22700
C  -3.31000 -1.49300 44.10900
O  -4.08700 -0.70300 43.63700
C  -3.77300 -2.57800 45.02900
N  1.49700 -3.99300 45.10700
C  0.18000 -4.18400 45.25600
C  -0.15400 -5.55900 45.89800
C  1.30100 -6.22200 45.89800
C  2.21200 -5.02800 45.60500
C  -0.97400 -5.50300 47.21300
C  1.68300 -7.45000 44.98000
C  2.60800 -8.53000 45.54700
N  4.12000 -2.94800 44.68900
C  4.56400 -4.18600 45.19500
C  5.99500 -4.23800 45.34200
C  6.44400 -3.08500 44.71300
C  5.25400 -2.29000 44.31200
C  6.75800 -5.39100 45.91100
C  7.55900 -2.27300 44.37000
O  8.75800 -2.37200 44.58100
C  7.03900 -1.06500 43.56300
C  7.60000 0.13200 44.27200
O  7.22300 0.54000 45.35200
O  8.65600 0.57100 43.48300
C  9.10100 1.89700 43.91300
H  0.54400 1.39000 42.14700
H  -1.74300 -3.78500 44.85900
H  4.03800 -6.11400 46.00200
H  5.45900 1.62100 42.81600
H  2.95500 1.71900 41.04000
H  2.42500 3.19700 43.55200
H  2.78300 3.81700 41.97600
H  4.05000 3.56700 43.02900
H  4.88600 0.61900 40.08200
H  6.17600 -0.09100 41.01600
H  7.40600 1.68600 41.11500
H  6.14500 2.86000 41.08200
H  -2.97600 0.66500 41.72000
H  -1.39500 1.43000 41.48200
H  -2.32600 1.86400 42.89100
H  -4.82500 -2.44600 45.28200
H  -2.94700 -2.75700 45.71800
H  -3.90500 -3.48400 44.43800
H  -0.77200 -6.12400 45.20000
H  1.53900 -6.43100 46.94100
H  -1.17900 -4.43400 47.25400
H  -0.54300 -5.70600 48.19300
H  -1.90100 -6.07500 47.17800
H  2.32500 -6.92700 44.27100
H  0.84300 -7.95300 44.50100
H  3.65500 -8.54200 45.24600
H  2.04000 -9.42900 45.30700
H  2.46500 -8.59500 46.62600
H  6.72700 -6.26000 45.25300
H  6.30000 -5.81100 46.80700
H  7.76200 -5.01400 46.10300
H  7.36800 -0.98800 42.52700
H  9.86500 2.30400 43.25100
H  9.30800 2.01300 44.97700
H  8.22500 2.53000 43.77100
Mg 55.94100 23.89000 44.78800
C  53.76100 26.52500 44.27400
C  53.53000 21.71600 43.85600
C  58.34900 21.51400 44.70500
C  58.49000 26.38800 45.46400
N  53.91600 24.09400 44.12100
C  53.16300 25.24100 43.97400
C  51.78500 24.97200 43.43900
C  51.56800 23.46000 43.81600
C  53.09100 23.04700 43.83400
C  50.92300 23.27500 45.22400
C  51.76200 25.19400 41.90700
C  50.36200 25.28600 41.34900
H  49.94800 24.47000 40.05800
N  55.92300 21.83500 44.28000
C  54.78400 21.10800 44.04100
C  55.16800 19.70000 43.76700
C  56.56400 19.59400 43.99700
C  57.01700 21.03100 44.34700
C  54.24100 18.66000 43.43500
C  57.36200 18.26700 44.01900
O  56.81400 17.19100 43.78000
C  58.79500 18.27000 44.38100
N  58.09700 23.98700 45.16300
C  58.84800 22.81300 44.98100
C  60.32000 23.06100 45.32600
C  60.44900 24.61400 45.32500
C  58.97000 25.07900 45.36900
C  60.86800 22.34200 46.66100
C  61.19600 25.21300 44.10800
C  62.35700 26.14200 44.43900
N  56.05700 26.04100 45.06200
C  57.15000 26.82800 45.33500
C  56.65200 28.23200 45.33100
C  55.32100 28.11300 45.00200
C  55.01400 26.75900 44.78600
C  57.54100 29.52400 45.49700
C  54.08800 28.87200 44.79400
O  53.78300 30.06400 44.84500
C  53.13300 27.92300 44.17200
C  52.86300 28.30600 42.80500
O  53.66900 28.31600 41.87300
O  51.49500 28.41000 42.62500
C  50.99700 28.87900 41.34100
H  52.69900 21.03500 43.66000
H  59.20600 20.83800 44.66300
H  59.19800 27.21900 45.44600
H  51.14500 25.67800 43.96900
H  50.98600 22.94500 43.05200
H  50.08300 22.60300 45.05000
H  50.55000 24.24600 45.55000
H  51.54600 22.79900 45.98100
H  52.20900 24.35000 41.38200
H  52.33500 26.05900 41.57200
H  50.25900 26.34600 41.11600
H  49.63400 24.99800 42.10700
H  54.62900 18.27500 42.49200
H  53.20600 18.99600 43.38000
H  54.14100 17.84100 44.14800
H  59.39200 18.90100 43.72200
H  59.30900 17.31300 44.47300
H  58.93000 18.68100 45.38200
H  60.88200 22.61300 44.50700
H  60.99000 24.95000 46.21000
H  60.38300 21.38600 46.85700
H  60.70500 22.92300 47.56800
H  61.88300 22.03500 46.40900
H  60.50800 25.86600 43.57100
H  61.61000 24.44200 43.45800
H  62.44000 26.96000 43.72300
H  63.33600 25.67600 44.32500
H  62.25100 26.66400 45.39000
H  57.04400 30.40700 45.09500
H  58.52100 29.44400 45.02700
H  57.63700 29.64300 46.57700
H  52.15500 27.98800 44.65000
H  51.43000 29.86800 41.19700
H  49.94100 29.14000 41.41500
H  51.22300 28.26400 40.47000

