158

Mg -3.18000 17.09100 26.60300
C  -3.45200 14.96800 29.42200
C  -3.81800 19.75600 28.66200
C  -2.93000 18.96700 23.89900
C  -2.90900 14.22600 24.61900
N  -3.67900 17.29800 28.80000
C  -3.67900 16.30800 29.71200
C  -3.84000 16.90500 31.17200
C  -3.98400 18.44000 30.87100
C  -3.79300 18.51200 29.32600
C  -5.32900 19.06200 31.33300
C  -2.70700 16.42300 32.11300
C  -2.09700 17.42900 33.07400
H  -1.58700 16.89600 34.47000
N  -3.25700 19.08000 26.32300
C  -3.52600 20.05300 27.30800
C  -3.32000 21.35400 26.74100
C  -2.91600 21.11100 25.35500
C  -3.01100 19.65400 25.11500
C  -3.62000 22.61000 27.53000
C  -2.34500 22.02300 24.38000
O  -2.00700 21.78000 23.23900
C  -2.07100 23.44200 24.78700
N  -3.09400 16.58900 24.47100
C  -3.00300 17.61400 23.61700
C  -2.80100 17.07900 22.23500
C  -2.41700 15.54600 22.44200
C  -2.82600 15.39000 23.88500
C  -3.87300 17.47600 21.21500
C  -0.97800 15.13800 21.98500
C  0.21600 15.57900 22.85900
N  -3.32200 15.06200 26.84200
C  -3.09900 13.99200 25.97300
C  -3.31100 12.67300 26.58800
C  -3.37700 13.02200 27.96400
C  -3.40700 14.48200 28.08200
C  -3.17600 11.29100 25.96800
C  -3.49900 12.52900 29.34900
O  -3.61800 11.34600 29.73000
C  -3.53500 13.75600 30.32800
C  -2.44800 13.47200 31.38300
O  -1.20400 13.59900 31.30200
O  -2.98000 13.05200 32.54500
C  -2.14900 13.07400 33.75200
H  -3.98700 20.54400 29.39800
H  -2.59800 19.58100 23.05900
H  -2.65100 13.28800 24.12300
H  -4.74100 16.40400 31.52500
H  -3.22500 19.05600 31.35400
H  -6.05000 18.36800 31.76500
H  -5.90800 19.44400 30.49200
H  -5.09900 19.86900 32.02900
H  -1.83300 16.05900 31.57300
H  -3.13400 15.66100 32.76400
H  -2.80500 18.21400 33.33900
H  -1.17800 17.92900 32.77000
H  -4.29900 22.35100 28.34300
H  -4.22000 23.21100 26.84700
H  -2.69300 23.09400 27.83800
H  -3.05600 23.86400 24.98300
H  -1.55500 23.98100 23.99200
H  -1.33600 23.50000 25.59000
H  -1.90500 17.60200 21.90100
H  -3.08600 14.92800 21.84300
H  -4.40300 18.37100 21.53900
H  -4.56500 16.67700 20.94800
H  -3.48500 17.77900 20.24200
H  -0.72300 15.73500 21.10900
H  -0.97400 14.06800 21.77500
H  -0.22400 15.78100 23.83600
H  0.79900 16.43100 22.51100
H  0.95300 14.77900 22.92300
H  -2.95900 11.36000 24.90200
H  -4.05700 10.66900 26.12700
H  -2.39700 10.76000 26.51600
H  -4.54200 13.80700 30.74000
H  -2.14100 14.07900 34.17300
H  -1.11400 12.79800 33.55100
H  -2.68300 12.42500 34.44600
Mg -11.22500 39.17300 41.69800
C  -9.41100 36.50700 40.83600
C  -8.96500 41.30600 40.01600
C  -13.40100 41.93900 41.88000
C  -13.72500 37.20000 42.98700
N  -9.42900 38.90500 40.48300
C  -8.82900 37.71600 40.28200
C  -7.53700 37.79000 39.46200
C  -7.41600 39.36900 39.26800
C  -8.64200 39.94100 40.05900
C  -6.06900 40.05500 39.48400
C  -7.47700 36.90400 38.15100
C  -6.21500 35.91800 38.02800
H  -5.04500 36.41800 37.23800
N  -11.12600 41.29500 41.22600
C  -10.04300 41.89700 40.62200
C  -10.28600 43.34100 40.61700
C  -11.54600 43.53500 41.27000
C  -12.10700 42.22500 41.47600
C  -9.37100 44.34900 40.05000
C  -12.20900 44.86300 41.50100
O  -11.66300 45.88300 40.96300
C  -13.43400 45.11400 42.46100
N  -13.43300 39.50600 42.14300
C  -13.97300 40.69900 42.23300
C  -15.49400 40.52000 42.67500
C  -15.50900 39.01300 43.10200
C  -14.15000 38.52300 42.70000
C  -15.97200 41.58300 43.68200
C  -16.69900 38.13000 42.53000
C  -17.99000 37.97800 43.32300
N  -11.51900 37.25600 41.80300
C  -12.49600 36.58400 42.54100
C  -12.18900 35.19000 42.66600
C  -10.95200 35.09500 41.98200
C  -10.61000 36.40000 41.50700
C  -12.98400 34.13800 43.32500
C  -9.91800 34.21600 41.71500
O  -9.77900 33.03000 42.04100
C  -8.82200 35.06700 40.86300
C  -7.50200 34.86200 41.61400
O  -6.75400 33.88000 41.48300
O  -7.18500 36.01100 42.23800
C  -5.87000 36.13500 42.89300
H  -8.15500 41.90700 39.59700
H  -14.08200 42.78200 41.74900
H  -14.34500 36.60000 43.65600
H  -6.77000 37.49400 40.17700
H  -7.71800 39.44200 38.22400
H  -5.49800 39.43200 38.79600
H  -5.65500 39.98600 40.49000
H  -6.22900 41.08900 39.17700
H  -7.32200 37.61900 37.34300
H  -8.31800 36.23000 37.99200
H  -6.52600 35.02600 37.48300
H  -5.96900 35.71400 39.07000
H  -8.39000 43.87600 40.00000
H  -9.33300 45.19400 40.73700
H  -9.63600 44.71200 39.05700
H  -13.48900 46.18100 42.67700
H  -13.15900 44.52600 43.33600
H  -14.34600 44.77600 41.96900
H  -16.04800 40.68000 41.75100
H  -15.49500 38.94700 44.19000
H  -15.09300 42.12500 44.03100
H  -16.53200 41.12700 44.49900
H  -16.66900 42.27300 43.20600
H  -16.44100 37.10600 42.25800
H  -16.95800 38.51200 41.54200
H  -18.82700 38.46700 42.82500
H  -17.72200 38.43600 44.27600
H  -18.22400 36.93700 43.54600
H  -12.44500 33.25000 42.99500
H  -14.01500 34.12800 42.96900
H  -12.97100 34.14400 44.41500
H  -8.67700 34.69300 39.85000
H  -5.67600 37.19200 43.07400
H  -5.13900 35.87200 42.12800
H  -5.88100 35.44800 43.73900

