158

Mg 35.37900 1.85600 30.06400
C  33.36100 2.99700 32.51900
C  38.05000 1.80500 32.30400
C  37.38500 1.21800 27.48800
C  32.62200 2.24300 27.78500
N  35.64100 2.34500 32.07500
C  34.67300 2.65500 32.94200
C  35.10400 2.47700 34.42100
C  36.65300 2.39000 34.26800
C  36.80600 2.24300 32.77900
C  37.55200 3.57300 34.90200
C  34.44100 1.30800 35.06700
C  34.19000 1.48800 36.59900
H  34.75900 2.72500 37.34500
N  37.48100 1.60200 29.88300
C  38.36300 1.53900 30.94700
C  39.68300 1.34900 30.37000
C  39.47000 1.10500 28.94800
C  38.07800 1.28000 28.63100
C  40.94000 1.62300 31.05900
C  40.50600 0.88300 27.90800
O  40.23500 0.69400 26.74400
C  41.98200 0.71200 28.13300
N  35.01000 1.74300 27.95900
C  36.04100 1.46000 27.17600
C  35.62100 1.41800 25.64800
C  34.09400 1.40600 25.79100
C  33.87800 1.86100 27.24400
C  36.18200 2.58900 24.76200
C  33.36700 0.05400 25.29700
C  32.95100 -0.01500 23.79500
N  33.34800 2.47600 30.05100
C  32.38000 2.61500 29.12000
C  31.22100 3.25200 29.72400
C  31.56900 3.43300 31.07800
C  32.87900 2.92700 31.20800
C  30.07500 3.67200 28.91300
C  31.14500 3.96200 32.29400
O  30.07400 4.49400 32.60900
C  32.26100 3.59700 33.35000
C  32.68500 4.75700 34.18500
O  33.33300 5.70600 33.79400
O  32.03200 4.62900 35.37600
C  32.09600 5.84300 36.21000
H  38.81600 1.69100 33.07300
H  38.06400 1.08200 26.64400
H  31.86300 2.35700 27.00800
H  34.87800 3.38100 34.98700
H  37.01200 1.48200 34.75200
H  36.95700 4.42900 35.22000
H  38.26200 3.94000 34.16000
H  38.23100 3.26300 35.69600
H  35.05600 0.40900 35.03300
H  33.46700 1.18500 34.59500
H  34.58900 0.56200 37.01400
H  33.13600 1.48400 36.87800
H  41.39600 0.66400 31.30500
H  40.72400 2.04000 32.04300
H  41.73300 2.27600 30.69500
H  42.20200 -0.18900 28.70600
H  42.27900 1.59800 28.69500
H  42.52800 0.63000 27.19300
H  35.89500 0.47800 25.16900
H  33.70000 2.10500 25.05400
H  36.68100 3.31000 25.41000
H  35.34500 3.11600 24.30300
H  36.85700 2.23400 23.98300
H  32.49700 -0.06200 25.94500
H  34.03300 -0.80900 25.30500
H  33.21400 0.92600 23.31100
H  31.89200 -0.24500 23.67800
H  33.56900 -0.76100 23.29600
H  29.32400 2.95000 28.59200
H  30.36300 4.16100 27.98200
H  29.65400 4.43100 29.57100
H  31.66400 2.98700 34.02900
H  32.60400 6.67300 35.72000
H  32.59200 5.50700 37.12100
H  31.06100 6.15300 36.35400
Mg -11.84100 38.36300 42.18600
C  -9.58900 35.98100 40.96600
C  -9.73700 40.88000 40.84000
C  -14.29100 40.53900 42.60600
C  -13.79500 35.73900 43.29000
N  -9.97100 38.43200 40.88900
C  -9.20300 37.32200 40.67900
C  -7.93400 37.79100 39.86400
C  -7.81900 39.37000 40.21700
C  -9.22200 39.55700 40.75500
C  -6.68600 39.87300 41.24100
C  -8.10300 37.37800 38.36500
C  -6.96800 36.47700 37.97200
H  -6.33800 36.89500 36.64200
N  -11.98400 40.42600 41.78200
C  -11.00100 41.28000 41.30500
C  -11.52700 42.63900 41.38700
C  -12.87200 42.56200 41.78100
C  -13.11400 41.15100 42.11800
C  -10.73100 43.83300 41.03200
C  -13.78300 43.76800 42.05900
O  -13.37900 44.88000 41.75400
C  -15.23600 43.74000 42.63700
N  -13.74000 38.17000 42.93800
C  -14.56900 39.27600 43.02500
C  -15.84500 38.78600 43.81000
C  -15.81400 37.20800 43.65900
C  -14.34700 37.00900 43.25200
C  -15.87800 39.38500 45.21400
C  -16.77600 36.73200 42.52600
C  -17.95500 35.86400 42.91700
N  -11.70900 36.30600 42.18800
C  -12.54100 35.35500 42.79000
C  -11.84300 34.06700 42.84100
C  -10.71400 34.28400 42.04700
C  -10.68600 35.63400 41.68500
C  -12.30800 32.76900 43.43900
C  -9.55600 33.60800 41.48700
O  -9.21700 32.41200 41.56800
C  -8.78800 34.69300 40.66500
C  -7.40500 34.70200 41.03400
O  -6.91700 35.40800 41.91100
O  -6.73300 33.80300 40.25800
C  -5.33100 33.45500 40.64700
H  -9.02200 41.69300 40.69900
H  -15.14100 41.20400 42.77100
H  -14.46500 34.90100 43.49200
H  -7.13500 37.23500 40.35300
H  -7.81600 40.03700 39.35600
H  -6.07000 40.66700 40.81900
H  -6.07900 39.05400 41.62600
H  -7.17700 40.34700 42.09100
H  -8.00500 38.21800 37.67700
H  -9.07400 36.89800 38.25200
H  -7.37800 35.46800 37.91000
H  -6.12000 36.39000 38.65200
H  -11.26900 44.33900 40.23000
H  -9.81000 43.42600 40.61600
H  -10.52900 44.38000 41.95300
H  -15.85700 43.20900 41.91600
H  -15.63200 44.74700 42.76600
H  -15.31700 43.30500 43.63300
H  -16.73200 39.14900 43.29100
H  -16.09800 36.72400 44.59300
H  -16.75100 40.01900 45.36900
H  -14.98200 40.00000 45.28900
H  -15.83100 38.60800 45.97700
H  -16.09600 36.35300 41.76300
H  -17.20700 37.64000 42.10400
H  -18.15600 34.99300 42.29200
H  -18.93500 36.34100 42.91900
H  -17.84800 35.56400 43.95900
H  -12.74900 32.02700 42.77400
H  -13.02900 33.13600 44.16900
H  -11.58100 32.39100 44.15800
H  -8.84100 34.52800 39.58900
H  -5.28500 33.46600 41.73600
H  -4.63500 34.14500 40.16900
H  -5.19700 32.42400 40.31900

