158

Mg 1.98800 -1.44400 44.89100
C  5.31500 -0.44600 44.41300
C  0.96500 1.22500 42.94400
C  -1.25800 -2.61500 45.20800
C  3.16400 -4.38100 46.31700
N  3.10700 0.16300 43.80300
C  4.41600 0.37100 43.74600
C  4.68200 1.56000 42.81500
C  3.31700 2.16100 42.58300
C  2.39000 1.10300 43.11200
C  3.07700 3.57500 43.18000
C  5.39800 1.15600 41.42900
C  6.30400 2.25600 40.81700
H  7.51200 1.75000 40.03200
N  0.01900 -0.76100 44.27300
C  -0.13600 0.33400 43.46500
C  -1.55000 0.53600 43.22300
C  -2.27600 -0.55100 43.89500
C  -1.20400 -1.36100 44.50300
C  -2.14700 1.59200 42.32200
C  -3.73100 -0.82800 43.84100
O  -4.50100 -0.18800 43.15300
C  -4.31300 -1.98500 44.51900
N  1.04800 -3.28300 45.55900
C  -0.24800 -3.53200 45.62400
C  -0.50600 -4.95100 46.11700
C  0.87900 -5.46400 46.55200
C  1.78500 -4.34000 46.06000
C  -1.50100 -4.97300 47.25200
C  1.18200 -6.88600 46.14300
C  1.40900 -7.82900 47.38700
N  3.90900 -2.27400 45.23700
C  4.16400 -3.46100 45.90200
C  5.58600 -3.51900 46.17600
C  6.11300 -2.31700 45.58900
C  5.04900 -1.59500 45.08200
C  6.37700 -4.55700 46.83600
C  7.32700 -1.57700 45.32300
O  8.47600 -1.79500 45.63300
C  6.83100 -0.38800 44.41300
C  7.31700 0.88100 45.01800
O  7.23500 1.28500 46.20300
O  7.99900 1.55800 44.04200
C  8.54500 2.89300 44.38000
H  0.64100 2.10000 42.37600
H  -2.23000 -3.02300 45.49300
H  3.40400 -5.32400 46.81300
H  5.34600 2.22700 43.36400
H  3.12800 2.29300 41.51700
H  2.32000 3.53200 43.96300
H  2.74700 4.23600 42.37900
H  4.06600 3.84300 43.55000
H  4.65500 0.89500 40.67400
H  5.99200 0.25300 41.57100
H  6.55300 2.88900 41.66800
H  5.66600 2.84700 40.15900
H  -2.20200 1.45200 41.24300
H  -1.52000 2.46800 42.48900
H  -3.07700 1.94600 42.76800
H  -4.25900 -2.92200 43.96500
H  -5.35800 -1.67500 44.50700
H  -4.17900 -2.09000 45.59600
H  -0.79600 -5.46700 45.20100
H  0.91300 -5.33600 47.63400
H  -2.07900 -5.83500 46.92000
H  -1.96800 -4.01600 47.48800
H  -1.07300 -5.26900 48.21000
H  2.17000 -6.90000 45.68100
H  0.42500 -7.26400 45.45600
H  2.39300 -8.29100 47.30500
H  0.61300 -8.55700 47.23700
H  1.30000 -7.32300 48.34600
H  5.63900 -5.09100 47.43400
H  7.22200 -4.21900 47.43400
H  6.67000 -5.16500 45.98000
H  7.22400 -0.55300 43.41000
H  7.79200 3.48600 44.89900
H  8.64000 3.44100 43.44200
H  9.48400 2.84300 44.93000
Mg 5.52000 54.31400 41.53800
C  4.92200 50.90900 41.07900
C  8.55600 54.05400 39.95300
C  5.61600 57.75500 41.59200
C  2.06800 54.62100 42.62500
N  6.55200 52.65100 40.54900
C  6.18500 51.32000 40.58100
C  7.30900 50.44300 40.09700
C  8.57500 51.45000 40.13600
C  7.84400 52.79500 40.17800
C  9.64300 51.21900 41.24300
C  7.03700 49.83000 38.72000
C  6.30200 50.62800 37.65500
H  5.50100 49.70800 36.67400
N  6.90800 55.67300 40.91100
C  8.10300 55.35400 40.30200
C  8.68400 56.53800 39.93400
C  7.94100 57.65200 40.47400
C  6.75700 57.04500 41.12100
C  9.96100 56.49400 39.01700
C  8.28500 59.15500 40.19200
O  9.33800 59.39100 39.62700
C  7.34900 60.33700 40.45900
N  4.06400 56.01300 42.12800
C  4.32800 57.33000 41.89700
C  3.16200 58.23400 42.19800
C  2.00700 57.18100 42.53900
C  2.73500 55.85100 42.43500
C  3.41400 59.25900 43.27200
C  0.59100 57.41700 41.83000
C  -0.67600 57.41500 42.79800
N  3.82200 53.03800 41.86200
C  2.59900 53.29200 42.32300
C  1.94300 52.01500 42.50600
C  2.81100 51.04400 42.07600
C  3.95500 51.74700 41.65200
C  0.64900 51.68300 43.08700
C  3.08700 49.67000 42.06700
O  2.47700 48.75000 42.55100
C  4.38400 49.48300 41.29500
C  3.97000 48.74700 40.11100
O  3.49800 49.28000 39.12100
O  4.12000 47.37400 40.30200
C  3.49200 46.46500 39.33100
H  9.58000 54.01200 39.57600
H  5.63300 58.84500 41.53000
H  0.97800 54.63000 42.69500
H  7.49600 49.56800 40.71900
H  9.19100 51.41600 39.23800
H  9.55400 50.28800 41.80300
H  9.76400 52.10000 41.87400
H  10.62600 51.11000 40.78700
H  6.49100 48.89100 38.81800
H  8.04900 49.54800 38.42900
H  7.11200 51.13700 37.13200
H  5.55800 51.31100 38.06500
H  10.41200 57.47900 38.89200
H  9.74800 56.07500 38.03400
H  10.76600 55.94600 39.50600
H  7.86000 61.29900 40.44100
H  7.12400 60.32000 41.52600
H  6.54300 60.33900 39.72600
H  2.92600 58.72600 41.25400
H  1.85600 57.28400 43.61400
H  3.65500 60.20800 42.79400
H  4.40600 59.18000 43.71800
H  2.55600 59.27800 43.94300
H  0.49000 56.63800 41.07500
H  0.60700 58.36800 41.29600
H  -1.50800 56.85900 42.36700
H  -1.10700 58.40800 42.91800
H  -0.30600 56.85500 43.65800
H  0.05500 51.41200 42.21400
H  0.20700 52.54600 43.58300
H  0.86800 50.91100 43.82500
H  5.11500 48.98900 41.93500
H  2.46000 46.36000 39.66800
H  4.01400 45.50800 39.33600
H  3.34600 46.74300 38.28700

