158

Mg 49.62700 45.45500 43.76000
C  46.47400 46.03700 42.52700
C  49.70200 42.50500 41.91700
C  52.91600 45.08800 44.36200
C  49.64500 48.58900 45.24900
N  48.20800 44.46100 42.32800
C  46.98000 44.84600 42.00100
C  46.25400 43.83000 41.06800
C  47.22900 42.56700 41.17000
C  48.50900 43.21300 41.78100
C  46.74500 41.36000 42.00900
C  45.94100 44.37800 39.63200
C  44.45500 44.45000 39.23600
H  44.08700 43.51200 38.07700
N  51.12100 43.90100 43.36600
C  50.84400 42.81300 42.62300
C  51.99800 41.95300 42.71500
C  53.02300 42.71500 43.43700
C  52.39300 43.96400 43.75700
C  52.20200 40.63100 41.90200
C  54.24500 42.11000 43.87600
O  54.71900 41.05900 43.45900
C  55.21800 42.77500 44.90200
N  51.09100 46.73100 44.53600
C  52.34000 46.33700 44.79700
C  53.17600 47.36400 45.54500
C  52.07800 48.38500 45.98300
C  50.85600 47.89200 45.19800
C  54.17100 46.87400 46.69600
C  52.52100 49.80000 45.77600
C  52.70000 50.60700 47.06100
N  48.34800 47.02800 43.92100
C  48.43200 48.20600 44.61300
C  47.25600 48.96400 44.45500
C  46.50700 48.13300 43.57200
C  47.18500 46.98900 43.30900
C  46.84500 50.34400 45.03300
C  45.30400 48.08900 42.84400
O  44.42600 48.98400 42.73900
C  45.17700 46.71800 42.15000
C  43.99200 46.13900 42.76900
O  44.00100 45.57600 43.82700
O  42.83300 46.45000 42.09900
C  41.59700 45.97100 42.54500
H  49.77000 41.46700 41.58700
H  53.98900 45.21300 44.52400
H  49.59200 49.51400 45.82700
H  45.31000 43.80700 41.61200
H  47.47900 42.17000 40.18600
H  45.76400 41.49000 42.46600
H  47.43900 41.11000 42.81200
H  46.60700 40.46900 41.39600
H  46.56000 43.81900 38.93000
H  46.26200 45.42000 39.62900
H  44.14300 45.47500 39.03600
H  43.82700 44.04100 40.02800
H  52.93800 40.73400 41.10500
H  51.34100 40.14500 41.44200
H  52.64000 39.87700 42.55700
H  54.76200 42.46100 45.84200
H  55.49500 43.82900 44.91600
H  56.21600 42.33600 44.90000
H  53.76600 47.84100 44.76200
H  51.73300 48.21600 47.00300
H  53.94300 47.35100 47.64900
H  55.17700 47.20600 46.44100
H  54.24400 45.78700 46.72800
H  51.81200 50.42600 45.23400
H  53.49400 49.81300 45.28500
H  52.03600 51.46600 46.96900
H  53.74800 50.87900 46.93900
H  52.64100 50.05700 48.00100
H  45.78900 50.45300 45.28100
H  47.10900 51.02100 44.22100
H  47.53600 50.58600 45.84000
H  45.11300 46.97600 41.09300
H  41.67800 44.91200 42.78900
H  40.87400 46.14500 41.74700
H  41.31000 46.47500 43.46700
Mg 26.83900 50.77300 25.52900
C  25.12400 52.11300 28.15200
C  29.57300 50.13300 27.75600
C  28.73600 49.79300 22.91700
C  24.48100 52.20900 23.35700
N  27.26300 51.06300 27.77400
C  26.29900 51.52800 28.59500
C  26.63100 51.13200 30.01300
C  28.21600 50.80800 29.89900
C  28.41000 50.61400 28.39200
C  29.16700 51.87400 30.46500
C  25.76800 50.13000 30.77500
C  25.35900 50.42900 32.23100
H  26.47800 50.59100 33.24100
N  28.77800 49.88900 25.36500
C  29.70400 49.71500 26.39100
C  30.83900 48.97600 25.89300
C  30.57700 48.76700 24.48400
C  29.35800 49.47300 24.16000
C  32.00700 48.36300 26.66100
C  31.43600 47.89700 23.51800
O  31.08600 47.61500 22.43000
C  32.72700 47.33600 23.99100
N  26.64800 51.04000 23.40700
C  27.61000 50.51500 22.55700
C  27.23800 50.81000 21.05100
C  25.76400 51.37100 21.17700
C  25.61400 51.59600 22.74100
C  28.22700 51.60600 20.16500
C  24.53200 50.47300 20.69400
C  24.22800 49.19700 21.50300
N  25.11300 51.78100 25.64000
C  24.21500 52.30800 24.68700
C  23.08600 52.93700 25.37000
C  23.43200 52.85900 26.76600
C  24.67400 52.23100 26.85100
C  21.94900 53.63800 24.75500
C  22.96400 53.20000 28.12100
O  21.90400 53.69400 28.40600
C  24.06900 52.75700 29.06200
C  24.52900 53.78200 30.04500
O  25.34100 54.66600 29.76700
O  23.68300 53.84200 31.15400
C  23.87100 54.94000 32.09000
H  30.43600 49.95800 28.40100
H  29.34700 49.42000 22.09300
H  23.72100 52.52300 22.63900
H  26.67900 52.05600 30.59000
H  28.50500 49.84100 30.31000
H  30.00400 52.15600 29.82500
H  29.53400 51.40700 31.37800
H  28.87500 52.90000 30.69000
H  26.34000 49.20900 30.88000
H  24.86000 49.96300 30.19600
H  24.73600 49.54300 32.35300
H  24.68200 51.27100 32.37800
H  31.86400 48.44800 27.73900
H  32.97000 48.83100 26.45900
H  31.99800 47.27300 26.65000
H  33.15200 46.88000 23.09700
H  32.50600 46.52600 24.68600
H  33.45200 47.99800 24.46500
H  27.14300 49.82700 20.59000
H  25.79400 52.35600 20.70900
H  29.03600 51.82900 20.86100
H  27.88500 52.55300 19.74600
H  28.54500 50.94000 19.36200
H  24.80300 50.02600 19.73800
H  23.59300 51.01400 20.57700
H  24.74100 49.19500 22.46500
H  24.61100 48.32000 20.98100
H  23.19600 49.06900 21.82700
H  22.32400 54.18900 23.89300
H  21.49300 54.21100 25.56200
H  21.13400 52.98400 24.44300
H  23.61000 51.97200 29.66300
H  24.61600 54.67800 32.84100
H  22.89500 55.12100 32.54200
H  24.27100 55.78800 31.53400

