158

Mg -1.34700 17.38200 27.18800
C  -1.94800 15.17100 30.05200
C  -1.85500 20.00300 29.46500
C  -1.35300 19.32800 24.71500
C  -1.73700 14.47300 25.13200
N  -1.92800 17.54500 29.49400
C  -1.84000 16.51400 30.44300
C  -2.06100 17.04900 31.84900
C  -2.16800 18.58100 31.62000
C  -2.00600 18.77400 30.11300
C  -3.57900 19.20500 32.11800
C  -0.87800 16.60500 32.84300
C  -0.59500 17.51900 34.00900
H  -0.34200 17.03900 35.42700
N  -1.34600 19.39900 27.09700
C  -1.56200 20.33700 28.13600
C  -1.44200 21.68200 27.56100
C  -1.23200 21.44800 26.10800
C  -1.35900 20.01900 25.88400
C  -1.46900 22.95600 28.35400
C  -1.03200 22.41400 25.01900
O  -1.02300 22.10200 23.83100
C  -0.90400 23.91000 25.25200
N  -1.74900 16.96400 25.22700
C  -1.59900 17.99800 24.33400
C  -1.53000 17.54100 22.82500
C  -1.50100 15.96000 23.02100
C  -1.66800 15.75100 24.52000
C  -2.77700 18.11600 21.99500
C  -0.23500 15.25600 22.49800
C  1.15700 15.42200 23.23200
N  -1.71000 15.24600 27.45300
C  -1.76500 14.25100 26.55000
C  -2.10700 13.07100 27.24300
C  -2.06200 13.31400 28.61800
C  -1.88100 14.71700 28.70600
C  -2.35600 11.71800 26.48800
C  -2.25400 12.70600 29.96900
O  -2.51600 11.58700 30.38300
C  -2.17200 13.93700 30.96400
C  -1.04300 13.58100 31.82600
O  0.12500 13.71500 31.44900
O  -1.44800 13.21300 33.12000
C  -0.39300 13.11600 34.12100
H  -1.81700 20.80200 30.20800
H  -1.35300 19.93400 23.80600
H  -1.73200 13.54500 24.55600
H  -3.05300 16.64900 32.05800
H  -1.43400 19.21400 32.11800
H  -3.82700 18.58400 32.97900
H  -4.25900 19.02100 31.28700
H  -3.42000 20.26500 32.31400
H  0.04500 16.31100 32.34500
H  -1.32400 15.72700 33.31000
H  -1.52300 18.09000 33.97900
H  0.21800 18.21900 33.81600
H  -1.62100 23.80400 27.68600
H  -0.44000 22.92500 28.71300
H  -2.07900 23.05300 29.25200
H  0.00700 24.06600 25.83000
H  -1.80300 24.30400 25.72600
H  -0.85000 24.37400 24.26700
H  -0.56900 17.69800 22.33600
H  -2.43100 15.56500 22.61400
H  -3.25200 18.92100 22.55500
H  -3.40700 17.28900 21.66600
H  -2.33400 18.42500 21.04800
H  -0.13300 15.70700 21.51000
H  -0.39700 14.19600 22.30300
H  1.01900 15.77500 24.25500
H  1.75000 16.16500 22.69800
H  1.52900 14.39800 23.27200
H  -2.74100 11.91800 25.48800
H  -3.10400 11.17300 27.06400
H  -1.49700 11.04800 26.51200
H  -3.08400 13.98000 31.55900
H  0.24100 14.00100 34.06800
H  0.22700 12.22700 34.00100
H  -0.82900 13.07800 35.11900
Mg 36.76600 49.63900 23.79100
C  36.62300 48.33900 27.14600
C  35.43500 52.52500 25.16100
C  36.78600 50.86700 20.83600
C  37.52400 46.50500 22.62000
N  35.98800 50.23100 25.96700
C  36.15800 49.61700 27.13800
C  35.67400 50.50100 28.33000
C  35.19400 51.80800 27.68200
C  35.49800 51.51300 26.13800
C  33.69200 52.26900 28.01600
C  36.82100 50.69900 29.45800
C  36.53600 50.19200 30.83400
H  35.09700 50.41700 31.29600
N  36.08500 51.50200 23.04600
C  35.69100 52.57500 23.81800
C  35.58100 53.67500 22.86600
C  35.95600 53.19900 21.54900
C  36.30300 51.83700 21.76300
C  35.10400 55.12600 23.26900
C  35.91600 53.89500 20.19900
O  36.06900 53.29400 19.19200
C  35.56200 55.31400 20.15200
N  37.09600 48.79800 22.01000
C  37.20100 49.56100 20.88600
C  37.51800 48.69300 19.65100
C  37.71200 47.30400 20.26400
C  37.37500 47.49200 21.69000
C  36.51800 48.77400 18.46700
C  39.01300 46.49800 20.07800
C  40.37000 47.18200 20.49800
N  37.06200 47.75700 24.66100
C  37.34700 46.55800 23.99300
C  37.54200 45.49600 25.01700
C  37.26000 46.20500 26.22400
C  36.95200 47.54400 25.99200
C  37.83000 44.04200 24.70000
C  37.14600 46.05100 27.67200
O  37.45600 45.09000 28.34700
C  36.80200 47.39600 28.34300
C  35.46000 47.07000 29.05600
O  34.36300 47.23700 28.62200
O  35.84900 46.48800 30.24600
C  34.78400 46.11400 31.20800
H  35.11400 53.48400 25.57400
H  36.70200 51.29100 19.83300
H  37.73500 45.50100 22.24600
H  34.80700 49.97300 28.72900
H  35.81200 52.62500 28.05500
H  33.61800 53.28400 28.40800
H  33.20900 51.61100 28.73800
H  33.11700 52.29200 27.09100
H  37.13200 51.73000 29.62900
H  37.70700 50.24900 29.00900
H  37.25000 50.61000 31.54400
H  36.68100 49.11500 30.74500
H  34.25000 55.50100 22.70400
H  35.92000 55.84800 23.24700
H  34.74500 55.13200 24.29800
H  36.34800 55.86100 20.67100
H  34.57700 55.49300 20.58300
H  35.58800 55.51000 19.08000
H  38.43800 49.05400 19.19200
H  36.91300 46.72600 19.80100
H  35.53600 48.43600 18.79700
H  36.82400 48.10500 17.66300
H  36.50600 49.79100 18.07500
H  39.15800 46.30900 19.01500
H  38.99200 45.48600 20.48200
H  40.24800 48.12300 21.03500
H  41.01500 47.42700 19.65400
H  40.94500 46.49500 21.11800
H  37.34200 43.45800 25.48000
H  38.91700 43.97500 24.73900
H  37.47000 43.63300 23.75600
H  37.64000 47.72400 28.95700
H  34.33600 45.19400 30.83400
H  34.03000 46.90000 31.25200
H  35.27200 46.00000 32.17700

