158

Mg 0.56000 43.70400 26.40200
C  2.46500 43.08800 29.46800
C  -2.23900 43.36100 28.29400
C  -1.03400 43.24700 23.54500
C  3.64800 43.50100 24.75700
N  0.24600 43.14000 28.62100
C  1.09000 43.10700 29.66700
C  0.30300 42.91300 30.99100
C  -1.17500 42.74800 30.42100
C  -1.03200 43.20300 29.03700
C  -1.65100 41.27300 30.45500
C  0.47300 44.02700 31.98500
C  0.54700 43.79500 33.50000
H  0.24600 42.39200 34.04600
N  -1.40700 43.46000 25.98300
C  -2.42200 43.39200 26.89400
C  -3.72300 43.40900 26.13300
C  -3.40600 43.41500 24.80300
C  -1.87000 43.26600 24.68400
C  -5.05000 43.46900 26.91300
C  -4.34000 43.43700 23.58800
O  -3.85500 43.31700 22.45500
C  -5.78200 43.50700 23.74700
N  1.19800 43.44700 24.45300
C  0.34700 43.26600 23.38500
C  1.13500 43.20900 21.99400
C  2.56000 43.45000 22.42500
C  2.50200 43.48700 23.99200
C  0.83800 41.95500 21.04100
C  3.32800 44.82000 22.04500
C  4.19900 44.77600 20.78800
N  2.62600 43.49400 26.94000
C  3.77000 43.42700 26.12800
C  4.93100 43.33500 26.95100
C  4.43900 43.15000 28.26100
C  3.06400 43.19500 28.18700
C  6.39000 43.27800 26.59200
C  4.86600 42.93800 29.64600
O  5.98500 42.86300 30.06200
C  3.58300 42.98500 30.51400
C  3.58300 41.68700 31.20300
O  3.53600 40.49400 30.81400
O  3.78300 42.01400 32.55700
C  4.21000 40.96100 33.49700
H  -3.14800 43.26700 28.89100
H  -1.59400 43.10700 22.61800
H  4.50400 43.38300 24.08900
H  0.45700 41.95200 31.48100
H  -1.90300 43.31200 31.00400
H  -0.86500 40.64100 30.86800
H  -2.03300 40.89400 29.50700
H  -2.45800 41.04900 31.15300
H  -0.29800 44.78200 31.82900
H  1.42400 44.52300 31.79400
H  -0.02800 44.57300 34.00200
H  1.55300 44.01200 33.85700
H  -5.81500 44.12500 26.49800
H  -4.91200 43.69100 27.97100
H  -5.31800 42.41700 26.81400
H  -6.28400 43.84700 22.84200
H  -5.99400 44.25500 24.51200
H  -6.10000 42.50900 24.04800
H  0.89300 44.06300 21.36200
H  3.22900 42.61400 22.22000
H  0.49600 42.30500 20.06700
H  0.03800 41.32000 21.42100
H  1.73000 41.34700 20.89000
H  3.78000 45.29400 22.91600
H  2.53500 45.55700 21.91200
H  5.14600 45.30200 20.91200
H  3.54200 45.36800 20.15100
H  4.40000 43.79100 20.36700
H  6.54500 43.89100 25.70500
H  6.62400 42.24000 26.35700
H  6.94800 43.75200 27.40000
H  3.53500 43.86500 31.15500
H  3.53000 40.12600 33.33300
H  4.02100 41.32300 34.50800
H  5.26700 40.70000 33.54200
Mg -11.12000 17.14700 41.04600
C  -7.65800 16.69000 40.71800
C  -10.57300 20.46800 39.94900
C  -14.37600 17.63200 40.49700
C  -11.46800 13.68500 41.09400
N  -9.26800 18.38500 40.40000
C  -7.99900 17.99200 40.45800
C  -6.97400 19.14600 40.28700
C  -7.99700 20.40000 40.45500
C  -9.35900 19.76500 40.20100
C  -7.89800 21.23800 41.73200
C  -6.37000 19.22400 38.90400
C  -4.88600 18.89000 38.83200
H  -4.37300 18.06800 37.71300
N  -12.32200 18.86900 40.53600
C  -11.90200 20.03800 39.95200
C  -13.00800 20.84700 39.56400
C  -14.16700 20.14200 40.03600
C  -13.66600 18.80300 40.42300
C  -13.00700 22.28600 39.05000
C  -15.63300 20.60700 39.81200
O  -15.93600 21.66900 39.23400
C  -16.77200 19.81200 40.26400
N  -12.64600 15.78500 40.77000
C  -13.93100 16.29700 40.73300
C  -14.97700 15.18400 40.65700
C  -14.01200 13.85600 40.82600
C  -12.64200 14.43300 40.93400
C  -16.05400 15.31400 41.73800
C  -14.05500 12.74300 39.64200
C  -14.72200 11.41700 39.98800
N  -9.89500 15.39800 41.03200
C  -10.17800 14.08300 41.24300
C  -8.90200 13.38900 41.39800
C  -7.83900 14.31200 41.19500
C  -8.54800 15.60200 40.94300
C  -8.67400 11.97700 41.72100
C  -6.41500 14.54600 41.15400
O  -5.50300 13.74300 41.29100
C  -6.26900 16.09000 40.94800
C  -5.52600 16.54400 42.03500
O  -4.42900 17.13600 41.91000
O  -6.14000 16.39900 43.21000
C  -5.46200 16.88600 44.40900
H  -10.40900 21.52900 39.75200
H  -15.41400 17.67500 40.16000
H  -11.56400 12.60100 41.18500
H  -6.32200 19.09800 41.15800
H  -7.75800 21.08600 39.64300
H  -7.08700 20.87200 42.36200
H  -8.83800 21.11500 42.27100
H  -7.82000 22.29200 41.46800
H  -6.51500 20.17200 38.38700
H  -6.89800 18.48600 38.30000
H  -4.63200 18.49700 39.81600
H  -4.31700 19.81400 38.72800
H  -13.83800 22.26800 38.34600
H  -12.03700 22.37300 38.56000
H  -13.23100 22.97600 39.86300
H  -17.09500 19.11900 39.48700
H  -17.57500 20.52400 40.45300
H  -16.65000 19.29600 41.21600
H  -15.44700 15.12700 39.67500
H  -14.34400 13.28200 41.69100
H  -16.91000 15.31100 41.06200
H  -16.12100 16.23500 42.31700
H  -16.29100 14.55100 42.48000
H  -13.09300 12.47600 39.20500
H  -14.66600 13.19500 38.86000
H  -15.56600 11.37500 39.29900
H  -15.10400 11.34100 41.00600
H  -14.13400 10.54900 39.69300
H  -8.62000 11.79100 42.79400
H  -7.80600 11.53800 41.22900
H  -9.59400 11.46100 41.44500
H  -5.61500 16.34300 40.11300
H  -5.90600 17.84400 44.68000
H  -4.38200 17.03200 44.38300
H  -5.68300 16.16000 45.19100

