158

Mg 8.83700 3.12400 27.05100
C  10.30400 1.67700 30.00700
C  7.02200 5.18500 29.26000
C  7.22200 4.27400 24.32000
C  10.34400 0.66100 25.15800
N  8.49800 3.26000 29.45300
C  9.37700 2.64300 30.38000
C  9.03300 3.29000 31.78300
C  7.90000 4.33600 31.46200
C  7.83100 4.26800 29.96400
C  6.51500 4.39000 32.20500
C  10.39700 3.87000 32.44100
C  10.24600 4.92400 33.49400
H  11.19200 4.78900 34.66300
N  7.33100 4.54100 26.76500
C  6.76600 5.29200 27.81000
C  5.84900 6.18900 27.16800
C  5.93700 6.02300 25.76300
C  6.82300 4.88900 25.53600
C  4.99500 7.22000 27.91400
C  5.43000 6.86200 24.53900
O  5.75900 6.68000 23.35600
C  4.51000 8.03000 24.87000
N  8.89300 2.66900 24.91900
C  8.15600 3.25700 24.05100
C  8.31200 2.60700 22.63500
C  9.38300 1.43400 22.93300
C  9.52500 1.56900 24.42200
C  7.00300 2.02800 22.04500
C  10.79300 1.60400 22.29300
C  11.53200 0.32400 21.85900
N  10.19900 1.63100 27.37800
C  10.74200 0.73700 26.50500
C  11.82700 0.03000 27.16000
C  11.64500 0.32800 28.53800
C  10.63000 1.27000 28.63300
C  12.67300 -1.10400 26.57300
C  12.14600 0.09400 29.92700
O  12.93500 -0.71400 30.22600
C  11.35800 1.00000 30.94600
C  10.89600 0.17100 32.07800
O  10.00400 -0.66400 32.08200
O  11.66300 0.45400 33.19100
C  11.53100 -0.26400 34.40700
H  6.60300 5.99700 29.85800
H  6.75400 4.60600 23.39100
H  10.77800 -0.15900 24.58200
H  8.64500 2.42400 32.31900
H  8.28500 5.33100 31.68200
H  6.25600 3.49300 32.76800
H  5.65900 4.64700 31.58200
H  6.56000 5.13100 33.00300
H  10.81700 4.32000 31.54200
H  10.92000 2.99400 32.82600
H  9.22400 4.88900 33.87000
H  10.32200 5.93300 33.08800
H  5.16900 8.23200 27.54600
H  5.09400 7.25900 28.99900
H  3.99400 6.93800 27.58900
H  5.18700 8.79600 25.24700
H  3.77200 7.78300 25.63400
H  3.91200 8.37500 24.02700
H  8.74200 3.32800 21.94000
H  8.88300 0.50000 22.67700
H  7.00600 0.94600 22.17500
H  6.89000 2.35000 21.01000
H  6.18300 2.50800 22.58000
H  11.44700 2.13100 22.98900
H  10.70700 2.20600 21.38800
H  12.00200 0.66500 20.93600
H  10.76700 -0.44500 21.74600
H  12.28600 0.08500 22.60800
H  12.99000 -0.87100 25.55600
H  12.13200 -2.05000 26.58200
H  13.57300 -1.15500 27.18600
H  12.12100 1.70100 31.28500
H  11.06700 -1.24000 34.26300
H  11.08500 0.19600 35.28900
H  12.56100 -0.43200 34.72200
Mg 53.77700 23.94500 45.45000
C  51.22200 26.08400 44.28700
C  52.45500 21.39800 43.90400
C  56.59200 22.20000 45.88400
C  55.41900 26.96400 46.59600
N  52.19300 23.81300 44.07500
C  51.22900 24.76400 43.74900
C  50.11500 24.17000 42.85900
C  50.46400 22.65300 43.02100
C  51.83800 22.60800 43.69700
C  49.27300 21.75700 43.58100
C  50.30700 24.68700 41.37700
C  49.00400 25.02700 40.67000
H  49.05200 25.69800 39.33700
N  54.45400 21.99600 45.03200
C  53.71200 21.04800 44.44300
C  54.42800 19.71600 44.27800
C  55.59400 19.96500 45.05800
C  55.59000 21.42800 45.36200
C  53.89200 18.52200 43.60000
C  56.57300 18.90500 45.50700
O  56.42300 17.80500 45.05500
C  57.66900 19.21100 46.47700
N  55.71000 24.56000 46.12200
C  56.63400 23.58000 46.16800
C  57.83500 24.12300 46.89600
C  57.70400 25.74700 46.82100
C  56.20200 25.77400 46.50500
C  58.04500 23.55700 48.34300
C  58.68700 26.45700 45.79100
C  59.34700 27.75300 46.31400
N  53.35100 26.10900 45.51900
C  54.13200 27.12000 46.13200
C  53.24800 28.32300 46.29400
C  52.06800 27.99100 45.60700
C  52.23500 26.62700 45.10000
C  53.56400 29.51700 47.12500
C  50.74500 28.36100 45.17200
O  50.03300 29.31400 45.39300
C  50.10600 27.09000 44.36300
C  49.52500 27.70300 43.13300
O  50.22300 28.04700 42.20900
O  48.14600 27.78400 43.07100
C  47.49000 28.26200 41.88000
H  51.89600 20.59600 43.41800
H  57.51800 21.65400 46.07300
H  55.85100 27.85700 47.05200
H  49.07200 24.31100 43.14400
H  50.54800 22.15700 42.05400
H  49.36000 21.41000 44.61100
H  49.09500 20.91400 42.91300
H  48.37200 22.37100 43.59600
H  50.77400 23.92900 40.74800
H  50.98000 25.54200 41.31000
H  48.39900 25.68400 41.29600
H  48.50200 24.07400 40.50400
H  53.04400 18.84700 42.99700
H  53.64900 17.76200 44.34200
H  54.71400 18.14900 42.98900
H  57.20100 19.72800 47.31500
H  58.36100 19.90900 46.00600
H  58.20600 18.34600 46.86700
H  58.71900 23.85900 46.31600
H  57.67100 26.19700 47.81300
H  57.88800 24.28700 49.13700
H  59.07800 23.22200 48.44300
H  57.46300 22.66500 48.57200
H  58.22700 26.71800 44.83800
H  59.54600 25.82000 45.57600
H  59.00600 28.38000 45.48900
H  60.43400 27.83500 46.30800
H  58.92800 28.09000 47.26200
H  54.22000 29.34400 47.97800
H  52.65000 29.89500 47.58400
H  53.98500 30.30700 46.50300
H  49.39200 26.64500 45.05500
H  46.96900 29.17400 42.16900
H  46.72700 27.53300 41.60500
H  48.08000 28.48700 40.99200

