158

Mg 25.95300 53.08400 26.11700
C  23.69900 53.98300 28.90100
C  28.31300 52.65100 28.45400
C  28.05700 52.72800 23.49300
C  23.39700 53.95700 23.90300
N  25.89600 53.27000 28.46400
C  24.91000 53.47900 29.36700
C  25.40100 53.21200 30.78600
C  26.83600 52.68300 30.53500
C  27.06500 52.89900 29.04900
C  27.95200 53.34000 31.35200
C  24.47700 52.30200 31.61800
C  25.05900 51.67600 32.95200
H  24.42300 52.02100 34.40300
N  27.93400 52.79000 25.96900
C  28.73500 52.60200 27.02700
C  30.07800 52.33200 26.61000
C  30.04500 52.37200 25.16600
C  28.64300 52.60800 24.77300
C  31.21100 52.05500 27.66400
C  31.18400 52.17900 24.15700
O  31.09800 52.29100 22.96700
C  32.61000 51.92700 24.72700
N  25.67400 53.48400 24.00100
C  26.71200 53.11000 23.18800
C  26.25900 53.23600 21.70600
C  24.69700 53.42200 21.77600
C  24.57500 53.61400 23.30700
C  26.93500 54.41000 20.87300
C  23.86900 52.21300 21.27900
C  22.54100 52.60200 20.48800
N  23.99000 53.87100 26.31000
C  23.04700 54.10200 25.24900
C  21.80700 54.66000 25.91000
C  22.03300 54.63700 27.26900
C  23.37900 54.14800 27.47500
C  20.66300 55.06800 25.16900
C  21.42000 54.78400 28.56600
O  20.34500 55.21400 28.82200
C  22.48400 54.34300 29.64000
C  22.65500 55.49400 30.59300
O  23.26000 56.57000 30.39200
O  22.18000 55.07700 31.82900
C  22.42200 56.16600 32.83900
H  29.11700 52.35400 29.13100
H  28.70300 52.54300 22.63200
H  22.57600 54.13700 23.20700
H  25.40800 54.18400 31.28100
H  26.94300 51.61900 30.74400
H  27.67500 53.65100 32.35900
H  28.46000 54.16000 30.84400
H  28.64000 52.54500 31.63900
H  23.93900 51.51200 31.09500
H  23.65000 52.94900 31.91000
H  26.13700 51.82900 33.01600
H  24.91100 50.60700 32.80200
H  31.44100 50.99200 27.74300
H  31.00800 52.54700 28.61500
H  32.21700 52.39700 27.42200
H  33.24900 51.58100 23.91500
H  32.54200 51.14900 25.48700
H  32.78100 52.87200 25.24400
H  26.46800 52.24900 21.29400
H  24.29400 54.29600 21.26300
H  27.67200 54.04800 20.15700
H  27.42300 55.03100 21.62500
H  26.16100 55.05100 20.45200
H  23.45100 51.64100 22.10700
H  24.35700 51.49900 20.61500
H  22.38900 53.66800 20.32000
H  21.66800 52.27700 21.05300
H  22.57100 52.20600 19.47300
H  20.88400 55.34300 24.13700
H  20.28800 56.00300 25.58600
H  19.79000 54.41800 25.21200
H  22.19600 53.50500 30.27500
H  23.47100 56.05700 33.11400
H  21.85900 55.98600 33.75500
H  22.23000 57.17500 32.47300
Mg -4.54700 24.82800 26.19000
C  -2.79100 26.31900 28.86300
C  -5.90200 22.53800 28.59200
C  -6.02500 23.31200 23.76800
C  -2.49700 26.64700 24.00900
N  -4.39100 24.54100 28.44600
C  -3.68300 25.36300 29.33100
C  -4.14100 25.00100 30.78600
C  -4.73100 23.52200 30.54500
C  -5.04900 23.50900 29.08900
C  -3.62100 22.42200 30.84500
C  -5.21700 25.95000 31.23500
C  -5.13300 26.52100 32.58700
H  -4.66000 25.66400 33.69500
N  -5.92300 23.23800 26.17500
C  -6.38400 22.48700 27.25300
C  -7.35100 21.52800 26.72000
C  -7.41400 21.83900 25.31700
C  -6.39800 22.76800 25.01100
C  -8.01600 20.43200 27.54100
C  -8.42300 21.18200 24.27900
O  -8.34800 21.37000 23.06400
C  -9.48000 20.30000 24.67200
N  -4.25900 24.90100 24.15700
C  -5.06100 24.25900 23.33600
C  -4.70800 24.51800 21.85400
C  -3.65800 25.66500 21.91300
C  -3.48700 25.82800 23.43100
C  -4.28000 23.25100 21.09200
C  -4.09000 27.03900 21.29800
C  -5.06800 27.04300 20.08200
N  -3.03800 26.30700 26.37800
C  -2.28500 26.92100 25.39200
C  -1.52800 27.98800 25.99700
C  -1.66100 27.71000 27.38500
C  -2.52800 26.66400 27.56800
C  -0.66400 28.93800 25.29200
C  -1.14200 28.07800 28.72000
O  -0.37100 28.94900 29.03800
C  -1.95100 27.18500 29.73700
C  -1.04300 26.52100 30.78000
O  -0.13500 25.76000 30.53900
O  -1.49500 27.03800 32.04800
C  -0.81500 26.40400 33.13100
H  -6.33300 21.86100 29.33300
H  -6.49500 22.94800 22.85300
H  -1.80800 27.20700 23.37200
H  -3.31800 24.95900 31.50000
H  -5.62200 23.30500 31.13500
H  -3.94100 21.44100 30.49200
H  -3.43100 22.26500 31.90700
H  -2.77000 22.82400 30.29600
H  -6.24100 25.68500 30.97500
H  -5.17100 26.82600 30.58800
H  -6.11400 26.85700 32.92400
H  -4.51600 27.41700 32.64100
H  -7.42600 20.15300 28.41400
H  -8.07000 19.49400 26.99000
H  -9.05800 20.64000 27.78300
H  -10.18900 20.77900 25.34700
H  -9.09800 19.34200 25.02300
H  -10.01600 20.00800 23.76900
H  -5.61200 24.84600 21.34000
H  -2.69700 25.32100 21.52900
H  -5.09500 23.08100 20.38900
H  -4.27700 22.39500 21.76600
H  -3.35500 23.35500 20.52600
H  -3.28600 27.64900 20.88700
H  -4.53900 27.54200 22.15500
H  -6.08800 27.31400 20.35300
H  -5.08600 26.09400 19.54600
H  -4.77700 27.69900 19.26100
H  -0.13100 29.63500 25.93900
H  -1.14000 29.69500 24.66800
H  0.02300 28.34500 24.68900
H  -2.61600 27.88700 30.23900
H  -0.94800 27.04100 34.00600
H  0.26700 26.31400 33.03600
H  -1.08900 25.35000 33.16800

