158

Mg 26.21300 1.13500 29.75700
C  28.44900 0.92300 32.52100
C  23.68700 1.41100 32.16800
C  24.10600 1.37100 27.21100
C  28.75600 0.26900 27.64900
N  26.11600 0.94300 32.10400
C  27.13800 1.10900 32.98000
C  26.68200 1.30600 34.43200
C  25.17600 1.41800 34.20300
C  24.94400 1.34200 32.71100
C  24.33100 0.46100 35.01800
C  27.29600 2.54600 35.15600
C  27.52600 2.44000 36.66800
H  26.88700 3.46200 37.59500
N  24.12400 1.34000 29.70800
C  23.27400 1.41500 30.76200
C  21.95200 1.59700 30.25300
C  22.06900 1.62300 28.85100
C  23.50600 1.43100 28.52200
C  20.76100 1.63100 31.19200
C  20.98100 1.57300 27.84100
O  21.24500 1.52000 26.66400
C  19.61100 1.73800 28.30300
N  26.33500 0.72200 27.61400
C  25.38300 1.07600 26.75500
C  25.81000 1.12500 25.36700
C  27.39200 0.85700 25.47900
C  27.52700 0.57800 27.02200
C  25.15700 0.13900 24.32500
C  28.34200 2.01800 25.12700
C  29.29300 1.70100 23.99400
N  28.24100 0.59300 30.00400
C  29.14300 0.19000 29.04200
C  30.35500 -0.19100 29.72700
C  30.21200 0.15000 31.12100
C  28.86600 0.61700 31.24100
C  31.58200 -0.53800 29.01500
C  30.76700 0.19200 32.38400
O  31.87100 -0.10000 32.82100
C  29.73300 0.77800 33.35200
C  29.69400 -0.03500 34.54300
O  29.09000 -1.10300 34.68300
O  30.56000 0.57600 35.52100
C  30.34500 -0.07100 36.83800
H  22.92100 1.53600 32.93700
H  23.49600 1.56700 26.32700
H  29.44800 -0.09000 26.88500
H  26.86100 0.39200 34.99800
H  24.91400 2.36100 34.68300
H  24.83700 -0.43500 35.37900
H  23.50000 0.03300 34.45800
H  23.94400 0.87300 35.94900
H  26.73800 3.47300 35.02500
H  28.28100 2.79300 34.76000
H  28.57300 2.45900 36.96900
H  27.20500 1.45300 37.00200
H  20.32900 2.63100 31.15400
H  21.00000 1.41700 32.23400
H  20.05600 0.84000 30.93600
H  19.37200 0.87800 28.92900
H  18.93100 1.90500 27.46800
H  19.61000 2.68600 28.84100
H  25.49100 2.12500 25.07200
H  27.65600 -0.13600 25.11600
H  24.39500 -0.46500 24.81700
H  25.78700 -0.39700 23.61500
H  24.53000 0.72800 23.65600
H  28.96200 2.25500 25.99100
H  27.71100 2.84600 24.80500
H  29.26200 2.53500 23.29300
H  28.93700 0.86500 23.39100
H  30.31400 1.52000 24.32900
H  31.44200 -1.31000 28.25900
H  32.32900 -0.98500 29.67000
H  32.09900 0.35300 28.65900
H  30.02600 1.78900 33.63400
H  31.11200 -0.83100 36.98700
H  29.40800 -0.61900 36.93200
H  30.51500 0.62300 37.66200
Mg 16.73500 52.04200 25.91900
C  18.49100 50.79400 28.60900
C  14.29800 53.01000 28.08300
C  14.97100 52.97000 23.22600
C  19.36400 50.83800 23.79000
N  16.35900 51.80100 28.18500
C  17.28300 51.41000 29.06700
C  16.90000 51.43100 30.52200
C  15.35500 52.02100 30.28900
C  15.30200 52.33300 28.77000
C  14.19500 51.15300 30.79000
C  17.82900 52.41300 31.30500
C  17.61100 52.67400 32.77500
H  16.55700 51.81700 33.39300
N  14.91700 52.91400 25.68000
C  14.11100 53.25400 26.73500
C  12.94500 54.01400 26.16300
C  13.09700 54.05600 24.71400
C  14.33100 53.30600 24.47200
C  11.94900 54.61500 27.07800
C  12.24200 54.63600 23.66100
O  12.54200 54.66600 22.47300
C  11.04200 55.42900 24.02400
N  17.18400 51.91900 23.77800
C  16.29400 52.37800 22.94700
C  16.85000 52.32600 21.48800
C  18.27300 51.81000 21.66000
C  18.32000 51.48500 23.16800
C  15.92500 51.54100 20.49200
C  19.37100 52.83400 21.34900
C  20.79100 52.30100 20.88600
N  18.42500 50.95500 26.06600
C  19.44000 50.56300 25.11200
C  20.44600 49.78900 25.77700
C  20.07500 49.78200 27.13800
C  18.85100 50.52800 27.24800
C  21.64500 49.37900 25.22000
C  20.58000 49.41700 28.44500
O  21.55900 48.81200 28.76500
C  19.49300 49.98000 29.47000
C  18.99300 48.80000 30.12900
O  18.19400 48.03300 29.67300
O  19.21300 48.92000 31.51500
C  18.45000 47.95600 32.40300
H  13.59400 53.27100 28.87600
H  14.54500 53.19100 22.24500
H  20.13400 50.49700 23.09500
H  16.84900 50.41900 30.92300
H  15.21600 52.98300 30.78200
H  13.53500 51.70300 31.46100
H  14.50800 50.22500 31.27000
H  13.58900 50.80800 29.95300
H  17.72700 53.39100 30.83600
H  18.85800 52.07400 31.18500
H  17.25100 53.68000 32.98800
H  18.59600 52.45700 33.18700
H  10.91300 54.27600 27.07100
H  12.00600 55.62700 26.67600
H  12.33400 54.65000 28.09700
H  11.36600 56.26900 24.63800
H  10.32600 54.85000 24.60800
H  10.56800 55.77300 23.10500
H  16.90100 53.36900 21.17400
H  18.42800 50.88700 21.10100
H  16.56000 51.04900 19.75600
H  15.24500 52.30200 20.11200
H  15.25400 50.85500 21.01000
H  19.64000 53.44000 22.21500
H  18.98900 53.49400 20.57100
H  20.69900 51.23900 20.65700
H  21.47100 52.55800 21.69800
H  20.95500 52.91900 20.00400
H  22.48000 50.05300 25.40900
H  21.67600 49.17400 24.14900
H  21.96900 48.43200 25.65200
H  20.06100 50.54500 30.20900
H  18.32400 46.97700 31.94100
H  17.54600 48.39600 32.82300
H  19.01100 47.76900 33.31900

