158

Mg 35.88500 1.10700 29.78400
C  33.61100 2.00500 32.37000
C  38.39300 0.90500 32.07600
C  37.99500 0.45300 27.20200
C  33.21700 1.57300 27.53000
N  35.99300 1.48000 31.92600
C  34.91400 1.75600 32.87700
C  35.36000 1.72100 34.31600
C  36.90400 1.66300 34.09800
C  37.09400 1.39200 32.60200
C  37.60400 2.96400 34.47900
C  34.84100 0.46900 35.03300
C  34.04400 0.74200 36.28200
H  34.47900 1.84400 37.18900
N  37.83300 0.58700 29.66400
C  38.72600 0.52500 30.73800
C  40.00300 0.09100 30.27500
C  39.94400 0.01400 28.87400
C  38.57500 0.35200 28.46600
C  41.14700 -0.17200 31.23900
C  41.03700 -0.24100 27.86500
O  40.87200 -0.12000 26.65600
C  42.39000 -0.74700 28.36900
N  35.69600 1.21100 27.73600
C  36.72800 0.85300 26.85800
C  36.29700 0.75900 25.38700
C  34.74700 0.92000 25.49000
C  34.53200 1.29800 26.95900
C  36.96000 1.78600 24.40200
C  33.91100 -0.28900 24.93800
C  33.67400 -1.43600 25.97400
N  33.82100 1.74600 29.83300
C  32.87600 1.84300 28.87300
C  31.62400 2.27700 29.46000
C  31.86900 2.38100 30.80200
C  33.20200 2.03500 31.02800
C  30.32900 2.49300 28.82500
C  31.23600 2.66500 32.10100
O  30.05900 2.94400 32.33200
C  32.37800 2.39400 33.12900
C  32.51300 3.68000 33.79200
O  32.89300 4.67900 33.23200
O  31.90200 3.64400 35.02400
C  31.79600 4.94400 35.70600
H  39.19500 0.75000 32.80100
H  38.64600 0.12100 26.39000
H  32.38600 1.55300 26.82200
H  35.01100 2.64900 34.76900
H  37.44900 0.93400 34.69800
H  38.67900 2.90300 34.30700
H  37.29200 3.32700 35.45800
H  37.29300 3.58400 33.63800
H  35.64500 -0.14200 35.44300
H  34.35200 -0.23100 34.35500
H  33.94800 -0.14000 36.91500
H  33.02100 0.90900 35.94500
H  40.81100 -0.62800 32.17000
H  41.54100 0.79700 31.54600
H  41.93200 -0.78200 30.79200
H  42.25600 -1.64800 28.96800
H  42.89100 0.00500 28.97800
H  43.05000 -0.82900 27.50600
H  36.55800 -0.27900 25.18100
H  34.31700 1.80100 25.01300
H  36.22300 2.44700 23.94400
H  37.47300 1.15700 23.67600
H  37.69300 2.38800 24.93900
H  34.58500 -0.54400 24.12100
H  33.00300 0.11700 24.49100
H  34.06500 -1.27100 26.97700
H  34.19600 -2.30700 25.57800
H  32.62200 -1.71500 26.03800
H  30.09700 3.55600 28.76300
H  29.59200 1.99600 29.45500
H  30.43800 2.06400 27.82900
H  32.13300 1.58800 33.82100
H  32.83200 5.25100 35.84900
H  31.28400 4.85100 36.66400
H  31.25200 5.71800 35.16400
Mg -9.26600 18.43000 42.54400
C  -5.84600 18.10700 42.65200
C  -8.92800 21.79400 41.59100
C  -12.58700 18.52100 41.62100
C  -9.57700 14.95500 42.72400
N  -7.64900 19.78100 42.03700
C  -6.29500 19.38100 42.16000
C  -5.37900 20.62800 42.10700
C  -6.39200 21.81600 42.16000
C  -7.73700 21.08400 41.86900
C  -6.43200 22.60700 43.48900
C  -4.58100 20.75900 40.76600
C  -5.35800 20.83000 39.44900
H  -4.90700 19.99300 38.25300
N  -10.58500 20.02000 41.83300
C  -10.27100 21.29600 41.50600
C  -11.44800 21.99000 41.06600
C  -12.52600 21.05900 41.10800
C  -11.95400 19.78800 41.55900
C  -11.43600 23.51200 40.69200
C  -13.93900 21.35400 40.54000
O  -14.18700 22.46800 40.03900
C  -15.01600 20.33000 40.41600
N  -10.87600 16.90300 42.16100
C  -12.15300 17.23600 41.92100
C  -13.13300 15.97900 41.91600
C  -12.13600 14.81100 42.36900
C  -10.78600 15.56000 42.53100
C  -14.40700 16.20000 42.75400
C  -12.04600 13.50400 41.47300
C  -12.51600 12.17700 42.19700
N  -8.00400 16.80600 42.66800
C  -8.26800 15.46800 42.88600
C  -7.04300 14.73700 43.12000
C  -6.07300 15.73900 43.12200
C  -6.71900 16.98000 42.87100
C  -6.88900 13.23200 43.29000
C  -4.64900 16.01000 43.18000
O  -3.67200 15.24300 43.19400
C  -4.45600 17.60300 43.03300
C  -3.82900 18.11400 44.25300
O  -2.70400 18.46000 44.38300
O  -4.68600 17.98100 45.32700
C  -4.10600 18.53000 46.62000
H  -8.74400 22.84700 41.36400
H  -13.64000 18.55200 41.33400
H  -9.69500 13.93200 43.09000
H  -4.76000 20.56300 43.00200
H  -6.19400 22.54100 41.37100
H  -5.67900 22.15900 44.13800
H  -7.34700 22.42600 44.05200
H  -6.27600 23.66900 43.29900
H  -3.78600 20.01400 40.72600
H  -4.09000 21.72700 40.85600
H  -5.39800 21.87600 39.14500
H  -6.29700 20.35300 39.73200
H  -11.87100 23.70500 39.71100
H  -10.41500 23.87300 40.81600
H  -12.09100 24.04300 41.38200
H  -15.33600 20.02800 41.41300
H  -14.65200 19.49200 39.82100
H  -15.82300 20.74500 39.81300
H  -13.47000 15.79100 40.89600
H  -12.49400 14.46500 43.33800
H  -14.56700 17.19700 43.16400
H  -14.33900 15.43000 43.52300
H  -15.25200 16.07500 42.07700
H  -10.98500 13.48100 41.22400
H  -12.69700 13.70900 40.62300
H  -12.90100 11.46000 41.47100
H  -13.35100 12.40300 42.86000
H  -11.80600 11.64800 42.83300
H  -6.31500 12.81700 42.46200
H  -7.84700 12.71200 43.30900
H  -6.41900 12.93700 44.22800
H  -3.72400 17.86600 42.26900
H  -3.14100 18.09300 46.87800
H  -4.83100 18.44800 47.43000
H  -3.94600 19.60500 46.53800

