158

Mg 44.90700 4.77200 47.22600
C  42.82800 7.50200 47.21100
C  42.04700 2.75400 46.73100
C  46.88300 2.05500 46.55400
C  47.56300 6.84000 47.02700
N  42.62700 5.07600 47.04200
C  42.10200 6.29800 47.06200
C  40.59600 6.23300 46.78600
C  40.30400 4.69500 46.58500
C  41.76500 4.10600 46.72600
C  39.28800 3.83100 47.41800
C  39.97300 7.10000 45.62700
C  40.74300 7.04200 44.28300
H  39.98600 6.45500 43.09200
N  44.47900 2.69300 46.79800
C  43.26000 2.09800 46.71700
C  43.46100 0.70700 46.49100
C  44.85700 0.47200 46.57200
C  45.50300 1.76800 46.62000
C  42.42000 -0.36500 46.21300
C  45.42900 -0.89900 46.58400
O  44.79600 -1.95000 46.69500
C  46.84000 -1.10300 46.66500
N  46.94300 4.46700 46.80000
C  47.58100 3.28300 46.60000
C  49.10400 3.45800 46.47500
C  49.23400 4.95200 46.82800
C  47.81700 5.48000 46.82300
C  49.83700 2.50300 47.43600
C  50.25600 5.70500 45.94300
C  49.85200 5.89900 44.57200
N  45.21800 6.73700 47.22700
C  46.34800 7.49500 47.14900
C  46.05500 8.87900 47.15500
C  44.70200 8.90900 47.30200
C  44.23500 7.62000 47.27300
C  47.06200 10.01600 47.00000
C  43.56600 9.79500 47.47500
O  43.55900 11.02600 47.44100
C  42.29900 8.91100 47.36000
C  41.36500 8.97600 48.52400
O  41.45800 8.39100 49.58300
O  40.27700 9.73200 48.14400
C  39.33700 10.05900 49.20300
H  41.14200 2.14400 46.70500
H  47.54300 1.19900 46.39500
H  48.42300 7.50600 47.12600
H  40.19000 6.55100 47.74600
H  40.18800 4.48100 45.52300
H  38.47500 4.44300 47.80700
H  39.80900 3.44400 48.29400
H  38.86500 2.99400 46.86300
H  39.95000 8.12700 45.99300
H  38.90600 6.91200 45.50500
H  41.64300 6.43900 44.39900
H  41.06200 8.07400 44.13900
H  42.68500 -0.87100 45.28400
H  41.43600 0.10100 46.25700
H  42.46200 -1.03700 47.07000
H  47.23800 -0.47700 47.46400
H  47.32100 -0.72500 45.76300
H  47.10600 -2.13400 46.89800
H  49.44800 3.30700 45.45200
H  49.57700 5.19200 47.83500
H  50.76500 2.95800 47.78400
H  49.86900 1.44700 47.16800
H  49.23400 2.32100 48.32500
H  51.18700 5.16300 46.11200
H  50.25100 6.71200 46.35900
H  50.66400 5.66100 43.88500
H  49.40200 6.86500 44.34600
H  49.06000 5.20800 44.28400
H  48.05500 9.82400 47.40800
H  46.69300 10.86700 47.57200
H  47.16900 10.15500 45.92400
H  41.77700 9.20500 46.45000
H  38.59600 9.26400 49.12600
H  39.02800 11.07600 48.96100
H  39.80000 9.94700 50.18300
Mg -2.32700 35.41600 27.02200
C  -4.23000 33.86800 29.73300
C  -1.12400 37.63900 29.24800
C  -0.91800 37.04200 24.46200
C  -3.77600 33.06400 24.88800
N  -2.72500 35.73200 29.21400
C  -3.50300 34.99800 30.13500
C  -3.23500 35.50800 31.56400
C  -2.49200 36.79300 31.33100
C  -2.04500 36.72100 29.81300
C  -3.34100 38.00000 31.78500
C  -2.52000 34.44000 32.54500
C  -2.96500 34.48700 33.95600
H  -2.97000 33.19300 34.79000
N  -1.14400 37.13000 26.85200
C  -0.71500 37.89200 27.89000
C  0.23100 38.89700 27.44700
C  0.40300 38.71300 26.03300
C  -0.58600 37.63700 25.70100
C  0.85800 39.92900 28.40200
C  1.30200 39.39500 24.97700
O  1.21900 39.05400 23.80800
C  2.41900 40.37900 25.46900
N  -2.40000 35.10100 24.93500
C  -1.68200 35.87500 24.15200
C  -1.84500 35.50500 22.67300
C  -2.71800 34.20100 22.78900
C  -2.98800 34.10200 24.27100
C  -2.47400 36.57000 21.78300
C  -2.08200 32.85900 22.26900
C  -3.10300 32.01300 21.45100
N  -3.75700 33.81600 27.20500
C  -4.06800 32.87500 26.26400
C  -4.84500 31.80900 26.84700
C  -4.87800 32.15500 28.18200
C  -4.28400 33.39000 28.38600
C  -5.48400 30.61700 26.11100
C  -5.49900 31.77400 29.52000
O  -6.16600 30.78100 29.83700
C  -5.01600 32.84300 30.54400
C  -6.27800 33.49600 31.16700
O  -7.15000 34.09500 30.52700
O  -6.24900 33.21800 32.51400
C  -7.59300 33.34800 33.11500
H  -0.63500 38.25400 30.00600
H  -0.53500 37.53100 23.56400
H  -4.25700 32.29100 24.28600
H  -4.15900 35.77500 32.07700
H  -1.54600 36.84700 31.87000
H  -3.11100 38.77700 31.05600
H  -3.03000 38.52200 32.69100
H  -4.42000 37.89800 31.67600
H  -1.47400 34.74300 32.53300
H  -2.50500 33.41300 32.17900
H  -4.05100 34.58100 33.92100
H  -2.33800 35.17200 34.52600
H  0.38400 39.94300 29.38400
H  0.63500 40.92100 28.01000
H  1.92800 39.77400 28.54300
H  3.14400 39.81400 26.05500
H  1.98100 41.19500 26.04400
H  3.02200 40.72200 24.62800
H  -0.82000 35.26000 22.39200
H  -3.70100 34.45100 22.39000
H  -1.74700 36.97400 21.07900
H  -2.79900 37.42700 22.37300
H  -3.24400 36.11100 21.16200
H  -1.50500 32.30100 23.00600
H  -1.33900 33.06900 21.50000
H  -2.67400 31.38700 20.66800
H  -3.87000 32.63600 20.99200
H  -3.42800 31.37000 22.26900
H  -4.86400 30.28800 25.27800
H  -6.49500 30.87100 25.79100
H  -5.68500 29.81600 26.82300
H  -4.39800 32.41200 31.33100
H  -8.20600 34.06500 32.57000
H  -7.45000 33.65600 34.15100
H  -8.20200 32.44600 33.05900

