158

Mg 7.29600 53.62700 42.22200
C  6.85700 50.15100 41.48500
C  10.52500 53.29800 41.08400
C  7.51300 57.04500 42.10900
C  3.90000 53.89300 42.97100
N  8.47700 51.92400 41.35300
C  8.13300 50.60500 41.22700
C  9.30000 49.83000 40.69000
C  10.53500 50.75200 40.99200
C  9.79900 52.07200 41.15900
C  11.49800 50.33600 42.16800
C  9.16500 49.47400 39.17000
C  8.65100 50.51200 38.14800
H  8.07500 50.05200 36.85600
N  8.71500 54.98500 41.46700
C  10.06600 54.65000 41.16500
C  10.81900 55.88000 40.94300
C  9.94500 56.98300 41.32100
C  8.65500 56.36500 41.64500
C  12.29600 55.93000 40.44300
C  10.40100 58.43500 41.29600
O  11.55400 58.75700 40.96500
C  9.43300 59.57900 41.57500
N  5.91500 55.21400 42.48600
C  6.26700 56.52200 42.47500
C  5.03500 57.41500 42.66700
C  3.89700 56.46800 42.87700
C  4.59100 55.06900 42.80200
C  5.09400 58.50900 43.71600
C  2.67900 56.54100 41.91700
C  1.35300 55.84900 42.21300
N  5.74400 52.32600 42.38300
C  4.41600 52.57700 42.80600
C  3.77400 51.33200 42.97200
C  4.63800 50.33400 42.43700
C  5.85400 51.00000 42.08400
C  2.38100 51.05000 43.52300
C  4.83600 48.92900 42.12400
O  4.03400 48.00200 42.34800
C  6.27500 48.72200 41.54800
C  6.11800 48.13900 40.19400
O  5.43600 48.62400 39.28000
O  6.87900 47.03000 40.12800
C  6.64400 46.26400 38.95600
H  11.60700 53.20500 40.96900
H  7.62300 58.12800 42.19500
H  2.83000 53.90800 43.19000
H  9.43100 48.89500 41.23400
H  11.10600 50.80000 40.06500
H  12.18500 49.51200 41.97700
H  10.89600 50.19900 43.06600
H  12.04500 51.24500 42.42000
H  8.59800 48.55400 39.02300
H  10.17600 49.38900 38.77200
H  9.41800 51.23000 37.85800
H  7.83000 51.09700 38.56400
H  12.30000 56.37900 39.45000
H  12.70200 54.91900 40.41900
H  13.01400 56.53900 40.99200
H  8.63500 59.46500 40.84100
H  10.11400 60.42000 41.44400
H  9.02400 59.55900 42.58500
H  4.91900 57.87500 41.68600
H  3.55600 56.54700 43.90900
H  6.07600 58.97500 43.63100
H  5.00000 58.06400 44.70700
H  4.49700 59.40800 43.55800
H  3.05500 56.06900 41.00900
H  2.51700 57.53900 41.50900
H  0.51400 56.50600 41.98500
H  1.43500 55.51000 43.24600
H  1.29500 54.93300 41.62500
H  1.79900 51.97000 43.57500
H  2.48100 50.66500 44.53800
H  1.69100 50.46100 42.91900
H  7.00900 48.10200 42.06300
H  7.17000 46.59500 38.06000
H  5.55900 46.21800 38.85700
H  6.80300 45.18800 39.01800
Mg 0.86400 42.57900 26.19100
C  3.27800 42.58100 28.77700
C  -1.49100 41.94900 28.53100
C  -1.23700 41.98800 23.61800
C  3.57400 42.85900 23.88600
N  0.91500 42.38300 28.35900
C  1.96900 42.56100 29.21900
C  1.59100 42.59400 30.70900
C  0.11300 42.05700 30.59600
C  -0.20700 42.15900 29.07400
C  -0.33600 40.60600 31.15400
C  1.78700 44.08100 31.27600
C  1.17500 44.25000 32.72100
H  1.18400 43.06200 33.69000
N  -1.17400 42.08600 26.14800
C  -1.96100 41.86900 27.16000
C  -3.31800 41.71100 26.66300
C  -3.23500 41.73700 25.24600
C  -1.86600 41.93400 24.92000
C  -4.43800 41.38800 27.71000
C  -4.33600 41.57100 24.26900
O  -4.17700 41.56900 23.05500
C  -5.78400 41.42300 24.84300
N  1.18200 42.65400 24.13200
C  0.11200 42.29900 23.29400
C  0.57500 42.17300 21.83300
C  2.08300 42.73500 21.91500
C  2.30600 42.80300 23.38400
C  0.38100 40.63700 21.36300
C  2.18700 44.23000 21.39800
C  1.48500 45.35500 22.12900
N  3.03500 42.62000 26.23500
C  3.99400 42.75300 25.23400
C  5.31700 42.90900 25.81400
C  5.07300 42.74600 27.25300
C  3.68700 42.60400 27.38200
C  6.61600 43.12300 25.12500
C  5.66000 42.62400 28.53700
O  6.85000 42.66000 28.80000
C  4.56700 42.55800 29.53000
C  4.88900 41.30700 30.32500
O  4.44100 40.17300 30.16800
O  5.61400 41.74600 31.37300
C  5.75700 40.60700 32.38200
H  -2.27900 41.86800 29.28300
H  -1.83200 41.81300 22.71900
H  4.36200 42.92300 23.13200
H  2.28300 41.89000 31.17300
H  -0.62000 42.73600 31.03200
H  0.30200 40.32500 31.99200
H  -0.32900 40.00000 30.24900
H  -1.35700 40.55200 31.53200
H  1.23600 44.68600 30.55600
H  2.84800 44.32000 31.34700
H  0.22800 44.78600 32.78300
H  1.74400 44.93400 33.35000
H  -5.38300 41.91500 27.57500
H  -4.11800 41.68300 28.70900
H  -4.72500 40.33800 27.67600
H  -6.52700 41.48600 24.04800
H  -6.12700 42.21200 25.51200
H  -5.71900 40.49800 25.41600
H  0.07700 42.79400 21.08800
H  2.78100 41.97500 21.56600
H  1.35300 40.16700 21.20800
H  0.02000 40.65500 20.33500
H  -0.29500 40.04600 21.98000
H  1.75000 44.13300 20.40400
H  3.21000 44.56500 21.22300
H  0.82900 45.03200 22.93800
H  0.84600 45.88600 21.42300
H  2.19000 46.05700 22.57300
H  6.54600 43.97700 24.45100
H  7.11700 42.24300 24.72100
H  7.27800 43.41500 25.94000
H  4.68100 43.37300 30.24500
H  6.43600 41.15000 33.03900
H  6.38000 39.80000 31.99600
H  4.87000 40.28100 32.92400

