158

Mg 1.24300 7.83900 26.14600
C  1.58200 9.52900 29.11100
C  1.22600 4.84400 28.00900
C  1.01600 6.09200 23.23900
C  1.78000 10.77200 24.42700
N  1.37800 7.22500 28.28000
C  1.29500 8.14200 29.27100
C  1.18200 7.51400 30.64800
C  1.28900 6.01400 30.35300
C  1.28200 6.00600 28.77200
C  2.47900 5.26400 31.00400
C  -0.11000 7.95200 31.37500
C  0.00900 8.30400 32.80400
H  1.19300 7.71000 33.60500
N  1.15100 5.67700 25.67900
C  1.11500 4.64500 26.58200
C  0.87700 3.38500 25.90100
C  0.88900 3.74200 24.48100
C  1.04700 5.21600 24.41000
C  0.83700 2.04200 26.54300
C  0.74000 2.94100 23.29500
O  0.69900 3.37500 22.18300
C  0.73400 1.39400 23.37500
N  1.60700 8.33900 24.07700
C  1.26100 7.47400 23.09500
C  1.16700 8.23700 21.79000
C  1.20200 9.68100 22.19400
C  1.56000 9.62100 23.67400
C  2.26000 7.89700 20.72000
C  -0.16500 10.45000 22.08700
C  -1.05700 10.16900 20.85900
N  1.75200 9.69200 26.63900
C  1.84700 10.84200 25.81700
C  1.88200 12.01100 26.58400
C  1.84100 11.53100 27.89200
C  1.74600 10.15200 27.86200
C  2.09400 13.45000 26.05600
C  1.75200 11.97700 29.21600
O  1.65700 13.09600 29.68100
C  1.71500 10.65800 30.11000
C  3.03200 10.62800 30.84800
O  4.01000 9.94400 30.61600
O  2.77400 11.21200 32.09400
C  3.76800 10.85600 33.19400
H  1.22900 3.96800 28.66100
H  0.78000 5.63500 22.27600
H  1.87400 11.74200 23.93500
H  2.01400 7.78200 31.30000
H  0.40900 5.51200 30.75500
H  3.11800 5.95000 31.56000
H  3.03500 4.70600 30.25100
H  2.00300 4.54800 31.67400
H  -0.88400 7.19300 31.26200
H  -0.61900 8.69600 30.76200
H  -0.85700 7.91900 33.34100
H  -0.00200 9.39400 32.80800
H  0.62800 2.11800 27.61000
H  1.79300 1.53200 26.42400
H  -0.03500 1.46100 26.24300
H  1.67800 1.11300 23.84200
H  0.75000 0.91700 22.39400
H  -0.04500 1.07300 24.06600
H  0.21800 8.00100 21.30800
H  1.92400 10.35900 21.73800
H  1.86100 7.57100 19.76000
H  2.85300 7.10100 21.17100
H  2.83100 8.79900 20.50300
H  0.19300 11.47600 22.01200
H  -0.65100 10.34200 23.05700
H  -0.54900 9.68900 20.02300
H  -1.39400 11.13300 20.47700
H  -1.88200 9.53000 21.17200
H  1.37200 13.76800 25.30400
H  3.11100 13.62600 25.70600
H  1.88500 14.03700 26.95000
H  0.86800 10.76800 30.78700
H  3.16700 10.67700 34.08600
H  4.41500 11.70900 33.39800
H  4.29900 9.92800 32.98200
Mg 30.15400 58.62400 39.46800
C  27.09300 57.13500 38.80000
C  31.72100 55.71500 38.50700
C  33.06800 60.35500 39.38500
C  28.48600 61.67100 40.12100
N  29.46400 56.72400 38.54100
C  28.16500 56.27300 38.45000
C  28.13800 54.95300 37.75100
C  29.53700 54.37900 38.00800
C  30.29200 55.62900 38.41600
C  29.51300 53.28800 39.12000
C  27.81500 55.21700 36.25100
C  26.61000 54.62500 35.55100
H  25.93700 55.55400 34.51000
N  32.12400 58.10800 39.10000
C  32.55300 56.87000 38.76300
C  34.03200 56.86600 38.66200
C  34.43000 58.22300 38.77400
C  33.21900 58.96500 39.16200
C  34.80200 55.68900 38.13300
C  35.81300 58.73000 38.49800
O  36.63700 57.91400 38.13800
C  36.22000 60.10300 38.52000
N  30.67800 60.60700 39.68600
C  31.95400 61.11000 39.61400
C  32.03100 62.65100 39.70000
C  30.64700 62.96400 40.32000
C  29.88400 61.68200 40.00400
C  33.26800 63.28100 40.38300
C  30.07100 64.27500 39.70400
C  29.52400 65.30000 40.67000
N  28.10000 59.27400 39.62800
C  27.61600 60.58200 39.85000
C  26.14100 60.47900 39.78100
C  25.89900 59.10700 39.46100
C  27.13900 58.43000 39.27900
C  25.06700 61.54700 40.26600
C  24.86700 58.14300 39.22900
O  23.65100 58.13000 39.38300
C  25.60300 56.88200 38.67700
C  25.06600 55.69700 39.36700
O  25.42200 55.26800 40.45600
O  24.13100 55.06200 38.56600
C  23.56900 53.78600 39.07200
H  32.22500 54.75500 38.37800
H  33.91300 61.04600 39.39400
H  27.98600 62.62800 40.28800
H  27.38900 54.29500 38.19100
H  29.92500 53.95400 37.08200
H  28.58200 53.18400 39.67700
H  30.20300 53.63000 39.89200
H  29.83600 52.31100 38.76000
H  28.68700 54.92500 35.66500
H  27.55200 56.27400 36.20100
H  25.88200 54.28700 36.28800
H  27.01000 53.84200 34.90700
H  35.03800 55.89200 37.08800
H  34.29400 54.73000 38.23700
H  35.70100 55.62300 38.74600
H  37.06700 60.23000 37.84600
H  36.31000 60.42900 39.55600
H  35.49400 60.62000 37.89300
H  31.88100 63.01000 38.68200
H  30.75600 62.93000 41.40400
H  32.93000 64.05800 41.07000
H  33.71400 63.67400 39.47000
H  34.05600 62.62400 40.75100
H  29.26400 64.02400 39.01500
H  30.80100 64.83000 39.11600
H  30.17200 66.15600 40.85700
H  29.42800 64.75700 41.61000
H  28.57300 65.67900 40.29500
H  25.61000 62.29300 40.84600
H  24.29600 61.01700 40.82600
H  24.59400 62.08200 39.44300
H  25.30400 56.84700 37.63000
H  24.44000 53.16600 39.28200
H  22.97900 53.30700 38.29100
H  23.00000 54.01200 39.97400

