158

Mg 0.93600 8.01500 24.91400
C  2.04300 9.93600 27.68800
C  0.69000 5.34700 26.92600
C  0.65200 6.24700 22.22300
C  1.35600 10.97800 22.92400
N  1.58700 7.68600 27.07100
C  1.81600 8.63300 27.99500
C  1.70400 8.05300 29.42000
C  1.61400 6.53500 29.12700
C  1.20100 6.50700 27.62300
C  2.96300 5.74600 29.28900
C  0.56900 8.65800 30.38200
C  1.05200 9.13500 31.71100
H  2.01300 8.28600 32.49100
N  0.57100 6.15900 24.54400
C  0.41700 5.16600 25.53100
C  0.20800 3.84200 24.81200
C  0.33300 4.08900 23.40800
C  0.45600 5.55900 23.36000
C  -0.00500 2.45300 25.53500
C  0.19800 3.13000 22.18900
O  0.27700 3.52700 21.04600
C  -0.08900 1.59600 22.46400
N  1.01600 8.56600 22.83400
C  0.91400 7.60000 21.89100
C  1.34800 8.23300 20.51900
C  1.19700 9.71900 20.70400
C  1.18300 9.79900 22.18900
C  2.76500 7.71200 20.22600
C  -0.13100 10.31700 20.13400
C  -1.52500 9.63900 20.38200
N  1.48700 10.08700 25.17500
C  1.59800 11.12000 24.27900
C  1.98300 12.33900 25.06300
C  2.03000 11.96600 26.40900
C  1.89300 10.53900 26.40100
C  2.13400 13.71200 24.46800
C  2.29900 12.43300 27.73000
O  2.50900 13.53400 28.17300
C  2.21000 11.12800 28.64300
C  3.31900 11.06300 29.54300
O  4.41900 10.48100 29.41200
O  3.08300 11.96300 30.57300
C  4.27100 12.07600 31.47800
H  0.54200 4.50200 27.60300
H  0.62100 5.82500 21.21600
H  1.52100 11.86700 22.31000
H  2.60500 8.32400 29.97000
H  0.74600 6.10000 29.62200
H  2.73000 4.86600 29.88900
H  3.68600 6.36700 29.81600
H  3.36500 5.43000 28.32700
H  -0.16300 7.86900 30.55500
H  0.17800 9.56000 29.91100
H  0.20300 9.39000 32.34500
H  1.49000 10.13200 31.66900
H  -0.82600 1.87000 25.11700
H  -0.18100 2.54500 26.60700
H  0.83800 1.80000 25.30800
H  0.78000 1.05700 22.84200
H  -0.42300 1.14700 21.52900
H  -0.93000 1.52600 23.15300
H  0.61300 8.01900 19.74300
H  2.05800 10.21500 20.25600
H  3.24100 7.06500 20.96200
H  3.44500 8.53000 19.99300
H  2.69500 7.21800 19.25700
H  0.11900 10.49900 19.08900
H  -0.29300 11.26700 20.64300
H  -1.41000 8.70600 20.93400
H  -1.91200 9.52700 19.37000
H  -2.24200 10.29600 20.87400
H  1.19000 14.01700 24.01600
H  2.91800 13.59100 23.72100
H  2.35700 14.36700 25.31000
H  1.32800 11.32600 29.25200
H  3.93000 12.75800 32.25700
H  5.13800 12.46900 30.94700
H  4.47800 11.12300 31.96700
Mg 26.24800 50.37700 26.30700
C  24.00800 51.38600 28.87000
C  28.49200 49.36100 28.79700
C  28.29800 49.60500 23.80900
C  23.95100 51.60000 23.99600
N  26.26600 50.60400 28.57400
C  25.16900 50.83200 29.38000
C  25.43500 50.48600 30.84900
C  26.89400 49.89900 30.82600
C  27.29300 49.93900 29.28100
C  27.97100 50.73200 31.63400
C  24.28500 49.54000 31.37500
C  23.41900 49.78700 32.60600
H  23.75300 48.96500 33.98100
N  28.07100 49.61800 26.36500
C  28.88000 49.26900 27.45200
C  30.21700 48.66400 26.93800
C  30.13700 48.88200 25.52700
C  28.81800 49.44400 25.18200
C  31.25200 47.92600 27.83000
C  31.23100 48.45300 24.49400
O  31.11300 48.61900 23.27000
C  32.57600 47.88000 24.91900
N  26.15800 50.62800 24.18600
C  27.17500 50.23900 23.35400
C  26.80200 50.41400 21.86100
C  25.30900 50.85100 21.94700
C  25.09500 51.06300 23.47700
C  27.65700 51.48700 21.11500
C  24.36900 49.89100 21.14600
C  23.87100 48.55000 21.71000
N  24.33800 51.34400 26.31800
C  23.56700 51.73900 25.32900
C  22.33000 52.32500 25.83600
C  22.48000 52.20000 27.21000
C  23.67600 51.56600 27.46600
C  21.24600 52.83300 25.02600
C  21.86900 52.56100 28.45600
O  20.85100 53.18400 28.64200
C  22.80800 52.04700 29.62500
C  23.25200 53.23600 30.43300
O  24.02800 54.17600 30.13400
O  22.52500 53.18100 31.61400
C  22.86400 54.19500 32.67200
H  29.13500 48.97900 29.59200
H  29.00400 49.39600 23.00300
H  23.23000 51.94600 23.25200
H  25.32900 51.42300 31.39600
H  26.90300 48.94300 31.34900
H  27.79100 51.78200 31.86500
H  28.81000 50.71100 30.93900
H  28.31400 50.08100 32.43800
H  24.73700 48.56100 31.53500
H  23.58100 49.39900 30.55500
H  22.37300 49.66000 32.32800
H  23.47700 50.84300 32.87000
H  32.12100 48.58300 27.85000
H  31.43800 46.98300 27.31700
H  31.00000 47.70400 28.86700
H  33.22700 47.71000 24.06200
H  32.37400 46.86500 25.26300
H  32.94600 48.53000 25.71200
H  26.98300 49.43700 21.41200
H  25.26300 51.86100 21.53900
H  27.07900 52.39300 20.93400
H  27.92000 51.12200 20.12200
H  28.53400 51.81200 21.67500
H  24.81600 49.79000 20.15700
H  23.43100 50.39400 20.91500
H  24.04300 47.75500 20.98400
H  22.79000 48.63600 21.81800
H  24.32400 48.31500 22.67300
H  21.65900 53.25800 24.11100
H  20.77800 53.60300 25.63900
H  20.38600 52.18800 24.84900
H  22.18900 51.34500 30.18300
H  22.93800 55.19300 32.24100
H  23.84200 54.06600 33.13500
H  22.05000 54.31400 33.38700

