158

Mg 41.59000 8.93100 29.66000
C  43.49100 10.09800 32.18200
C  39.46200 7.30500 31.94800
C  39.85700 7.82900 27.04800
C  44.11600 10.15500 27.36000
N  41.38800 8.75300 31.73900
C  42.32200 9.33900 32.58800
C  41.95000 9.12900 34.07900
C  40.82400 8.05800 33.99800
C  40.50900 8.04300 32.48300
C  41.32100 6.64500 34.37700
C  41.45800 10.51800 34.62400
C  40.82400 10.52100 36.12600
H  41.56000 11.31000 37.22900
N  39.90300 7.80200 29.54600
C  39.21600 7.15100 30.57300
C  38.03600 6.44100 30.01000
C  38.01700 6.78300 28.59300
C  39.34100 7.44400 28.33000
C  36.99200 5.66900 30.80500
C  37.04200 6.48700 27.60900
O  37.23100 6.76200 26.41200
C  35.70300 5.90200 27.90900
N  42.13100 8.75100 27.54700
C  41.11000 8.43700 26.73100
C  41.42300 8.62400 25.18200
C  42.81400 9.28000 25.29800
C  43.08400 9.41700 26.85300
C  41.42900 7.33000 24.33000
C  43.12500 10.53900 24.45900
C  42.66200 11.91900 24.84100
N  43.42100 9.96500 29.70500
C  44.27500 10.47100 28.74200
C  45.32400 11.26200 29.35700
C  45.02200 11.22900 30.73700
C  43.95200 10.33500 30.86900
C  46.45400 11.96600 28.62700
C  45.40700 11.69300 32.04600
O  46.26000 12.53100 32.30700
C  44.48100 10.97000 33.04200
C  45.14100 10.10100 34.07600
O  45.88000 9.15200 33.83900
O  44.83300 10.48100 35.39800
C  45.23100 9.58100 36.50000
H  38.84200 6.71200 32.62300
H  39.30300 7.67200 26.12000
H  44.89700 10.53200 26.69700
H  42.82500 8.74400 34.60200
H  39.99400 8.25700 34.67600
H  41.00600 5.89000 33.65700
H  40.71400 6.41600 35.25200
H  42.40000 6.56700 34.50800
H  40.75100 11.01500 33.95900
H  42.34400 11.14000 34.74600
H  40.82300 9.50700 36.52600
H  39.78600 10.85100 36.09100
H  37.18000 5.57400 31.87400
H  36.82900 4.65900 30.42900
H  35.99800 6.11600 30.82300
H  35.11300 6.60300 28.50000
H  35.73900 4.99700 28.51400
H  35.34100 5.65500 26.91100
H  40.75900 9.33900 24.69700
H  43.57800 8.53300 25.08000
H  40.64400 7.31600 23.57400
H  41.14400 6.52600 25.00800
H  42.42800 7.14900 23.93300
H  42.63300 10.36100 23.50200
H  44.21200 10.45500 24.45800
H  43.54000 12.56600 24.83900
H  42.21100 11.91600 25.83300
H  42.00800 12.50000 24.19000
H  47.33300 11.40400 28.31100
H  46.83900 12.78700 29.23200
H  46.17100 12.36800 27.65400
H  43.94000 11.76500 33.55400
H  46.31900 9.64600 36.52100
H  44.96600 8.54800 36.27600
H  44.70600 9.83100 37.42200
Mg 47.65700 16.71900 29.44500
C  45.40100 15.88700 31.86900
C  49.57000 18.54300 31.68400
C  49.61900 17.79200 26.92000
C  45.45900 15.32000 27.00400
N  47.53300 17.06600 31.45800
C  46.50200 16.61400 32.31300
C  46.90400 16.84500 33.79000
C  47.95300 18.02100 33.62100
C  48.37600 17.90900 32.15200
C  47.37200 19.39300 34.04200
C  47.43500 15.51800 34.40600
C  47.12500 15.28900 35.86800
H  46.98300 16.66200 36.67800
N  49.44300 17.91500 29.34700
C  50.09700 18.50800 30.37800
C  51.39700 18.89500 29.97300
C  51.44900 18.75600 28.55600
C  50.09800 18.12800 28.22200
C  52.50300 19.40300 30.91000
C  52.57400 19.07000 27.60800
O  52.43400 18.93200 26.40800
C  53.81800 19.54600 28.14000
N  47.35100 16.79300 27.22800
C  48.43900 17.18200 26.48400
C  48.20800 16.93300 24.99200
C  47.01800 15.88500 25.05400
C  46.55600 16.02700 26.52300
C  47.72000 18.30300 24.34700
C  47.37700 14.50800 24.71900
C  46.40400 13.63500 23.89900
N  45.84500 15.71500 29.47200
C  45.12400 15.12400 28.43500
C  43.99400 14.37500 28.98700
C  44.03400 14.70300 30.28000
C  45.14600 15.51300 30.55000
C  42.89700 13.56100 28.25900
C  43.39200 14.70700 31.59500
O  42.25900 14.29600 32.00900
C  44.22000 15.36800 32.63300
C  43.54700 16.36400 33.39500
O  43.20200 17.46600 32.98400
O  43.29000 15.96700 34.67800
C  42.87400 16.88200 35.73500
H  50.09400 19.15600 32.42100
H  50.22600 17.99500 26.03500
H  44.89400 14.74900 26.26500
H  46.08200 17.14400 34.44100
H  48.86400 17.81200 34.18200
H  46.46300 19.31000 34.63700
H  47.25100 20.03600 33.17000
H  48.14500 19.87200 34.64400
H  48.50900 15.61900 34.25000
H  47.06000 14.65500 33.85600
H  47.94600 14.69100 36.26400
H  46.15400 14.79400 35.87100
H  53.42500 18.83500 30.79100
H  52.27500 19.18900 31.95400
H  52.63600 20.47400 30.75800
H  53.60800 20.30200 28.89700
H  54.37700 20.00200 27.32300
H  54.44200 18.74400 28.53500
H  49.17600 16.59000 24.62600
H  46.19400 16.17200 24.40000
H  47.71700 19.11200 25.07800
H  46.67100 18.33300 24.05200
H  48.38100 18.54500 23.51500
H  47.45800 13.99900 25.67900
H  48.40200 14.46300 24.35100
H  45.60500 14.24600 23.48000
H  46.03600 12.79000 24.48200
H  47.06500 13.29400 23.10200
H  43.19300 12.53300 28.04700
H  42.75300 14.12800 27.33900
H  42.02900 13.65400 28.91000
H  44.53400 14.57800 33.31600
H  41.83100 17.17200 35.61300
H  43.57700 17.71300 35.79000
H  42.90200 16.41200 36.71800

