158

Mg 55.84300 24.38100 45.30400
C  52.91100 26.18800 44.33500
C  54.18600 21.45300 44.23600
C  58.71100 22.82200 45.55900
C  57.30400 27.44000 46.25500
N  53.79900 23.92000 44.28400
C  52.80700 24.79600 44.01200
C  51.62000 24.10200 43.42000
C  51.91400 22.61500 43.82700
C  53.44900 22.60600 44.17700
C  51.02000 22.12500 45.01200
C  51.37600 24.35100 41.89800
C  49.92400 24.58300 41.53500
H  49.70100 24.54600 40.00400
N  56.43900 22.48700 44.95900
C  55.62400 21.40900 44.57800
C  56.31100 20.23600 44.65900
C  57.59700 20.55000 45.13700
C  57.59100 21.99400 45.28800
C  55.68900 18.90200 44.23000
C  58.62300 19.43200 45.41600
O  58.29600 18.27100 45.21800
C  59.96300 19.68900 45.93000
N  57.77200 25.03000 45.78400
C  58.76900 24.18000 45.84100
C  60.06100 24.93100 46.23700
C  59.66000 26.38000 46.40700
C  58.18200 26.30700 46.06900
C  60.74600 24.35000 47.49700
C  60.37800 27.44500 45.48900
C  61.67600 28.08400 45.90900
N  55.25200 26.37200 45.35600
C  55.90200 27.45900 45.88400
C  55.01000 28.60000 45.81100
C  53.85300 28.19200 45.16600
C  54.06200 26.77400 44.98200
C  55.30200 29.95800 46.28900
C  52.51000 28.59800 44.72300
O  51.85300 29.67500 44.74500
C  51.83700 27.34500 44.09400
C  51.84000 27.79200 42.59500
O  52.87900 27.87600 41.91200
O  50.60100 28.00700 42.14200
C  50.64900 28.68500 40.81700
H  53.61000 20.55200 44.01400
H  59.66100 22.28400 45.54900
H  57.70700 28.39700 46.59300
H  50.70000 24.49300 43.85600
H  51.78900 21.99500 42.94000
H  50.17200 21.46800 44.81900
H  50.61700 22.96600 45.57600
H  51.68000 21.67300 45.75200
H  51.67900 23.43500 41.39100
H  52.09400 25.04400 41.45900
H  49.51200 25.47500 42.00700
H  49.34900 23.74600 41.92900
H  56.37700 18.47900 43.49700
H  54.81600 19.02600 43.58900
H  55.46500 18.29800 45.10900
H  60.66500 20.04600 45.17700
H  60.43100 18.82800 46.40800
H  59.99700 20.48900 46.67000
H  60.69800 24.85400 45.35600
H  59.71200 26.75900 47.42700
H  61.19700 23.41000 47.17900
H  60.00700 24.21400 48.28700
H  61.58900 24.92200 47.88500
H  59.67300 28.24800 45.27500
H  60.60000 26.93700 44.55100
H  61.59600 29.14300 45.66500
H  62.55900 27.72900 45.37700
H  61.79400 27.91100 46.97900
H  55.26200 30.61700 45.42300
H  56.27000 30.00300 46.78700
H  54.47700 30.42500 46.82700
H  50.81100 27.34000 44.46000
H  51.38700 29.47700 40.68700
H  49.70400 29.20200 40.65000
H  50.73100 28.10600 39.89700
Mg 49.23800 46.14900 43.84300
C  46.04300 46.60600 42.55500
C  49.56400 43.26900 41.98800
C  52.47800 46.36800 44.29300
C  48.92300 49.53400 45.21600
N  47.95800 45.06400 42.35700
C  46.71200 45.46000 42.00800
C  46.10800 44.45500 40.98400
C  47.07300 43.29400 41.16000
C  48.30300 43.91900 41.78000
C  46.69400 41.97900 41.91500
C  45.87400 45.09100 39.56200
C  44.50200 44.82700 38.94300
H  44.33500 43.77700 37.82800
N  50.77100 44.95900 43.29300
C  50.69300 43.78000 42.58200
C  51.93800 43.15800 42.55900
C  52.83600 43.98800 43.21400
C  52.02800 45.15100 43.66800
C  52.19600 41.77200 41.97100
C  54.25800 43.76700 43.44200
O  54.78500 42.77300 43.00900
C  55.10700 44.61100 44.24600
N  50.59600 47.88700 44.44700
C  51.91100 47.57900 44.68800
C  52.51600 48.66300 45.55700
C  51.40300 49.75000 45.79800
C  50.24500 49.01400 45.13700
C  53.25600 48.04900 46.74700
C  51.80000 51.13800 45.19400
C  52.89900 51.81500 46.02200
N  47.75000 47.72400 44.01900
C  47.76500 48.95700 44.66100
C  46.46000 49.47100 44.64300
C  45.74500 48.57900 43.81100
C  46.55500 47.59300 43.41700
C  45.91800 50.62500 45.39400
C  44.48600 48.31300 43.11400
O  43.44700 48.95500 43.06200
C  44.64900 47.04200 42.29800
C  43.63100 46.07000 42.80000
O  43.59600 45.45800 43.86200
O  42.68900 45.87400 41.84100
C  41.55500 44.95700 42.08200
H  49.60600 42.34900 41.40100
H  53.52300 46.41700 44.60800
H  48.82600 50.49000 45.73600
H  45.15400 44.05600 41.33000
H  47.44200 43.03900 40.16700
H  46.47100 41.20200 41.18300
H  45.81600 42.21600 42.51500
H  47.45800 41.69100 42.63700
H  46.63900 44.68200 38.90200
H  46.08100 46.15300 39.69800
H  44.23200 45.73100 38.39600
H  43.68400 44.72200 39.65500
H  53.12300 41.79800 41.39800
H  51.35400 41.41800 41.37600
H  52.32200 41.13500 42.84600
H  55.96300 43.99900 44.53000
H  54.62500 44.76600 45.21100
H  55.39700 45.54600 43.76600
H  53.31600 49.11500 44.97100
H  51.16500 49.99300 46.83300
H  52.98600 47.02100 46.99100
H  53.03100 48.62400 47.64500
H  54.31100 48.30200 46.64200
H  50.89100 51.74000 45.16200
H  52.17500 51.05800 44.17400
H  52.55100 52.53000 46.76700
H  53.53400 52.36300 45.32600
H  53.41300 50.92500 46.38300
H  46.53200 50.74300 46.28700
H  44.84400 50.57200 45.56900
H  46.12800 51.48700 44.76000
H  44.28800 47.29900 41.30200
H  40.91000 45.11400 41.21800
H  40.95200 45.24100 42.94500
H  41.87600 43.91700 42.12600

