158

Mg 48.77400 35.79700 27.98600
C  46.64500 34.39800 30.17500
C  49.17500 38.49200 30.00000
C  50.47300 37.39500 25.45200
C  48.22200 33.10300 25.72100
N  48.01700 36.28300 29.92400
C  47.19100 35.54600 30.67000
C  47.24900 36.02600 32.12900
C  47.54200 37.61400 31.81300
C  48.33900 37.49100 30.46200
C  46.28900 38.54100 31.64700
C  48.22700 35.18500 33.08300
C  49.49900 35.92500 33.56200
H  49.45000 36.47700 35.00000
N  49.59200 37.66300 27.70200
C  49.74200 38.60700 28.69100
C  50.50900 39.71100 28.21800
C  50.82100 39.50600 26.85000
C  50.27100 38.11600 26.59000
C  50.83400 40.96500 29.07600
C  51.55500 40.38600 25.84800
O  51.71500 40.06000 24.71400
C  52.11000 41.65300 26.35400
N  49.37700 35.27600 25.90200
C  49.99700 36.15900 25.14000
C  50.34700 35.48100 23.77200
C  49.63800 34.09300 23.90300
C  48.99300 34.09700 25.26600
C  49.83700 36.42900 22.60200
C  50.62400 32.93400 23.54100
C  50.83200 32.79100 22.01800
N  47.70700 34.09000 27.91600
C  47.60300 33.03100 26.98200
C  46.80100 31.95800 27.53200
C  46.28300 32.52200 28.70700
C  46.92100 33.77100 28.89300
C  46.57700 30.56500 26.99700
C  45.47400 32.19300 29.83000
O  44.89700 31.13900 30.10000
C  45.58500 33.45000 30.81500
C  45.90900 32.77500 32.07700
O  46.96800 32.21100 32.35900
O  44.84300 32.88100 32.93800
C  45.20700 32.87700 34.37500
H  49.42500 39.30700 30.68200
H  51.16900 37.76600 24.69600
H  47.89900 32.30300 25.05100
H  46.26800 35.84400 32.56900
H  48.14800 38.01300 32.62700
H  46.36900 39.32900 32.39700
H  45.38600 37.94000 31.74900
H  46.25000 38.96200 30.64200
H  48.53000 34.21500 32.68800
H  47.65700 35.01700 33.99700
H  49.91100 36.62600 32.83600
H  50.29700 35.20600 33.74700
H  51.88200 40.98700 29.37600
H  50.21500 41.16800 29.95000
H  50.55300 41.82700 28.47200
H  51.37400 42.44800 26.48300
H  52.74900 41.96200 25.52600
H  52.85800 41.70900 27.14400
H  51.43500 35.49600 23.70600
H  48.80200 34.04200 23.20500
H  49.05700 35.97500 21.99100
H  50.72700 36.48700 21.97500
H  49.42500 37.34300 23.02900
H  50.21600 32.05100 24.03200
H  51.56500 33.22700 24.00800
H  50.42300 33.60700 21.42200
H  50.57600 31.82100 21.59200
H  51.92200 32.79300 22.00800
H  47.13200 30.39700 26.07400
H  45.50800 30.46400 26.81300
H  46.87500 29.78600 27.70000
H  44.63500 33.98000 30.88600
H  46.22300 33.22600 34.55500
H  44.99000 31.92100 34.85200
H  44.62600 33.70100 34.78700
Mg 16.81500 51.74300 26.41900
C  18.82700 50.52200 29.03900
C  14.62200 52.79900 28.98100
C  14.59800 52.53700 23.97800
C  18.96500 50.44100 24.06700
N  16.67900 51.58700 28.77800
C  17.56400 50.92100 29.54900
C  17.10400 50.99400 31.01600
C  15.70100 51.53400 30.93400
C  15.62500 51.95100 29.48000
C  14.57000 50.52200 31.30300
C  18.02400 51.71300 32.02200
C  18.12500 51.19200 33.47800
H  17.36200 51.91100 34.49100
N  14.90400 52.54300 26.47900
C  14.28600 53.11400 27.61900
C  13.19700 53.93000 27.16100
C  13.12400 53.85000 25.73800
C  14.25100 52.95100 25.32800
C  12.41100 54.76600 28.12700
C  12.12200 54.54900 24.87500
O  12.29000 54.63100 23.64800
C  10.94000 55.33400 25.41800
N  16.69500 51.31200 24.39500
C  15.64900 51.76700 23.58100
C  16.03700 51.65200 22.13500
C  17.60800 51.25000 22.16800
C  17.76900 50.99700 23.63100
C  15.19100 50.61700 21.29100
C  18.70700 52.28900 21.70000
C  19.70300 51.71400 20.67000
N  18.59600 50.67900 26.43200
C  19.38000 50.28900 25.40000
C  20.57800 49.72000 25.98900
C  20.42800 49.68700 27.38100
C  19.13700 50.35400 27.62300
C  21.71800 49.06700 25.26200
C  20.98200 49.42800 28.61400
O  22.03500 48.92000 28.89900
C  20.03400 49.90000 29.79700
C  19.77800 48.86900 30.81500
O  19.09600 47.86200 30.68400
O  20.40900 49.11400 31.99500
C  20.23800 48.15000 33.14300
H  13.97800 53.23800 29.74700
H  14.07500 53.09800 23.20100
H  19.72400 50.10300 23.35800
H  17.00500 49.92600 31.21100
H  15.59800 52.39500 31.59400
H  13.99600 50.10400 30.47500
H  14.02200 50.87600 32.17600
H  15.04200 49.64400 31.74300
H  17.63500 52.73100 32.01900
H  19.00800 51.90200 31.59300
H  19.17200 51.19500 33.78300
H  17.82500 50.14400 33.51100
H  12.02300 55.72600 27.78700
H  13.00400 54.98300 29.01600
H  11.57300 54.17400 28.49400
H  10.09200 55.49700 24.75300
H  11.32600 56.31300 25.70000
H  10.47800 54.76700 26.22600
H  15.95700 52.65500 21.71600
H  17.73300 50.32200 21.60900
H  14.13700 50.83900 21.46000
H  15.45800 49.63200 21.67300
H  15.36300 50.75100 20.22300
H  19.24500 52.71700 22.54600
H  18.16900 53.03100 21.11100
H  19.89100 52.43600 19.87500
H  19.51900 50.69500 20.33200
H  20.57400 51.55900 21.30800
H  22.02700 49.86300 24.58300
H  21.36900 48.23800 24.64600
H  22.34000 48.84100 26.12800
H  20.59500 50.74500 30.19500
H  20.64300 48.63900 34.02900
H  20.84900 47.26100 32.98300
H  19.17500 47.93200 33.24900

