158

Mg 26.86800 49.73700 26.98300
C  24.79200 50.84400 29.50200
C  29.25300 48.94300 29.30800
C  29.01300 49.03600 24.39800
C  24.67400 51.24100 24.56700
N  27.02200 49.83500 29.13800
C  25.94200 50.13500 29.98100
C  26.23300 49.98600 31.51800
C  27.80200 49.52300 31.39400
C  28.05000 49.41600 29.88400
C  28.92800 50.43400 32.06900
C  25.27100 48.94400 32.08700
C  24.60700 49.45900 33.44600
H  24.43300 48.49800 34.60300
N  28.79200 48.90300 26.87900
C  29.60700 48.58400 27.95600
C  30.81700 48.07700 27.42700
C  30.81400 48.21600 26.02500
C  29.45100 48.66400 25.67100
C  31.94000 47.61000 28.34700
C  31.88100 47.94300 25.03900
O  31.75300 48.02600 23.81600
C  33.22700 47.56600 25.54900
N  26.85500 50.04700 24.79600
C  27.87000 49.67300 23.99600
C  27.44000 49.90100 22.46600
C  25.99700 50.47400 22.56600
C  25.81600 50.59400 24.07300
C  28.46200 50.64800 21.50900
C  24.85800 49.69200 21.83200
C  24.62900 48.28600 22.38400
N  25.14000 50.88700 27.02100
C  24.31500 51.45900 25.97200
C  23.22800 52.13900 26.51800
C  23.38400 51.91800 27.87600
C  24.44400 51.07500 28.12000
C  22.25600 52.95500 25.77300
C  22.81500 52.21700 29.18600
O  21.84300 52.90400 29.37800
C  23.63000 51.57300 30.28200
C  24.01200 52.56000 31.27500
O  24.93800 53.36200 31.19400
O  23.13600 52.47100 32.35600
C  23.37600 53.43400 33.43700
H  29.96700 48.64000 30.07700
H  29.58300 48.64900 23.55100
H  23.93700 51.62000 23.85700
H  26.18900 50.96500 31.99600
H  27.96800 48.58500 31.92300
H  29.55800 50.92300 31.32700
H  29.56400 49.77700 32.66200
H  28.40800 51.14500 32.71200
H  25.78900 48.06200 32.46500
H  24.54500 48.68500 31.31600
H  23.64500 49.91600 33.21100
H  25.19700 50.27900 33.85500
H  32.90200 48.08700 28.16000
H  32.14700 46.54200 28.27700
H  31.61700 47.73100 29.38100
H  33.99900 47.41100 24.79500
H  33.07300 46.63100 26.08700
H  33.56300 48.30900 26.27200
H  27.40600 48.92400 21.98200
H  26.00600 51.53300 22.30600
H  28.04100 51.38400 20.82400
H  28.91300 49.94800 20.80600
H  29.23500 51.20500 22.03800
H  25.06000 49.54500 20.77100
H  23.96300 50.30700 21.92900
H  25.33600 48.05900 23.18200
H  24.73800 47.46100 21.68100
H  23.61600 48.24700 22.78500
H  21.32800 52.40800 25.94100
H  22.38200 53.07400 24.69700
H  22.18700 53.91600 26.28300
H  22.95600 50.80700 30.66400
H  23.47000 54.48800 33.17400
H  24.30300 53.06500 33.87700
H  22.57400 53.37400 34.17300
Mg 17.45600 51.67600 26.43700
C  19.20100 50.32800 29.15800
C  14.86800 52.61200 28.62400
C  15.59500 52.57500 23.77900
C  19.86100 50.38800 24.33000
N  17.15000 51.49800 28.63100
C  18.03600 51.04000 29.53500
C  17.58800 51.36500 30.99200
C  16.05400 51.71500 30.76800
C  15.98600 51.93700 29.23300
C  15.10900 50.63500 31.15200
C  18.46400 52.44600 31.65300
C  19.06800 52.06500 33.05400
H  18.17400 51.26200 33.99500
N  15.52200 52.52700 26.22200
C  14.59100 52.79700 27.21600
C  13.42700 53.42100 26.60200
C  13.52300 53.28600 25.18600
C  14.88400 52.72200 24.99600
C  12.30200 54.04500 27.43200
C  12.60100 53.86200 24.06000
O  12.84000 53.73600 22.86200
C  11.29300 54.61700 24.46100
N  17.65600 51.41300 24.31200
C  16.82500 52.04400 23.47900
C  17.42500 52.14000 22.13000
C  18.92200 51.73800 22.34500
C  18.87400 51.22600 23.75900
C  16.61900 51.15300 21.12700
C  19.97400 52.90300 22.27200
C  21.09100 52.57500 21.33400
N  19.14700 50.59200 26.67600
C  20.00900 50.09400 25.75000
C  21.08700 49.31500 26.39100
C  20.81700 49.49500 27.75700
C  19.61500 50.17300 27.84000
C  22.08100 48.42700 25.76100
C  21.37800 49.17400 29.05000
O  22.43400 48.61200 29.37600
C  20.30600 49.68000 30.03300
C  19.75700 48.50900 30.81600
O  19.16200 47.57900 30.34800
O  20.12300 48.73900 32.12400
C  19.93400 47.59000 33.01800
H  14.08000 52.83600 29.34600
H  15.18900 53.02800 22.87200
H  20.63600 50.03400 23.64600
H  17.68200 50.48700 31.63100
H  15.82200 52.61800 31.33200
H  14.59800 50.21900 30.28400
H  14.29500 50.91800 31.81900
H  15.58300 49.81000 31.68300
H  17.96800 53.40700 31.79000
H  19.30400 52.72300 31.01600
H  19.30200 52.96600 33.62100
H  20.01000 51.51700 33.02900
H  11.83900 54.94500 27.02600
H  12.61300 54.06400 28.47700
H  11.62800 53.21600 27.64900
H  10.53500 54.74300 23.68800
H  11.54800 55.57400 24.91700
H  10.77300 53.97300 25.17000
H  17.23800 53.18700 21.89000
H  19.16500 50.98600 21.59500
H  15.63100 50.84700 21.47000
H  17.15800 50.22000 20.96700
H  16.51700 51.66500 20.17100
H  20.29600 53.28900 23.23900
H  19.36900 53.68700 21.81700
H  21.97900 52.98200 21.81700
H  21.00400 52.87600 20.29000
H  21.31400 51.50800 21.32800
H  23.02300 48.97300 25.71700
H  21.92700 47.91300 24.81300
H  22.20200 47.56400 26.41600
H  20.74600 50.48100 30.62700
H  19.31100 47.97000 33.82800
H  20.83000 47.18000 33.48300
H  19.35500 46.78500 32.56500

