158

Mg -0.46600 6.98600 24.44600
C  0.54600 9.03700 27.17500
C  0.19800 4.30200 26.31200
C  -1.29000 5.20500 21.75200
C  -0.43000 9.86400 22.45700
N  0.54700 6.77400 26.41400
C  0.54800 7.69900 27.42900
C  0.55800 6.99900 28.87900
C  0.43200 5.53600 28.51000
C  0.41200 5.54200 26.96100
C  1.46400 4.50700 28.99000
C  -0.63100 7.39500 29.76100
C  -0.25300 7.79800 31.23200
H  1.08400 7.32000 31.76100
N  -0.54800 4.92900 24.09400
C  -0.21800 4.03100 24.98200
C  -0.47500 2.71300 24.37300
C  -0.96100 2.91700 23.03900
C  -0.97500 4.41800 22.89100
C  -0.13900 1.44400 25.17400
C  -1.23200 1.89100 21.94700
O  -1.62800 2.18600 20.82500
C  -0.89000 0.40600 22.13000
N  -0.81800 7.44000 22.45700
C  -1.18600 6.57400 21.49600
C  -1.35900 7.11200 20.13400
C  -1.26900 8.63400 20.43400
C  -0.75900 8.70600 21.90400
C  -0.31000 6.61700 19.11400
C  -2.57400 9.29200 20.37000
C  -2.66900 10.34100 19.19900
N  -0.03500 8.99600 24.66700
C  -0.02700 10.05800 23.78000
C  0.33300 11.33600 24.38600
C  0.46100 10.96900 25.72500
C  0.32100 9.56700 25.89500
C  0.41800 12.73000 23.79500
C  0.69200 11.49600 27.06400
O  0.90100 12.65700 27.42300
C  0.70600 10.23500 28.09800
C  2.05500 10.36300 28.80500
O  3.17900 10.23400 28.35200
O  1.79000 10.92000 30.07800
C  2.82200 11.22300 31.03200
H  0.24100 3.43000 26.96700
H  -1.50400 4.53700 20.91500
H  -0.52100 10.82800 21.95200
H  1.49100 7.36200 29.30900
H  -0.48400 5.06800 28.87100
H  2.14700 4.98200 29.69400
H  2.11700 4.28600 28.14600
H  1.01000 3.61700 29.42600
H  -1.40200 6.62700 29.81700
H  -1.15900 8.20100 29.25100
H  -1.04400 7.34900 31.83200
H  -0.42400 8.86600 31.36700
H  -0.42000 1.48300 26.22700
H  0.92900 1.22500 25.20200
H  -0.66400 0.62400 24.68400
H  -1.69900 -0.03900 22.70900
H  0.12700 0.47300 22.51700
H  -0.84600 -0.13300 21.18400
H  -2.29900 6.68400 19.78700
H  -0.50200 9.17900 19.88300
H  0.66500 6.34100 19.51600
H  -0.15700 7.50600 18.50200
H  -0.69400 5.78500 18.52500
H  -2.82600 9.78100 21.31100
H  -3.34300 8.54600 20.16800
H  -3.44200 10.05000 18.48700
H  -1.73300 10.44400 18.65000
H  -2.94500 11.29900 19.63900
H  -0.23200 12.90000 22.93700
H  1.44300 12.89800 23.46500
H  0.08400 13.46400 24.52800
H  -0.03300 10.44500 28.87100
H  3.04000 12.28900 30.96300
H  3.72300 10.62500 30.89100
H  2.38300 11.04500 32.01300
Mg 47.41600 25.79300 29.30800
C  48.29300 28.10500 31.95700
C  46.24500 23.76800 31.77900
C  46.96100 23.55100 27.06300
C  48.94600 27.92600 27.12100
N  47.21300 26.03500 31.72500
C  47.68600 26.97000 32.52100
C  47.47500 26.61800 33.97200
C  46.90200 25.15300 33.82400
C  46.82000 24.89900 32.37000
C  47.67700 23.96200 34.62300
C  46.31800 27.59800 34.50100
C  46.10800 27.80300 35.97600
H  46.72400 26.99700 37.10500
N  46.57200 23.94300 29.38400
C  46.07000 23.32400 30.46700
C  45.41500 22.11100 30.10100
C  45.53600 22.05200 28.65700
C  46.36300 23.20500 28.31000
C  44.72500 21.06400 31.07700
C  45.08500 20.99600 27.63200
O  45.41100 21.02700 26.43000
C  44.22600 19.89800 28.00200
N  48.12600 25.62000 27.40700
C  47.77200 24.59600 26.63700
C  48.34500 24.77100 25.24200
C  48.76300 26.25900 25.18200
C  48.53900 26.69200 26.65500
C  49.54700 23.81900 24.86200
C  48.02300 27.15700 24.15600
C  48.80700 28.19600 23.43100
N  48.28200 27.77000 29.44700
C  48.97000 28.46500 28.40600
C  49.50000 29.71600 28.90600
C  49.25500 29.62600 30.35900
C  48.51300 28.39700 30.58500
C  50.11200 30.78000 28.16500
C  49.51300 30.21300 31.62700
O  50.14000 31.20100 31.91300
C  48.89500 29.29200 32.68500
C  49.95600 28.93500 33.71500
O  51.06200 28.62800 33.46300
O  49.46200 29.09900 34.99600
C  50.44500 28.94800 36.06700
H  45.69800 23.27600 32.58700
H  46.64800 23.02600 26.15800
H  49.39900 28.57400 26.36900
H  48.35900 26.66800 34.60900
H  45.86700 25.08700 34.16100
H  48.26500 23.35800 33.93200
H  47.00600 23.23400 35.08000
H  48.28000 24.40600 35.41500
H  45.38000 27.20100 34.11300
H  46.44000 28.52200 33.93600
H  45.02300 27.69800 35.97500
H  46.18400 28.86800 36.19900
H  44.79600 21.49400 32.07500
H  45.20300 20.08400 31.06800
H  43.70100 20.83900 30.77600
H  44.65300 19.30900 28.81200
H  44.04800 19.18300 27.19800
H  43.25200 20.28400 28.30500
H  47.46600 24.54000 24.63900
H  49.81900 26.40500 24.95400
H  50.40500 24.32300 24.41900
H  49.18100 23.07600 24.15400
H  49.98900 23.36800 25.75100
H  47.29400 27.69200 24.76600
H  47.47100 26.58100 23.41300
H  48.43800 28.28400 22.40900
H  49.88700 28.04700 23.44900
H  48.82500 29.16400 23.93300
H  49.39500 31.58800 28.01800
H  50.39400 30.51700 27.14500
H  50.93100 31.12700 28.79400
H  48.11600 29.85500 33.19800
H  51.19800 29.72000 35.90700
H  50.76800 27.90800 36.03500
H  49.89500 29.21700 36.96900

