158

Mg 24.18800 -5.09300 45.72200
C  26.07300 -2.41900 44.57500
C  21.63400 -3.97600 43.74100
C  22.71900 -8.12700 46.03800
C  27.16500 -6.48300 47.09000
N  23.88700 -3.41800 44.38700
C  24.75000 -2.36100 44.14000
C  24.10500 -1.36800 43.21800
C  22.58300 -1.70600 43.28400
C  22.68300 -3.15700 43.79400
C  21.80100 -0.88100 44.20100
C  24.76800 -1.18700 41.76800
C  25.22400 -2.44400 41.11400
H  26.02900 -2.29800 39.71000
N  22.33800 -5.95200 45.04000
C  21.44400 -5.28700 44.27000
C  20.36600 -6.13500 44.07000
C  20.51600 -7.30200 44.90600
C  21.91100 -7.18900 45.38600
C  19.21600 -5.61200 43.27100
C  19.48900 -8.50000 45.06500
O  18.44400 -8.51700 44.44700
C  19.82100 -9.57500 46.04100
N  24.87400 -7.05300 46.37400
C  23.99700 -8.11600 46.46700
C  24.57500 -9.22700 47.32900
C  25.95200 -8.64300 47.80500
C  26.01200 -7.29600 47.07200
C  23.66900 -9.66500 48.55500
C  27.08100 -9.54500 47.26400
C  28.51500 -9.46000 47.95500
N  26.13700 -4.52800 45.98400
C  27.18900 -5.18900 46.55300
C  28.32900 -4.33800 46.50900
C  27.94600 -3.26000 45.77200
C  26.58500 -3.38100 45.43600
C  29.72200 -4.60500 46.98100
C  28.43400 -2.01100 45.15600
O  29.45600 -1.36600 45.25200
C  27.22700 -1.54800 44.23600
C  27.08000 -0.03800 44.34200
O  26.43200 0.59100 45.16100
O  27.89100 0.53100 43.37100
C  27.86900 1.98800 43.29800
H  20.77800 -3.69800 43.12300
H  22.27500 -9.12000 46.13200
H  28.02300 -6.90500 47.61800
H  24.26400 -0.37400 43.63500
H  22.20700 -1.58800 42.26700
H  22.26000 -0.90900 45.19000
H  20.85400 -1.41800 44.24900
H  21.69100 0.18900 44.02400
H  25.61400 -0.50400 41.68800
H  23.87800 -0.93600 41.19200
H  24.33000 -3.05200 40.97800
H  25.83800 -3.01900 41.80700
H  18.87500 -4.69900 43.75900
H  18.31600 -6.22600 43.24000
H  19.57600 -5.60100 42.24300
H  19.02000 -10.09000 46.57200
H  20.38300 -9.07700 46.83100
H  20.29300 -10.34500 45.43100
H  24.69000 -10.02100 46.59100
H  26.07000 -8.45800 48.87300
H  22.88300 -8.95000 48.80000
H  24.25100 -9.83200 49.46100
H  23.14100 -10.57600 48.27600
H  27.14600 -9.21800 46.22700
H  26.88600 -10.61800 47.25400
H  29.19800 -9.05300 47.20900
H  28.93200 -10.37500 48.37600
H  28.44200 -8.66600 48.69800
H  29.77200 -4.24400 48.00800
H  30.42100 -4.00900 46.39400
H  29.81500 -5.68900 46.90700
H  27.56200 -1.68400 43.20800
H  26.90000 2.45900 43.45800
H  28.23600 2.37500 42.34700
H  28.57200 2.20900 44.10100
Mg 0.90000 42.91000 26.30300
C  2.77300 43.29300 29.39000
C  -1.78900 41.98800 28.25700
C  -0.72800 42.43600 23.49900
C  3.75600 43.62400 24.53700
N  0.65000 42.59600 28.60400
C  1.48500 42.79400 29.67200
C  0.74400 42.86000 30.97400
C  -0.74200 42.24700 30.59300
C  -0.61100 42.27900 29.02800
C  -0.92300 40.78900 31.18500
C  0.72200 44.19900 31.72100
C  1.05000 44.20000 33.21400
H  0.64300 43.00600 34.05700
N  -1.01900 42.38700 25.92600
C  -2.02100 41.94000 26.86400
C  -3.08200 41.37200 26.17500
C  -2.84500 41.47600 24.75100
C  -1.46600 42.13100 24.63100
C  -4.27300 40.73800 26.90000
C  -3.81700 41.18300 23.58900
O  -3.45000 41.33400 22.42600
C  -5.20200 40.56700 23.73600
N  1.49000 43.00200 24.22600
C  0.59400 42.90500 23.24400
C  1.21500 43.11100 21.85500
C  2.60100 43.65900 22.20100
C  2.63200 43.52200 23.78900
C  1.20900 41.75300 21.03300
C  2.95000 45.06800 21.63400
C  3.92200 45.15100 20.39000
N  2.85900 43.33300 26.79700
C  3.93900 43.57300 25.96800
C  5.14200 43.84300 26.71300
C  4.71200 43.71600 28.07400
C  3.28600 43.44500 28.02300
C  6.50400 44.33400 26.15400
C  5.16700 43.76600 29.43300
O  6.31400 43.98600 29.90100
C  3.92800 43.41600 30.28200
C  4.18800 42.21600 31.04700
O  4.03100 41.04500 30.61700
O  4.65900 42.63900 32.32200
C  4.70500 41.59600 33.33500
H  -2.58600 41.58900 28.88900
H  -1.20500 42.22400 22.54000
H  4.65400 43.90700 23.98400
H  1.23300 42.16900 31.66200
H  -1.49800 42.92100 30.99600
H  -1.67100 40.95500 31.96000
H  0.05700 40.54200 31.59500
H  -1.27700 40.04700 30.47000
H  -0.23700 44.71100 31.64800
H  1.52700 44.82400 31.33400
H  0.40900 44.98800 33.60900
H  2.12400 44.36400 33.29500
H  -5.19200 40.72100 26.31500
H  -4.31600 40.92000 27.97400
H  -3.99000 39.68800 26.82400
H  -5.06500 39.61600 24.25200
H  -5.68800 40.29200 22.79900
H  -5.91500 41.10600 24.35900
H  0.57800 43.85300 21.37400
H  3.43000 43.05700 21.82900
H  0.44800 41.66000 20.25900
H  1.12400 40.85800 21.64900
H  2.22300 41.57400 20.67600
H  3.33200 45.67700 22.45400
H  2.01400 45.53900 21.33400
H  3.42200 45.55600 19.51000
H  4.52900 44.27800 20.14900
H  4.60500 45.99600 20.47000
H  6.33100 44.91200 25.24600
H  7.01400 43.44100 25.79200
H  7.08200 44.73000 26.98900
H  3.69100 44.26000 30.93000
H  5.72400 41.21800 33.25400
H  4.16200 40.68300 33.09200
H  4.46100 41.96900 34.33000

