158

Mg 35.31300 2.96200 30.77400
C  32.65600 3.97300 32.79100
C  37.35100 3.07000 33.35200
C  37.88000 2.14500 28.61100
C  33.22400 3.23000 27.99000
N  34.98000 3.46400 32.88500
C  33.84100 3.79700 33.53500
C  34.04000 3.87200 35.04300
C  35.61600 3.89900 35.12900
C  36.03500 3.43300 33.71900
C  36.23700 5.25100 35.57300
C  33.24700 2.69300 35.75600
C  33.65900 2.26400 37.16400
H  34.28100 3.37400 38.12800
N  37.30400 2.58200 31.00700
C  37.99200 2.63400 32.13500
C  39.38800 2.28100 31.90700
C  39.56800 2.21600 30.52900
C  38.22200 2.31500 29.98700
C  40.29900 2.09300 33.14600
C  40.85000 1.93800 29.75400
O  40.91500 1.84600 28.51000
C  42.20100 1.65500 30.57600
N  35.56900 2.90200 28.55800
C  36.71100 2.50900 27.93700
C  36.41300 2.15100 26.43800
C  34.88200 2.30800 26.35600
C  34.48600 2.85800 27.69400
C  37.28300 3.06200 25.47600
C  34.10300 1.01300 25.94700
C  33.65800 0.87900 24.49500
N  33.41200 3.58500 30.42000
C  32.67700 3.64500 29.21800
C  31.30000 4.00800 29.49500
C  31.22100 4.09000 30.89000
C  32.57700 3.83500 31.40700
C  30.18200 4.11000 28.55100
C  30.35900 4.41500 32.04100
O  29.17900 4.65700 32.10200
C  31.28200 4.40400 33.34400
C  31.25900 5.70000 34.09400
O  31.67700 6.75800 33.65800
O  30.80800 5.47400 35.36700
C  30.59100 6.65100 36.19800
H  38.01200 3.22000 34.20800
H  38.64000 1.66900 27.98700
H  32.58300 3.10200 27.11600
H  33.63300 4.80500 35.43200
H  36.01900 3.37600 35.99600
H  35.61800 6.11100 35.31600
H  37.13400 5.41400 34.97500
H  36.41700 5.27700 36.64700
H  33.44500 1.83900 35.10800
H  32.18000 2.87500 35.88100
H  34.21300 1.32500 37.16600
H  32.73600 1.94800 37.65000
H  41.37300 2.24300 33.03200
H  40.20800 1.04300 33.42400
H  40.00600 2.76100 33.95500
H  42.95700 1.50400 29.80500
H  42.31400 0.79000 31.23000
H  42.48000 2.56300 31.10900
H  36.72300 1.11900 26.26900
H  34.73200 3.11200 25.63600
H  37.37500 4.09800 25.80400
H  36.72400 3.18900 24.54800
H  38.26100 2.60800 25.32000
H  33.25000 1.21400 26.59600
H  34.58800 0.12400 26.34900
H  33.89000 -0.16400 24.28100
H  34.17800 1.66200 23.94300
H  32.58300 1.06000 24.51100
H  29.26600 3.85400 29.08400
H  30.29500 3.51800 27.64300
H  30.14500 5.15400 28.24100
H  30.92500 3.58100 33.96200
H  30.22900 7.52900 35.66300
H  31.51100 7.03000 36.64100
H  29.80800 6.50100 36.94200
Mg 1.02600 43.83200 26.04500
C  2.73800 43.75100 29.10900
C  -1.83000 42.94300 27.84900
C  -0.43100 43.17300 23.22800
C  4.08900 44.04500 24.47700
N  0.42100 43.53800 28.33900
C  1.30900 43.58900 29.36500
C  0.65100 43.30000 30.75900
C  -0.78300 42.90100 30.29600
C  -0.80400 43.20900 28.72900
C  -1.22200 41.42200 30.64000
C  0.68000 44.55200 31.68300
C  1.25800 44.22700 33.05000
H  0.75000 43.07600 33.82900
N  -0.87200 43.15700 25.61800
C  -1.93900 42.98400 26.44100
C  -3.16900 42.74900 25.69700
C  -2.80400 42.81900 24.35200
C  -1.35000 42.99000 24.35600
C  -4.57700 42.65100 26.38500
C  -3.79100 42.66600 23.13700
O  -3.37900 42.51700 22.00700
C  -5.29200 42.58000 23.36300
N  1.73300 43.60800 24.16500
C  0.92600 43.36200 23.14400
C  1.79800 43.22600 21.82300
C  3.14100 43.82400 22.18500
C  2.97700 43.81200 23.75800
C  1.72500 41.74600 21.42100
C  3.43400 45.19000 21.58900
C  3.06800 46.45800 22.34200
N  3.03800 44.01900 26.58200
C  4.18700 44.08800 25.83100
C  5.35100 43.96500 26.68100
C  4.78500 43.89400 27.97600
C  3.40300 43.91300 27.83400
C  6.82600 44.06800 26.19300
C  5.17000 43.81700 29.38000
O  6.27100 43.86300 29.94600
C  3.89300 43.66700 30.17900
C  3.95000 42.38800 30.83400
O  3.61200 41.32800 30.27700
O  4.61700 42.49100 32.08200
C  4.78900 41.08200 32.67200
H  -2.64300 42.49400 28.42400
H  -0.96600 43.02000 22.28800
H  5.00900 44.12300 23.89400
H  1.20300 42.46400 31.18900
H  -1.58400 43.49500 30.73600
H  -1.44800 40.95800 29.68000
H  -2.00800 41.43800 31.39500
H  -0.33100 40.92400 31.02300
H  -0.36900 44.81400 31.81800
H  1.24400 45.34900 31.19900
H  1.23000 45.16300 33.60800
H  2.29100 44.01700 32.77300
H  -4.27400 42.60700 27.43100
H  -5.05700 41.71300 26.10600
H  -5.13900 43.53400 26.08100
H  -5.74000 42.51200 22.37100
H  -5.68300 43.47900 23.84000
H  -5.50600 41.62200 23.83500
H  1.35200 43.68800 20.94300
H  3.90900 43.20600 21.72100
H  1.07700 41.48700 20.58300
H  1.31800 41.02900 22.13400
H  2.75400 41.46000 21.19900
H  3.09200 45.27900 20.55800
H  4.50200 45.18800 21.37500
H  3.77500 46.67600 23.14300
H  2.19200 46.31500 22.97600
H  2.97000 47.31900 21.68100
H  6.97000 44.95500 25.57700
H  7.01300 43.15000 25.63500
H  7.52600 44.17900 27.02100
H  3.82700 44.41400 30.97000
H  5.38500 41.21800 33.57400
H  5.45100 40.59900 31.95400
H  3.84600 40.63600 32.99100

