158

Mg 26.58700 52.26400 25.80100
C  24.00100 53.04000 28.19800
C  28.58400 51.66100 28.40900
C  29.07800 51.82700 23.59800
C  24.47100 53.45600 23.33600
N  26.32400 52.54500 28.12600
C  25.16300 52.73300 28.83800
C  25.41500 52.35900 30.35100
C  26.93900 51.97400 30.32000
C  27.34100 52.05100 28.85100
C  27.92900 52.78700 31.31300
C  24.50100 51.20200 30.83200
C  23.56800 51.55500 32.02300
H  23.62500 50.62100 33.25400
N  28.60300 51.70700 26.00100
C  29.22000 51.53500 27.17500
C  30.52200 51.05000 26.94600
C  30.73300 51.08600 25.49000
C  29.49800 51.52500 24.96200
C  31.42700 50.46500 27.99700
C  31.84800 50.54100 24.66200
O  31.83800 50.60300 23.43900
C  32.92900 49.73500 25.30900
N  26.75500 52.52200 23.78600
C  27.93000 52.29500 23.12300
C  27.74800 52.67000 21.66700
C  26.27400 53.21300 21.52600
C  25.78300 53.04600 22.92000
C  28.92000 53.50800 21.07100
C  25.41400 52.66600 20.35200
C  25.30700 53.43200 19.00500
N  24.58900 53.04200 25.77800
C  23.86700 53.42200 24.66200
C  22.48600 53.75700 25.01600
C  22.49600 53.60400 26.42900
C  23.76600 53.19800 26.78200
C  21.34300 54.09700 24.08400
C  21.73100 53.68100 27.68400
O  20.57900 53.92900 27.87700
C  22.65500 53.42800 28.83400
C  22.78600 54.78800 29.47400
O  23.03000 55.82300 28.91000
O  22.69600 54.68900 30.80800
C  22.60000 55.97600 31.51500
H  29.33000 51.32800 29.13300
H  29.81000 51.65200 22.80700
H  23.76200 53.68800 22.53900
H  25.34800 53.18800 31.05500
H  27.02700 50.94600 30.67100
H  28.85500 53.09500 30.82900
H  28.34500 52.05900 32.00900
H  27.48200 53.50300 32.00300
H  25.08800 50.32100 31.09400
H  23.80200 51.02400 30.01600
H  22.49400 51.55500 31.83500
H  23.88000 52.52700 32.40400
H  31.37700 49.40200 27.76000
H  31.14000 50.64900 29.03200
H  32.45500 50.80200 27.86700
H  32.54000 48.90700 25.90200
H  33.50900 50.32700 26.01700
H  33.55100 49.28100 24.53800
H  27.77000 51.73000 21.11600
H  26.23900 54.28900 21.36000
H  29.57200 54.04400 21.76000
H  28.52200 54.25200 20.38100
H  29.56600 52.85000 20.49000
H  24.38900 52.41400 20.62700
H  25.88000 51.74600 20.00000
H  24.33800 53.27300 18.53200
H  25.96000 53.20400 18.16300
H  25.54800 54.47800 19.19400
H  20.40900 54.01700 24.64100
H  21.29200 53.27400 23.37200
H  21.49100 55.04200 23.56100
H  22.26900 52.67300 29.51800
H  23.59900 56.32000 31.78200
H  22.01400 55.68400 32.38700
H  22.04200 56.77800 31.03300
Mg -9.66500 18.14900 42.74100
C  -6.25200 17.28000 42.69400
C  -8.81100 21.33900 41.85200
C  -12.92800 18.78600 42.52200
C  -10.26700 14.66600 43.05400
N  -7.62900 19.15400 42.25700
C  -6.39000 18.63100 42.48600
C  -5.38700 19.70600 42.29000
C  -6.25700 20.99900 42.10000
C  -7.69000 20.51700 42.09900
C  -6.01200 22.22700 42.99700
C  -4.24200 19.44700 41.24400
C  -4.69100 18.69000 39.95100
H  -4.10000 19.16400 38.60400
N  -10.73000 19.89800 42.27400
C  -10.20000 21.09500 41.96000
C  -11.27000 22.04900 41.74700
C  -12.50300 21.33600 41.91500
C  -12.08200 19.93600 42.25600
C  -11.05700 23.40000 41.21100
C  -13.89600 21.84100 41.68100
O  -14.11800 23.06000 41.56100
C  -15.02600 20.94000 41.55600
N  -11.33000 16.89000 42.37900
C  -12.55900 17.40200 42.61000
C  -13.64600 16.31000 42.95200
C  -12.72200 15.02000 42.92500
C  -11.33900 15.52000 42.74800
C  -14.32500 16.54100 44.33200
C  -12.99000 14.03400 41.72500
C  -13.80100 12.72900 42.12500
N  -8.51200 16.23900 42.96600
C  -8.90700 14.98600 43.03000
C  -7.83300 14.08300 43.19800
C  -6.72600 14.95400 43.13300
C  -7.18800 16.25400 42.85500
C  -7.90100 12.55500 43.29300
C  -5.29600 15.00200 43.14200
O  -4.44600 14.13900 43.17800
C  -4.90900 16.47000 42.88200
C  -4.07900 16.95600 43.95000
O  -2.91700 17.19800 43.88300
O  -4.85500 17.26900 45.05800
C  -4.20500 18.04600 46.11000
H  -8.48200 22.33600 41.55200
H  -14.00200 18.81200 42.71800
H  -10.58900 13.65400 43.30500
H  -4.95500 19.79400 43.28700
H  -6.06200 21.29300 41.06900
H  -6.94000 22.67200 43.35700
H  -5.74500 23.01700 42.29600
H  -5.31000 22.08400 43.81800
H  -3.42200 18.88600 41.69400
H  -3.73800 20.38500 41.01200
H  -5.76400 18.87400 39.91800
H  -4.51400 17.61700 40.02400
H  -10.99300 24.09200 42.05000
H  -11.87700 23.75400 40.58600
H  -10.19300 23.53900 40.56100
H  -14.86400 20.09100 40.89200
H  -15.89600 21.42700 41.11700
H  -15.27900 20.70700 42.59100
H  -14.48400 16.35000 42.25600
H  -12.84500 14.45700 43.85100
H  -14.04700 15.81300 45.09300
H  -15.41200 16.54800 44.25600
H  -14.21600 17.53100 44.77600
H  -12.10400 13.78700 41.13900
H  -13.70800 14.60100 41.13200
H  -14.73500 12.79100 41.56700
H  -14.12100 12.72700 43.16700
H  -13.15900 11.85800 41.99500
H  -7.37900 12.14200 42.43000
H  -8.94000 12.22900 43.34900
H  -7.49400 12.23200 44.25100
H  -4.39200 16.53100 41.92400
H  -3.19400 18.32400 45.81100
H  -4.09400 17.51300 47.05400
H  -4.68700 19.00900 46.28200

