158

Mg 35.25700 2.68100 30.09900
C  33.19200 4.21100 32.48000
C  37.88400 2.72400 32.30200
C  37.31600 1.78700 27.57000
C  32.64200 2.91000 27.77700
N  35.53200 3.43500 32.10200
C  34.52900 3.91400 32.94300
C  34.97300 4.00900 34.43600
C  36.53200 3.89500 34.17400
C  36.71000 3.33100 32.75600
C  37.50000 5.05300 34.50300
C  34.29000 2.80000 35.21800
C  33.84900 3.12100 36.60300
H  34.56700 4.17800 37.46200
N  37.30400 2.19500 30.02300
C  38.12500 2.20300 31.05000
C  39.43800 1.85400 30.54800
C  39.36000 1.51300 29.15300
C  37.94300 1.80200 28.86000
C  40.72100 1.78600 31.43100
C  40.50000 0.97300 28.23100
O  40.22000 0.53700 27.06900
C  41.92700 0.90800 28.70600
N  34.99700 2.53200 27.99800
C  35.98000 1.99400 27.21200
C  35.54200 1.94700 25.75500
C  33.97200 2.00300 25.85800
C  33.84700 2.47700 27.29300
C  36.25400 2.97700 24.80100
C  33.26400 0.62300 25.50600
C  32.45300 0.64400 24.13700
N  33.37000 3.48700 30.07300
C  32.36100 3.39600 29.11200
C  31.10200 3.88200 29.60800
C  31.36300 4.15900 30.97700
C  32.71500 3.95300 31.19100
C  29.83200 3.97800 28.92300
C  30.76500 4.60200 32.19500
O  29.60200 4.95600 32.43600
C  31.92500 4.61000 33.23900
C  31.98600 5.75600 34.15300
O  32.78900 6.65900 34.09900
O  31.20500 5.41800 35.26000
C  31.41800 6.54000 36.23200
H  38.64700 2.67100 33.08200
H  38.04300 1.49500 26.80900
H  31.77400 2.69600 27.15000
H  34.70500 4.94600 34.92400
H  36.83100 3.05100 34.79500
H  37.09300 5.95100 34.96800
H  37.97900 5.40900 33.59100
H  38.26400 4.69800 35.19400
H  34.96000 1.94300 35.16300
H  33.54400 2.43300 34.51300
H  33.94200 2.17400 37.13400
H  32.77700 3.31800 36.62100
H  40.60700 2.53800 32.21200
H  41.64200 2.23100 31.05400
H  40.90100 0.81500 31.89200
H  41.99200 0.16800 29.50300
H  42.22700 1.90400 29.03300
H  42.52500 0.76700 27.80500
H  35.80400 0.96300 25.36600
H  33.67400 2.76900 25.14100
H  37.03400 3.48800 25.36400
H  35.52700 3.67200 24.38100
H  36.76700 2.46600 23.98600
H  32.61600 0.30400 26.32300
H  34.02200 -0.12300 25.26800
H  31.36900 0.60600 24.23900
H  32.88500 -0.05100 23.41700
H  32.61900 1.58100 23.60500
H  29.19100 3.24800 29.41700
H  29.89900 3.91300 27.83700
H  29.50600 5.00000 29.11200
H  31.76900 3.76100 33.90400
H  30.95200 7.40700 35.76400
H  32.47100 6.74900 36.41800
H  30.90000 6.38800 37.17900
Mg 54.22400 24.66100 45.18400
C  51.74000 26.80300 43.86900
C  52.37900 21.98000 44.28100
C  57.02100 22.80000 45.38300
C  56.09900 27.51200 45.91600
N  52.29600 24.51700 44.14800
C  51.39500 25.45500 43.77300
C  50.10500 24.83000 43.27500
C  50.25500 23.40800 43.83300
C  51.73100 23.23900 44.14100
C  49.29900 22.97700 45.10200
C  49.94400 24.90500 41.74500
C  48.53600 24.83300 41.11800
H  48.34200 24.61300 39.61100
N  54.70600 22.64000 44.73700
C  53.75400 21.71800 44.48300
C  54.39200 20.38600 44.44300
C  55.72000 20.55000 44.90500
C  55.91600 22.02100 45.00300
C  53.68900 19.16300 43.99500
C  56.75800 19.46600 45.24800
O  56.31800 18.32400 45.43400
C  58.13700 19.61700 45.56300
N  56.19800 25.09400 45.51900
C  57.19900 24.13200 45.63500
C  58.59700 24.73500 45.94000
C  58.27200 26.16500 46.26800
C  56.79600 26.30100 45.77600
C  59.45700 23.96500 46.99000
C  59.28500 27.23700 45.78500
C  59.35600 27.46000 44.21500
N  53.96200 26.81100 45.12500
C  54.77300 27.82300 45.54300
C  54.05800 29.13500 45.49100
C  52.86700 28.71500 44.85700
C  52.89500 27.32500 44.53900
C  54.48600 30.44400 45.96100
C  51.63200 29.24700 44.35400
O  51.12700 30.35900 44.40600
C  50.82400 27.98900 43.73100
C  50.39200 28.31900 42.41500
O  51.11500 28.47500 41.44400
O  49.03000 28.39600 42.41700
C  48.37900 28.89000 41.24600
H  51.71100 21.11700 44.23500
H  57.86100 22.11800 45.53100
H  56.62400 28.44600 46.12600
H  49.23000 25.26800 43.75600
H  50.01600 22.73600 43.01000
H  50.00700 23.05900 45.92600
H  48.86200 21.98300 45.00400
H  48.52100 23.72400 45.25700
H  50.39200 24.02000 41.29300
H  50.30000 25.84900 41.33100
H  48.20000 25.83800 41.37400
H  48.01100 24.03500 41.64400
H  54.22800 18.30500 43.59500
H  52.91700 19.35300 43.24900
H  53.02400 18.83800 44.79500
H  58.71300 18.70500 45.40300
H  58.19000 19.97800 46.59000
H  58.67500 20.22500 44.83500
H  59.03800 24.70900 44.94400
H  58.18600 26.25600 47.35100
H  60.36900 23.65900 46.47600
H  59.05800 23.03500 47.39400
H  59.80400 24.62800 47.78300
H  60.29900 26.87000 45.94200
H  59.26000 28.12700 46.41300
H  60.26000 27.03300 43.78100
H  59.39600 28.49500 43.87300
H  58.56500 26.94100 43.67400
H  54.83500 30.32300 46.98700
H  53.72100 31.21500 45.86900
H  55.33900 30.76600 45.36500
H  49.91400 27.86300 44.31800
H  48.20100 29.96100 41.34200
H  47.36300 28.55500 41.45500
H  48.70700 28.52700 40.27200

