158

Mg 47.05400 16.67300 28.43600
C  44.84700 16.48800 31.16800
C  49.45500 18.02300 30.48900
C  48.70300 17.46500 25.73600
C  44.13200 15.70800 26.41500
N  47.13100 17.30400 30.57300
C  46.13400 16.89700 31.48600
C  46.60000 17.18600 32.92200
C  47.97400 17.97500 32.65100
C  48.25500 17.72500 31.20400
C  48.01000 19.47900 33.17500
C  46.68800 15.95600 33.80700
C  46.12800 16.15700 35.25700
H  46.19300 17.55700 35.91700
N  48.86200 17.64200 28.12000
C  49.73900 18.09000 29.07200
C  50.94000 18.47400 28.44500
C  50.70200 18.33100 27.06400
C  49.37900 17.82300 26.87200
C  52.22300 18.87400 29.23300
C  51.63700 18.53100 25.89400
O  51.41500 18.45400 24.69900
C  53.10100 18.95500 26.12200
N  46.42200 16.69600 26.39500
C  47.39000 16.90000 25.48100
C  46.78000 16.78900 24.04700
C  45.33600 16.14600 24.31000
C  45.30000 16.17900 25.78100
C  46.67800 18.01800 23.22400
C  45.07800 14.79200 23.54400
C  43.78300 14.54400 22.82300
N  44.97900 16.13000 28.63500
C  43.95100 15.72300 27.78500
C  42.72900 15.52400 28.52000
C  42.98300 15.75500 29.87400
C  44.39400 16.13700 29.90200
C  41.37400 15.03300 28.02700
C  42.39500 15.76100 31.21400
O  41.31400 15.49300 31.67100
C  43.60500 16.26700 32.04000
C  43.24100 17.50900 32.78600
O  43.26500 18.63300 32.28800
O  42.83000 17.21000 34.01500
C  42.08700 18.17300 34.78900
H  50.26900 18.20900 31.19300
H  49.25400 17.53600 24.79500
H  43.35900 15.39100 25.71200
H  45.83700 17.83800 33.34700
H  48.69300 17.43700 33.26900
H  47.06200 19.70900 33.66100
H  48.34100 20.30100 32.54000
H  48.71600 19.42300 34.00300
H  47.70900 15.57900 33.87400
H  46.04100 15.22000 33.33000
H  46.62100 15.41500 35.88400
H  45.07200 16.00200 35.03400
H  52.71400 17.91100 29.09300
H  52.07800 19.00600 30.30500
H  52.71700 19.72800 28.76900
H  53.55200 18.38300 26.93300
H  53.06200 20.01200 26.38300
H  53.71200 18.88000 25.22200
H  47.42300 16.08200 23.52300
H  44.57500 16.84000 23.95400
H  45.70600 18.50000 23.32700
H  47.04800 17.78900 22.22500
H  47.33800 18.74600 23.69600
H  45.33800 13.96600 24.20600
H  45.78500 14.75600 22.71500
H  43.96000 14.51400 21.74800
H  42.98600 15.21900 23.13600
H  43.42200 13.53600 23.03000
H  41.22400 15.29600 26.98000
H  40.47000 15.28100 28.58400
H  41.45900 13.94600 28.04100
H  43.91700 15.51000 32.76000
H  41.01000 18.05200 34.67500
H  42.48800 19.08500 34.34700
H  42.38300 18.11700 35.83600
Mg 46.94900 25.24200 28.19500
C  48.25500 27.40300 30.73300
C  46.13600 23.13100 30.72500
C  45.89500 23.17800 25.89700
C  48.32200 27.41800 25.84600
N  47.05400 25.32200 30.43600
C  47.48800 26.35900 31.22300
C  47.29700 26.04900 32.71100
C  46.73100 24.62500 32.69000
C  46.58000 24.33100 31.20900
C  47.57900 23.58000 33.47000
C  46.50000 27.12300 33.54900
C  47.15900 27.87600 34.70400
H  46.32200 28.42400 35.95800
N  46.04800 23.36300 28.32000
C  45.88400 22.58200 29.41500
C  45.22600 21.28000 29.05300
C  44.97400 21.42400 27.64000
C  45.66400 22.67900 27.21600
C  45.05900 20.19600 30.02900
C  44.21300 20.51500 26.61600
O  44.06500 20.70000 25.42900
C  43.71200 19.24100 27.20500
N  47.18400 25.25800 26.13900
C  46.52400 24.27700 25.41500
C  46.69200 24.58900 23.93400
C  47.20000 26.02100 23.90300
C  47.60000 26.25200 25.34700
C  47.51500 23.59300 23.16300
C  46.16500 27.21700 23.46000
C  46.72100 28.21900 22.47500
N  48.05500 27.07500 28.19300
C  48.44500 27.87700 27.17500
C  49.07200 29.05200 27.73200
C  49.06700 28.87200 29.12900
C  48.40800 27.69000 29.35200
C  49.62600 30.14600 26.93600
C  49.51200 29.44200 30.38400
O  50.09300 30.45700 30.60500
C  49.09000 28.47500 31.50100
C  50.32700 27.96000 32.17300
O  51.02900 27.10400 31.72100
O  50.63600 28.68700 33.35900
C  51.89200 28.46600 33.95300
H  45.76500 22.45200 31.49500
H  45.51300 22.50000 25.13000
H  48.66800 28.09800 25.06400
H  48.28700 25.98000 33.16100
H  45.79000 24.52100 33.22900
H  46.98500 22.85700 34.03000
H  48.25200 24.10400 34.14800
H  48.10500 22.96800 32.73700
H  45.59200 26.66100 33.93800
H  46.20300 27.96100 32.91900
H  47.66800 28.75000 34.29800
H  47.84900 27.12700 35.09200
H  45.67600 20.34400 30.91600
H  45.50700 19.30800 29.58400
H  44.02600 19.98700 30.30700
H  43.25700 19.43800 28.17500
H  44.57700 18.58500 27.30100
H  42.78200 18.87700 26.76700
H  45.64200 24.64200 23.64700
H  48.15700 26.18200 23.40500
H  47.04300 23.18700 22.26800
H  47.79600 22.71900 23.75000
H  48.43800 24.02800 22.78100
H  45.84100 27.77700 24.33700
H  45.28600 26.77100 22.99600
H  46.91100 29.17800 22.95700
H  46.27700 28.33300 21.48600
H  47.73500 28.06200 22.10700
H  50.57800 29.88100 26.47700
H  49.80000 31.03700 27.54000
H  48.87400 30.31600 26.16500
H  48.44100 29.03100 32.17800
H  52.75600 28.68400 33.32500
H  51.87100 27.41500 34.24100
H  51.92700 29.07600 34.85600

