158

Mg 0.54900 7.67600 26.07300
C  1.09700 9.64800 28.93800
C  0.09800 5.00000 28.17300
C  0.28900 5.90500 23.35300
C  0.60300 10.56300 24.26700
N  0.57300 7.37700 28.29600
C  0.78600 8.35500 29.20700
C  0.45900 7.77500 30.57300
C  0.61800 6.26600 30.34400
C  0.34500 6.18600 28.89800
C  1.98000 5.56800 30.74800
C  -0.87500 8.25000 31.23600
C  -1.00000 7.98100 32.74600
H  0.29300 7.91100 33.67300
N  0.37600 5.68900 25.78400
C  0.23500 4.76100 26.83700
C  0.13100 3.38700 26.18600
C  0.12700 3.61900 24.72100
C  0.33400 5.10400 24.54000
C  -0.18100 2.13100 27.02500
C  0.05900 2.63000 23.52500
O  -0.03100 2.88500 22.36700
C  -0.05600 1.07600 23.80800
N  0.53600 8.12400 24.09300
C  0.32700 7.25700 23.14500
C  0.34000 7.91800 21.68300
C  -0.02200 9.36900 22.10700
C  0.38500 9.34000 23.59500
C  1.67600 7.82300 20.89500
C  -1.52600 9.68500 21.89500
C  -1.79300 10.84400 20.93300
N  0.83700 9.73600 26.46100
C  0.83900 10.81700 25.60500
C  1.16400 12.06400 26.31000
C  1.15700 11.59300 27.67100
C  1.11800 10.19800 27.66200
C  1.37100 13.43300 25.78100
C  1.31500 12.07700 28.93300
O  1.50500 13.23900 29.31500
C  1.19900 10.85600 29.85800
C  2.47400 10.81400 30.63700
O  3.57100 10.48700 30.19600
O  2.25200 11.29800 31.88100
C  3.41500 11.24200 32.74900
H  -0.05700 4.12400 28.80600
H  0.21600 5.23100 22.49700
H  0.48500 11.36800 23.53900
H  1.20000 8.17300 31.26700
H  -0.21400 5.83000 30.89700
H  2.31200 6.25600 31.52600
H  2.60700 5.47000 29.86200
H  1.81000 4.60700 31.23300
H  -1.67900 7.69200 30.75600
H  -1.15900 9.28300 31.03600
H  -1.64400 7.11000 32.87000
H  -1.59700 8.75600 33.22600
H  -1.23400 2.10300 27.30500
H  0.40800 2.14700 27.94200
H  -0.03700 1.16000 26.55200
H  0.24100 0.55100 22.90000
H  -1.06900 0.72900 24.01100
H  0.55500 0.72200 24.63900
H  -0.46600 7.44200 21.12400
H  0.49600 10.09800 21.48400
H  1.95200 8.73300 20.36200
H  1.58000 6.90400 20.31800
H  2.48100 7.81300 21.63000
H  -1.94200 9.90100 22.87900
H  -2.00300 8.80900 21.45400
H  -0.94500 11.34100 20.46100
H  -2.25000 11.64400 21.51600
H  -2.45200 10.55300 20.11500
H  0.51600 13.86300 25.25900
H  2.26600 13.55300 25.17000
H  1.57500 14.06900 26.64300
H  0.38500 10.94000 30.57800
H  3.08000 11.66000 33.69900
H  4.33500 11.69700 32.38500
H  3.59300 10.18900 32.97100
Mg 24.84400 1.81600 30.07400
C  27.04000 1.81500 32.90300
C  22.24700 2.05500 32.20100
C  22.87800 1.69300 27.31700
C  27.68200 1.13300 28.08700
N  24.64800 2.00200 32.37400
C  25.67100 1.97600 33.27400
C  25.14800 2.11000 34.72400
C  23.63700 2.03300 34.46500
C  23.48200 2.03100 32.92700
C  22.87000 0.87500 35.15700
C  25.78300 3.38800 35.34900
C  26.65500 3.07700 36.63100
H  26.54200 4.16200 37.72000
N  22.83800 1.94800 29.76300
C  21.91800 1.90400 30.79600
C  20.57100 1.79700 30.18300
C  20.75200 1.61200 28.77000
C  22.17800 1.75000 28.57500
C  19.24200 1.86000 30.97800
C  19.71600 1.43200 27.64600
O  20.01000 1.46400 26.47900
C  18.29800 1.37800 28.03400
N  25.24500 1.50900 28.00500
C  24.28300 1.62200 27.04500
C  24.90700 1.35300 25.63000
C  26.42800 1.44900 25.90500
C  26.53200 1.38500 27.43400
C  24.43600 0.02200 24.92800
C  27.06100 2.77200 25.37200
C  26.35700 4.10100 25.71400
N  26.86300 1.43300 30.31300
C  27.91100 1.21300 29.37500
C  29.18400 0.96600 30.08800
C  28.82800 1.23200 31.42900
C  27.41700 1.50700 31.51000
C  30.52100 0.57200 29.40600
C  29.41800 1.40400 32.81400
O  30.55600 1.44600 33.25900
C  28.20900 1.61000 33.82800
C  28.10900 0.38000 34.72100
O  27.61000 -0.73600 34.50500
O  28.76800 0.68600 35.88700
C  29.00800 -0.41600 36.89400
H  21.37800 2.20800 32.84300
H  22.25300 1.52800 26.43700
H  28.51200 0.85600 27.43300
H  25.49100 1.23200 35.27100
H  23.31200 2.98600 34.88200
H  22.13400 0.45800 34.47000
H  22.45300 1.23600 36.09800
H  23.51700 0.00300 35.25900
H  24.99800 4.12500 35.52400
H  26.37100 3.93100 34.60900
H  27.69300 2.92900 36.33100
H  26.37600 2.10900 37.04800
H  18.76000 2.83500 31.06000
H  19.40200 1.60900 32.02600
H  18.54900 1.13800 30.54700
H  17.68600 1.56200 27.15100
H  18.13300 2.30200 28.58800
H  18.08900 0.41500 28.50200
H  24.72900 2.15800 24.91600
H  27.07500 0.71500 25.42500
H  25.15500 -0.79100 24.83100
H  24.28800 0.42600 23.92700
H  23.49200 -0.25600 25.39700
H  27.19000 2.67900 24.29400
H  28.08100 2.85700 25.74700
H  26.38800 4.81200 24.88900
H  27.03500 4.44500 26.49500
H  25.36000 3.98800 26.14100
H  31.23000 0.46900 30.22600
H  30.86600 1.35800 28.73300
H  30.42300 -0.27900 28.73200
H  28.41300 2.54000 34.35900
H  28.29100 -0.17800 37.68100
H  29.96300 -0.21500 37.38100
H  28.87600 -1.40400 36.45400

