158

Mg 0.16800 7.99800 26.55900
C  0.81900 10.16700 29.32900
C  0.20900 5.30400 29.08600
C  -0.05200 5.71200 24.23600
C  0.63300 10.53400 24.36000
N  0.55400 7.78600 28.94900
C  0.60800 8.85200 29.76300
C  0.38600 8.46100 31.23600
C  0.35200 6.85400 31.16500
C  0.44000 6.59600 29.62600
C  1.36400 6.11500 32.02300
C  -0.92400 9.04800 31.92000
C  -0.77500 9.20000 33.49000
H  -1.46400 8.14900 34.35700
N  0.03300 5.86300 26.65800
C  0.05600 4.96600 27.68400
C  -0.10500 3.68500 27.16900
C  -0.14000 3.70800 25.76700
C  -0.08400 5.15300 25.51100
C  -0.23700 2.44100 27.99300
C  -0.15900 2.57500 24.68700
O  -0.08200 2.78400 23.47000
C  -0.29500 1.23700 25.13300
N  0.40000 8.11400 24.55900
C  0.07200 7.04200 23.85300
C  -0.00400 7.45700 22.32700
C  -0.14400 8.99700 22.41300
C  0.30300 9.29300 23.86600
C  1.27800 6.99800 21.55200
C  -1.49400 9.61800 22.14400
C  -1.53600 10.43100 20.87800
N  0.80400 9.91100 26.69400
C  0.88700 10.83600 25.70200
C  1.24900 12.16600 26.25600
C  1.12500 11.92500 27.65000
C  0.86100 10.55500 27.90500
C  1.46600 13.41600 25.55500
C  1.11400 12.58300 28.90300
O  1.27800 13.76100 29.21900
C  0.89800 11.50400 30.02800
C  2.00400 11.56500 31.05200
O  3.12800 11.20600 30.86500
O  1.48300 11.94300 32.22600
C  2.48300 12.37100 33.28500
H  0.24400 4.47600 29.79700
H  0.01200 5.02700 23.38700
H  0.65100 11.33900 23.62200
H  1.34300 8.75500 31.66700
H  -0.63600 6.66000 31.58200
H  1.67800 6.74300 32.85600
H  2.20700 5.85500 31.38400
H  0.79800 5.27200 32.42000
H  -1.73800 8.35600 31.70900
H  -1.12000 9.98200 31.39300
H  -1.20400 10.15100 33.80500
H  0.29600 9.10800 33.67300
H  -1.08400 1.83700 27.66700
H  -0.60100 2.69200 28.98900
H  0.68700 1.86400 27.95700
H  0.65200 0.95700 25.59400
H  -0.42700 0.64300 24.22900
H  -1.25400 1.07800 25.62500
H  -0.83700 6.94800 21.84300
H  0.54900 9.41900 21.68500
H  1.11700 6.15900 20.87400
H  2.17500 6.82300 22.14600
H  1.48500 7.78200 20.82400
H  -1.76900 10.18000 23.03700
H  -2.27700 8.87900 21.97800
H  -1.26700 9.93100 19.94800
H  -1.01000 11.37900 20.99300
H  -2.55800 10.73300 20.64800
H  2.30800 13.93400 26.01500
H  0.52500 13.94900 25.68600
H  1.69500 13.32100 24.49400
H  -0.01100 11.75400 30.57500
H  2.94000 11.54300 33.82700
H  2.17000 12.97400 34.13800
H  3.28400 12.83900 32.71300
Mg 27.03900 49.32700 26.11900
C  25.01900 50.52300 28.78700
C  29.28800 48.16800 28.41600
C  28.93700 48.44400 23.53600
C  24.78300 50.82600 23.87900
N  27.11000 49.33600 28.41500
C  26.14200 49.77100 29.24400
C  26.52600 49.52500 30.71800
C  27.97300 48.84500 30.57800
C  28.16000 48.74300 29.04300
C  29.14400 49.57300 31.27900
C  25.31400 48.75600 31.49200
C  25.00100 49.03400 33.00200
H  25.96800 49.73000 33.99000
N  28.86300 48.44200 26.01300
C  29.66200 47.99600 27.02300
C  30.88200 47.48300 26.47100
C  30.84700 47.65100 25.07100
C  29.49100 48.19500 24.80200
C  31.98500 46.89700 27.44500
C  31.92400 47.26900 24.07800
O  31.74100 47.41200 22.84800
C  33.31300 46.70800 24.55800
N  27.04200 49.81200 24.00700
C  27.82900 49.18700 23.14200
C  27.41400 49.33100 21.66400
C  26.17400 50.21700 21.75500
C  25.96200 50.24200 23.29700
C  28.52000 49.98500 20.74400
C  25.02200 49.65400 20.86000
C  23.95800 48.81800 21.59600
N  25.26600 50.34800 26.16000
C  24.49100 51.03700 25.21900
C  23.35500 51.74300 25.86700
C  23.64700 51.60200 27.22000
C  24.77000 50.72400 27.36200
C  22.35000 52.44000 25.15200
C  23.14000 52.05500 28.56100
O  22.23500 52.79400 28.83900
C  23.93500 51.19600 29.60100
C  24.26100 52.08900 30.70300
O  25.22800 52.84800 30.64300
O  23.25200 52.15000 31.66700
C  23.43400 53.03500 32.80200
H  29.94900 47.79500 29.20100
H  29.42400 47.93500 22.70100
H  23.97500 51.21200 23.25400
H  26.74200 50.52500 31.09300
H  27.88400 47.83800 30.98600
H  29.91500 49.92400 30.59400
H  29.64700 48.96400 32.03100
H  28.70100 50.40800 31.82200
H  25.38800 47.69200 31.27100
H  24.42400 49.02500 30.92300
H  24.68700 48.10900 33.48600
H  24.13500 49.68800 32.90600
H  31.58500 46.65500 28.43000
H  32.73500 47.68700 27.48700
H  32.32700 45.97400 26.97900
H  33.23800 45.65100 24.81400
H  33.60600 47.30600 25.42100
H  34.02000 46.70300 23.72800
H  27.22600 48.32600 21.28700
H  26.43300 51.22800 21.44200
H  29.34700 50.48200 21.25000
H  28.08700 50.67400 20.01900
H  28.76200 49.13600 20.10500
H  25.37700 49.07600 20.00700
H  24.55400 50.54400 20.44100
H  23.03100 49.37900 21.71900
H  24.17700 48.52400 22.62200
H  23.77500 47.86300 21.10300
H  22.50700 53.47300 25.46300
H  21.34200 52.10900 25.40300
H  22.47300 52.27600 24.08100
H  23.27500 50.43200 30.01000
H  24.40100 53.03500 33.30600
H  22.63900 52.82500 33.51700
H  23.16800 54.07100 32.59300

