158

Mg 24.23600 1.89700 29.72900
C  26.59500 1.51600 32.20700
C  21.77800 2.24600 32.09900
C  22.02700 2.10400 27.22700
C  26.75300 1.01800 27.26500
N  24.22200 1.86200 31.81500
C  25.26000 1.74400 32.69800
C  24.83200 1.95800 34.06800
C  23.30400 2.02900 34.00900
C  23.08400 1.92100 32.54800
C  22.56900 1.03200 34.96600
C  25.52300 3.19100 34.73500
C  25.74900 3.12000 36.22000
H  25.07200 4.19900 37.13800
N  22.18300 2.02500 29.71100
C  21.29600 2.30400 30.80300
C  20.00400 2.57000 30.28400
C  19.99200 2.39100 28.82600
C  21.45000 2.19100 28.47000
C  18.87400 3.10500 31.08300
C  18.87000 2.30300 27.81100
O  19.01600 2.28600 26.61700
C  17.52900 2.46300 28.21900
N  24.34000 1.49500 27.52900
C  23.31100 1.84800 26.74500
C  23.66400 1.90500 25.26200
C  25.19500 1.63100 25.31200
C  25.47900 1.30100 26.82500
C  22.77600 1.03400 24.28600
C  26.07100 2.75300 24.71100
C  26.31800 4.06000 25.52200
N  26.25700 1.31800 29.70700
C  27.09800 0.96000 28.68400
C  28.40800 0.83200 29.21700
C  28.20700 0.90400 30.63700
C  26.91000 1.25000 30.85100
C  29.65800 0.68800 28.38400
C  28.83200 0.89700 31.90800
O  29.99000 0.56500 32.10800
C  27.85800 1.35900 32.99600
C  27.77000 0.22900 33.94900
O  27.46000 -0.89300 33.62000
O  28.14200 0.60900 35.21700
C  28.22200 -0.41900 36.24900
H  21.17600 2.53700 32.96200
H  21.32200 2.48600 26.48600
H  27.58700 0.98300 26.56100
H  25.07500 0.98700 34.49900
H  22.98200 3.01800 34.33400
H  22.19100 0.16500 34.42500
H  21.82200 1.56500 35.55500
H  23.37100 0.74400 35.64600
H  24.98200 4.08600 34.42700
H  26.46600 3.39900 34.23100
H  26.81000 3.08100 36.46800
H  25.33500 2.15300 36.50400
H  19.09500 2.97100 32.14200
H  17.95000 2.57800 30.84600
H  18.82800 4.17600 30.88300
H  17.37600 3.38800 28.77500
H  17.38500 1.57300 28.83200
H  16.87600 2.35600 27.35300
H  23.53000 2.94000 24.94800
H  25.50300 0.72400 24.79300
H  21.91500 0.58800 24.78500
H  23.30800 0.27900 23.70800
H  22.39500 1.80200 23.61200
H  25.61800 2.99200 23.74900
H  27.06100 2.34500 24.50500
H  26.16900 3.85600 26.58200
H  25.74500 4.91200 25.15600
H  27.37400 4.32600 25.48300
H  29.61500 -0.27000 27.86600
H  30.50500 0.79100 29.06200
H  29.70300 1.51100 27.67100
H  28.17600 2.23800 33.55500
H  28.42800 -1.40600 35.83300
H  27.37300 -0.38100 36.93200
H  29.13100 -0.26200 36.83000
Mg 44.15900 3.91400 45.90000
C  42.37400 6.97600 45.78800
C  41.25900 2.37100 45.00700
C  46.05400 1.17700 45.36300
C  47.19600 5.70600 45.77200
N  41.97500 4.59200 45.45800
C  41.48400 5.87600 45.57300
C  39.95400 5.88000 45.26200
C  39.57900 4.34300 45.07500
C  40.98500 3.70800 45.22200
C  38.56800 3.85700 46.13200
C  39.50700 6.75100 43.94800
C  40.62900 6.98900 42.87300
H  40.14200 7.24900 41.40800
N  43.74300 2.00600 45.37900
C  42.48400 1.61900 45.02900
C  42.56800 0.14000 44.72900
C  43.91300 -0.16200 44.61200
C  44.65200 1.01500 45.15100
C  41.28000 -0.70000 44.25700
C  44.55900 -1.51600 44.03100
O  43.86700 -2.39900 43.53200
C  46.05600 -1.71400 43.90600
N  46.29800 3.48000 45.74000
C  46.80600 2.23000 45.70700
C  48.35800 2.12400 45.81900
C  48.67900 3.67600 45.99500
C  47.26800 4.30100 45.82200
C  48.90300 1.33000 47.02100
C  49.66700 4.35400 44.93600
C  50.82400 3.56100 44.39700
N  44.71100 5.89300 45.78800
C  45.94000 6.45400 45.71700
C  45.76100 7.93500 45.84600
C  44.42300 8.14600 45.83800
C  43.82100 6.90500 45.77300
C  46.90300 8.87300 45.82700
C  43.37700 9.20900 45.86600
O  43.48900 10.46000 45.88300
C  42.06300 8.41000 46.00500
C  41.47900 8.58700 47.37100
O  41.49100 7.76200 48.28500
O  40.97200 9.86200 47.44600
C  40.71700 10.24300 48.83600
H  40.40100 1.73800 44.77000
H  46.72400 0.31800 45.44200
H  48.11000 6.29200 45.89000
H  39.56200 6.36700 46.15500
H  39.20700 4.16800 44.06500
H  39.03800 3.21200 46.87400
H  37.80900 3.32600 45.55700
H  38.15100 4.67600 46.71800
H  39.24200 7.67300 44.46600
H  38.55200 6.35500 43.60500
H  41.20300 6.06400 42.93000
H  41.17800 7.90300 43.10100
H  41.12900 -0.38800 43.22400
H  40.50500 -0.25100 44.87900
H  41.29700 -1.78700 44.34400
H  46.26900 -2.66600 43.42000
H  46.33200 -1.60100 44.95400
H  46.54600 -0.92100 43.34000
H  48.80700 1.83700 44.86700
H  49.00300 3.94700 46.99900
H  48.10700 0.99500 47.68500
H  49.61100 1.84800 47.66900
H  49.46400 0.46400 46.67000
H  50.01600 5.26900 45.41500
H  48.99400 4.60900 44.11700
H  51.69600 4.21300 44.34400
H  50.58300 3.34200 43.35700
H  51.04400 2.58000 44.81800
H  47.12100 9.06300 46.87800
H  46.64000 9.82600 45.36900
H  47.80200 8.48400 45.34800
H  41.33300 8.83400 45.31400
H  39.80000 9.80800 49.23300
H  40.61700 11.32700 48.78100
H  41.53100 10.00000 49.51900

