158

Mg 1.53300 -0.90500 43.60500
C  4.92000 0.17200 43.38200
C  0.47200 1.92200 42.17600
C  -1.41000 -2.49100 42.98300
C  2.91400 -4.07200 44.42500
N  2.62500 0.82000 42.96400
C  3.99500 1.10500 42.89900
C  4.25300 2.44500 42.27500
C  2.74600 3.14100 42.20300
C  1.88800 1.94100 42.49200
C  2.54000 4.41600 43.20000
C  5.07100 2.30200 40.97700
C  6.47000 3.11200 40.86100
H  6.77900 3.87200 39.53400
N  -0.24600 -0.35300 42.75900
C  -0.45400 0.83400 42.22100
C  -1.89400 0.91600 41.77200
C  -2.52100 -0.25100 42.23500
C  -1.37900 -1.10300 42.68000
C  -2.48400 2.15800 41.08500
C  -4.03300 -0.48200 42.24500
O  -4.85100 0.32600 41.85700
C  -4.64800 -1.77500 42.89500
N  0.88100 -2.99500 43.63500
C  -0.40800 -3.36300 43.46900
C  -0.71600 -4.81500 43.98600
C  0.73100 -5.35900 44.26000
C  1.61500 -4.07200 44.02600
C  -1.86100 -4.84900 45.10700
C  1.23400 -6.57500 43.44600
C  2.16000 -7.54100 44.25600
N  3.53100 -1.82100 43.99500
C  3.86100 -3.04500 44.37400
C  5.29900 -3.06500 44.62600
C  5.77100 -1.79800 44.25500
C  4.66100 -1.11400 43.87400
C  5.99900 -4.25200 45.16500
C  6.92700 -0.93100 44.15500
O  8.10100 -1.11200 44.40300
C  6.38800 0.36100 43.61100
C  6.73400 1.39600 44.57300
O  6.14100 1.49200 45.63400
O  7.66600 2.25600 44.07400
C  7.67200 3.68400 44.49400
H  -0.01300 2.84700 41.85600
H  -2.39500 -2.92800 42.80800
H  3.25700 -5.08200 44.65600
H  4.90400 3.01700 42.93700
H  2.42800 3.45500 41.20800
H  3.39000 4.53600 43.87200
H  1.56700 4.39300 43.69200
H  2.36700 5.31200 42.60500
H  4.41500 2.60700 40.16100
H  5.24100 1.24000 40.80100
H  7.32400 2.45700 41.03000
H  6.54700 3.80100 41.70200
H  -2.28500 2.02200 40.02200
H  -2.14600 3.14000 41.41500
H  -3.54600 2.24800 41.31200
H  -5.65300 -1.56200 43.26000
H  -4.08500 -1.83300 43.82700
H  -4.60000 -2.58700 42.16900
H  -1.06300 -5.42300 43.15100
H  0.87500 -5.66300 45.29700
H  -2.80000 -5.32100 44.81500
H  -2.04400 -3.83000 45.44600
H  -1.48200 -5.36300 45.99000
H  1.81500 -6.27600 42.57400
H  0.30300 -7.04200 43.12800
H  3.04700 -7.61300 43.62600
H  1.59000 -8.45900 44.39700
H  2.42900 -7.18200 45.24900
H  5.64300 -4.39300 46.18600
H  7.06000 -4.00800 45.20700
H  5.77100 -5.10700 44.52800
H  6.81400 0.55700 42.62700
H  8.70500 4.01400 44.37600
H  7.44100 3.93800 45.52800
H  6.96200 4.27700 43.91700
Mg 16.36700 50.81200 26.34200
C  18.24200 49.09800 28.74500
C  14.31700 51.99300 28.70800
C  14.56900 52.17100 23.86400
C  18.59900 49.43700 23.95600
N  16.17500 50.38100 28.53100
C  17.12200 49.82300 29.35500
C  16.83200 50.11400 30.79000
C  15.47700 50.74100 30.76200
C  15.33700 51.16800 29.24800
C  14.24900 49.85000 31.12800
C  17.96100 51.08200 31.29900
C  17.86800 51.59000 32.74500
H  16.89900 50.82200 33.64600
N  14.59000 51.78800 26.32800
C  14.00400 52.42900 27.40000
C  12.92000 53.28000 27.00600
C  12.94400 53.25000 25.53400
C  14.00600 52.22500 25.15300
C  12.00700 54.18500 27.99000
C  12.04200 54.09400 24.58200
O  12.25100 54.08100 23.37000
C  11.00500 55.00900 25.18500
N  16.52400 50.70800 24.24900
C  15.73800 51.45000 23.42400
C  16.22600 51.57700 21.96200
C  17.64400 50.85300 22.05200
C  17.59800 50.29800 23.47700
C  15.25700 50.85300 20.99600
C  18.79200 51.78100 21.78200
C  19.93000 51.29000 20.86100
N  18.03300 49.31900 26.24000
C  18.86100 48.91200 25.25000
C  19.91500 48.13300 25.79000
C  19.72400 48.17700 27.15800
C  18.52600 48.84400 27.41000
C  21.18000 47.64200 25.13900
C  20.27200 47.76000 28.40800
O  21.28100 47.06200 28.69600
C  19.36100 48.36800 29.52100
C  19.01800 47.34800 30.50000
O  18.49000 46.28900 30.25800
O  19.12000 47.77600 31.81200
C  18.84900 46.73500 32.74800
H  13.62400 52.44100 29.42200
H  14.03000 52.66500 23.05300
H  19.29600 49.17200 23.15800
H  16.88800 49.19200 31.36800
H  15.36600 51.69500 31.27700
H  13.64600 49.44200 30.31600
H  13.64600 50.43600 31.82100
H  14.59200 49.02800 31.75600
H  18.03800 51.92500 30.61200
H  18.92800 50.57900 31.27800
H  17.61000 52.64800 32.71500
H  18.84800 51.51100 33.21600
H  12.05400 53.71000 28.97000
H  10.96000 54.10900 27.69600
H  12.39600 55.20200 28.04300
H  10.24400 54.55100 25.81700
H  10.55700 55.67600 24.44900
H  11.53200 55.79200 25.72900
H  16.25500 52.63100 21.68600
H  17.68600 49.97900 21.40200
H  14.57700 50.13500 21.45300
H  15.86400 50.37200 20.22800
H  14.66900 51.52200 20.36700
H  19.30400 52.07100 22.70000
H  18.50700 52.72000 21.30800
H  19.73700 50.26500 20.54300
H  20.87000 51.33400 21.41000
H  20.09600 51.90900 19.97900
H  21.61300 46.64200 25.16200
H  21.89100 48.32700 25.60100
H  21.30100 47.86000 24.07800
H  20.03400 49.10600 29.95900
H  18.03600 46.05500 32.49400
H  18.61100 47.31800 33.63700
H  19.72400 46.10500 32.90400

