158

Mg 47.46300 24.82400 28.34600
C  48.10700 27.19700 30.66900
C  46.52900 22.63400 30.84300
C  46.61600 22.56800 25.94100
C  48.57600 27.03000 25.88200
N  47.00900 25.03900 30.43400
C  47.43000 26.08300 31.23100
C  47.12200 25.83500 32.75200
C  46.78300 24.30800 32.73600
C  46.78000 23.94400 31.22900
C  47.55800 23.32800 33.64900
C  46.01800 26.80100 33.29800
C  46.38700 27.51500 34.57100
H  45.40100 27.71300 35.67300
N  46.77500 22.83300 28.31300
C  46.50100 22.14500 29.45200
C  46.09300 20.83400 29.12900
C  45.86200 20.86100 27.65000
C  46.41200 22.15000 27.24700
C  45.70100 19.81100 30.19900
C  45.28600 19.86500 26.72700
O  45.23700 19.93800 25.49700
C  44.70200 18.57100 27.26900
N  47.64600 24.79000 26.27200
C  47.04500 23.83100 25.49400
C  47.02300 24.20100 23.98300
C  47.69500 25.64500 23.91600
C  48.04900 25.81100 25.43800
C  47.77000 23.20300 23.03800
C  46.75800 26.72400 23.19500
C  47.48900 27.77300 22.24800
N  48.38900 26.63200 28.23700
C  48.77800 27.45500 27.22700
C  49.33100 28.75000 27.71700
C  49.17500 28.61700 29.13200
C  48.45200 27.40500 29.32300
C  49.90500 29.86900 26.94100
C  49.30900 29.32600 30.44000
O  49.65200 30.47900 30.66200
C  48.62400 28.36100 31.46400
C  49.63800 28.15200 32.51700
O  50.55700 27.35800 32.59300
O  49.28600 28.90000 33.66700
C  50.14500 28.66400 34.78300
H  46.48400 21.92700 31.67400
H  46.23600 21.84400 25.21700
H  48.83500 27.80300 25.15600
H  48.05700 26.02000 33.28100
H  45.77800 24.22000 33.15000
H  48.10100 23.95500 34.35600
H  48.18700 22.65600 33.06600
H  46.79500 22.74800 34.16700
H  45.18900 26.20100 33.67400
H  45.70000 27.54500 32.56800
H  46.52700 28.56800 34.32400
H  47.31400 27.19400 35.04600
H  45.92500 18.76900 29.96800
H  44.70400 19.95700 30.61400
H  46.18800 20.02800 31.15000
H  45.44900 18.29100 28.01200
H  44.67500 17.84600 26.45500
H  43.80200 18.78600 27.84500
H  46.01800 24.29000 23.57200
H  48.64600 25.62200 23.38300
H  48.14300 22.32200 23.56100
H  48.59300 23.70300 22.52900
H  47.07100 22.82700 22.29000
H  46.28500 27.32100 23.97500
H  46.01800 26.16300 22.62500
H  47.15900 27.67300 21.21400
H  48.52800 27.48700 22.41300
H  47.17500 28.77000 22.55600
H  50.05200 29.58000 25.90000
H  50.80600 30.16200 27.47900
H  49.17500 30.67000 27.05800
H  47.83800 28.96800 31.91200
H  50.13600 29.56600 35.39400
H  51.21100 28.55100 34.58600
H  49.82100 27.70700 35.19100
Mg 6.20200 53.75200 40.07900
C  5.83300 50.12500 40.20300
C  9.22200 53.20700 38.67200
C  6.15400 56.94000 39.61300
C  2.73200 53.82000 40.85700
N  7.21000 51.86400 39.31400
C  7.00400 50.52200 39.56100
C  8.22900 49.59000 39.14900
C  9.32300 50.69800 39.07700
C  8.52700 52.08300 39.03800
C  10.45600 50.72000 40.24500
C  7.93100 48.69400 37.88800
C  8.29000 49.22500 36.51600
H  7.26800 48.86500 35.41300
N  7.63200 54.95300 39.44000
C  8.80100 54.55400 38.86900
C  9.53800 55.74500 38.62200
C  8.61400 56.83700 38.67900
C  7.41100 56.26200 39.24700
C  10.97400 55.82500 38.23100
C  8.94500 58.28600 38.34200
O  10.07400 58.57400 37.85500
C  8.02900 59.45300 38.68400
N  4.66300 55.18000 40.15800
C  4.93400 56.49700 39.97000
C  3.66400 57.44900 39.92200
C  2.56700 56.42100 40.23500
C  3.35600 55.01000 40.41200
C  3.69100 58.66600 40.84800
C  1.45900 56.31300 39.10000
C  0.27100 57.34900 39.16200
N  4.48000 52.34900 40.49000
C  3.26400 52.53100 40.93000
C  2.70200 51.27200 41.34300
C  3.68700 50.32400 41.11100
C  4.72900 51.00500 40.55600
C  1.29400 50.95200 41.78500
C  3.94700 48.93900 41.21500
O  3.23200 48.02800 41.66900
C  5.39600 48.71900 40.70000
C  5.21600 47.72400 39.62100
O  4.60000 47.93800 38.61400
O  5.81100 46.55400 40.00300
C  5.33500 45.43300 39.17100
H  10.28600 53.10100 38.44900
H  6.10400 58.02600 39.51700
H  1.65700 54.00700 40.84500
H  8.39500 48.90700 39.98100
H  10.00000 50.63200 38.22600
H  11.34700 50.25100 39.82800
H  10.15100 50.26900 41.18900
H  10.70600 51.75500 40.48000
H  6.86500 48.46600 37.92000
H  8.35600 47.70700 38.06900
H  9.12600 48.62300 36.16200
H  8.39600 50.30100 36.65600
H  11.39700 54.83900 38.42500
H  11.53900 56.57900 38.77800
H  10.92900 55.97400 37.15200
H  8.49400 60.39400 38.39000
H  7.97400 59.28800 39.76100
H  7.05300 59.26200 38.23900
H  3.70600 57.74400 38.87400
H  2.04500 56.67100 41.15800
H  3.82400 59.54300 40.21400
H  4.50800 58.57000 41.56300
H  2.76200 58.75200 41.41200
H  0.94500 55.35200 39.09600
H  1.91700 56.39300 38.11400
H  0.42500 58.05200 39.98000
H  -0.65000 56.83600 39.44100
H  0.07700 57.90700 38.24600
H  0.65300 51.79200 41.51900
H  1.20700 50.95600 42.87100
H  0.86200 50.10100 41.25800
H  6.12600 48.25500 41.36300
H  5.21900 45.59400 38.10000
H  4.42200 45.00600 39.58600
H  6.08100 44.65800 39.34900

