158

Mg 23.92000 -5.55400 45.57400
C  25.93000 -2.99600 44.47000
C  21.34100 -4.00400 43.67300
C  22.19800 -8.26400 45.92900
C  26.59700 -7.02000 47.13000
N  23.70500 -3.75200 44.15600
C  24.70300 -2.93700 43.83700
C  24.37100 -1.90800 42.77700
C  22.83000 -1.96500 42.69400
C  22.60200 -3.37900 43.50900
C  22.05400 -0.86200 43.39600
C  25.16200 -2.01500 41.44500
C  25.43500 -0.64700 40.72300
H  25.17600 -0.57600 39.25000
N  22.01900 -6.08900 44.85300
C  21.06100 -5.28700 44.25200
C  19.78100 -5.96700 44.23700
C  19.96400 -7.29600 44.79500
C  21.36800 -7.20800 45.30400
C  18.47100 -5.40600 43.62800
C  18.92900 -8.38100 44.88700
O  17.77100 -8.16300 44.49800
C  19.30400 -9.83900 45.35100
N  24.39300 -7.53200 46.19200
C  23.50600 -8.48900 46.31500
C  23.99600 -9.63600 47.23500
C  25.40500 -9.22600 47.54400
C  25.46500 -7.86500 46.93500
C  23.11100 -9.99100 48.49200
C  26.47500 -10.21100 46.99800
C  26.85500 -11.29300 47.92000
N  25.88500 -5.11300 45.84600
C  26.83200 -5.74500 46.60600
C  28.03300 -4.91200 46.56800
C  27.66300 -3.87200 45.74600
C  26.37300 -4.02800 45.30700
C  29.38800 -5.21700 47.04600
C  28.23000 -2.65000 45.15200
O  29.30600 -2.12500 45.38500
C  27.12200 -2.04900 44.28000
C  26.75900 -0.71200 44.80700
O  26.02500 -0.48900 45.77400
O  27.46800 0.21300 44.11800
C  27.25600 1.59600 44.35500
H  20.52600 -3.52200 43.12800
H  21.59600 -9.09500 46.30400
H  27.43400 -7.48400 47.65700
H  24.66700 -0.95300 43.21200
H  22.45500 -2.00300 41.67100
H  22.09200 -0.01600 42.71000
H  22.68900 -0.68500 44.26500
H  21.06800 -1.19300 43.72100
H  24.74500 -2.64600 40.66000
H  26.18200 -2.34800 41.63500
H  26.49100 -0.37500 40.73800
H  24.86600 0.17700 41.15400
H  18.55700 -4.54500 42.96500
H  17.95100 -5.16300 44.55400
H  17.94900 -6.17800 43.06200
H  18.37600 -10.35600 45.10600
H  19.24200 -9.75400 46.43600
H  20.25500 -10.27100 45.04000
H  23.91500 -10.33400 46.40200
H  25.59700 -9.13700 48.61400
H  23.79100 -10.39600 49.24300
H  22.36700 -10.66600 48.07000
H  22.41100 -9.21700 48.80500
H  27.36800 -9.68600 46.65700
H  26.13800 -10.73800 46.10500
H  26.14100 -11.22200 48.74000
H  27.88000 -11.20200 48.28200
H  26.59200 -12.26500 47.50400
H  29.86900 -6.00900 46.47100
H  29.28300 -5.54600 48.07900
H  29.99900 -4.31500 47.00200
H  27.47900 -1.94600 43.25600
H  26.68500 2.13600 43.60000
H  28.20200 2.13800 44.34700
H  26.89000 1.75300 45.37000
Mg 46.97100 25.08400 29.41700
C  48.02800 27.48900 31.86800
C  45.61500 23.35300 32.19300
C  46.46200 22.49900 27.33700
C  48.54000 26.90700 26.99100
N  46.78800 25.49500 31.82800
C  47.24200 26.52300 32.51500
C  46.84700 26.39600 34.06200
C  46.17000 24.93300 34.06900
C  46.21400 24.55500 32.60600
C  46.82100 23.88700 35.05000
C  45.95500 27.59800 34.57700
C  46.42900 28.27900 35.90800
H  46.76300 27.28200 37.01600
N  46.08200 23.19100 29.66100
C  45.56600 22.64200 30.90400
C  45.02000 21.33000 30.62100
C  45.28000 21.00800 29.17200
C  46.01300 22.24300 28.64700
C  44.39100 20.49900 31.62300
C  45.01600 19.75000 28.50100
O  45.44600 19.50300 27.35200
C  44.23000 18.63600 29.19700
N  47.37900 24.80300 27.41600
C  47.02700 23.58600 26.81200
C  47.44200 23.71600 25.25000
C  48.05200 25.15600 25.14100
C  48.06500 25.63800 26.60200
C  48.50400 22.57000 24.80300
C  47.15100 26.01300 24.17300
C  47.90000 27.07700 23.26400
N  48.03500 26.88000 29.38600
C  48.63600 27.46500 28.27900
C  49.25300 28.73200 28.77000
C  49.00500 28.74800 30.16900
C  48.33300 27.58700 30.46900
C  49.92000 29.72700 27.95400
C  49.27800 29.47500 31.39300
O  49.90800 30.52600 31.58200
C  48.65200 28.70100 32.54300
C  49.78000 28.36500 33.53200
O  50.44800 27.33200 33.79700
O  49.75800 29.38500 34.40800
C  50.42300 29.14900 35.70400
H  45.04700 22.95000 33.03300
H  46.28000 21.64600 26.68000
H  48.96700 27.55300 26.22100
H  47.82100 26.36800 34.54900
H  45.15300 25.07400 34.43500
H  46.03000 23.14200 35.13800
H  47.07200 24.40300 35.97600
H  47.66000 23.39400 34.55900
H  44.93300 27.31600 34.83000
H  45.92900 28.32200 33.76300
H  45.73900 28.98300 36.37400
H  47.41200 28.73000 35.77200
H  44.20500 21.03900 32.55100
H  45.10300 19.68100 31.74000
H  43.45200 20.00700 31.36500
H  43.29100 19.08300 29.52500
H  44.84600 18.18100 29.97100
H  44.13000 17.79000 28.51800
H  46.53800 23.62800 24.64800
H  49.09300 25.13300 24.81800
H  48.34200 22.08900 23.83800
H  48.44700 21.75900 25.53000
H  49.48800 22.99800 24.99400
H  46.37400 26.55600 24.71200
H  46.69900 25.27500 23.51000
H  47.61500 26.96000 22.21900
H  48.97600 26.94400 23.37300
H  47.58900 28.05000 23.64400
H  49.82600 30.69900 28.43800
H  49.48500 29.98300 26.98900
H  50.98500 29.57900 27.77700
H  47.95100 29.33700 33.08500
H  51.31000 28.51700 35.75100
H  49.69500 28.72100 36.39400
H  50.68000 30.10100 36.16800

