158

Mg 35.73400 1.37800 29.23300
C  33.52200 2.44200 31.69600
C  38.20200 1.06500 31.62400
C  37.83000 0.51100 26.83700
C  33.23300 2.00000 26.73300
N  35.87100 1.87300 31.36600
C  34.81600 2.12000 32.17200
C  35.22500 2.02400 33.68500
C  36.72600 1.77000 33.57600
C  36.98400 1.49700 32.09500
C  37.53300 3.00800 33.97600
C  34.42100 0.85800 34.43200
C  33.97600 1.37000 35.82100
H  34.75500 2.41900 36.52000
N  37.68200 0.95200 29.25600
C  38.50800 0.69700 30.32600
C  39.77300 0.10500 29.90600
C  39.75500 0.09100 28.46500
C  38.40200 0.55500 28.09600
C  40.78700 -0.25300 30.91200
C  40.88500 -0.23000 27.52100
O  40.85400 -0.11800 26.27200
C  42.03900 -0.99600 28.10800
N  35.49400 1.23700 27.17000
C  36.54400 0.90100 26.34800
C  36.20800 0.71800 24.89300
C  34.76700 1.24700 24.78200
C  34.42300 1.43500 26.31100
C  37.24500 1.37000 23.87900
C  33.83300 0.22200 24.08100
C  32.58900 0.67200 23.30900
N  33.74800 2.09400 29.16200
C  32.92700 2.33800 28.10200
C  31.70400 2.87200 28.63400
C  31.89800 2.95600 30.01300
C  33.13000 2.46800 30.30200
C  30.44200 3.07200 27.95100
C  31.25000 3.26900 31.22900
O  30.17900 3.67900 31.30800
C  32.25300 2.96400 32.37700
C  32.53700 4.20500 33.18000
O  33.29300 5.07200 32.83500
O  31.79900 4.26200 34.30900
C  31.96100 5.47800 35.20700
H  39.06200 1.04300 32.29700
H  38.50800 0.07000 26.10300
H  32.56600 2.23400 25.90100
H  35.00700 2.98900 34.14100
H  36.99500 0.85800 34.10900
H  36.85900 3.69100 34.49400
H  37.98600 3.51800 33.12600
H  38.30800 2.65400 34.65500
H  35.12900 0.03700 34.54900
H  33.50600 0.74300 33.85200
H  34.02200 0.55300 36.54100
H  32.97300 1.74300 35.61500
H  40.84900 0.53600 31.66200
H  41.82700 -0.39900 30.62200
H  40.62800 -1.24200 31.34100
H  41.90500 -1.73500 28.89900
H  42.77200 -0.24900 28.41300
H  42.43200 -1.55100 27.25600
H  36.22500 -0.34200 24.63800
H  34.60000 2.17800 24.23800
H  36.72800 1.99500 23.15100
H  37.65300 0.61100 23.21200
H  38.06600 1.85400 24.40800
H  33.57200 -0.52400 24.83200
H  34.44300 -0.30700 23.34900
H  32.52600 0.14000 22.36000
H  32.49100 1.75200 23.19900
H  31.72500 0.28900 23.85100
H  30.22400 2.15700 27.40000
H  30.53900 3.85600 27.20000
H  29.62500 3.24100 28.65200
H  31.89000 2.15200 33.00800
H  32.72200 6.19900 34.90800
H  32.22900 5.21000 36.23000
H  30.98300 5.95900 35.24000
Mg -9.84500 18.07300 42.75500
C  -6.40800 17.60600 42.81800
C  -9.25800 21.36300 42.18500
C  -13.09900 18.35300 41.94900
C  -10.12100 14.50000 42.59500
N  -8.02200 19.28900 42.54700
C  -6.69600 18.89900 42.60800
C  -5.71600 20.11100 42.61800
C  -6.76700 21.31100 42.83400
C  -8.09300 20.63700 42.51400
C  -6.73200 21.90500 44.29400
C  -4.98700 20.21000 41.23000
C  -5.77500 20.30400 39.95600
H  -5.68200 19.11800 39.00500
N  -11.02700 19.65600 42.06100
C  -10.58600 20.89600 41.83500
C  -11.64300 21.75300 41.38600
C  -12.84600 20.99300 41.56200
C  -12.44100 19.60200 41.87200
C  -11.45300 23.32200 40.94800
C  -14.23100 21.58200 41.28300
O  -14.45900 22.75500 41.04400
C  -15.40000 20.69800 41.52300
N  -11.38100 16.64700 42.17500
C  -12.65600 17.02900 42.08900
C  -13.71000 15.81200 42.20400
C  -12.68900 14.61300 42.33500
C  -11.29700 15.26400 42.32500
C  -14.75500 16.00100 43.32000
C  -12.75200 13.47400 41.18200
C  -13.22200 12.09100 41.58800
N  -8.56900 16.38000 42.80500
C  -8.83500 14.99000 42.78800
C  -7.58500 14.26600 42.99100
C  -6.58700 15.28500 43.03400
C  -7.23800 16.52100 42.87100
C  -7.35600 12.76000 43.00400
C  -5.19500 15.43900 43.22300
O  -4.33200 14.60200 43.43900
C  -5.01900 17.01000 43.11800
C  -4.43100 17.42600 44.36700
O  -3.34100 18.01900 44.54500
O  -5.38600 17.30000 45.43100
C  -5.08600 17.76000 46.79000
H  -9.08800 22.43200 42.33000
H  -14.18900 18.28800 41.91200
H  -10.23400 13.41300 42.59400
H  -5.04500 19.86200 43.44100
H  -6.40100 22.09200 42.16800
H  -7.73600 21.68000 44.65400
H  -6.70300 22.99200 44.37300
H  -5.92200 21.52700 44.91800
H  -4.25100 19.41000 41.15900
H  -4.28900 21.03500 41.37500
H  -5.42200 21.16700 39.39100
H  -6.82600 20.55600 40.09500
H  -11.89000 23.45400 39.95900
H  -10.38400 23.52700 40.88600
H  -11.84100 24.00400 41.70500
H  -15.32900 19.78500 40.93000
H  -16.34300 21.22300 41.36800
H  -15.56200 20.33700 42.53800
H  -14.20900 15.70000 41.24200
H  -12.80600 14.18300 43.33000
H  -14.53400 16.79900 44.02900
H  -14.79900 15.04200 43.83700
H  -15.75700 16.20800 42.94500
H  -11.83700 13.41900 40.59200
H  -13.49300 13.92200 40.52000
H  -12.85100 11.82300 42.57700
H  -12.80100 11.33600 40.92400
H  -14.30300 11.94800 41.60900
H  -7.56700 12.45700 44.02900
H  -6.35500 12.42900 42.72500
H  -8.15300 12.35700 42.37900
H  -4.40000 17.19300 42.23900
H  -4.07900 18.17500 46.84500
H  -4.97500 16.92800 47.48500
H  -5.80100 18.52600 47.08900

