158

Mg 46.13100 25.27100 28.16400
C  47.09600 27.35000 30.78500
C  45.40100 22.74500 30.50700
C  46.03300 22.88100 25.64900
C  47.54900 27.53100 25.89700
N  46.33500 25.12700 30.37400
C  46.56500 26.15900 31.23000
C  46.24500 25.78000 32.73800
C  45.74100 24.30300 32.64600
C  45.78500 24.06100 31.07000
C  46.53500 23.36800 33.55800
C  45.14500 26.71700 33.43000
C  45.53200 27.51300 34.70800
H  44.51200 27.53100 35.82100
N  45.62400 23.11400 28.02900
C  45.35300 22.32300 29.16900
C  44.90800 21.02800 28.66000
C  45.19400 20.99300 27.27300
C  45.65200 22.34500 26.93600
C  44.24100 19.96900 29.64500
C  45.13500 19.80200 26.30400
O  45.17200 20.01700 25.05900
C  45.06500 18.42500 26.76400
N  46.58400 25.27900 26.11300
C  46.46100 24.16800 25.28600
C  46.76800 24.61100 23.80100
C  47.14200 26.11300 23.91000
C  47.01400 26.31700 25.38700
C  47.77900 23.71100 23.09900
C  46.33700 27.09600 23.05300
C  47.24700 27.85600 22.06200
N  47.17400 27.10200 28.26600
C  47.58600 27.96200 27.23800
C  48.25600 29.14900 27.89500
C  47.95800 29.01000 29.27800
C  47.36400 27.69800 29.40700
C  48.84400 30.19600 27.18900
C  48.12800 29.66000 30.53500
O  48.51300 30.79300 30.82700
C  47.51800 28.61100 31.51400
C  48.59800 28.18400 32.38100
O  49.60000 27.57600 31.98600
O  48.34200 28.69900 33.64600
C  49.35700 28.30100 34.64400
H  45.08800 22.16900 31.38000
H  45.97700 22.12400 24.86400
H  48.02300 28.23000 25.20500
H  47.17900 25.74900 33.29800
H  44.66100 24.30900 32.79700
H  46.98200 23.98500 34.33700
H  47.38600 22.87100 33.09100
H  45.91500 22.64500 34.08900
H  44.28100 26.06600 33.56200
H  44.84000 27.41000 32.64500
H  45.56200 28.55000 34.37200
H  46.45600 27.22900 35.21200
H  43.49700 19.41300 29.07600
H  43.68600 20.47500 30.43500
H  44.90800 19.19400 30.02400
H  45.47200 17.72900 26.03100
H  43.99100 18.24400 26.80500
H  45.61100 18.29600 27.69800
H  45.81400 24.53600 23.28000
H  48.20400 26.13000 23.66600
H  48.06800 22.81500 23.64900
H  48.68300 24.22200 22.76900
H  47.31600 23.29000 22.20600
H  45.86700 27.90700 23.61000
H  45.46900 26.57900 22.64400
H  48.18800 27.32800 21.90600
H  47.48400 28.82500 22.50300
H  46.79700 28.05800 21.09100
H  49.23600 31.03200 27.76800
H  48.06500 30.58600 26.53400
H  49.62600 29.70300 26.61200
H  46.66200 29.10300 31.97700
H  50.22700 27.72800 34.32300
H  48.93100 27.57800 35.34000
H  49.76600 29.15300 35.18700
Mg -10.25500 17.72200 42.94200
C  -6.81000 16.70100 42.63000
C  -9.10400 20.96400 41.99300
C  -13.37000 18.55200 42.13300
C  -11.04200 14.40600 43.34900
N  -8.22900 18.71100 42.25200
C  -6.95500 18.10200 42.39500
C  -5.80100 19.10200 42.15600
C  -6.53600 20.42600 42.18200
C  -8.00500 20.01500 42.20700
C  -6.18300 21.36800 43.36300
C  -5.02400 18.96600 40.81700
C  -5.74700 18.57300 39.52200
H  -4.95800 18.64900 38.20200
N  -11.13300 19.49900 42.22400
C  -10.51200 20.71000 41.95100
C  -11.48500 21.63100 41.56000
C  -12.77500 20.97600 41.55500
C  -12.51200 19.62400 41.94200
C  -11.15300 23.00700 41.01900
C  -14.13700 21.61700 40.99200
O  -14.15100 22.78100 40.61200
C  -15.37700 20.86600 40.85400
N  -11.91500 16.62100 42.70000
C  -13.09900 17.22900 42.50000
C  -14.27900 16.22500 42.68900
C  -13.54400 14.87900 42.95100
C  -12.05500 15.31100 42.97000
C  -15.41400 16.61600 43.73400
C  -13.78200 13.83200 41.81800
C  -13.80000 12.31000 42.19800
N  -9.20000 15.89800 43.08500
C  -9.66100 14.58000 43.15000
C  -8.60800 13.61700 43.14400
C  -7.46000 14.39300 42.97100
C  -7.85500 15.78300 42.87300
C  -8.83000 12.15200 43.42200
C  -5.96300 14.33200 42.89100
O  -5.12300 13.47900 42.89200
C  -5.51800 15.84300 42.50000
C  -4.46000 16.23800 43.48800
O  -3.26200 16.28000 43.35600
O  -5.04900 16.82400 44.59300
C  -4.06000 17.34500 45.62300
H  -8.80600 21.99800 41.80800
H  -14.43300 18.76100 41.99200
H  -11.40500 13.41300 43.62200
H  -5.06600 19.02600 42.95800
H  -6.37700 21.07100 41.31800
H  -5.35300 20.98500 43.95800
H  -7.01600 21.51500 44.05000
H  -5.83100 22.32600 42.97900
H  -4.38400 18.08800 40.91000
H  -4.39600 19.83900 40.64200
H  -6.67100 19.13500 39.38500
H  -6.07300 17.54300 39.66900
H  -11.76000 23.47000 40.24100
H  -10.19000 23.00700 40.50700
H  -10.99900 23.69500 41.85000
H  -15.84700 20.59800 41.80100
H  -15.16200 19.98600 40.24700
H  -16.11200 21.49400 40.35200
H  -14.97800 16.18700 41.85400
H  -13.71500 14.47200 43.94800
H  -16.35400 16.99500 43.33200
H  -14.89200 17.26500 44.43700
H  -15.61600 15.65800 44.21200
H  -12.95100 13.87700 41.11500
H  -14.59400 14.06400 41.12900
H  -14.85600 12.08200 42.04700
H  -13.48700 12.25100 43.24100
H  -13.14200 11.73400 41.54700
H  -8.85200 11.53000 42.52800
H  -9.70500 11.94400 44.03900
H  -7.95300 11.82300 43.97900
H  -5.21300 15.77700 41.45500
H  -3.30600 16.60200 45.88000
H  -4.58000 17.49700 46.56900
H  -3.59400 18.28000 45.31100

