158

Mg 6.95400 54.58500 41.51100
C  6.64500 51.01100 41.30800
C  10.07100 54.30600 40.34300
C  7.02100 57.82200 41.28200
C  3.47700 54.60400 42.19300
N  8.13200 52.81400 40.79700
C  7.96500 51.45900 40.91500
C  9.25000 50.60600 40.58200
C  10.30400 51.75900 40.68900
C  9.42600 53.01900 40.54800
C  10.99800 51.90900 42.14600
C  9.23100 49.89400 39.27700
C  8.89800 50.71400 38.01000
H  7.49700 50.68200 37.46800
N  8.34400 55.90600 40.79100
C  9.61900 55.56000 40.35600
C  10.34700 56.79300 40.08100
C  9.46800 57.90200 40.44300
C  8.23700 57.25900 40.91200
C  11.77200 56.86200 39.58800
C  9.80300 59.36900 40.24100
O  10.79900 59.73200 39.63100
C  8.85900 60.45600 40.78000
N  5.41100 56.02300 41.46800
C  5.76200 57.29800 41.50100
C  4.58600 58.16700 42.00200
C  3.42300 57.10000 41.91600
C  4.11500 55.81400 41.87300
C  4.83600 58.62800 43.51000
C  2.31000 57.22900 40.87300
C  0.87300 57.62900 41.28300
N  5.41500 53.14800 41.90100
C  4.05300 53.27100 42.12400
C  3.49100 52.01400 42.51700
C  4.47700 51.12900 42.16900
C  5.56700 51.86000 41.68900
C  2.08000 51.69900 42.86700
C  4.77300 49.72100 42.17700
O  4.05500 48.82800 42.66000
C  6.15900 49.59500 41.45300
C  5.82700 48.98300 40.15400
O  4.90700 49.29200 39.35400
O  6.54500 47.85100 40.02800
C  5.94600 46.88300 39.03800
H  11.15000 54.24600 40.18900
H  6.95000 58.91100 41.26400
H  2.41700 54.48900 42.42800
H  9.48100 49.90300 41.38300
H  11.12500 51.67900 39.97600
H  10.77800 51.00800 42.72000
H  10.56400 52.79500 42.61000
H  12.07300 52.08400 42.16500
H  8.54200 49.05100 39.23900
H  10.23900 49.48000 39.30800
H  9.61900 50.41400 37.25000
H  9.09300 51.76600 38.21700
H  12.21800 57.84100 39.41300
H  11.77200 56.26400 38.67600
H  12.28800 56.26900 40.34300
H  9.43000 61.37900 40.67600
H  8.62900 60.22400 41.82000
H  7.98800 60.62200 40.14600
H  4.48700 58.97500 41.27600
H  2.83800 57.03700 42.83400
H  5.90500 58.73300 43.69500
H  4.29200 58.05000 44.25700
H  4.38600 59.59900 43.71600
H  2.12000 56.23000 40.48100
H  2.59900 57.94200 40.10100
H  0.84800 57.94900 42.32400
H  0.20900 56.76600 41.31100
H  0.44200 58.42300 40.67200
H  1.36800 52.52400 42.85000
H  2.04000 51.25300 43.86000
H  1.61800 50.92000 42.26000
H  6.80700 48.92600 42.01900
H  6.28500 47.33900 38.10800
H  4.86600 46.74700 39.08700
H  6.29000 45.85100 39.11100
Mg -1.24000 34.35000 25.77200
C  -2.97100 32.76900 28.33800
C  -0.19000 36.71100 27.98900
C  0.01900 36.01000 23.14100
C  -2.76100 32.06300 23.48700
N  -1.61600 34.71000 27.87700
C  -2.17900 33.84600 28.74400
C  -1.95700 34.29300 30.22300
C  -1.07900 35.61500 30.08400
C  -0.94200 35.67600 28.52200
C  -1.67700 36.86800 30.76100
C  -1.32800 33.33900 31.25700
C  -1.95900 33.31000 32.62700
H  -1.19000 32.57700 33.72300
N  -0.03000 36.01600 25.64000
C  0.18700 36.93300 26.61900
C  0.91700 38.02300 26.06200
C  1.09600 37.76100 24.64800
C  0.36700 36.51300 24.44300
C  1.53100 39.14600 26.91000
C  1.71400 38.64400 23.55900
O  1.62100 38.45800 22.39100
C  2.37000 39.88700 23.95400
N  -1.35300 34.08500 23.56700
C  -0.66700 34.85600 22.78500
C  -0.87300 34.39800 21.28500
C  -1.41900 32.94500 21.47300
C  -1.86700 32.99300 22.93200
C  -1.70800 35.24700 20.33500
C  -0.39300 31.71300 21.20500
C  0.26400 31.10300 22.51800
N  -2.57200 32.79300 25.86200
C  -3.04000 31.91500 24.87100
C  -3.91000 30.90800 25.39300
C  -3.90100 31.24700 26.75000
C  -3.01000 32.30900 26.97400
C  -4.80700 29.92800 24.65900
C  -4.52100 30.94700 27.97800
O  -5.34700 30.07200 28.21800
C  -3.86400 31.86000 29.10400
C  -4.91900 32.52000 29.96800
O  -5.53700 33.46700 29.56500
O  -5.04200 31.99100 31.23000
C  -5.97500 32.62300 32.16600
H  0.21100 37.42300 28.71400
H  0.44500 36.50200 22.26400
H  -3.11200 31.21700 22.89300
H  -2.92900 34.43500 30.69600
H  -0.03300 35.66100 30.38400
H  -2.32400 36.59900 31.59600
H  -2.14900 37.58200 30.08600
H  -0.93600 37.48700 31.26700
H  -0.29800 33.59700 31.50600
H  -1.22200 32.32600 30.87100
H  -2.91000 32.79500 32.49100
H  -2.12200 34.30500 33.04300
H  2.61600 39.09700 26.82000
H  1.34400 38.91000 27.95800
H  1.09300 40.10800 26.64500
H  1.63300 40.49200 24.48200
H  2.59800 40.47900 23.06700
H  3.31800 39.71100 24.46200
H  0.11000 34.35300 20.81700
H  -2.19700 32.87300 20.71300
H  -2.73800 34.91900 20.19500
H  -1.31500 35.37800 19.32700
H  -1.86400 36.24600 20.74300
H  0.34800 32.11300 20.51300
H  -0.87000 30.87900 20.69100
H  -0.02500 31.65900 23.41000
H  1.34800 31.21700 22.50200
H  0.04300 30.03600 22.52900
H  -4.32900 29.68400 23.71100
H  -5.71400 30.46000 24.37500
H  -4.93400 28.98700 25.19500
H  -3.13100 31.34200 29.72300
H  -6.64900 33.33300 31.68600
H  -5.45500 33.06100 33.01800
H  -6.52200 31.74100 32.49800

