158

Mg 1.80800 -0.91200 44.66400
C  5.11700 0.04100 43.77100
C  0.65100 1.84500 42.97300
C  -1.11300 -2.32100 44.88900
C  3.32500 -3.90800 46.05000
N  2.78500 0.72700 43.47400
C  4.15900 0.89300 43.29400
C  4.43400 2.17800 42.49000
C  3.05800 2.81400 42.33700
C  2.10200 1.73700 42.92300
C  2.89300 4.15700 43.10100
C  5.25800 2.03300 41.12900
C  6.02900 3.25900 40.61500
H  5.80700 3.84300 39.22500
N  -0.06600 -0.24000 44.17100
C  -0.35100 0.92200 43.49800
C  -1.80100 1.01300 43.32600
C  -2.36500 -0.15500 43.92300
C  -1.18400 -0.95700 44.43200
C  -2.46000 2.15300 42.50300
C  -3.88600 -0.49900 43.88100
O  -4.69300 0.30200 43.33300
C  -4.42000 -1.74700 44.40500
N  1.19500 -2.86800 45.44000
C  -0.09600 -3.18000 45.34900
C  -0.34800 -4.62900 45.79000
C  1.06200 -5.06600 46.36900
C  1.95500 -3.87600 45.98700
C  -1.53300 -4.74600 46.80500
C  1.57200 -6.50000 45.93000
C  2.22900 -7.34400 47.01800
N  3.73700 -1.81200 44.82000
C  4.23500 -2.98300 45.44100
C  5.64900 -3.09300 45.38500
C  6.01000 -1.87700 44.82700
C  4.87200 -1.12200 44.48200
C  6.55000 -4.23700 45.80600
C  7.18300 -1.07600 44.43500
O  8.38700 -1.42800 44.48600
C  6.60800 0.27100 43.83100
C  7.07900 1.38700 44.63200
O  6.71300 1.56800 45.76900
O  8.01300 2.25500 43.97800
C  8.35300 3.59200 44.60600
H  0.40700 2.71200 42.35600
H  -2.07200 -2.84200 44.90300
H  3.84000 -4.73000 46.55200
H  5.11200 2.80100 43.07400
H  2.78900 3.05800 41.31000
H  2.10400 4.15700 43.85300
H  2.82200 4.89100 42.29800
H  3.81400 4.38200 43.63900
H  4.56400 1.67600 40.36800
H  5.92500 1.18400 41.28000
H  7.09700 3.11500 40.78000
H  5.72000 4.14300 41.17300
H  -3.30900 2.52300 43.07900
H  -2.75100 1.80700 41.51200
H  -1.83500 3.03700 42.37500
H  -5.42800 -1.53300 44.76300
H  -3.88500 -2.00300 45.32000
H  -4.32400 -2.56500 43.69200
H  -0.47700 -5.17100 44.85400
H  0.94700 -5.11100 47.45200
H  -1.98900 -3.76900 46.96900
H  -1.42800 -5.26100 47.75900
H  -2.25100 -5.34900 46.24800
H  2.35800 -6.45300 45.17600
H  0.69900 -7.05900 45.59200
H  1.95900 -8.38000 46.81400
H  1.99900 -7.16500 48.06900
H  3.29000 -7.22000 46.79900
H  6.29600 -4.63900 46.78700
H  7.55900 -3.87900 46.00900
H  6.42500 -5.01100 45.04900
H  7.13700 0.29800 42.87800
H  8.80800 4.30500 43.91900
H  8.87200 3.44200 45.55300
H  7.46800 4.12200 44.95700
Mg 17.15100 -1.06200 28.04500
C  15.84300 1.03100 30.68300
C  18.93800 -2.72600 30.25300
C  18.66100 -2.35200 25.46200
C  15.40400 1.23400 25.84900
N  17.29300 -0.92700 30.22700
C  16.61500 -0.11000 31.08400
C  16.97100 -0.44600 32.53700
C  18.19500 -1.42000 32.43200
C  18.13700 -1.75700 30.89000
C  19.59600 -0.85300 32.80600
C  15.67800 -0.88900 33.36100
C  15.59100 -0.60500 34.83100
H  16.83500 -0.17500 35.70800
N  18.50500 -2.41700 27.88800
C  19.08700 -3.05400 28.91800
C  19.91900 -4.07400 28.38100
C  19.78900 -4.06700 26.95700
C  19.00000 -2.96300 26.69400
C  20.74600 -5.04200 29.27800
C  20.37600 -4.97700 25.95100
O  20.26700 -4.80900 24.71100
C  21.15500 -6.18700 26.37100
N  17.10000 -0.52100 25.95700
C  17.80400 -1.26200 25.09600
C  17.74200 -0.74800 23.65400
C  16.55400 0.26500 23.83900
C  16.22900 0.28000 25.31200
C  19.03800 -0.03200 23.14000
C  15.40600 -0.04500 22.80300
C  14.20500 -0.84900 23.25100
N  15.80300 0.63000 28.13500
C  15.13300 1.37700 27.18700
C  14.22300 2.38300 27.79600
C  14.49300 2.24900 29.23600
C  15.48200 1.24800 29.36100
C  13.45200 3.36000 27.02300
C  14.19800 2.83000 30.43000
O  13.51700 3.77800 30.66800
C  15.04600 2.00500 31.56200
C  15.88500 2.92700 32.36900
O  16.97600 3.35600 32.04800
O  15.33000 3.11600 33.62700
C  16.03700 4.03100 34.57300
H  19.48600 -3.28100 31.01700
H  19.12400 -2.76600 24.56300
H  14.89000 1.88100 25.13500
H  17.36300 0.42700 33.05900
H  17.92000 -2.23700 33.10000
H  20.23300 -1.40000 33.50000
H  19.41600 0.11000 33.28400
H  20.22800 -0.76700 31.92200
H  15.66000 -1.97200 33.23500
H  14.78400 -0.42200 32.94900
H  15.40400 -1.60700 35.21700
H  14.67300 -0.07900 35.09600
H  21.77700 -5.06600 28.92700
H  20.35300 -6.05800 29.32200
H  20.71600 -4.70500 30.31400
H  22.20800 -5.90900 26.31300
H  20.93000 -6.99700 25.67700
H  20.97100 -6.68800 27.32100
H  17.48500 -1.49000 22.89700
H  16.96400 1.26000 23.66400
H  19.73300 -0.03900 23.98000
H  19.01500 1.02200 22.86400
H  19.50700 -0.70700 22.42400
H  15.77200 -0.45400 21.86100
H  14.90200 0.87700 22.51300
H  13.45700 -0.11800 23.55900
H  14.58100 -1.48700 24.05100
H  13.91500 -1.44900 22.38800
H  12.41600 3.12300 27.26500
H  13.49500 3.18000 25.94900
H  13.80800 4.38300 27.14500
H  14.33800 1.54600 32.25200
H  16.43400 4.92000 34.08400
H  16.90500 3.53200 35.00300
H  15.33900 4.35700 35.34400

