158

Mg -0.19000 7.58200 25.17600
C  1.05200 9.56300 27.80600
C  0.03200 4.81900 27.21800
C  -0.98500 5.69300 22.56400
C  0.57000 10.23400 22.98500
N  0.57700 7.24100 27.27100
C  0.64400 8.21100 28.23600
C  0.63000 7.57100 29.64300
C  0.64600 6.04300 29.27800
C  0.43500 6.00800 27.77700
C  1.96100 5.24400 29.69400
C  -0.58400 8.02200 30.40800
C  -0.43400 7.94000 31.97000
H  0.88000 7.51900 32.59700
N  -0.66500 5.55100 24.99100
C  -0.56400 4.49900 25.91300
C  -1.19900 3.35700 25.46800
C  -1.37500 3.62600 24.03300
C  -0.97300 4.98300 23.79800
C  -1.41400 2.18700 26.46500
C  -1.88300 2.66500 23.02900
O  -2.19200 3.03400 21.87800
C  -2.16600 1.25800 23.39000
N  0.09800 7.78600 22.98400
C  -0.50700 6.93000 22.14600
C  -0.74000 7.59800 20.79600
C  -0.04000 8.97700 20.88300
C  0.23700 9.04500 22.39300
C  -0.19000 6.71100 19.57400
C  -0.83700 10.13600 20.38400
C  -2.10000 10.52600 21.23600
N  0.58200 9.56600 25.28000
C  0.78400 10.54500 24.35900
C  1.17500 11.79500 25.04500
C  1.33800 11.41400 26.35100
C  1.02500 10.03400 26.44600
C  1.38200 13.12300 24.35500
C  1.67700 11.92000 27.66800
O  1.99800 13.00800 28.02600
C  1.48500 10.74600 28.68500
C  2.68600 10.53400 29.58000
O  3.43100 9.62100 29.46000
O  2.69600 11.45400 30.60700
C  3.83400 11.44700 31.52200
H  -0.06100 4.04700 27.98500
H  -1.41400 5.22600 21.67500
H  0.78700 11.07900 22.32800
H  1.53700 7.83200 30.18900
H  -0.14300 5.48400 29.78100
H  2.73600 5.80800 30.21300
H  2.32500 4.83900 28.75000
H  1.68200 4.43300 30.36700
H  -1.44700 7.38800 30.20600
H  -0.86400 9.05700 30.21300
H  -1.17100 7.21500 32.31400
H  -0.62900 8.90600 32.43600
H  -0.68900 1.40300 26.24800
H  -2.45200 1.85700 26.49800
H  -1.27100 2.54500 27.48400
H  -1.40800 0.75000 23.98500
H  -2.40300 0.66400 22.50700
H  -3.11500 1.29500 23.92400
H  -1.81700 7.74500 20.72700
H  0.90600 9.02400 20.34300
H  -0.96800 6.02400 19.24000
H  0.52300 5.98200 19.96000
H  0.24300 7.28300 18.75300
H  -1.14800 10.00000 19.34800
H  -0.19100 11.00200 20.24100
H  -2.99100 10.69000 20.63000
H  -1.79600 11.50700 21.60200
H  -2.44900 10.03600 22.14400
H  0.52300 13.52300 23.81600
H  2.14400 13.07200 23.57700
H  1.80000 13.90600 24.98700
H  0.67200 10.98600 29.37000
H  4.73400 11.45700 30.90800
H  3.77800 10.53400 32.11600
H  3.78500 12.29700 32.20200
Mg 25.78100 1.69000 29.73700
C  27.88300 1.19400 32.59600
C  23.16700 2.29900 31.79700
C  23.68400 1.29900 27.12900
C  28.43400 0.57700 27.72900
N  25.60200 1.68000 31.93500
C  26.56600 1.50200 32.91700
C  26.07300 2.09500 34.24200
C  24.51900 2.33700 33.96400
C  24.41300 2.04000 32.47000
C  23.51500 1.47400 34.75200
C  26.86800 3.26700 34.81300
C  27.67900 3.01400 36.05300
H  27.18700 3.75300 37.38800
N  23.73500 1.88100 29.47300
C  22.86100 2.08900 30.45300
C  21.59300 2.29300 29.91400
C  21.62600 1.94900 28.53200
C  23.04800 1.67600 28.33300
C  20.38900 2.60100 30.72800
C  20.54800 1.81300 27.57200
O  20.72700 1.36000 26.50100
C  19.11500 2.14800 27.95000
N  26.05300 1.06500 27.72400
C  25.06000 1.03700 26.79700
C  25.61900 0.83600 25.34900
C  27.08800 0.52400 25.52800
C  27.18000 0.77600 27.06100
C  24.83500 -0.15900 24.47600
C  28.05000 1.42600 24.67400
C  28.85700 0.68100 23.58400
N  27.74600 1.02600 30.10000
C  28.67700 0.57700 29.13000
C  29.93500 0.24900 29.80500
C  29.66600 0.52000 31.15000
C  28.32300 0.91000 31.30900
C  31.24800 -0.15200 29.10400
C  30.24700 0.51800 32.46100
O  31.42100 0.31400 32.78500
C  29.15200 1.00600 33.47300
C  29.00900 -0.01200 34.53800
O  28.40000 -1.05000 34.39500
O  29.71700 0.29700 35.65500
C  29.44800 -0.56500 36.80800
H  22.34500 2.56500 32.46500
H  23.05000 1.17100 26.24900
H  29.26100 0.30000 27.07200
H  26.16200 1.23200 34.90200
H  24.33400 3.38900 34.17900
H  24.11600 0.68500 35.20400
H  22.77500 0.95800 34.14000
H  23.16700 2.12300 35.55500
H  26.18600 4.09400 35.00600
H  27.61500 3.52400 34.06200
H  28.71500 3.32700 35.92300
H  27.64000 1.93600 36.20800
H  19.90400 3.40300 30.17200
H  20.59200 3.05000 31.70000
H  19.74400 1.72500 30.79000
H  18.67100 1.53600 28.73500
H  18.52300 2.02000 27.04400
H  18.90600 3.16100 28.29500
H  25.53700 1.86000 24.98500
H  27.29300 -0.53200 25.35000
H  23.88800 -0.40100 24.95900
H  25.40800 -1.07100 24.31100
H  24.57800 0.28600 23.51500
H  28.81700 1.71700 25.39200
H  27.51400 2.29800 24.30000
H  28.23600 0.69900 22.68800
H  29.30600 -0.28200 23.82900
H  29.69800 1.34600 23.38800
H  31.60000 0.67700 28.49000
H  31.13000 -1.05200 28.50100
H  31.98200 -0.38200 29.87600
H  29.43600 1.90400 34.02100
H  30.38300 -0.58400 37.36900
H  29.39800 -1.61700 36.52700
H  28.61300 -0.25400 37.43600

