158

Mg 39.85500 8.69000 28.59500
C  41.68300 9.78500 31.42800
C  37.69900 7.04400 30.95300
C  38.20400 7.27600 26.08000
C  42.48200 9.68800 26.61400
N  39.74700 8.42400 30.88400
C  40.50600 9.14700 31.80100
C  39.93700 9.08100 33.21200
C  38.94200 7.86600 33.07400
C  38.76600 7.75000 31.48800
C  39.40000 6.58200 33.77200
C  39.21300 10.37200 33.75200
C  39.60600 10.78900 35.19100
H  39.86800 12.32400 35.40700
N  38.06500 7.37200 28.49700
C  37.40300 6.87000 29.55900
C  36.34200 6.09000 29.09000
C  36.34200 6.20300 27.64600
C  37.58900 6.98500 27.33900
C  35.34300 5.49100 29.97700
C  35.39800 5.55600 26.61800
O  35.44600 5.78500 25.44200
C  34.19300 4.84100 27.11000
N  40.21900 8.60900 26.68100
C  39.31400 8.06100 25.80600
C  39.76900 8.21600 24.35900
C  41.07800 9.06100 24.53800
C  41.29800 9.11300 26.04700
C  40.10500 6.90300 23.53500
C  40.87000 10.47600 23.93700
C  40.05100 11.47800 24.67000
N  41.72800 9.49900 28.84000
C  42.66300 9.93000 27.95900
C  43.82400 10.47900 28.61900
C  43.40900 10.48800 29.98300
C  42.21200 9.76400 30.05400
C  45.07500 10.90500 27.90300
C  43.73100 11.01500 31.22600
O  44.76000 11.65800 31.59300
C  42.74100 10.51600 32.27200
C  43.45800 9.78400 33.38500
O  44.20900 8.85500 33.29700
O  43.25200 10.48700 34.56000
C  43.88700 9.99800 35.77400
H  37.14700 6.55800 31.76100
H  37.57000 6.80600 25.32500
H  43.22500 10.10300 25.93000
H  40.81500 8.89100 33.82900
H  37.95400 8.05200 33.49400
H  40.29600 6.73700 34.37300
H  39.45700 5.74400 33.07800
H  38.63000 6.34600 34.50700
H  38.13600 10.21700 33.67900
H  39.36400 11.12300 32.97600
H  40.52000 10.29900 35.52600
H  38.82300 10.38500 35.83200
H  35.15800 5.97900 30.93400
H  35.37600 4.40300 29.92900
H  34.39200 5.79900 29.54400
H  34.51900 4.09000 27.83000
H  33.57800 4.39200 26.33000
H  33.59300 5.58500 27.63400
H  38.94700 8.77500 23.91100
H  41.93300 8.47500 24.19900
H  41.14600 6.81800 23.22400
H  39.47700 6.95400 22.64500
H  39.98900 5.95800 24.06500
H  40.38000 10.28100 22.98300
H  41.84700 10.85300 23.63500
H  40.27500 11.35800 25.73000
H  38.99400 11.23200 24.57600
H  40.20900 12.50800 24.35100
H  45.73000 11.31700 28.67100
H  44.68600 11.69400 27.26000
H  45.59700 10.12200 27.35300
H  42.12800 11.33800 32.64100
H  43.25200 10.20600 36.63500
H  44.84600 10.49300 35.92300
H  44.05000 8.92200 35.71200
Mg 1.01900 43.03600 26.42600
C  3.41800 43.08600 28.90800
C  -1.31700 41.95400 28.73000
C  -0.98800 42.39000 23.93700
C  3.72100 43.46100 24.11000
N  1.03600 42.62500 28.52400
C  2.10500 42.87900 29.42500
C  1.63400 42.88700 30.88600
C  0.15200 42.26700 30.77200
C  -0.05700 42.32100 29.24400
C  -0.16400 40.88800 31.42900
C  1.65900 44.35700 31.50800
C  1.70400 44.41600 33.03900
H  1.33800 43.10600 33.76700
N  -0.89800 42.34800 26.38400
C  -1.67800 41.97600 27.39400
C  -3.00500 41.74900 26.87900
C  -2.94200 41.77900 25.41600
C  -1.55600 42.16900 25.20000
C  -4.16800 41.52300 27.88600
C  -4.01200 41.47500 24.44700
O  -3.80800 41.42500 23.22800
C  -5.39400 41.25500 24.88400
N  1.36900 43.00100 24.30600
C  0.30400 42.68500 23.54800
C  0.72200 42.84900 21.98400
C  2.13200 43.45900 22.02200
C  2.49000 43.29600 23.52600
C  0.60000 41.55900 21.15300
C  2.29700 44.88200 21.53800
C  1.56800 45.97000 22.39300
N  3.12100 43.20100 26.40700
C  4.03000 43.45000 25.45600
C  5.34900 43.57900 26.06500
C  5.13900 43.33700 27.45000
C  3.72800 43.25700 27.59600
C  6.63500 43.84200 25.40200
C  5.77500 43.21000 28.66300
O  6.95600 43.19700 29.05300
C  4.65800 43.11400 29.74500
C  4.94800 41.88000 30.60100
O  5.11700 40.70000 30.24000
O  4.96200 42.28400 31.91400
C  5.10400 41.27600 32.97100
H  -1.96700 41.62100 29.54200
H  -1.64300 42.21900 23.08100
H  4.51300 43.87800 23.48400
H  2.19800 42.17000 31.48100
H  -0.55700 42.98100 31.19000
H  0.66000 40.39700 31.94700
H  -0.45100 40.17200 30.66000
H  -0.99400 40.98500 32.13000
H  0.73000 44.80400 31.15400
H  2.47300 44.92700 31.06000
H  0.96800 45.08300 33.48800
H  2.71300 44.76800 33.25700
H  -4.82800 42.37800 27.73900
H  -3.83500 41.70500 28.90800
H  -4.78900 40.63100 27.80700
H  -6.08100 41.05100 24.06200
H  -5.72500 42.06000 25.54000
H  -5.23400 40.36700 25.49600
H  0.06000 43.58700 21.53000
H  2.75600 42.78400 21.43700
H  1.50200 40.95000 21.20800
H  0.25600 41.78100 20.14300
H  -0.29100 41.08500 21.56600
H  1.83300 44.94900 20.55400
H  3.37800 45.02400 21.54300
H  0.70200 45.62700 22.96000
H  1.20400 46.73500 21.70700
H  2.30400 46.41800 23.06100
H  7.41300 44.30400 26.01100
H  6.34700 44.67100 24.75600
H  7.11200 43.03400 24.84800
H  4.59500 43.97600 30.40900
H  4.75900 40.29800 32.63500
H  4.50800 41.71300 33.77200
H  6.11600 41.20400 33.36900

