158

Mg 47.43800 34.02200 26.57300
C  45.91600 32.81200 29.40000
C  47.88200 37.01200 28.28900
C  48.55000 35.49500 23.59000
C  46.62200 31.19000 24.69200
N  47.02100 34.80000 28.59500
C  46.44400 34.07900 29.60200
C  46.70100 34.73000 30.93100
C  46.97600 36.22600 30.52300
C  47.35500 35.99700 29.05800
C  45.73100 37.22600 30.66100
C  47.86800 34.07100 31.65500
C  47.85000 34.32200 33.16400
H  46.67500 35.09900 33.68800
N  48.17400 35.99700 26.05600
C  48.33700 36.99400 26.93900
C  49.11500 38.07600 26.31300
C  49.22200 37.69200 24.92100
C  48.67400 36.33400 24.79200
C  49.42700 39.41200 26.96800
C  49.95300 38.45000 23.78000
O  50.15300 37.98700 22.68000
C  50.32600 39.95100 24.06400
N  47.24500 33.50100 24.38300
C  48.03500 34.16500 23.45800
C  48.24300 33.41400 22.10400
C  47.66900 32.03600 22.53500
C  47.16700 32.23900 23.95000
C  47.59100 34.12900 20.89600
C  48.66100 30.80400 22.44200
C  49.76700 30.62900 23.50700
N  46.42900 32.37600 26.89200
C  46.23800 31.26200 26.10000
C  45.62400 30.20100 26.92100
C  45.43900 30.83200 28.19500
C  45.94700 32.12100 28.16500
C  45.27700 28.86900 26.48000
C  44.84800 30.63800 29.42700
O  44.06300 29.73400 29.73100
C  45.01400 31.86500 30.31300
C  45.41600 31.39700 31.61300
O  46.52100 31.13700 31.99000
O  44.29400 31.32500 32.40500
C  44.37600 31.41200 33.90200
H  48.32700 37.75800 28.95100
H  49.10700 35.80700 22.70400
H  46.54500 30.28200 24.09100
H  45.74900 34.66700 31.45900
H  47.88100 36.51500 31.05800
H  44.86500 36.77600 31.14700
H  45.50300 37.61500 29.66900
H  45.96300 38.09000 31.28300
H  48.82700 34.34100 31.21400
H  47.86200 32.98300 31.57900
H  48.69100 34.93200 33.49500
H  47.93500 33.30900 33.55700
H  50.50800 39.47700 27.08700
H  48.98500 39.53800 27.95700
H  49.16100 40.28700 26.37400
H  50.72900 40.28800 23.10900
H  51.14100 39.87600 24.78400
H  49.48300 40.55000 24.40700
H  49.31300 33.48700 21.91100
H  46.85500 31.86800 21.82900
H  46.87400 33.44000 20.45000
H  48.40900 34.32600 20.20300
H  47.11400 35.06900 21.17400
H  49.13500 30.98000 21.47600
H  48.09500 29.87600 22.36700
H  50.70200 30.94900 23.04500
H  49.86100 29.62100 23.91200
H  49.55100 31.35200 24.29400
H  46.19200 28.55300 25.97800
H  44.52600 28.90800 25.69100
H  44.88300 28.21800 27.26000
H  44.00000 32.25400 30.41300
H  44.80900 30.49600 34.30400
H  43.38700 31.61400 34.31400
H  45.00500 32.26200 34.16800
Mg -10.94300 15.62300 42.67400
C  -7.67400 16.71200 42.89300
C  -11.97300 18.77300 42.10600
C  -13.96100 14.37900 42.58500
C  -9.65500 12.28300 42.72900
N  -9.87300 17.45800 42.47100
C  -8.55400 17.70700 42.65600
C  -8.19900 19.05000 42.25900
C  -9.59700 19.83200 42.35700
C  -10.56300 18.62800 42.31100
C  -9.75300 20.62900 43.66500
C  -7.51400 19.12500 40.85500
C  -6.20000 19.99300 40.66100
H  -5.18000 19.43000 39.73300
N  -12.78700 16.49000 42.38400
C  -13.06600 17.80300 42.23100
C  -14.50500 17.98400 42.11500
C  -15.08400 16.73100 42.23100
C  -13.93500 15.79500 42.41300
C  -15.12100 19.31500 41.91600
C  -16.55600 16.33200 42.14600
O  -17.36900 17.22500 42.18100
C  -17.03900 14.93200 41.70000
N  -11.67900 13.65500 42.58400
C  -12.97500 13.44000 42.69600
C  -13.35900 12.01100 42.97000
C  -12.01000 11.33700 42.70500
C  -11.07100 12.51700 42.55800
C  -13.90500 11.79000 44.40400
C  -12.08500 10.26500 41.58300
C  -12.15500 8.76200 42.02700
N  -9.07400 14.60500 42.86400
C  -8.69800 13.29200 42.83000
C  -7.30600 13.18600 43.17100
C  -6.79400 14.48600 43.10100
C  -7.93500 15.31900 42.98200
C  -6.43200 11.90200 43.28800
C  -5.63600 15.43600 43.15900
O  -4.45200 15.18200 43.36400
C  -6.14800 16.92500 43.09800
C  -5.73400 17.49300 44.37200
O  -6.21800 17.29500 45.48700
O  -4.73700 18.44600 44.27900
C  -4.42100 19.35400 45.38800
H  -12.27000 19.79900 41.88200
H  -14.94000 13.89800 42.64100
H  -9.28700 11.25500 42.72500
H  -7.47800 19.48400 42.95200
H  -9.74200 20.43200 41.45900
H  -10.70100 20.50700 44.18800
H  -9.75400 21.67700 43.36500
H  -8.90300 20.44100 44.32000
H  -8.17100 19.56500 40.10500
H  -7.39800 18.10200 40.49700
H  -5.77600 20.11100 41.65800
H  -6.41600 21.03900 40.44500
H  -15.46000 19.40300 40.88400
H  -14.35200 20.07600 42.04900
H  -15.93400 19.47300 42.62500
H  -18.03000 15.05700 41.26300
H  -17.26100 14.17300 42.45000
H  -16.38200 14.42400 40.99300
H  -14.15100 11.54300 42.38500
H  -11.63100 10.82500 43.58900
H  -14.95100 11.48400 44.38800
H  -13.85600 12.78300 44.85200
H  -13.31300 11.08500 44.98800
H  -11.16900 10.37200 41.00200
H  -12.85500 10.62400 40.90100
H  -11.51200 8.03100 41.53600
H  -13.20200 8.49600 41.87600
H  -12.12200 8.60400 43.10500
H  -5.38400 12.16700 43.42500
H  -6.68000 11.55600 42.28400
H  -6.68200 11.20100 44.08400
H  -5.75300 17.45000 42.22800
H  -5.16100 19.30400 46.18600
H  -4.35000 20.38700 45.04700
H  -3.53900 19.01100 45.92900

