158

Mg 52.40000 24.55600 45.23100
C  49.71900 26.59200 44.25900
C  50.47100 21.75700 44.43700
C  55.24600 22.72400 45.19000
C  54.25600 27.43900 45.91200
N  50.42800 24.21900 44.14300
C  49.46900 25.22200 44.04200
C  48.08700 24.69000 43.70600
C  48.26000 23.16000 44.31700
C  49.83900 23.00900 44.26500
C  47.58700 22.86200 45.69300
C  47.74100 24.65600 42.19300
C  48.82600 24.17700 41.18300
H  48.94700 24.95600 39.87900
N  52.88400 22.47100 44.84500
C  51.83600 21.50800 44.63800
C  52.51000 20.22800 44.59300
C  53.93100 20.42500 44.76900
C  54.10800 21.91800 44.98200
C  51.70100 18.95400 44.14300
C  55.01900 19.33900 44.83800
O  54.75100 18.11900 44.76300
C  56.35000 19.68900 44.96000
N  54.48900 25.03900 45.48900
C  55.44800 24.06900 45.45300
C  56.79800 24.67400 45.53800
C  56.52300 26.18500 45.67300
C  54.95400 26.29800 45.65500
C  57.74200 24.04900 46.58400
C  57.40000 27.12100 44.74700
C  58.23000 28.23300 45.52900
N  52.06900 26.55100 45.30400
C  52.88600 27.59100 45.71000
C  52.11900 28.79500 45.76100
C  50.90100 28.47500 45.16000
C  50.88200 27.09800 44.87600
C  52.38400 30.11600 46.36700
C  49.66300 28.98500 44.70700
O  49.19600 30.16000 44.72600
C  48.80900 27.75000 44.22000
C  48.16800 28.14700 42.92100
O  48.80500 28.18000 41.84100
O  46.82000 28.14800 43.03600
C  45.97900 28.39800 41.91100
H  49.85600 20.85500 44.45400
H  56.18400 22.16700 45.15400
H  54.84200 28.35200 46.04200
H  47.32000 25.17100 44.31200
H  47.80700 22.48300 43.59300
H  46.99500 23.71300 46.03200
H  48.42000 22.55500 46.32500
H  46.87500 22.08000 45.42900
H  47.45600 25.66700 41.90300
H  46.83200 24.07500 42.03800
H  48.51800 23.15300 40.97000
H  49.82100 24.13600 41.62500
H  51.26600 18.48100 45.02400
H  52.37700 18.24600 43.66400
H  50.88600 19.11100 43.43800
H  56.97900 18.87200 44.60500
H  56.69400 19.87400 45.97800
H  56.64300 20.44800 44.23400
H  57.31300 24.47600 44.59800
H  56.75900 26.35300 46.72400
H  58.39400 24.81300 47.00800
H  58.43400 23.32300 46.15800
H  57.16900 23.64300 47.41800
H  56.81000 27.67500 44.01700
H  58.05000 26.37500 44.29000
H  59.26400 28.17200 45.18900
H  58.13600 28.22400 46.61500
H  57.89700 29.15900 45.06100
H  53.15200 29.91400 47.11300
H  51.50000 30.39200 46.94100
H  52.70300 30.72400 45.52000
H  47.91300 27.59200 44.82100
H  44.96500 27.99900 41.94700
H  46.40400 28.03700 40.97400
H  45.87000 29.48000 41.84100
Mg 46.89800 25.34100 27.90300
C  47.42600 27.44400 30.65400
C  46.40800 22.71400 30.13700
C  46.88100 23.22800 25.28500
C  47.94800 27.95600 25.86000
N  46.88000 25.11700 30.16500
C  46.99100 26.16300 31.05900
C  46.79800 25.65800 32.43000
C  46.77000 24.07700 32.28000
C  46.65200 23.95600 30.80000
C  48.05100 23.30900 32.75900
C  45.59100 26.36200 33.09900
C  44.92600 25.57000 34.20800
H  44.70600 26.19000 35.59800
N  46.49800 23.28500 27.71400
C  46.26400 22.39700 28.77200
C  45.93600 21.12100 28.17900
C  46.15900 21.20800 26.78600
C  46.49300 22.64400 26.53000
C  45.36600 19.90700 29.00100
C  46.06800 20.08900 25.75500
O  46.40800 20.27300 24.56900
C  45.68500 18.63000 26.07300
N  47.17000 25.64300 25.82800
C  47.20200 24.56200 24.98900
C  47.36400 25.06100 23.53300
C  47.36300 26.59900 23.75400
C  47.45300 26.81000 25.21700
C  48.74800 24.46100 23.02700
C  46.09700 27.33000 23.28000
C  44.77800 26.68400 23.71500
N  47.58300 27.26000 28.14200
C  48.00200 28.22100 27.25200
C  48.35200 29.44200 27.94200
C  48.10200 29.16900 29.30900
C  47.73300 27.82500 29.32900
C  48.99700 30.64600 27.31800
C  48.22000 29.71700 30.59200
O  48.67800 30.76500 30.92200
C  47.80000 28.64600 31.53400
C  48.85000 28.32500 32.59700
O  50.02600 28.13500 32.34300
O  48.23500 28.39000 33.81000
C  49.08200 28.14700 34.99800
H  46.21600 21.94100 30.88400
H  46.84100 22.54100 24.43800
H  48.18800 28.75300 25.15300
H  47.72700 25.90900 32.94100
H  45.87800 23.55300 32.62500
H  47.68000 22.43900 33.30200
H  48.67600 23.88100 33.44500
H  48.74100 22.89700 32.02400
H  44.88900 26.63300 32.31000
H  45.89900 27.24300 33.66000
H  45.46600 24.63600 34.36200
H  43.91700 25.32200 33.87800
H  44.35700 19.67700 28.66000
H  45.34600 20.22900 30.04200
H  46.01900 19.03600 28.93000
H  44.71800 18.73900 26.56400
H  46.40500 18.27200 26.80900
H  45.65000 17.91300 25.25200
H  46.60100 24.86300 22.78000
H  48.29800 27.03600 23.40400
H  48.79900 23.41900 23.34500
H  49.65000 25.03900 23.22800
H  48.57800 24.46200 21.95100
H  46.18400 27.50500 22.20800
H  46.07200 28.32800 23.71800
H  44.30000 26.33100 22.80100
H  44.08100 27.38200 24.18000
H  44.72300 25.88700 24.45600
H  48.34700 30.98000 26.50900
H  49.96800 30.57100 26.82800
H  49.02200 31.48300 28.01600
H  46.92200 28.95100 32.10400
H  49.51900 27.15500 34.87900
H  48.53500 28.19200 35.94000
H  49.92500 28.83500 35.05200

