158

Mg 16.17900 -2.07700 28.05300
C  15.30400 0.22400 30.72800
C  18.05600 -3.81200 30.30600
C  17.16000 -3.84000 25.42900
C  14.57300 0.30600 25.81800
N  16.72700 -1.70600 30.29600
C  16.17800 -0.83600 31.16900
C  16.77600 -0.97700 32.58700
C  17.75300 -2.26600 32.34400
C  17.46200 -2.65000 30.87600
C  19.26700 -2.02100 32.51100
C  15.67500 -1.09400 33.76800
C  15.95200 -0.35800 35.10700
H  17.40400 0.01500 35.40500
N  17.49200 -3.67800 27.86800
C  18.07800 -4.28900 28.91100
C  18.59100 -5.54000 28.40200
C  18.35300 -5.53900 26.95400
C  17.65500 -4.32800 26.67300
C  19.27900 -6.48700 29.29900
C  18.76500 -6.57500 25.99000
O  18.54300 -6.50800 24.75800
C  19.39600 -7.81500 26.44400
N  15.97400 -1.68800 25.89000
C  16.46800 -2.64200 25.04100
C  16.22100 -2.13400 23.55000
C  15.58900 -0.69200 23.64500
C  15.25400 -0.72000 25.15600
C  17.52200 -2.22400 22.66800
C  14.31200 -0.59800 22.79100
C  13.91900 0.85900 22.51200
N  14.98600 -0.30000 28.19700
C  14.49100 0.54500 27.19400
C  13.81400 1.60500 27.87700
C  14.15700 1.58800 29.22000
C  14.91600 0.38200 29.34000
C  12.90300 2.58600 27.27700
C  13.97000 2.25000 30.49100
O  13.22200 3.19300 30.71600
C  14.80400 1.44700 31.49100
C  15.81700 2.46700 31.96900
O  16.47900 3.18100 31.23500
O  15.73500 2.56800 33.35200
C  16.50500 3.74900 33.91900
H  18.53100 -4.48200 31.02500
H  17.51100 -4.39100 24.55400
H  14.08900 1.08900 25.23100
H  17.33700 -0.07000 32.81200
H  17.50700 -3.12700 32.96500
H  19.59400 -1.40200 33.34700
H  19.68400 -1.61900 31.58700
H  19.63400 -3.03900 32.64100
H  15.32600 -2.12300 33.86100
H  14.81100 -0.55800 33.37800
H  15.67500 -0.91300 36.00400
H  15.39700 0.57900 35.06400
H  20.00300 -7.21300 28.92800
H  18.65200 -7.05600 29.98600
H  19.86600 -5.91100 30.01400
H  18.76700 -8.26600 27.21200
H  20.43600 -7.71100 26.75200
H  19.31900 -8.54100 25.63500
H  15.49900 -2.82300 23.11100
H  16.19800 0.19900 23.49500
H  17.81700 -1.24200 22.29900
H  17.30700 -2.81200 21.77600
H  18.39600 -2.59400 23.20400
H  13.55200 -1.04100 23.43500
H  14.42200 -1.20900 21.89600
H  12.93100 1.09500 22.90600
H  13.95700 0.87700 21.42200
H  14.63000 1.64800 22.75500
H  13.46600 3.31400 26.69400
H  12.26800 2.95000 28.08500
H  12.19800 2.05800 26.63400
H  14.15400 1.12300 32.30400
H  15.93100 4.02100 34.80600
H  16.64200 4.67800 33.36500
H  17.51200 3.41700 34.17000
Mg 26.66400 50.35100 26.31300
C  24.55600 51.58800 28.76100
C  28.72500 48.99900 28.81200
C  28.90500 49.54400 23.91800
C  24.79200 52.08100 23.83600
N  26.64100 50.25100 28.56000
C  25.65300 50.82600 29.34100
C  25.91700 50.52000 30.84900
C  27.31600 49.88700 30.86100
C  27.60300 49.68000 29.34000
C  28.46800 50.75000 31.47800
C  24.77300 49.67300 31.51300
C  24.22500 50.10600 32.95800
H  25.22500 50.64700 33.88100
N  28.51100 49.31700 26.33200
C  29.18200 48.85300 27.44600
C  30.45400 48.33400 27.06000
C  30.53100 48.36800 25.66800
C  29.32300 49.07400 25.23400
C  31.50200 47.75100 28.12900
C  31.68000 47.92200 24.81500
O  31.64100 48.02300 23.57800
C  32.90300 47.26000 25.42600
N  26.76600 50.63400 24.17300
C  27.76500 50.14100 23.43800
C  27.49400 50.41700 21.89600
C  26.00800 50.94700 21.93300
C  25.83100 51.28300 23.37600
C  28.53500 51.38300 21.19500
C  24.91600 50.01100 21.39500
C  24.06700 50.42700 20.26100
N  24.95300 51.53400 26.29800
C  24.34700 52.19000 25.24800
C  23.25500 52.93300 25.78900
C  23.21700 52.70700 27.15900
C  24.36400 51.87000 27.38800
C  22.27400 53.71200 25.05300
C  22.57700 53.03200 28.36900
O  21.53000 53.66500 28.61900
C  23.39700 52.28600 29.48700
C  23.88900 53.29400 30.40600
O  24.66300 54.22200 30.14400
O  23.04500 53.33100 31.48800
C  23.33100 54.33700 32.45700
H  29.35200 48.56800 29.59500
H  29.76900 49.27700 23.30600
H  23.96000 52.36400 23.18700
H  26.05200 51.39500 31.48500
H  27.23600 48.90800 31.33200
H  28.68700 51.53700 30.75600
H  29.43300 50.24300 31.49700
H  28.26600 50.92300 32.53500
H  25.17000 48.66100 31.59200
H  23.85300 49.68300 30.92900
H  23.77100 49.17000 33.28100
H  23.47200 50.88100 32.81500
H  32.40600 48.34500 27.98800
H  31.79300 46.71500 27.95800
H  31.15200 47.89300 29.15200
H  33.52400 48.01900 25.90000
H  33.55000 46.89200 24.63000
H  32.65200 46.50500 26.17200
H  27.58200 49.42800 21.44600
H  25.91700 51.88400 21.38300
H  28.93100 50.99000 20.25800
H  29.37700 51.53600 21.87000
H  28.07100 52.34100 20.96100
H  24.33400 49.62800 22.23400
H  25.41500 49.11000 21.03900
H  23.01600 50.41300 20.55000
H  24.21700 49.72600 19.44000
H  24.36800 51.38700 19.84300
H  22.24500 53.37600 24.01600
H  22.49600 54.77600 25.13200
H  21.26400 53.64900 25.45800
H  22.75200 51.56500 29.98900
H  22.50400 54.56400 33.12800
H  23.48800 55.26400 31.90600
H  24.15000 53.96700 33.07300

