158

Mg -1.96900 17.24100 26.68900
C  -2.27000 15.08400 29.30400
C  -3.13000 19.78700 28.82500
C  -1.84000 19.35600 24.10200
C  -1.28600 14.64000 24.51300
N  -2.81200 17.40400 28.90400
C  -2.66900 16.35800 29.76300
C  -2.93400 16.92800 31.15900
C  -3.63000 18.34300 30.88700
C  -3.23600 18.53200 29.43900
C  -5.19800 18.32000 31.00100
C  -1.62200 16.99900 32.09300
C  -1.76900 16.80300 33.63900
H  -0.41100 16.69500 34.41500
N  -2.14500 19.30400 26.54000
C  -2.67100 20.13700 27.53500
C  -2.60200 21.52400 26.99000
C  -2.18900 21.49100 25.65500
C  -2.03900 20.01300 25.34600
C  -2.97300 22.69300 27.83400
C  -1.94300 22.49600 24.64000
O  -1.60700 22.26000 23.50900
C  -1.95100 23.86300 24.93900
N  -1.54400 17.08900 24.62400
C  -1.65100 18.08400 23.74900
C  -1.64500 17.61300 22.27600
C  -1.14700 16.12200 22.43900
C  -1.35700 15.87200 23.97100
C  -2.94800 17.84000 21.45600
C  0.31600 15.90900 21.98500
C  1.34300 16.55200 22.86200
N  -1.85100 15.23800 26.84300
C  -1.56100 14.28100 25.90800
C  -1.55800 13.01100 26.53600
C  -1.76100 13.22500 27.87100
C  -2.00500 14.60800 28.00000
C  -1.34900 11.73700 25.82200
C  -1.78600 12.73600 29.15900
O  -1.52500 11.61100 29.52000
C  -2.28000 13.81200 30.18000
C  -1.27800 13.73200 31.27500
O  -0.08900 13.88200 31.19300
O  -1.93800 13.40700 32.46600
C  -1.14100 13.09100 33.66300
H  -3.51500 20.64400 29.38100
H  -1.85900 20.07300 23.27900
H  -1.01300 13.78700 23.88800
H  -3.55800 16.16200 31.62000
H  -3.14400 19.19400 31.36500
H  -5.65700 19.21600 30.58100
H  -5.36800 18.25900 32.07600
H  -5.50000 17.44100 30.43200
H  -1.19600 17.98400 31.89900
H  -0.89800 16.31400 31.65100
H  -2.35900 15.90700 33.82900
H  -2.27700 17.61900 34.15200
H  -2.36900 23.56100 27.57200
H  -2.89100 22.46500 28.89600
H  -4.02300 22.90500 27.63300
H  -2.95200 24.29300 24.90200
H  -1.38800 24.40000 24.17600
H  -1.48600 24.11500 25.89200
H  -0.89700 18.17800 21.72000
H  -1.84200 15.45700 21.92500
H  -2.88700 18.07400 20.39400
H  -3.51400 18.67000 21.88100
H  -3.55200 16.95300 21.64700
H  0.48300 16.17200 20.94000
H  0.49500 14.83800 22.07500
H  1.37600 16.20600 23.89500
H  1.57400 17.59300 22.63500
H  2.29600 16.13500 22.53600
H  -0.56600 11.78300 25.06600
H  -2.30200 11.34900 25.46300
H  -0.99200 11.01500 26.55600
H  -3.20800 13.49400 30.65500
H  -1.47100 12.23800 34.25700
H  -1.22400 13.90600 34.38100
H  -0.07900 12.92800 33.48300
Mg 8.08200 47.76400 24.69400
C  5.76900 48.20800 27.19600
C  10.55000 48.90400 26.70300
C  10.22000 47.54100 21.95100
C  5.42200 47.29900 22.39600
N  8.14200 48.33200 26.72700
C  7.11000 48.45600 27.57600
C  7.61300 48.79800 29.02000
C  9.05400 49.32600 28.82700
C  9.27800 48.84500 27.34600
C  9.34300 50.79800 29.23700
C  7.41600 47.73500 30.11400
C  8.29800 47.83400 31.41400
H  7.73400 47.12100 32.65900
N  10.02700 48.14400 24.42900
C  10.90500 48.59100 25.37400
C  12.29300 48.55700 24.90100
C  12.23100 48.17800 23.46800
C  10.82000 47.92700 23.22100
C  13.48500 48.88900 25.71800
C  13.34700 47.94100 22.56300
O  13.19100 47.69400 21.36600
C  14.75700 48.07600 23.00200
N  7.86900 47.38900 22.48400
C  8.85400 47.28700 21.62200
C  8.36600 47.29200 20.13500
C  6.85400 47.14700 20.28200
C  6.70000 47.29600 21.81200
C  8.87500 48.61800 19.46200
C  6.18800 45.95500 19.60300
C  6.39700 45.73600 18.06200
N  6.00000 47.91100 24.69600
C  5.07900 47.54800 23.73600
C  3.78700 47.46500 24.38200
C  4.00100 47.80400 25.74700
C  5.37400 48.00600 25.86100
C  2.47500 47.26500 23.67900
C  3.36500 47.98800 27.04500
O  2.15000 47.87500 27.34600
C  4.48500 48.16600 28.01300
C  4.41400 46.88900 28.81200
O  5.00100 45.84100 28.57600
O  3.91800 47.21900 30.04900
C  3.93600 46.20000 31.08800
H  11.32300 49.28400 27.37400
H  10.86400 47.37600 21.08400
H  4.63600 47.17000 21.64900
H  7.05500 49.69500 29.29000
H  9.75800 48.72500 29.40100
H  9.36600 51.57800 28.47600
H  10.32100 50.84700 29.71500
H  8.56000 51.09800 29.93400
H  7.59200 46.78000 29.61800
H  6.38500 47.71000 30.46700
H  8.42900 48.89800 31.61100
H  9.26400 47.41900 31.12600
H  13.16300 49.19400 26.71400
H  14.05800 49.71400 25.29400
H  14.16200 48.05800 25.91800
H  14.97800 47.28000 23.71300
H  15.04300 49.10000 23.24100
H  15.34000 47.81800 22.11800
H  8.78800 46.41000 19.65400
H  6.30700 48.03000 19.95200
H  9.29700 49.26300 20.23300
H  8.02300 49.13300 19.01900
H  9.63500 48.33900 18.73200
H  5.10500 45.88300 19.71200
H  6.64100 45.11700 20.13300
H  6.47400 46.67900 17.52100
H  5.59100 45.11100 17.67900
H  7.31900 45.18200 17.88300
H  1.99300 48.23000 23.52000
H  1.93200 46.71400 24.44800
H  2.65700 46.67200 22.78400
H  4.25500 49.05200 28.60600
H  3.97100 46.71600 32.04700
H  4.86900 45.63500 31.06200
H  3.11100 45.50400 30.93800

