158

Mg 27.02000 49.78200 26.70100
C  24.75500 51.00800 29.28200
C  29.27600 49.28700 29.16600
C  29.08000 49.16900 24.28300
C  24.65900 51.30300 24.39900
N  26.90000 50.07000 28.99100
C  25.89200 50.42200 29.88200
C  26.34000 50.29400 31.31600
C  27.93100 50.09700 31.14100
C  28.05700 49.75400 29.63900
C  28.74600 51.41000 31.60000
C  25.61000 49.06600 32.01400
C  24.88600 49.37200 33.29800
H  25.76200 49.92200 34.47400
N  28.88300 49.25600 26.75100
C  29.67600 49.00700 27.86500
C  30.99300 48.52400 27.41600
C  30.96400 48.55600 25.96200
C  29.58400 49.02000 25.60100
C  32.08300 48.17200 28.35800
C  32.05800 48.17400 24.95300
O  31.89500 48.02400 23.75300
C  33.50500 47.88200 25.39200
N  26.90200 50.19500 24.69500
C  27.88500 49.70600 23.87400
C  27.50100 49.75000 22.35100
C  25.96600 50.20000 22.53500
C  25.82700 50.63300 23.92100
C  28.36200 50.68700 21.48300
C  24.92200 49.14700 21.97000
C  24.57700 47.97800 22.83900
N  25.07900 50.89400 26.77100
C  24.26300 51.43600 25.75800
C  23.15600 52.16000 26.35100
C  23.24200 51.93300 27.73000
C  24.44000 51.21700 27.93300
C  22.15300 52.93200 25.56400
C  22.57300 52.18800 28.95400
O  21.49700 52.64500 29.17000
C  23.58700 51.68500 30.08400
C  23.93600 52.71900 31.07800
O  24.53800 53.75900 30.98100
O  23.46300 52.22600 32.27900
C  23.56000 53.16200 33.39400
H  29.96400 49.07800 29.98800
H  29.86000 49.11400 23.52100
H  24.03700 51.70400 23.59600
H  26.13800 51.17000 31.93300
H  28.32600 49.26900 31.73000
H  29.64300 51.15500 32.16600
H  28.15500 52.06300 32.24200
H  29.05900 51.98600 30.73000
H  26.33900 48.28100 32.21200
H  24.75600 48.74400 31.41900
H  24.23900 48.57000 33.65400
H  24.30200 50.27600 33.12600
H  33.06600 48.58100 28.12200
H  32.21300 47.09000 28.32600
H  31.93300 48.50800 29.38300
H  34.13900 47.46200 24.61200
H  33.55000 47.22600 26.26200
H  33.93300 48.84300 25.67900
H  27.59700 48.72400 21.99800
H  25.88400 51.07300 21.88800
H  27.65700 51.20500 20.83300
H  29.00700 50.18000 20.76500
H  28.96400 51.35700 22.09700
H  25.28000 48.67800 21.05400
H  24.03800 49.70200 21.65800
H  24.52400 48.29000 23.88200
H  25.33900 47.20600 22.73300
H  23.58100 47.60500 22.60100
H  22.45600 53.08200 24.52700
H  21.93700 53.90500 26.00500
H  21.31200 52.25400 25.70800
H  23.05600 50.87700 30.58700
H  24.32700 52.84500 34.10100
H  22.67100 53.19200 34.02400
H  23.74300 54.20500 33.13500
Mg 16.84900 51.46700 26.01400
C  18.85700 50.14100 28.62600
C  14.82200 52.70400 28.45000
C  15.14200 52.94800 23.49300
C  19.30900 50.27700 23.78600
N  16.74600 51.15700 28.28700
C  17.70900 50.70100 29.14600
C  17.30100 51.03600 30.64200
C  15.80000 51.43900 30.41400
C  15.78600 51.77900 28.98900
C  14.69800 50.53200 30.85900
C  18.34300 51.99100 31.28300
C  18.47000 51.87000 32.84500
H  17.47300 51.13100 33.69500
N  15.14000 52.62900 25.99700
C  14.44000 53.00900 27.12200
C  13.28600 53.75900 26.70300
C  13.33800 53.87200 25.28400
C  14.57000 53.12900 24.83800
C  12.27800 54.30100 27.68300
C  12.44300 54.66500 24.38700
O  12.56500 54.65200 23.16500
C  11.48200 55.58700 24.90100
N  17.10500 51.50700 23.91900
C  16.36300 52.27300 23.10300
C  17.03000 52.25400 21.71800
C  18.18400 51.28700 21.75900
C  18.23600 51.03900 23.24300
C  16.02200 52.10800 20.53800
C  19.41300 51.76100 20.99700
C  20.39400 50.74600 20.28700
N  18.66900 50.37900 26.08700
C  19.53400 49.95000 25.08600
C  20.64500 49.22700 25.67500
C  20.38000 49.33900 27.07900
C  19.20000 49.99200 27.27200
C  21.86000 48.66700 24.94800
C  20.95300 48.91100 28.28200
O  21.90000 48.15800 28.46300
C  20.05300 49.58800 29.37200
C  19.70500 48.63700 30.45600
O  18.90000 47.71600 30.28400
O  20.48000 48.85900 31.50600
C  20.25900 47.93100 32.65500
H  14.27100 53.22200 29.23700
H  14.65900 53.50200 22.68500
H  20.11900 49.98200 23.11600
H  17.41800 50.13400 31.24300
H  15.57300 52.28200 31.06600
H  14.48000 49.76600 30.11500
H  13.74500 50.99800 31.11100
H  14.93700 50.21300 31.87400
H  17.95600 52.96200 30.97100
H  19.36500 51.90800 30.91500
H  18.67200 52.88200 33.19600
H  19.36400 51.27800 33.04400
H  11.23700 54.37100 27.36800
H  12.68600 55.26200 27.99400
H  12.35600 53.82100 28.65800
H  11.91200 56.32100 25.58400
H  10.70300 55.11900 25.50300
H  11.06100 56.22100 24.12200
H  17.47200 53.23700 21.55400
H  17.94000 50.31900 21.32200
H  15.01400 52.00000 20.93800
H  16.14700 51.31600 19.79900
H  16.13900 53.02700 19.96400
H  20.05400 52.30900 21.68800
H  19.07300 52.44800 20.22300
H  20.46400 51.05200 19.24300
H  20.01700 49.72300 20.28700
H  21.37400 50.67100 20.75900
H  21.81400 47.58200 24.84800
H  22.83500 48.82300 25.41000
H  21.78800 49.11400 23.95600
H  20.59400 50.43600 29.79100
H  20.20000 46.91600 32.26000
H  19.45300 48.17500 33.34700
H  21.10600 47.95000 33.34100

