158

Mg 1.87700 -2.38200 45.73700
C  5.11100 -1.24900 44.76600
C  0.61500 0.06900 43.53500
C  -1.30400 -3.62200 46.14900
C  3.33500 -5.26900 46.98300
N  2.78300 -0.96400 44.12000
C  4.06400 -0.55400 44.10600
C  4.31900 0.65100 43.16300
C  2.84900 0.99200 42.85000
C  2.03700 -0.00200 43.60700
C  2.46400 2.46000 43.21900
C  5.17100 0.35100 41.82900
C  6.61700 0.96000 41.69100
H  7.45500 0.32800 40.61200
N  -0.06300 -1.74500 45.08400
C  -0.33400 -0.73200 44.21700
C  -1.77900 -0.51500 44.21500
C  -2.40300 -1.59100 44.98500
C  -1.25900 -2.42800 45.39400
C  -2.41700 0.65200 43.47700
C  -3.85700 -1.70700 45.22900
O  -4.61700 -0.76400 45.02200
C  -4.35800 -2.95900 45.84500
N  1.16100 -4.20500 46.51400
C  -0.22100 -4.48400 46.57600
C  -0.42200 -5.91700 47.01900
C  1.04200 -6.50000 47.22300
C  1.90600 -5.28900 46.85900
C  -1.35900 -6.24900 48.18400
C  1.38200 -7.81100 46.38300
C  1.43800 -9.04300 47.28300
N  3.82400 -3.06000 46.04800
C  4.25100 -4.25500 46.60600
C  5.70100 -4.17200 46.77200
C  6.09800 -3.00800 46.13300
C  4.91200 -2.40200 45.62300
C  6.55000 -5.22200 47.46200
C  7.26100 -2.18200 45.78000
O  8.45000 -2.15600 46.09000
C  6.58200 -1.07900 44.82600
C  6.96100 0.20000 45.35100
O  6.25700 0.87800 46.11700
O  8.19500 0.51100 44.92500
C  8.57700 1.87000 45.29500
H  0.11600 0.83800 42.94200
H  -2.27400 -4.11000 46.26600
H  3.70400 -6.16300 47.49000
H  4.73500 1.43100 43.80100
H  2.47600 0.98500 41.82600
H  1.63800 2.78800 42.58800
H  3.29300 3.12800 42.99000
H  2.13300 2.54800 44.25400
H  4.59500 0.74300 40.99100
H  5.29400 -0.72900 41.74400
H  7.22100 0.89400 42.59600
H  6.32600 2.00200 41.56300
H  -2.31200 0.45500 42.41000
H  -1.92700 1.59000 43.73800
H  -3.45800 0.79400 43.76800
H  -4.08300 -3.75400 45.15200
H  -5.44400 -2.94500 45.94200
H  -3.88300 -3.00100 46.82500
H  -0.97500 -6.38200 46.20200
H  1.28200 -6.57100 48.28400
H  -2.34500 -6.53100 47.81500
H  -1.63500 -5.38800 48.79200
H  -1.05700 -7.03600 48.87600
H  2.26200 -7.65700 45.75900
H  0.63100 -8.00900 45.61800
H  1.23700 -8.79600 48.32500
H  2.46600 -9.40300 47.24300
H  0.70000 -9.81700 47.07000
H  5.98300 -5.69000 48.26700
H  7.42700 -4.83200 47.97900
H  6.65200 -6.03100 46.74000
H  7.00400 -1.08400 43.82100
H  7.69900 2.39200 44.91400
H  9.42000 2.21400 44.69500
H  8.96600 2.03300 46.30000
Mg 40.22500 10.23500 29.19300
C  42.03500 11.20600 31.85000
C  37.80600 8.86100 31.30900
C  38.53200 8.66200 26.50000
C  42.83100 10.76700 27.06300
N  39.98300 10.09900 31.28300
C  40.77400 10.74300 32.19800
C  40.18900 10.68100 33.60900
C  39.02300 9.59700 33.48200
C  38.94200 9.49000 31.91600
C  39.18700 8.30800 34.37900
C  39.99200 12.02000 34.33600
C  39.15900 12.07100 35.57900
H  39.57100 12.85000 36.82500
N  38.25500 9.24500 28.98900
C  37.44200 8.74400 30.01200
C  36.30200 8.15800 29.43400
C  36.50700 8.11000 28.00900
C  37.79900 8.70400 27.78700
C  35.27500 7.42900 30.21800
C  35.52000 7.71800 26.85800
O  35.86900 7.84000 25.70800
C  34.07800 7.49200 27.20700
N  40.58300 9.79900 27.02600
C  39.77100 9.16700 26.13800
C  40.37800 9.18900 24.72900
C  41.64000 10.12000 24.95800
C  41.73200 10.15400 26.46300
C  40.60700 7.74800 24.21900
C  41.64700 11.49500 24.21800
C  40.73600 12.58500 24.69700
N  42.01600 10.99300 29.32300
C  42.99500 11.17700 28.37000
C  44.17600 11.86700 28.97300
C  43.82000 11.83500 30.32500
C  42.55000 11.29700 30.48400
C  45.45800 12.44600 28.26400
C  44.29700 12.23000 31.66000
O  45.31600 12.80500 31.96700
C  43.19600 11.74300 32.64800
C  43.73000 10.76000 33.58200
O  43.92000 9.59300 33.31900
O  44.19100 11.38300 34.68300
C  44.81700 10.61900 35.74900
H  37.03800 8.47400 31.98300
H  38.13300 8.08300 25.66500
H  43.63800 10.99800 26.36400
H  40.93500 10.22800 34.26100
H  38.05900 10.04000 33.73400
H  39.98500 8.50000 35.09800
H  39.48100 7.46600 33.75300
H  38.24100 8.16300 34.90000
H  39.59900 12.82500 33.71400
H  40.99900 12.26500 34.67400
H  38.94900 11.01300 35.73200
H  38.32800 12.66900 35.20400
H  34.36800 8.00300 30.02800
H  35.43300 7.28400 31.28700
H  35.24300 6.45900 29.72300
H  33.56300 8.25400 27.79200
H  33.96400 6.49500 27.63100
H  33.52800 7.55800 26.26800
H  39.67800 9.74300 24.10300
H  42.50400 9.57800 24.57500
H  39.65900 7.42600 23.78900
H  40.90900 7.03500 24.98700
H  41.29500 7.68600 23.37600
H  41.44100 11.38200 23.15300
H  42.63500 11.95400 24.19500
H  41.33200 13.36500 25.17200
H  40.05100 12.13800 25.41700
H  40.06500 13.02800 23.96100
H  45.54000 13.53000 28.18800
H  45.59300 11.84700 27.36200
H  46.32000 12.14400 28.85800
H  42.84400 12.61800 33.19400
H  45.52400 9.84100 35.46300
H  44.06700 10.25200 36.44900
H  45.45600 11.35100 36.24200

