158

Mg 40.04600 8.49200 29.77200
C  42.04700 9.51700 32.29800
C  37.73000 7.27800 31.93800
C  38.46200 6.78500 27.09900
C  42.71700 9.02900 27.45200
N  39.94300 8.38100 31.88000
C  40.78800 9.10500 32.75100
C  40.17600 9.33000 34.08200
C  38.91900 8.36400 33.96900
C  38.79800 8.00900 32.49600
C  39.03900 7.14200 34.90900
C  39.83700 10.79500 34.48800
C  39.14400 10.95700 35.90600
H  39.84700 11.83300 36.95100
N  38.24200 7.39600 29.53900
C  37.46600 7.02800 30.59300
C  36.32500 6.33400 30.08900
C  36.44000 6.31800 28.59800
C  37.79500 6.82800 28.35500
C  35.21300 5.62200 30.98200
C  35.60400 5.63400 27.61300
O  35.95800 5.34300 26.49700
C  34.30000 5.18600 28.03400
N  40.57500 7.75800 27.55600
C  39.73800 7.17300 26.69100
C  40.20500 7.22900 25.24700
C  41.37500 8.23600 25.38900
C  41.56400 8.41500 26.89400
C  40.56200 5.86500 24.57500
C  41.13500 9.66700 24.79300
C  39.81400 10.31900 25.19100
N  42.02400 9.05700 29.84600
C  42.97500 9.29300 28.86500
C  44.10400 9.96400 29.44500
C  43.78900 10.14800 30.79200
C  42.55800 9.47200 30.99500
C  45.28000 10.50300 28.78100
C  44.18700 10.73400 32.03200
O  45.13300 11.54300 32.23900
C  43.03600 10.39200 33.03500
C  43.51900 9.49600 34.15500
O  43.93500 8.33200 34.16000
O  43.52600 10.30400 35.27200
C  44.33600 9.74700 36.32800
H  36.95100 7.03900 32.66500
H  37.94900 6.35900 26.23400
H  43.43000 9.40000 26.71300
H  41.00200 8.95800 34.68800
H  37.99800 8.89600 34.20500
H  38.76500 6.24500 34.35400
H  38.60700 7.13100 35.91000
H  40.09300 7.13300 35.18600
H  39.18700 11.31000 33.78100
H  40.77500 11.34900 34.49300
H  38.97900 10.01000 36.41900
H  38.17900 11.43500 35.73800
H  35.47400 4.57700 31.15000
H  34.20200 5.61900 30.57400
H  35.12900 6.16500 31.92300
H  33.78100 4.72700 27.19300
H  33.73900 6.06000 28.36400
H  34.42200 4.44300 28.82200
H  39.36700 7.56100 24.63400
H  42.26700 7.77500 24.96500
H  40.37800 5.08600 25.31500
H  41.62400 5.81100 24.33500
H  39.85500 5.60500 23.78800
H  41.23800 9.22800 23.80000
H  41.94600 10.32600 25.10300
H  39.21900 9.67700 25.84000
H  39.11400 10.39400 24.35900
H  40.00500 11.36200 25.44600
H  45.14500 10.83800 27.75200
H  46.14100 9.83500 28.79700
H  45.60800 11.42300 29.26400
H  42.50400 11.26100 33.42100
H  45.23900 9.24600 35.97800
H  43.87200 9.21400 37.15800
H  44.67600 10.68500 36.76900
Mg 41.05100 40.89900 26.87500
C  40.40400 43.39700 29.11400
C  42.16500 38.79900 29.33700
C  41.83100 38.74500 24.44200
C  40.71200 43.35700 24.18700
N  41.26700 41.04900 29.00800
C  40.80900 42.15400 29.74900
C  41.05000 41.90600 31.26900
C  41.58900 40.46200 31.28100
C  41.74500 40.06700 29.82300
C  42.90200 40.30200 31.98800
C  39.74800 42.10200 32.21100
C  39.99100 42.01700 33.78000
H  39.18400 42.93500 34.65600
N  41.81300 38.98700 26.93100
C  42.22500 38.29000 28.03300
C  42.59200 36.94600 27.60500
C  42.56000 36.98800 26.16400
C  42.00600 38.28800 25.77000
C  43.01200 35.83000 28.49000
C  43.00600 35.81800 25.22100
O  43.04800 35.98400 23.96600
C  43.27400 34.45100 25.75600
N  40.97300 40.95600 24.60600
C  41.39300 39.91100 23.89000
C  41.39500 40.04000 22.36600
C  40.88200 41.58200 22.33800
C  40.83700 42.01800 23.78100
C  42.70700 39.64300 21.62000
C  39.45200 41.76400 21.65700
C  38.31300 41.37300 22.55700
N  40.67700 42.99500 26.61700
C  40.58800 43.85400 25.52900
C  40.31600 45.15100 26.06000
C  40.18900 45.03500 27.43500
C  40.40700 43.71700 27.70100
C  40.24200 46.43000 25.23800
C  39.94400 45.70200 28.66800
O  39.67300 46.85200 29.00900
C  40.13600 44.69000 29.83500
C  41.38600 45.18600 30.52700
O  42.47900 45.23600 29.98900
O  41.16700 45.47900 31.89800
C  42.29000 45.89400 32.72900
H  42.35400 38.13200 30.18000
H  41.97000 37.95100 23.70500
H  40.63800 44.11300 23.40100
H  41.76500 42.69600 31.50000
H  40.80700 39.88200 31.77100
H  42.70200 39.66500 32.85000
H  43.22000 41.29500 32.30400
H  43.69700 39.87800 31.37500
H  39.06500 41.32000 31.88000
H  39.21900 42.98100 31.84300
H  41.06900 42.00100 33.94400
H  39.66200 40.99000 33.93800
H  42.30800 35.00200 28.57700
H  43.09000 36.21900 29.50500
H  43.97000 35.34800 28.29400
H  42.60200 34.09300 26.53500
H  44.16900 34.57600 26.36500
H  43.33300 33.74800 24.92500
H  40.62600 39.43800 21.88300
H  41.61200 42.11200 21.72600
H  43.51900 39.24500 22.22800
H  43.07900 40.54200 21.13000
H  42.49200 38.91300 20.83900
H  39.57400 41.11400 20.79000
H  39.31700 42.81700 21.41100
H  38.60900 41.04400 23.55300
H  37.73400 40.61700 22.02700
H  37.72300 42.28700 22.62100
H  39.93000 46.25200 24.20900
H  41.24800 46.85000 25.23600
H  39.55400 47.03100 25.83300
H  39.19100 44.84400 30.35700
H  42.27200 45.39300 33.69700
H  42.21700 46.97800 32.82000
H  43.22000 45.49800 32.32100

