158

Mg 9.45100 4.21500 28.08500
C  10.66200 2.64000 30.92600
C  7.58700 6.33000 30.18800
C  8.17900 5.75200 25.38500
C  10.73400 1.69700 26.11600
N  9.15500 4.39500 30.29000
C  9.77300 3.66000 31.26100
C  9.38700 4.05500 32.71200
C  8.54100 5.37700 32.38500
C  8.42700 5.39500 30.83100
C  7.17700 5.52400 33.17000
C  10.55300 4.34000 33.71300
C  10.29200 5.26200 34.87100
H  10.76200 4.79500 36.22500
N  7.96800 5.82100 27.84100
C  7.33900 6.52800 28.81700
C  6.39600 7.40000 28.18900
C  6.66600 7.32300 26.82400
C  7.59800 6.25700 26.62100
C  5.48600 8.31200 29.00400
C  6.12800 8.21000 25.80000
O  6.38500 8.04400 24.59800
C  5.00500 9.17000 26.07900
N  9.48200 3.77300 26.01800
C  8.96000 4.61700 25.09700
C  9.37700 4.16500 23.70000
C  10.09100 2.78800 23.92400
C  10.17800 2.77500 25.44400
C  8.19100 4.14400 22.68500
C  11.50700 2.61500 23.18600
C  11.50800 1.55300 22.16500
N  10.50500 2.49200 28.42800
C  11.00200 1.58200 27.51000
C  11.88000 0.63600 28.18000
C  11.67500 0.98900 29.53500
C  10.88000 2.17900 29.62400
C  12.54300 -0.60200 27.56200
C  12.03600 0.58300 30.85400
O  12.65200 -0.34100 31.19900
C  11.38700 1.62500 31.87600
C  10.47500 0.91400 32.82200
O  9.37400 0.38000 32.56500
O  11.02900 0.97800 34.07300
C  10.28900 0.33600 35.12100
H  7.20000 7.03200 30.92900
H  7.88200 6.26800 24.46900
H  11.09300 0.88900 25.47500
H  8.82800 3.19700 33.08700
H  9.16500 6.23000 32.65200
H  6.93400 4.69800 33.83900
H  6.37300 5.55200 32.43500
H  7.23300 6.49900 33.65200
H  11.41300 4.63300 33.11100
H  10.89500 3.41500 34.17900
H  9.25700 5.60000 34.91400
H  10.91600 6.12100 34.62100
H  5.49400 7.98200 30.04300
H  4.48600 8.25600 28.57300
H  5.90800 9.31400 28.92600
H  4.09000 8.76500 26.51000
H  4.86900 9.61400 25.09200
H  5.30100 10.03200 26.67800
H  10.13900 4.92900 23.54900
H  9.36400 2.03200 23.62600
H  7.26500 4.00200 23.24300
H  8.21800 3.38000 21.90800
H  8.12400 5.07900 22.13000
H  12.35600 2.44600 23.84800
H  11.61200 3.56700 22.66600
H  11.25300 1.93100 21.17500
H  10.76200 0.77400 22.32400
H  12.45800 1.02000 22.12300
H  12.77700 -0.46900 26.50600
H  11.93500 -1.50600 27.60300
H  13.52100 -0.82300 27.99000
H  12.09700 2.22200 32.44800
H  10.23800 1.07900 35.91600
H  10.96200 -0.46400 35.43000
H  9.30700 -0.09700 34.93000
Mg 47.48400 24.03500 28.21000
C  48.45600 26.32600 30.64900
C  46.65700 21.88200 30.56900
C  46.86800 21.90100 25.67100
C  48.89800 26.35000 25.73600
N  47.82300 24.13500 30.39900
C  47.87700 25.19800 31.21600
C  47.60700 24.85600 32.68700
C  47.10600 23.38200 32.54900
C  47.18800 23.10900 31.03300
C  47.72300 22.36300 33.48700
C  46.55700 25.72300 33.43600
C  47.11600 26.59500 34.59400
H  46.12900 26.82200 35.80100
N  46.87400 22.11400 28.15000
C  46.56700 21.34700 29.25700
C  46.10700 20.10300 28.80200
C  46.23300 20.15500 27.31400
C  46.76300 21.42600 26.98300
C  45.43900 19.07800 29.63900
C  45.84800 19.08200 26.37000
O  46.07600 19.12600 25.17100
C  45.23300 17.81100 26.93400
N  47.95000 24.09400 26.00500
C  47.32700 23.15000 25.19200
C  47.51700 23.47100 23.66300
C  48.10500 24.92500 23.68800
C  48.34100 25.16300 25.23300
C  48.45000 22.47500 22.92200
C  47.10600 25.97200 23.19300
C  47.62700 27.16400 22.38400
N  48.45300 25.96800 28.14000
C  48.97000 26.75700 27.10700
C  49.52600 28.03600 27.66500
C  49.25100 27.95100 29.06000
C  48.71100 26.62700 29.30900
C  49.95200 29.14600 26.87700
C  49.34400 28.67000 30.31900
O  49.75100 29.81800 30.55700
C  48.81100 27.63600 31.39200
C  49.86700 27.45800 32.40100
O  50.59500 26.45700 32.44300
O  49.90500 28.48300 33.29900
C  50.39600 28.10300 34.56000
H  46.23100 21.34200 31.41700
H  46.84600 21.23700 24.80500
H  49.14800 27.02500 24.91500
H  48.61000 24.77100 33.10600
H  46.02700 23.30700 32.69000
H  48.23200 21.60600 32.89000
H  47.00800 21.83700 34.12000
H  48.40800 22.89600 34.14700
H  45.81400 25.10100 33.93400
H  46.01700 26.35800 32.73300
H  47.42900 27.57600 34.23500
H  47.97400 26.14100 35.08900
H  45.49700 19.45300 30.66100
H  46.08600 18.20800 29.53200
H  44.40100 18.78000 29.49300
H  45.75100 17.30500 27.74900
H  45.28300 17.06900 26.13800
H  44.21400 17.96700 27.28800
H  46.51800 23.40800 23.23100
H  49.04000 25.02100 23.13700
H  49.14800 21.96200 23.58300
H  48.95600 22.97200 22.09400
H  47.85400 21.65400 22.52300
H  46.49500 26.30000 24.03400
H  46.44300 25.51400 22.45800
H  47.54500 27.02200 21.30600
H  48.68000 27.25400 22.65000
H  47.19000 28.14600 22.56100
H  49.09600 29.38700 26.24700
H  50.75800 28.86200 26.20000
H  50.20800 29.99900 27.50600
H  47.97500 28.09000 31.92400
H  51.40200 27.69100 34.47300
H  49.68200 27.44800 35.05900
H  50.44700 28.98400 35.19900

