158

Mg 47.71500 25.16900 28.31800
C  48.89300 27.14800 30.98500
C  46.85100 22.70100 30.57900
C  47.42500 23.04900 25.74000
C  49.07500 27.46700 26.07800
N  47.78100 25.05400 30.52700
C  48.33600 25.92000 31.43000
C  48.16300 25.39900 32.88700
C  47.42700 24.03800 32.68900
C  47.33400 23.92800 31.16600
C  48.12200 22.85000 33.40400
C  47.50400 26.33900 33.93400
C  46.47200 25.96700 34.94500
H  46.57000 26.55300 36.39500
N  47.13300 23.22100 28.18600
C  46.77100 22.35200 29.20500
C  46.24400 21.12300 28.69300
C  46.51400 21.15000 27.29800
C  46.98900 22.53700 26.99800
C  45.67000 20.06800 29.55400
C  46.31000 20.10500 26.23700
O  46.66700 20.26800 25.08700
C  45.82800 18.75800 26.72700
N  48.38000 25.18600 26.19000
C  47.91700 24.24300 25.30500
C  48.09500 24.60200 23.82600
C  48.42100 26.10200 23.96200
C  48.62100 26.29500 25.48900
C  49.24300 23.70800 23.27400
C  47.31800 27.04000 23.37300
C  46.04100 27.00800 24.13000
N  48.71100 26.96800 28.40100
C  49.15700 27.83800 27.38700
C  49.66100 28.98100 28.03000
C  49.45400 28.81300 29.34200
C  49.05700 27.47800 29.59600
C  50.22500 30.18900 27.49700
C  49.59500 29.52200 30.64000
O  49.96800 30.66900 30.89100
C  49.28000 28.40500 31.72100
C  50.53000 28.14700 32.46700
O  51.51200 27.61700 32.03600
O  50.37600 28.55700 33.74200
C  51.42400 28.16200 34.74200
H  46.36500 22.04800 31.30800
H  47.26500 22.37700 24.89400
H  49.31600 28.20700 25.31200
H  49.15800 25.18900 33.27800
H  46.43200 24.12400 33.12600
H  48.33000 23.17300 34.42400
H  48.98700 22.48000 32.85400
H  47.40000 22.03400 33.43800
H  47.21500 27.20600 33.34100
H  48.35400 26.55200 34.58300
H  46.44000 24.88500 35.08000
H  45.46000 26.23800 34.64500
H  44.59300 20.05600 29.38900
H  45.90200 20.17600 30.61400
H  46.09400 19.12500 29.20800
H  46.47300 18.10300 27.31400
H  45.50500 18.18000 25.86100
H  44.85600 18.94900 27.18000
H  47.13900 24.46800 23.31900
H  49.37600 26.36400 23.50700
H  49.73100 24.16100 22.41100
H  48.79700 22.76000 22.97300
H  50.02900 23.54400 24.01100
H  47.07200 26.89200 22.32100
H  47.82300 27.98300 23.58300
H  46.08400 26.45700 25.07000
H  45.33400 26.39800 23.56600
H  45.65900 28.01000 24.32400
H  51.10600 30.35900 28.11600
H  49.48500 30.98000 27.61600
H  50.60100 30.01900 26.48800
H  48.49600 28.66600 32.43100
H  52.32300 27.99200 34.15000
H  51.10600 27.21800 35.18600
H  51.58000 29.03400 35.37800
Mg 29.67800 57.24600 40.19000
C  27.11800 54.78700 39.25600
C  32.09300 54.83100 39.25400
C  31.84000 59.68400 40.11900
C  26.98200 59.47600 40.63000
N  29.58200 55.02000 39.35200
C  28.42800 54.34800 39.06000
C  28.84800 53.07600 38.33800
C  30.38800 52.98500 38.71400
C  30.75900 54.34200 39.11300
C  30.72800 51.92100 39.73500
C  28.51000 53.15400 36.79300
C  27.29700 52.33500 36.25100
H  26.44300 53.09400 35.19400
N  31.74400 57.29800 39.89300
C  32.47500 56.17700 39.54600
C  33.84400 56.62900 39.42100
C  33.87900 58.03700 39.70400
C  32.44900 58.39800 39.95300
C  34.95300 55.63800 39.06400
C  35.13100 58.98100 39.66500
O  36.20900 58.50100 39.46200
C  35.00300 60.44500 39.98400
N  29.41400 59.26400 40.19300
C  30.52500 60.10700 40.31500
C  30.08400 61.58400 40.39200
C  28.53600 61.48100 40.74500
C  28.28400 59.99700 40.52400
C  30.93500 62.44100 41.36500
C  27.59000 62.46600 39.94400
C  26.71300 63.35200 40.75800
N  27.48200 57.14800 40.05600
C  26.61500 58.17300 40.31000
C  25.24100 57.66400 40.27400
C  25.40500 56.33800 39.74700
C  26.80500 56.07800 39.71300
C  23.95300 58.39300 40.75100
C  24.71700 55.12900 39.31300
O  23.50600 55.00900 39.03900
C  25.82800 54.08400 38.94500
C  25.50700 52.98700 39.78700
O  26.25700 52.61500 40.64400
O  24.33100 52.37400 39.51300
C  24.04100 51.17500 40.31600
H  32.81100 54.07600 38.92600
H  32.58400 60.48400 40.13300
H  26.20200 60.19100 40.89900
H  28.32400 52.19100 38.69900
H  30.89700 52.80800 37.76700
H  31.52100 52.41600 40.29600
H  31.17800 51.09700 39.18300
H  29.85400 51.57300 40.28500
H  29.35400 52.66200 36.31000
H  28.46900 54.16000 36.37400
H  26.73400 51.90200 37.07900
H  27.75800 51.44100 35.83300
H  35.89300 56.07200 38.72500
H  34.59200 55.01700 38.24400
H  35.22100 55.09700 39.97200
H  34.55400 60.40400 40.97600
H  34.49300 60.97000 39.17700
H  35.99900 60.88700 40.03200
H  30.17000 61.95400 39.37000
H  28.47600 61.77800 41.79200
H  31.45200 63.11700 40.68300
H  31.69200 61.87200 41.90500
H  30.41600 63.05500 42.10100
H  26.84800 61.76200 39.56800
H  27.98800 63.07700 39.13500
H  26.42800 64.18900 40.12000
H  27.18600 63.78300 41.64100
H  25.82200 62.93300 41.22600
H  23.97500 58.24200 41.83000
H  23.02200 58.03900 40.30800
H  23.91400 59.45100 40.49400
H  25.73700 53.73800 37.91600
H  23.34600 51.39400 41.12600
H  24.89700 50.78500 40.86800
H  23.64100 50.38500 39.68100

