158

Mg 28.55700 58.42600 42.33400
C  25.85700 56.75100 40.84400
C  30.65000 56.64500 40.19100
C  31.06400 60.72900 42.69800
C  26.34600 60.47200 43.88100
N  28.23700 57.01700 40.62700
C  27.04800 56.38500 40.24800
C  27.27900 55.31800 39.18200
C  28.79700 55.06900 39.29800
C  29.31200 56.35600 40.03000
C  29.29800 53.72700 40.07200
C  26.90000 55.73500 37.74700
C  26.04700 54.72100 37.09000
H  26.43800 54.31100 35.62500
N  30.71700 58.48000 41.87600
C  31.33700 57.63200 40.97900
C  32.74900 57.89300 40.94500
C  32.85900 59.11400 41.67900
C  31.49700 59.51000 42.09100
C  33.76100 57.04200 40.20000
C  34.17900 59.83500 41.90600
O  35.24900 59.48700 41.32600
C  34.19900 60.98700 42.86400
N  28.66400 60.33100 43.18400
C  29.77000 61.07600 43.22100
C  29.52200 62.39000 44.04700
C  28.07600 62.12600 44.68900
C  27.63100 60.96000 43.82200
C  30.64000 62.81400 45.02300
C  27.11900 63.30100 44.50400
C  26.20300 63.64200 45.70500
N  26.44800 58.49200 42.48400
C  25.68500 59.46700 43.06500
C  24.28900 59.17500 42.91500
C  24.29000 57.99000 42.15000
C  25.64800 57.71800 41.83100
C  23.06800 59.89100 43.46900
C  23.48900 56.93300 41.56900
O  22.28000 56.63000 41.67300
C  24.48300 56.14600 40.58700
C  24.44500 54.67100 40.89900
O  24.89400 54.19800 41.97000
O  23.88800 53.99400 39.88100
C  23.74000 52.52600 40.27300
H  31.27200 55.91400 39.67000
H  31.75700 61.57000 42.77800
H  25.64500 61.07700 44.46000
H  26.75400 54.41200 39.48400
H  29.35700 55.14900 38.36600
H  30.04000 53.99500 40.82400
H  29.80400 53.17800 39.27800
H  28.53000 53.14500 40.58100
H  27.75000 55.93200 37.09400
H  26.29700 56.63500 37.87600
H  25.03400 55.12100 37.05700
H  26.07100 53.79400 37.66400
H  34.57200 56.68000 40.83100
H  34.20100 57.62300 39.39000
H  33.26300 56.15400 39.81000
H  33.79300 61.88300 42.39500
H  35.22900 61.12000 43.19600
H  33.57300 60.69200 43.70600
H  29.39500 63.22300 43.35500
H  28.19400 61.98900 45.76400
H  30.18400 62.83000 46.01200
H  30.93800 63.81000 44.69400
H  31.38500 62.02200 44.95200
H  26.46000 63.25100 43.63700
H  27.75300 64.18000 44.38800
H  26.81000 64.28800 46.34000
H  25.79800 62.86000 46.34800
H  25.25000 64.01900 45.33300
H  22.72900 59.38400 44.37200
H  22.31000 59.88300 42.68600
H  23.27400 60.91700 43.77300
H  24.23500 56.16900 39.52600
H  24.66900 51.99700 40.05600
H  23.01800 52.04800 39.61000
H  23.35900 52.42200 41.28900
Mg 26.44000 50.23000 26.34300
C  24.24900 51.24100 28.83900
C  28.79100 49.24300 28.86300
C  28.66300 49.55200 23.91700
C  24.21500 51.52100 24.01700
N  26.50500 50.26100 28.53500
C  25.39900 50.59100 29.35300
C  25.68100 50.28900 30.85400
C  27.22900 49.91500 30.84000
C  27.52700 49.71400 29.29500
C  28.17900 50.97700 31.43900
C  24.77400 49.12700 31.48500
C  24.22400 49.27600 32.89000
H  24.84000 50.15200 33.97100
N  28.39300 49.48800 26.39800
C  29.22600 49.14800 27.52300
C  30.52600 48.78200 27.00300
C  30.53500 49.07700 25.60000
C  29.16600 49.42400 25.25900
C  31.68300 48.35400 27.83300
C  31.65400 49.04000 24.47500
O  31.48600 49.22800 23.28700
C  32.97700 48.71200 24.98800
N  26.48900 50.59300 24.25700
C  27.40700 49.95800 23.45300
C  26.97400 49.95200 21.93800
C  25.45800 50.47200 22.06000
C  25.40300 50.94600 23.52900
C  27.87000 50.78600 20.94500
C  24.33200 49.46900 21.79400
C  23.30600 49.96600 20.75000
N  24.62900 51.20500 26.34500
C  23.77800 51.66500 25.36100
C  22.60800 52.21300 25.92700
C  22.71200 52.00800 27.28900
C  23.97500 51.45700 27.52600
C  21.51500 53.05900 25.30300
C  22.06000 52.25400 28.58200
O  21.06300 52.79900 28.81800
C  22.99700 51.66200 29.64300
C  23.33700 52.76700 30.69400
O  24.16800 53.61200 30.52600
O  22.41800 52.71200 31.72600
C  22.57400 53.71000 32.76700
H  29.44800 48.95800 29.68800
H  29.20600 49.15500 23.05700
H  23.45800 51.87600 23.31400
H  25.43700 51.14300 31.48500
H  27.32000 49.03300 31.47300
H  29.13700 50.62000 31.81600
H  27.58400 51.29700 32.29400
H  28.24300 51.76300 30.68600
H  25.35100 48.20500 31.42500
H  23.93600 48.95700 30.80900
H  24.13100 48.23400 33.19500
H  23.18200 49.59200 32.83900
H  32.04300 47.43900 27.36300
H  31.49600 48.12500 28.88200
H  32.41600 49.16100 27.80700
H  33.62700 49.00600 24.16400
H  33.24900 47.66000 25.08200
H  33.23800 49.28100 25.88000
H  26.90000 48.91100 21.62500
H  25.38500 51.35300 21.42200
H  28.59300 51.50300 21.33500
H  27.17500 51.24500 20.24200
H  28.49000 50.01700 20.48300
H  23.84100 49.18100 22.72400
H  24.84800 48.61400 21.35900
H  23.40700 49.27600 19.91300
H  23.49000 50.98100 20.39600
H  22.25300 49.88800 21.02100
H  21.79300 53.22400 24.26200
H  21.44400 54.02100 25.81000
H  20.52600 52.62500 25.44800
H  22.58100 50.89600 30.29700
H  23.57300 53.58100 33.18400
H  21.74800 53.72600 33.47700
H  22.71300 54.67700 32.28300

