158

Mg 30.46200 58.12900 39.26000
C  27.82200 56.09100 38.03600
C  32.70000 55.58000 38.42000
C  33.07300 60.35600 39.43800
C  28.14900 60.75900 39.54000
N  30.24500 56.07000 38.34800
C  29.08500 55.49400 37.94700
C  29.36000 54.03800 37.60700
C  30.85700 53.76800 37.92300
C  31.32100 55.19900 38.35100
C  31.17100 52.74200 39.06800
C  28.90100 53.69000 36.23300
C  29.53000 54.48400 35.05800
H  28.62600 55.46600 34.21500
N  32.61700 57.96200 38.95300
C  33.32600 56.76800 38.74700
C  34.77600 57.09400 38.72200
C  34.89100 58.48500 38.99800
C  33.48500 59.00900 39.14500
C  35.91400 56.08000 38.55000
C  36.16700 59.25500 38.94500
O  37.25400 58.64200 38.82700
C  36.21800 60.83100 38.88300
N  30.58300 60.28300 39.18600
C  31.77500 60.91500 39.52500
C  31.54300 62.48000 39.58600
C  30.01300 62.52600 39.63000
C  29.50400 61.06100 39.48400
C  32.26600 63.30300 40.68100
C  29.26300 63.42800 38.57000
C  28.60600 64.68400 39.18300
N  28.34900 58.37400 39.06600
C  27.58600 59.47400 39.23100
C  26.18400 59.08900 39.06000
C  26.18400 57.78600 38.58300
C  27.55500 57.40200 38.51100
C  24.98200 59.91800 39.31200
C  25.35100 56.66600 38.17000
O  24.14200 56.55700 38.03900
C  26.44200 55.54900 37.70100
C  26.10500 54.37900 38.51400
O  26.50700 54.06900 39.63400
O  25.25200 53.59200 37.73000
C  24.54600 52.50100 38.37000
H  33.42300 54.80600 38.15300
H  33.83300 61.09800 39.69000
H  27.39700 61.55100 39.57300
H  28.83500 53.37200 38.29200
H  31.43600 53.32500 37.11400
H  30.51600 52.71700 39.93900
H  32.17800 52.93400 39.43600
H  31.22700 51.76600 38.58700
H  27.82700 53.73400 36.05200
H  29.12100 52.62700 36.13400
H  29.91300 53.77600 34.32400
H  30.41700 55.03900 35.36400
H  36.85300 56.35400 39.03200
H  36.07800 56.03200 37.47300
H  35.65600 55.08700 38.92000
H  37.14000 61.15300 38.39700
H  36.01200 61.17800 39.89500
H  35.39300 61.07800 38.21500
H  31.91900 62.92800 38.66600
H  29.81800 62.82100 40.66100
H  33.01700 63.93800 40.21000
H  32.98700 62.69200 41.22500
H  31.61700 63.88000 41.33900
H  28.41900 62.87800 38.15500
H  30.00200 63.86700 37.89900
H  29.10500 65.52200 38.69800
H  28.73900 64.72800 40.26400
H  27.52500 64.63700 39.04300
H  24.49800 59.61600 40.24000
H  24.16200 59.78700 38.60600
H  25.25200 60.96500 39.45400
H  26.32600 55.27900 36.65100
H  23.59600 52.44000 37.83900
H  24.33700 52.48800 39.44000
H  25.10800 51.58000 38.21300
Mg 17.76300 52.65200 26.02900
C  19.82100 50.93200 28.37700
C  15.54300 53.26600 28.48300
C  15.68700 53.85100 23.68400
C  19.84700 51.32300 23.47700
N  17.65600 52.05700 28.09200
C  18.60800 51.45800 28.90700
C  18.15700 51.50500 30.39000
C  16.64300 51.76400 30.30100
C  16.63500 52.45500 28.88100
C  15.70000 50.45500 30.54300
C  18.97600 52.60000 31.15000
C  19.23500 52.62900 32.63800
H  18.36400 51.62400 33.42400
N  15.81300 53.38500 26.05400
C  15.14900 53.77100 27.20000
C  13.94100 54.49500 26.83100
C  13.95400 54.66500 25.41600
C  15.21700 54.03700 25.00900
C  12.99000 54.98800 27.89400
C  12.95600 55.34100 24.54000
O  13.15700 55.46500 23.30200
C  11.66400 55.89500 25.10800
N  17.78200 52.53800 23.95700
C  16.83700 53.16200 23.19300
C  17.12800 53.03400 21.68600
C  18.47800 52.25700 21.64700
C  18.72200 52.02300 23.12600
C  15.98200 52.52100 20.83500
C  19.64000 52.80500 20.72600
C  20.67600 53.72900 21.41900
N  19.48800 51.44200 25.94800
C  20.19900 50.96600 24.82800
C  21.38900 50.33100 25.25000
C  21.25900 50.24700 26.64200
C  20.13200 50.94900 27.02800
C  22.44100 49.63700 24.34500
C  21.93800 49.70100 27.82500
O  22.93000 49.09500 27.97100
C  20.98200 50.18200 29.03000
C  20.44200 48.99200 29.75600
O  19.61700 48.25600 29.25600
O  20.87000 48.90200 31.07600
C  20.05400 47.87300 31.80700
H  14.77000 53.39100 29.24400
H  15.09900 54.27800 22.86900
H  20.60300 51.04900 22.73800
H  18.44600 50.58300 30.89400
H  16.31800 52.37900 31.14000
H  15.07100 50.61800 31.41800
H  16.24100 49.51300 30.63500
H  15.01200 50.31600 29.70900
H  18.52700 53.57100 30.94100
H  19.95200 52.59200 30.66400
H  18.97800 53.62500 33.00000
H  20.31200 52.56100 32.78600
H  12.07100 54.41900 28.03400
H  12.80500 56.04800 27.72100
H  13.44000 54.99500 28.88700
H  11.79000 56.57500 25.95000
H  11.01400 55.08300 25.43600
H  10.97800 56.42300 24.44600
H  17.22300 54.07100 21.36500
H  18.19100 51.25100 21.33700
H  16.30100 51.67500 20.22700
H  15.72400 53.31800 20.13700
H  15.06100 52.36900 21.39800
H  19.08100 53.43000 20.03000
H  20.13700 52.05900 20.10600
H  20.97100 54.41700 20.62700
H  21.57200 53.14200 21.62100
H  20.18500 54.19200 22.27500
H  23.06800 50.32000 23.77200
H  21.94400 48.95200 23.65800
H  23.10600 49.13700 25.04900
H  21.55400 50.75500 29.76000
H  20.27700 48.02800 32.86300
H  20.50900 46.89100 31.68400
H  18.99300 47.77300 31.58000

