158

Mg 49.77800 35.69400 28.04100
C  47.40300 34.34700 30.31900
C  49.87500 38.46300 30.01300
C  51.66100 37.22000 25.61200
C  49.00800 33.12900 25.79300
N  48.82700 36.21100 30.04500
C  48.00600 35.50000 30.87100
C  48.04500 36.19100 32.24300
C  48.30800 37.63200 31.79900
C  49.10400 37.46200 30.55800
C  47.06400 38.56500 31.56900
C  49.07300 35.48500 33.15200
C  48.69200 35.10700 34.63400
H  49.56300 35.69500 35.78200
N  50.77200 37.52400 27.87100
C  50.74000 38.45000 28.82200
C  51.54900 39.61900 28.44700
C  51.95200 39.35400 27.09700
C  51.44300 38.01400 26.78300
C  51.75300 40.80500 29.30800
C  52.57600 40.29000 26.01400
O  52.73500 39.96300 24.86000
C  53.01600 41.68800 26.50200
N  50.19400 35.29400 25.93100
C  51.13800 35.99500 25.24700
C  51.41600 35.38200 23.88700
C  50.78000 33.93100 24.08800
C  49.90600 34.11200 25.35400
C  50.75000 36.19700 22.69900
C  51.81200 32.79100 24.22000
C  51.81000 31.66500 23.13700
N  48.54900 34.03600 28.05900
C  48.38700 33.06200 27.05700
C  47.41900 32.10200 27.54800
C  46.96400 32.58900 28.75900
C  47.67500 33.77600 29.06300
C  46.82500 30.90400 26.82500
C  46.09700 32.22900 29.92700
O  45.32100 31.35800 30.16500
C  46.33100 33.44300 30.90700
C  46.60400 32.83300 32.21300
O  47.51200 32.12300 32.57000
O  45.63800 33.30100 33.12100
C  45.69900 32.61500 34.38100
H  49.95700 39.37800 30.60300
H  52.41800 37.64500 24.95000
H  48.87200 32.27400 25.12800
H  47.01400 36.09200 32.58500
H  48.95200 38.18900 32.47900
H  46.96400 39.36400 32.30400
H  46.07700 38.10700 31.50500
H  47.37300 39.18500 30.72700
H  50.02800 36.00700 33.21000
H  49.29700 34.54300 32.65100
H  48.53900 34.02800 34.64000
H  47.69200 35.48600 34.84600
H  52.68500 41.32400 29.08500
H  51.69000 40.62000 30.38000
H  50.91300 41.43600 29.01600
H  53.71800 41.69500 27.33600
H  52.10500 42.19100 26.82500
H  53.46600 42.24500 25.68000
H  52.50000 35.27800 23.83100
H  50.22600 33.68000 23.18400
H  50.06400 35.55100 22.15100
H  51.56400 36.51600 22.04900
H  50.34200 37.06500 23.21700
H  51.73400 32.51800 25.27200
H  52.77900 33.29200 24.17000
H  51.53500 30.70900 23.58100
H  52.80500 31.61200 22.69500
H  51.00200 31.85400 22.43000
H  46.27100 30.14400 27.37700
H  47.57600 30.44500 26.18100
H  46.23900 31.37300 26.03500
H  45.42100 34.04200 30.95600
H  45.53900 31.54100 34.47500
H  45.14300 33.21100 35.10400
H  46.67600 32.81000 34.82400
Mg -6.17300 25.51300 26.13500
C  -4.64300 26.68800 28.94900
C  -8.33500 23.84800 28.00500
C  -7.18300 23.85300 23.32100
C  -3.62900 27.10800 24.16100
N  -6.22400 25.10300 28.21100
C  -5.64300 25.82500 29.25000
C  -6.28700 25.42400 30.58800
C  -7.26000 24.24600 30.23800
C  -7.30400 24.38600 28.72400
C  -6.75800 22.83100 30.63300
C  -6.89900 26.62100 31.43000
C  -6.74500 26.60900 32.93600
H  -6.12400 25.33500 33.61600
N  -7.60900 24.03700 25.67800
C  -8.41000 23.51600 26.58700
C  -9.26400 22.57200 26.04300
C  -8.88300 22.46300 24.66800
C  -7.83300 23.44100 24.47100
C  -10.35700 21.81500 26.90400
C  -9.47900 21.58700 23.60400
O  -9.06500 21.70200 22.43700
C  -10.71500 20.83500 23.88800
N  -5.57900 25.58900 24.10600
C  -6.06900 24.68500 23.13300
C  -5.33600 24.74300 21.80800
C  -4.29500 25.87800 22.03000
C  -4.53100 26.27200 23.49900
C  -4.71200 23.38700 21.42800
C  -4.30600 27.02000 20.92200
C  -3.02400 27.38700 20.17600
N  -4.59600 26.79800 26.42000
C  -3.69200 27.35100 25.55500
C  -2.87500 28.32200 26.30400
C  -3.22400 28.05600 27.65900
C  -4.15000 27.06100 27.69700
C  -1.74600 29.21100 25.84300
C  -2.89500 28.42800 29.02800
O  -2.07500 29.27400 29.48000
C  -3.89300 27.55600 29.94100
C  -3.14600 26.80300 30.92500
O  -2.74700 25.63000 30.83300
O  -2.89100 27.51300 32.05900
C  -1.96400 27.00800 33.06600
H  -9.13600 23.49100 28.65600
H  -7.55600 23.34800 22.42800
H  -2.89300 27.70500 23.61900
H  -5.44100 25.12100 31.20600
H  -8.19100 24.42800 30.77500
H  -6.02100 23.08800 31.39400
H  -6.30200 22.40500 29.73900
H  -7.58500 22.23000 31.01000
H  -7.97800 26.64200 31.27700
H  -6.53100 27.53500 30.96400
H  -7.70800 26.77100 33.42100
H  -6.23100 27.54300 33.16300
H  -10.30700 22.14600 27.94200
H  -10.11300 20.75700 26.81400
H  -11.33100 22.09300 26.50300
H  -10.53800 19.92700 24.46500
H  -11.11300 20.55400 22.91300
H  -11.50200 21.45100 24.32200
H  -5.98400 25.11700 21.01500
H  -3.26900 25.51200 22.08400
H  -5.03500 22.64900 22.16100
H  -3.63200 23.27300 21.33400
H  -5.09100 23.13600 20.43700
H  -4.54600 27.96700 21.40400
H  -5.06600 26.83400 20.16300
H  -2.17700 26.79500 20.52200
H  -2.74000 28.43500 20.07900
H  -3.11200 27.28400 19.09400
H  -2.23800 30.16900 25.67100
H  -1.38500 28.94000 24.85100
H  -1.09800 29.34500 26.70900
H  -4.50600 28.23700 30.53000
H  -1.66600 25.96300 32.97700
H  -2.50600 27.12200 34.00500
H  -1.09100 27.64200 33.22200

