158

Mg 40.62200 10.15000 29.30000
C  42.73200 11.72700 31.62400
C  38.54400 9.17000 31.78500
C  38.81400 8.67700 26.94100
C  43.20500 10.84600 26.87300
N  40.70600 10.20800 31.51500
C  41.61100 11.08500 32.23800
C  41.18900 11.06500 33.71800
C  39.98600 10.10600 33.74900
C  39.69800 9.86500 32.22500
C  40.13100 8.84700 34.64200
C  40.82700 12.46000 34.31400
C  41.35200 12.84800 35.72500
H  41.35200 11.73700 36.79800
N  38.90400 9.13100 29.33600
C  38.08100 8.92300 30.45700
C  36.92000 8.18000 30.08500
C  37.03100 7.98700 28.63900
C  38.32200 8.62100 28.24000
C  35.85700 7.69400 30.99300
C  36.15100 7.22000 27.74000
O  36.47900 6.92800 26.60600
C  34.77500 6.74000 28.15700
N  41.06300 9.82700 27.27100
C  40.07100 9.25700 26.50800
C  40.47700 9.19400 25.04800
C  41.72800 10.13700 24.96800
C  42.04700 10.30200 26.42100
C  40.44100 7.78800 24.37900
C  41.61200 11.46700 24.25500
C  40.69600 12.38800 24.98900
N  42.55700 11.16600 29.20600
C  43.47200 11.29200 28.19400
C  44.71000 11.97100 28.64300
C  44.39400 12.24100 30.01600
C  43.14000 11.66700 30.30600
C  45.97700 12.26100 27.86800
C  44.93800 12.77600 31.20800
O  45.98200 13.38100 31.40700
C  43.84600 12.44900 32.38800
C  44.50700 11.70500 33.48700
O  44.53100 10.48000 33.60000
O  45.05500 12.59200 34.34700
C  45.35600 11.86500 35.57700
H  37.91200 8.91400 32.63800
H  38.34300 8.08200 26.15600
H  43.81700 11.32400 26.10600
H  42.05800 10.61200 34.19500
H  39.15900 10.72200 34.10300
H  41.14500 8.47300 34.50200
H  39.41200 8.14400 34.22100
H  39.98600 9.07900 35.69700
H  39.78200 12.76800 34.28300
H  41.30700 13.20700 33.68200
H  40.68100 13.60800 36.12700
H  42.37300 13.21200 35.61700
H  36.16900 7.84700 32.02600
H  35.66100 6.62200 30.98000
H  35.01500 8.38100 30.91400
H  35.08700 5.86300 28.72300
H  34.32600 6.39000 27.22700
H  34.29000 7.56900 28.67100
H  39.68000 9.70000 24.50200
H  42.65300 9.67300 24.62400
H  40.33700 7.07800 25.19900
H  41.36600 7.53800 23.85800
H  39.58000 7.67400 23.72100
H  41.29500 11.23500 23.23900
H  42.62800 11.86400 24.25300
H  40.55600 12.10400 26.03300
H  39.74600 12.42600 24.45500
H  41.14300 13.37900 25.06300
H  46.20200 11.44000 27.18700
H  46.80700 12.28200 28.57500
H  45.95000 13.22200 27.35500
H  43.55700 13.45700 32.68500
H  45.83600 10.88600 35.59500
H  44.40800 11.69400 36.08700
H  46.08300 12.42000 36.16900
Mg 1.33700 42.64700 24.84300
C  2.33400 42.79200 28.25300
C  -1.54700 41.27000 25.90800
C  0.58700 42.20300 21.65700
C  4.57600 43.56300 23.98300
N  0.43500 42.28600 26.86400
C  0.99200 42.45800 28.12000
C  -0.00200 42.22000 29.19500
C  -1.24500 41.51000 28.44100
C  -0.75600 41.66400 26.97100
C  -1.40300 40.07800 28.81800
C  -0.38200 43.46600 30.11300
C  -0.07600 43.21900 31.64000
H  -0.63400 41.92100 32.26400
N  -0.32700 41.99300 23.93900
C  -1.40900 41.46900 24.53600
C  -2.47700 41.15300 23.49600
C  -1.80000 41.48600 22.24900
C  -0.42200 41.93000 22.60800
C  -3.94300 40.70700 23.81400
C  -2.33100 41.24400 20.89700
O  -1.67600 41.42500 19.87600
C  -3.68200 40.72000 20.72900
N  2.45100 42.71700 23.08300
C  1.86900 42.54200 21.91300
C  2.91000 42.68900 20.75700
C  4.06600 43.40600 21.51100
C  3.69000 43.22400 22.99100
C  3.30000 41.34100 20.08100
C  4.40400 44.85400 20.96700
C  3.23700 45.87700 21.14900
N  3.08900 43.06500 25.85800
C  4.29800 43.51100 25.34200
C  5.27400 43.72000 26.38700
C  4.52500 43.49100 27.58600
C  3.20600 43.06800 27.17300
C  6.66900 44.09200 26.27200
C  4.59200 43.44200 28.99300
O  5.45400 43.73500 29.79300
C  3.14300 42.87900 29.51800
C  3.49200 41.65300 30.26300
O  3.85600 40.62700 29.71900
O  3.49300 41.85600 31.63300
C  3.83200 40.68800 32.40400
H  -2.51700 40.81700 26.12400
H  0.41600 42.14400 20.58000
H  5.47800 44.01000 23.55900
H  0.51900 41.46200 29.78000
H  -2.12100 42.13600 28.60900
H  -2.46800 39.92200 28.98900
H  -0.74700 39.83400 29.65400
H  -0.93800 39.50800 28.01300
H  -1.41300 43.67800 29.83000
H  0.14300 44.35500 29.76200
H  -0.70800 43.97300 32.10900
H  0.98100 43.36500 31.86500
H  -4.05700 39.62300 23.81300
H  -4.73300 41.18900 23.23700
H  -4.12200 41.05000 24.83300
H  -3.96400 39.80100 21.24300
H  -3.87100 40.49500 19.67900
H  -4.34900 41.52400 21.03800
H  2.49400 43.30800 19.96200
H  5.02100 42.88300 21.47600
H  2.64300 40.48300 20.22600
H  4.30200 41.05000 20.39700
H  3.44400 41.54800 19.02100
H  4.54700 44.71600 19.89500
H  5.25800 45.33200 21.44700
H  2.43800 45.48300 21.77800
H  2.87400 46.26000 20.19500
H  3.62300 46.72200 21.71900
H  7.15800 43.69600 25.38100
H  7.22100 43.81300 27.16900
H  6.73600 45.18000 26.26900
H  2.66800 43.60300 30.18000
H  3.27800 39.86300 31.95500
H  3.67600 40.73900 33.48100
H  4.90500 40.51400 32.31700

