158

Mg 2.27000 -2.21700 44.30700
C  5.63900 -1.36200 44.12200
C  1.48800 0.66800 42.72700
C  -0.93200 -3.30800 43.87100
C  3.28900 -5.42700 45.34400
N  3.56600 -0.59800 43.28300
C  4.84100 -0.34700 43.58200
C  5.24200 1.05200 43.13200
C  3.83900 1.67800 42.85500
C  2.88200 0.50200 42.92800
C  3.40300 2.89700 43.79800
C  6.24000 1.13900 41.97700
C  6.20000 0.06100 40.84800
H  5.62000 0.48100 39.50300
N  0.54100 -1.44200 43.37700
C  0.41300 -0.17800 42.85200
C  -0.93200 0.08700 42.40400
C  -1.70400 -1.03400 42.86600
C  -0.67000 -1.97200 43.38800
C  -1.36200 1.30400 41.67700
C  -3.27800 -1.20800 42.63200
O  -3.95700 -0.27900 42.15800
C  -4.01500 -2.44400 42.93300
N  1.27200 -4.08300 44.41500
C  -0.04300 -4.27600 44.29400
C  -0.48600 -5.68100 44.88900
C  0.96200 -6.26300 45.19800
C  1.91600 -5.18500 44.88800
C  -1.45700 -5.54100 46.06600
C  1.32500 -7.58300 44.34600
C  1.76800 -7.42200 42.88400
N  4.11600 -3.20100 44.75700
C  4.37600 -4.50000 45.18700
C  5.75100 -4.61700 45.60900
C  6.28600 -3.39500 45.16700
C  5.29600 -2.63400 44.59000
C  6.47400 -5.80500 46.16900
C  7.50800 -2.63200 45.10800
O  8.61700 -2.93800 45.52700
C  7.13500 -1.28800 44.36300
C  7.52300 -0.12400 45.26800
O  6.70200 0.38600 46.00400
O  8.81600 0.34400 45.07400
C  9.08900 1.73300 45.41600
H  1.27300 1.63100 42.25900
H  -1.98600 -3.59100 43.83200
H  3.48300 -6.41600 45.76300
H  5.75500 1.59500 43.92600
H  3.88300 2.06100 41.83500
H  3.18700 3.72500 43.12200
H  4.18600 3.19000 44.49700
H  2.46100 2.79200 44.33700
H  7.22200 1.27000 42.43100
H  6.02700 2.07900 41.46900
H  5.53600 -0.74000 41.17200
H  7.14700 -0.47500 40.78600
H  -1.97200 1.86600 42.38500
H  -2.02800 1.10100 40.83900
H  -0.60800 1.99400 41.29800
H  -5.03800 -2.20400 42.64400
H  -4.02300 -2.66600 44.00000
H  -3.64500 -3.27700 42.33600
H  -1.05700 -6.23200 44.14100
H  1.01300 -6.41700 46.27600
H  -1.87100 -4.53500 45.99700
H  -0.99300 -5.65200 47.04600
H  -2.19700 -6.33900 46.01800
H  0.37200 -8.10800 44.41800
H  1.96000 -8.17100 45.00700
H  0.95600 -7.79200 42.25800
H  2.60000 -8.11100 42.73900
H  2.04500 -6.40000 42.62800
H  6.26000 -6.72000 45.61600
H  6.26100 -6.03000 47.21400
H  7.54500 -5.60600 46.22300
H  7.78700 -1.09100 43.51200
H  9.46000 2.02900 44.43400
H  9.90400 1.81500 46.13500
H  8.16600 2.27400 45.62000
Mg 5.93800 55.12200 40.76800
C  3.46900 52.66900 41.20200
C  7.88900 52.81600 39.21300
C  8.17600 57.53300 40.07900
C  3.57600 57.42900 41.77000
N  5.56200 53.10800 39.97000
C  4.56700 52.23800 40.39700
C  4.69700 50.93100 39.66800
C  6.24500 50.92400 39.29400
C  6.62600 52.36800 39.56000
C  7.13400 49.99300 40.16400
C  3.92500 50.78400 38.36600
C  3.74100 49.23300 37.89000
H  4.63700 48.76200 36.85200
N  7.66400 55.23100 39.56500
C  8.37000 54.15200 39.16000
C  9.74700 54.49700 38.76600
C  9.87900 55.85400 39.03900
C  8.54200 56.25400 39.62100
C  10.76600 53.42900 38.37500
C  11.17500 56.66300 38.91700
O  12.23600 56.10800 38.70000
C  11.29600 58.13600 39.03000
N  5.90500 57.12000 40.87200
C  6.97800 57.87500 40.67700
C  6.76600 59.29400 41.21600
C  5.17500 59.39100 41.34200
C  4.86500 57.88500 41.32200
C  7.49200 59.52800 42.63100
C  4.34200 60.24000 40.28400
C  4.09100 61.74600 40.61400
N  3.90300 55.10100 41.48000
C  3.06200 56.13200 41.83100
C  1.82600 55.63000 42.29500
C  2.02600 54.24600 42.18300
C  3.27200 53.95000 41.68800
C  0.58000 56.41800 42.74600
C  1.34600 52.93500 42.33100
O  0.22500 52.66600 42.74000
C  2.38800 51.88200 41.91600
C  1.63400 50.91500 41.11900
O  1.07000 51.05800 40.06200
O  1.66300 49.79400 41.92800
C  1.08500 48.63600 41.29500
H  8.54300 52.01700 38.85900
H  9.01900 58.21900 39.97500
H  2.85700 58.19000 42.07900
H  4.40100 50.12400 40.33800
H  6.43100 50.63900 38.25800
H  7.63100 49.24600 39.54600
H  6.55100 49.38600 40.85700
H  7.81700 50.57300 40.78600
H  4.57200 51.20200 37.59600
H  2.94100 51.24700 38.44200
H  2.68700 49.25600 37.61300
H  3.78200 48.71500 38.84800
H  11.63900 53.68700 37.77700
H  10.20600 52.71400 37.77200
H  10.97200 52.75300 39.20500
H  12.17400 58.51600 38.50900
H  11.17900 58.49300 40.05300
H  10.43700 58.61400 38.56100
H  7.11200 60.00600 40.46600
H  4.84200 59.77800 42.30500
H  6.90500 59.08500 43.43600
H  7.75700 60.56500 42.83800
H  8.46000 59.02700 42.65100
H  3.36900 59.75600 40.19400
H  4.95700 60.15000 39.38900
H  3.03700 61.88700 40.37700
H  4.72800 62.50700 40.16400
H  4.12300 61.85900 41.69700
H  0.62400 57.48800 42.54300
H  0.47700 56.32100 43.82700
H  -0.32300 56.12900 42.20700
H  2.69100 51.42100 42.85600
H  0.14100 48.94400 40.84500
H  0.95000 47.90400 42.09100
H  1.81000 48.34600 40.53400

