158

Mg 8.54200 3.52300 27.48400
C  9.57900 1.96400 30.41700
C  6.48100 5.61300 29.33200
C  7.32800 4.81000 24.55500
C  9.97900 0.91200 25.58100
N  7.99700 3.76900 29.62200
C  8.65600 2.99900 30.61900
C  8.40300 3.56300 32.02500
C  7.33100 4.68400 31.66200
C  7.22200 4.70400 30.09700
C  6.01700 4.53800 32.41000
C  9.62000 4.22000 32.69700
C  9.59100 4.29200 34.25400
H  10.70200 3.53100 35.02100
N  7.16400 5.16800 27.00000
C  6.44700 5.88500 27.90200
C  5.80400 6.95900 27.15400
C  5.96300 6.75600 25.77000
C  6.87300 5.53200 25.72300
C  5.06300 8.05300 27.85900
C  5.39600 7.46100 24.59200
O  5.57100 7.17400 23.39100
C  4.50000 8.62500 24.85500
N  8.63400 2.85400 25.32700
C  8.03400 3.60800 24.37900
C  8.34500 2.99200 22.97600
C  9.40500 1.92300 23.36400
C  9.25800 1.81600 24.82800
C  7.10100 2.43600 22.23300
C  10.82500 2.21700 22.94500
C  11.45400 1.08800 22.07800
N  9.63700 1.87500 27.86200
C  10.09700 0.89500 27.00200
C  10.86100 -0.09700 27.81200
C  10.73500 0.38400 29.12900
C  9.93700 1.49300 29.16400
C  11.67300 -1.27300 27.36200
C  11.13800 0.12900 30.49300
O  11.90200 -0.68900 30.97700
C  10.31100 1.08500 31.40800
C  9.40600 0.16700 32.25100
O  8.59600 -0.65300 31.84600
O  9.66200 0.41300 33.56600
C  9.12300 -0.58700 34.49800
H  6.04400 6.43900 29.89600
H  6.99400 5.25400 23.61500
H  10.43400 0.04200 25.10300
H  7.94000 2.84600 32.70300
H  7.75200 5.66300 31.88700
H  5.23000 4.71700 31.67700
H  5.87300 5.29800 33.17800
H  6.01800 3.59700 32.96100
H  9.74300 5.25700 32.38400
H  10.45200 3.61400 32.33900
H  8.58200 4.10100 34.61900
H  9.79600 5.32100 34.54800
H  5.35000 9.09400 27.70900
H  5.12000 7.90200 28.93700
H  4.01100 7.98700 27.58100
H  3.50800 8.34100 25.20500
H  4.52100 9.29400 23.99500
H  4.89600 9.28400 25.62800
H  8.82300 3.69300 22.29000
H  9.15700 0.93600 22.97300
H  6.26800 2.66000 22.89900
H  7.13100 1.37700 21.97700
H  6.93900 3.04900 21.34700
H  11.40700 2.40300 23.84700
H  11.05000 3.13500 22.40200
H  10.94300 0.12500 22.10100
H  12.42400 0.72600 22.41800
H  11.45800 1.36600 21.02400
H  11.59200 -1.51000 26.30100
H  11.55200 -2.13500 28.01700
H  12.72700 -1.00100 27.42200
H  11.01900 1.59400 32.06300
H  9.95400 -1.22600 34.79500
H  8.35300 -1.22400 34.06400
H  8.68200 -0.17900 35.40700
Mg 0.43300 42.82800 25.96400
C  3.00900 42.73000 28.31900
C  -1.77500 42.38200 28.50100
C  -2.03700 42.79400 23.63300
C  2.85000 43.10000 23.47600
N  0.63100 42.58800 28.16200
C  1.79100 42.57600 28.91100
C  1.42000 42.42400 30.34100
C  -0.08100 41.93800 30.34800
C  -0.47500 42.28600 28.96500
C  -0.33800 40.39100 30.74600
C  1.75200 43.75700 31.10400
C  1.31100 43.88900 32.59000
H  1.03700 42.63900 33.39900
N  -1.68200 42.52200 26.05100
C  -2.37000 42.43800 27.23000
C  -3.83800 42.43400 26.84200
C  -3.86500 42.53600 25.43400
C  -2.50300 42.60800 24.98600
C  -4.79000 42.48600 27.88200
C  -5.09300 42.53700 24.51500
O  -5.06400 42.65100 23.31200
C  -6.44000 42.60700 25.05500
N  0.38000 42.87700 23.85700
C  -0.74000 42.93600 23.09100
C  -0.43700 43.17900 21.62300
C  1.06500 43.19600 21.56300
C  1.52100 43.10700 23.03300
C  -1.08300 42.09200 20.66700
C  1.62700 44.35500 20.74000
C  1.81000 45.76000 21.44900
N  2.50600 42.87100 25.84100
C  3.33500 43.05200 24.77700
C  4.71000 43.02300 25.17000
C  4.63600 42.80800 26.57800
C  3.26100 42.82700 26.93400
C  5.92400 43.04900 24.28100
C  5.42300 42.55800 27.77500
O  6.62500 42.39100 27.90900
C  4.37600 42.58200 28.93400
C  4.61300 41.38000 29.79500
O  4.20300 40.25700 29.60200
O  5.31900 41.69500 30.91600
C  5.36800 40.69300 31.98300
H  -2.43000 42.29100 29.37000
H  -2.73700 42.95800 22.81100
H  3.46100 43.24300 22.58200
H  1.99500 41.65600 30.85800
H  -0.67400 42.52500 31.04900
H  -0.87000 40.33700 31.69600
H  0.46900 39.68700 30.94900
H  -1.03900 39.98700 30.01600
H  1.22800 44.57200 30.60300
H  2.78200 44.11600 31.08000
H  0.36900 44.43400 32.64000
H  2.08600 44.50100 33.05200
H  -5.76000 42.85200 27.54500
H  -4.54000 43.23900 28.63000
H  -4.79100 41.47600 28.29300
H  -6.48700 41.83900 25.82800
H  -7.21200 42.29500 24.35200
H  -6.60500 43.60900 25.45100
H  -0.69200 44.17800 21.26900
H  1.41500 42.26700 21.11400
H  -1.45900 41.30200 21.31700
H  -0.36400 41.51700 20.08400
H  -1.90600 42.40800 20.02500
H  1.05400 44.48700 19.82100
H  2.61500 43.96500 20.49800
H  1.37300 45.59400 22.43300
H  1.22800 46.54000 20.95700
H  2.86000 46.05200 21.45900
H  6.73200 42.50800 24.77400
H  6.27000 44.06800 24.10700
H  5.66100 42.47800 23.39100
H  4.68600 43.40900 29.57300
H  5.88800 39.77500 31.71000
H  4.38600 40.43400 32.37900
H  5.91200 41.24700 32.74800

