158

Mg 1.01300 7.76700 27.95200
C  1.46800 9.96300 30.55200
C  0.85300 5.22600 30.37200
C  0.57700 5.52600 25.42000
C  1.30700 10.25700 25.64400
N  1.32300 7.60700 30.22200
C  1.35300 8.70100 31.06200
C  1.03200 8.23500 32.53500
C  1.21400 6.70400 32.43100
C  1.10900 6.48200 30.89900
C  2.44000 6.18100 33.10800
C  -0.39700 8.64100 32.98700
C  -0.84400 8.46800 34.49400
H  0.20400 8.15900 35.61900
N  0.71600 5.72700 27.87100
C  0.69700 4.86900 28.97500
C  0.35800 3.55000 28.52000
C  0.28100 3.60600 27.08900
C  0.63500 4.98600 26.75600
C  -0.00900 2.40700 29.55600
C  -0.21500 2.48800 26.06700
O  -0.26600 2.56900 24.86200
C  -0.64800 1.18400 26.74100
N  0.87600 7.84300 25.83300
C  0.61400 6.87500 24.96000
C  0.63900 7.28300 23.37900
C  0.76900 8.80900 23.61800
C  1.02700 9.00700 25.13100
C  1.85000 6.73000 22.53300
C  -0.43400 9.59200 23.00700
C  -0.07500 10.52600 21.82500
N  1.36400 9.71700 27.99100
C  1.48200 10.62800 26.96000
C  1.59100 11.96900 27.54700
C  1.60100 11.72000 28.92300
C  1.45000 10.34700 29.16200
C  1.68400 13.27800 26.75500
C  1.64700 12.46100 30.13100
O  1.77800 13.68900 30.32500
C  1.42700 11.36900 31.27900
C  2.55100 11.62600 32.24800
O  3.70100 11.32000 32.08000
O  1.92100 12.06500 33.38800
C  2.83600 12.19500 34.57300
H  0.83000 4.51200 31.19800
H  0.55900 4.82300 24.58500
H  1.28100 11.02800 24.87100
H  1.80600 8.72400 33.12600
H  0.32400 6.23300 32.84800
H  3.14200 6.88000 33.56100
H  2.94200 5.58900 32.34300
H  2.09000 5.58300 33.95000
H  -0.99600 7.92000 32.42900
H  -0.57100 9.60800 32.51700
H  -1.57900 7.67000 34.38600
H  -1.25900 9.43700 34.77000
H  0.65800 1.54800 29.47900
H  -1.00100 2.02000 29.32200
H  -0.02100 2.70000 30.60600
H  -0.88900 0.37000 26.05800
H  -1.50800 1.29700 27.40200
H  0.12100 0.69300 27.33700
H  -0.23500 7.05200 22.77000
H  1.71100 9.18600 23.21900
H  2.12600 5.71200 22.80900
H  2.77800 7.27900 22.69400
H  1.65900 6.89900 21.47400
H  -0.81000 10.11400 23.88700
H  -1.22700 8.90000 22.72100
H  -0.71500 10.17400 21.01600
H  1.00500 10.43500 21.70500
H  -0.26500 11.55800 22.11800
H  2.59600 13.74100 27.13200
H  0.74600 13.82100 26.64600
H  1.92200 13.16100 25.69700
H  0.46700 11.60100 31.74100
H  2.45900 12.91400 35.30000
H  3.76700 12.62300 34.20300
H  2.97400 11.26000 35.11500
Mg 49.39700 46.26100 43.00200
C  46.37700 46.94900 41.43900
C  49.61400 43.26400 41.09700
C  52.67700 45.95300 43.76100
C  49.59400 49.76300 43.67900
N  48.11700 45.22400 41.41200
C  46.87300 45.69100 41.01800
C  46.19700 44.53500 40.18000
C  47.16500 43.34300 40.43800
C  48.41500 43.96800 40.95900
C  46.63400 42.23900 41.31600
C  45.88000 45.02300 38.74900
C  44.46800 44.67400 38.26700
H  44.37700 44.18400 36.78200
N  50.86600 44.73300 42.62000
C  50.78300 43.60200 41.80400
C  51.95200 42.78800 42.05700
C  52.79600 43.42500 42.93500
C  52.10800 44.75700 43.18900
C  52.14600 41.46600 41.47900
C  54.15200 42.91100 43.44800
O  54.51500 41.78000 43.19500
C  54.97500 43.62000 44.37400
N  50.88500 47.71900 43.56900
C  52.14200 47.24900 43.89700
C  53.00300 48.35400 44.65000
C  52.07900 49.62500 44.50300
C  50.75700 49.06600 43.90600
C  53.34400 48.11700 46.17900
C  52.61400 50.75200 43.66800
C  52.22600 52.15300 44.14000
N  48.12500 47.88900 42.91300
C  48.32100 49.28200 43.20500
C  47.09900 49.95900 43.07400
C  46.28800 49.08000 42.38700
C  47.02300 47.85600 42.24700
C  46.80000 51.31000 43.42700
C  45.00200 48.97900 41.81000
O  44.07000 49.74600 41.90400
C  45.01500 47.58700 41.04100
C  43.89200 46.71200 41.44900
O  43.83300 45.97000 42.44300
O  42.89300 46.93400 40.57200
C  41.59900 46.29900 40.89800
H  49.57000 42.20000 40.85400
H  53.62900 45.85300 44.28700
H  49.65600 50.81700 43.95700
H  45.24300 44.32500 40.66400
H  47.49600 42.90400 39.49700
H  47.40000 41.46400 41.30400
H  45.68000 41.85400 40.95600
H  46.63100 42.53100 42.36600
H  46.62200 44.69100 38.02200
H  46.00900 46.10400 38.78500
H  43.87900 45.58900 38.20000
H  43.92700 43.94600 38.87200
H  52.66000 41.65000 40.53600
H  51.18900 40.98700 41.27000
H  52.63700 40.79200 42.18100
H  55.41700 44.51100 43.92700
H  55.71800 42.95900 44.82200
H  54.25600 43.90400 45.14300
H  53.91800 48.44700 44.06400
H  51.87900 50.11100 45.45800
H  52.74900 48.65700 46.91600
H  54.36200 48.47900 46.32600
H  53.44300 47.04300 46.33100
H  52.07400 50.65500 42.72600
H  53.66400 50.58200 43.43000
H  52.93400 52.96500 43.97400
H  52.00300 52.18900 45.20600
H  51.31800 52.41400 43.59700
H  47.18000 51.95200 42.63300
H  47.38700 51.57100 44.30700
H  45.76700 51.63200 43.56000
H  44.96500 47.77200 39.96800
H  41.12500 46.62300 41.82500
H  41.66300 45.21300 40.84400
H  40.92300 46.53000 40.07500

