158

Mg 46.23700 25.29700 28.30900
C  47.45700 27.34900 30.90000
C  45.46800 22.90500 30.74100
C  45.70200 22.98300 25.83200
C  47.56900 27.40400 25.94800
N  46.44400 25.15400 30.60800
C  46.92600 26.20700 31.40000
C  46.79200 25.80500 32.87000
C  46.16900 24.34000 32.86000
C  46.03100 24.08800 31.35700
C  46.98400 23.23100 33.57900
C  46.09900 26.92300 33.73300
C  45.42400 26.40000 35.02200
H  45.63200 27.36300 36.20300
N  45.60600 23.22100 28.22400
C  45.35200 22.46600 29.36700
C  44.97400 21.08900 28.91200
C  45.12400 20.98300 27.50000
C  45.41200 22.44900 27.06100
C  44.60400 19.91800 29.86600
C  44.88700 19.79800 26.56200
O  45.00900 19.95200 25.36600
C  44.52400 18.42700 27.20000
N  46.67900 25.13200 26.24000
C  46.23700 24.18500 25.41400
C  46.31600 24.60100 23.91900
C  46.79800 26.08600 24.00600
C  47.04000 26.23800 25.46900
C  47.36400 23.78100 23.12100
C  45.82800 27.15600 23.42900
C  45.81100 27.40400 21.95100
N  47.29100 27.08600 28.35600
C  47.74600 27.84400 27.26100
C  48.41100 29.03300 27.78600
C  48.28200 28.92000 29.22400
C  47.63800 27.69600 29.48600
C  49.02600 30.17200 27.16200
C  48.54200 29.57600 30.47500
O  49.07300 30.65000 30.64200
C  48.10200 28.58300 31.61100
C  49.37200 28.30100 32.41900
O  50.11500 27.32500 32.28800
O  49.40900 29.08500 33.49900
C  50.27800 28.48300 34.60900
H  45.10900 22.21200 31.50500
H  45.47900 22.38800 24.94400
H  47.88400 28.16000 25.22400
H  47.81900 25.80200 33.23700
H  45.21700 24.32500 33.39000
H  47.40000 22.46100 32.92900
H  46.35800 22.92200 34.41600
H  47.81100 23.75700 34.05500
H  45.32600 27.40600 33.13500
H  46.88400 27.64800 33.94500
H  45.90300 25.48400 35.36600
H  44.35700 26.33800 34.81100
H  45.36300 19.13600 29.87700
H  43.64000 19.57200 29.49200
H  44.38000 20.21100 30.89200
H  44.24000 17.79100 26.36100
H  43.65500 18.67100 27.81100
H  45.27900 18.03100 27.87800
H  45.33900 24.49500 23.44800
H  47.74200 26.14100 23.46300
H  47.46300 24.34900 22.19700
H  46.95100 22.79700 22.89700
H  48.32800 23.68000 23.61900
H  46.02400 28.10300 23.93100
H  44.89600 26.69900 23.75900
H  46.62800 28.07000 21.67400
H  44.85700 27.90000 21.77200
H  45.75100 26.45500 21.41800
H  50.02500 30.30900 27.57700
H  48.56100 31.13300 27.38200
H  49.12400 30.03400 26.08500
H  47.34300 29.06800 32.22500
H  50.16900 29.29100 35.33300
H  51.32100 28.39300 34.30500
H  49.93600 27.47500 34.84200
Mg -1.60100 34.44700 26.92800
C  -3.57800 32.95900 29.27400
C  -0.51500 36.69300 29.15300
C  0.15300 35.85400 24.42500
C  -3.21700 32.42400 24.42200
N  -2.21200 34.87200 28.98700
C  -2.90400 34.04700 29.80900
C  -2.68500 34.36600 31.30400
C  -1.84400 35.75100 31.12600
C  -1.50000 35.77700 29.66700
C  -2.53200 37.03800 31.56700
C  -2.01300 33.14500 32.04600
C  -1.29600 33.54800 33.33100
H  -1.52000 32.73300 34.62700
N  -0.33300 36.10100 26.83000
C  -0.09400 36.91900 27.87800
C  0.88300 37.92200 27.41400
C  1.11800 37.70600 26.03700
C  0.31700 36.48600 25.68400
C  1.40800 39.04900 28.27500
C  1.96800 38.49200 25.00300
O  2.02600 38.29800 23.81800
C  2.72400 39.64400 25.57400
N  -1.42500 34.11600 24.79400
C  -0.62500 34.81600 23.99300
C  -0.72400 34.40300 22.49900
C  -1.64100 33.22500 22.53100
C  -2.15900 33.25000 23.98200
C  -1.05200 35.60500 21.60000
C  -0.98200 31.92700 22.12600
C  0.07000 31.34700 23.06000
N  -3.08700 33.01700 26.77600
C  -3.60100 32.24300 25.75100
C  -4.53800 31.34700 26.26300
C  -4.60400 31.54800 27.66700
C  -3.67400 32.62200 27.92600
C  -5.37400 30.43500 25.40100
C  -5.20400 31.10600 28.89600
O  -6.08100 30.28700 29.11100
C  -4.42600 31.96900 30.02200
C  -5.47200 32.66900 30.85900
O  -6.10300 33.65800 30.49300
O  -5.54700 31.99100 32.02500
C  -6.45700 32.56300 32.99000
H  -0.04700 37.41400 29.82700
H  0.79200 36.35300 23.69400
H  -3.57000 31.84700 23.56500
H  -3.65100 34.55100 31.77400
H  -0.96000 35.70600 31.76200
H  -2.19700 37.29100 32.57300
H  -3.60400 36.85500 31.64300
H  -2.34000 37.88000 30.90200
H  -1.32300 32.59700 31.40400
H  -2.83900 32.48000 32.29800
H  -1.26700 34.59900 33.61800
H  -0.25000 33.31000 33.13900
H  1.35300 38.74800 29.32100
H  0.88900 39.98500 28.06500
H  2.47900 39.24500 28.23900
H  2.06000 40.29500 26.14300
H  3.21900 40.13700 24.73800
H  3.43400 39.13800 26.22800
H  0.29200 34.06500 22.29100
H  -2.56300 33.38400 21.97100
H  -0.19700 36.10700 21.14700
H  -1.67900 36.34100 22.10300
H  -1.76300 35.34200 20.81600
H  -0.65200 32.05500 21.09500
H  -1.65000 31.07900 21.97300
H  0.00100 31.83400 24.03300
H  1.05400 31.47500 22.60800
H  -0.08000 30.29200 23.28800
H  -6.43700 30.44300 25.64300
H  -4.93500 29.44200 25.49300
H  -5.32900 30.69100 24.34300
H  -3.84500 31.28200 30.63700
H  -7.36300 32.91600 32.49900
H  -6.02600 33.33000 33.63400
H  -6.88700 31.69200 33.48400

