158

Mg 40.22500 10.23500 29.19300
C  42.03500 11.20600 31.85000
C  37.80600 8.86100 31.30900
C  38.53200 8.66200 26.50000
C  42.83100 10.76700 27.06300
N  39.98300 10.09900 31.28300
C  40.77400 10.74300 32.19800
C  40.18900 10.68100 33.60900
C  39.02300 9.59700 33.48200
C  38.94200 9.49000 31.91600
C  39.18700 8.30800 34.37900
C  39.99200 12.02000 34.33600
C  39.15900 12.07100 35.57900
H  39.57100 12.85000 36.82500
N  38.25500 9.24500 28.98900
C  37.44200 8.74400 30.01200
C  36.30200 8.15800 29.43400
C  36.50700 8.11000 28.00900
C  37.79900 8.70400 27.78700
C  35.27500 7.42900 30.21800
C  35.52000 7.71800 26.85800
O  35.86900 7.84000 25.70800
C  34.07800 7.49200 27.20700
N  40.58300 9.79900 27.02600
C  39.77100 9.16700 26.13800
C  40.37800 9.18900 24.72900
C  41.64000 10.12000 24.95800
C  41.73200 10.15400 26.46300
C  40.60700 7.74800 24.21900
C  41.64700 11.49500 24.21800
C  40.73600 12.58500 24.69700
N  42.01600 10.99300 29.32300
C  42.99500 11.17700 28.37000
C  44.17600 11.86700 28.97300
C  43.82000 11.83500 30.32500
C  42.55000 11.29700 30.48400
C  45.45800 12.44600 28.26400
C  44.29700 12.23000 31.66000
O  45.31600 12.80500 31.96700
C  43.19600 11.74300 32.64800
C  43.73000 10.76000 33.58200
O  43.92000 9.59300 33.31900
O  44.19100 11.38300 34.68300
C  44.81700 10.61900 35.74900
H  37.03800 8.47400 31.98300
H  38.13300 8.08300 25.66500
H  43.63800 10.99800 26.36400
H  40.93500 10.22800 34.26100
H  38.05900 10.04000 33.73400
H  39.98500 8.50000 35.09800
H  39.48100 7.46600 33.75300
H  38.24100 8.16300 34.90000
H  39.59900 12.82500 33.71400
H  40.99900 12.26500 34.67400
H  38.94900 11.01300 35.73200
H  38.32800 12.66900 35.20400
H  34.36800 8.00300 30.02800
H  35.43300 7.28400 31.28700
H  35.24300 6.45900 29.72300
H  33.56300 8.25400 27.79200
H  33.96400 6.49500 27.63100
H  33.52800 7.55800 26.26800
H  39.67800 9.74300 24.10300
H  42.50400 9.57800 24.57500
H  39.65900 7.42600 23.78900
H  40.90900 7.03500 24.98700
H  41.29500 7.68600 23.37600
H  41.44100 11.38200 23.15300
H  42.63500 11.95400 24.19500
H  41.33200 13.36500 25.17200
H  40.05100 12.13800 25.41700
H  40.06500 13.02800 23.96100
H  45.54000 13.53000 28.18800
H  45.59300 11.84700 27.36200
H  46.32000 12.14400 28.85800
H  42.84400 12.61800 33.19400
H  45.52400 9.84100 35.46300
H  44.06700 10.25200 36.44900
H  45.45600 11.35100 36.24200
Mg 7.27600 53.30800 40.35800
C  6.50700 49.79000 40.41300
C  10.48400 52.54000 39.71900
C  7.79700 56.65500 39.98500
C  3.79700 53.98400 40.79400
N  8.35000 51.41600 40.04300
C  7.84100 50.12200 40.21600
C  9.02300 49.15600 40.13300
C  10.24200 50.04100 40.22700
C  9.66600 51.40000 39.99900
C  11.13400 50.01700 41.43200
C  9.15200 48.21600 38.83900
C  8.83300 48.90000 37.50500
H  7.67600 48.38200 36.67500
N  8.95300 54.47900 39.83600
C  10.21200 53.90700 39.56000
C  11.08100 54.95100 39.23700
C  10.40300 56.17700 39.44700
C  8.96500 55.85400 39.70700
C  12.55200 54.71300 38.94800
C  11.06300 57.64100 39.30300
O  12.26800 57.78500 39.05400
C  10.26600 58.84100 39.41800
N  5.93800 55.08800 40.28900
C  6.46300 56.30900 40.23200
C  5.40000 57.37200 40.66600
C  4.06400 56.54300 40.86900
C  4.65200 55.12200 40.68700
C  5.84200 58.48100 41.72700
C  2.93200 56.86100 39.76400
C  1.56400 57.05300 40.42000
N  5.51200 52.21900 40.40800
C  4.20900 52.59700 40.70300
C  3.42900 51.39600 41.06400
C  4.35100 50.34800 40.93400
C  5.56200 50.86300 40.55600
C  1.95000 51.36800 41.29700
C  4.46200 48.90100 41.12500
O  3.57200 48.05400 41.47300
C  5.89600 48.48400 40.77800
C  5.66500 47.53800 39.67000
O  5.34200 47.83300 38.52500
O  5.80700 46.23900 40.14700
C  5.42500 45.17800 39.14200
H  11.51100 52.20700 39.55100
H  8.00200 57.72400 40.07100
H  2.75500 54.05700 41.11300
H  9.08400 48.60100 41.07000
H  10.94600 49.91800 39.40300
H  12.13500 50.32800 41.13200
H  11.21500 49.00000 41.81600
H  10.96900 50.70300 42.26300
H  8.45000 47.38200 38.85800
H  10.15500 47.80200 38.73800
H  9.68600 48.99200 36.83300
H  8.70300 49.96500 37.69700
H  12.80500 53.67100 38.75600
H  13.06900 54.92000 39.88400
H  12.84100 55.30600 38.07900
H  10.78900 59.74100 39.09500
H  10.01900 58.86400 40.47900
H  9.36500 58.60500 38.85200
H  5.37600 57.88900 39.70600
H  3.76500 56.72400 41.90100
H  6.85300 58.19900 42.02000
H  5.12600 58.53500 42.54700
H  5.78700 59.43800 41.20700
H  2.83500 56.04100 39.05300
H  3.17200 57.70300 39.11400
H  0.94100 57.68500 39.78800
H  1.65100 57.58400 41.36800
H  1.08500 56.08000 40.52900
H  1.51500 51.94700 40.48200
H  1.78500 51.78000 42.29200
H  1.48400 50.38300 41.32300
H  6.38200 47.96500 41.60400
H  6.10500 44.33800 39.28600
H  5.66300 45.48000 38.12200
H  4.35900 44.95700 39.20100

