158

Mg 46.64400 16.21600 28.39700
C  44.54300 16.17800 31.27300
C  48.83500 18.21900 30.32100
C  47.99800 17.24200 25.66500
C  44.17900 14.58500 26.65300
N  46.65700 17.13600 30.55700
C  45.70300 16.89200 31.51300
C  46.21600 17.40300 32.91800
C  47.56900 18.11500 32.59700
C  47.71400 17.82700 31.05600
C  47.62700 19.66800 32.92800
C  46.48700 16.19100 33.89300
C  46.26900 16.51400 35.43600
H  46.13200 17.98200 35.91900
N  48.31500 17.46300 28.00400
C  49.02100 18.19400 28.95900
C  49.99500 18.94700 28.25100
C  49.73600 18.82100 26.83100
C  48.70100 17.80000 26.73900
C  51.08800 19.69100 29.02100
C  50.39300 19.41800 25.58800
O  50.16200 19.03800 24.42900
C  51.32000 20.57000 25.78700
N  46.16200 15.84600 26.40400
C  46.89500 16.34500 25.43500
C  46.44600 15.93500 24.05800
C  45.49300 14.72200 24.37400
C  45.29800 14.95100 25.87000
C  45.80200 17.13400 23.33800
C  45.96600 13.25400 24.01400
C  45.20900 12.58700 22.87400
N  44.80000 15.44700 28.89100
C  43.90200 14.81500 28.07900
C  42.73200 14.42100 28.75400
C  42.93700 14.92800 30.02900
C  44.26300 15.50100 30.07900
C  41.52000 13.79800 28.21300
C  42.29000 15.06500 31.33700
O  41.21500 14.73900 31.77000
C  43.39700 15.91900 32.18700
C  42.91800 17.22900 32.75200
O  42.78500 18.26600 32.16200
O  42.55900 16.95200 34.02200
C  41.91300 18.10300 34.67900
H  49.60000 18.72200 30.91600
H  48.40500 17.70800 24.76500
H  43.51900 13.89800 26.11900
H  45.52000 18.15000 33.30000
H  48.52000 17.71400 32.95000
H  48.52500 19.90200 33.49900
H  46.80400 19.95800 33.58100
H  47.59000 20.20400 31.98000
H  47.51200 15.82700 33.82400
H  45.92800 15.30000 33.60600
H  47.12900 16.08400 35.94900
H  45.41100 15.99000 35.85800
H  51.85200 19.00800 29.39300
H  50.70900 20.24100 29.88300
H  51.59600 20.39500 28.36200
H  50.97600 21.38000 26.43100
H  51.41700 20.92200 24.76000
H  52.28700 20.14900 26.06200
H  47.32400 15.62300 23.49400
H  44.54200 14.88300 23.86500
H  46.60600 17.74900 22.93200
H  45.23400 17.63100 24.12400
H  45.03400 16.83000 22.62700
H  45.87800 12.53300 24.82700
H  46.98100 13.36700 23.63500
H  44.37100 13.23900 22.62700
H  44.80000 11.59600 23.07000
H  45.91000 12.43500 22.05300
H  41.35700 13.95100 27.14600
H  40.70300 14.42300 28.57400
H  41.47700 12.71100 28.27100
H  43.79800 15.30200 32.99100
H  41.86900 17.85300 35.73900
H  40.88200 18.17700 34.33600
H  42.65900 18.88200 34.52000
Mg 49.57300 45.66300 43.27800
C  46.15500 46.09500 42.34900
C  49.32500 42.35600 42.18200
C  52.88500 45.58200 43.17100
C  49.70300 49.19800 43.82600
N  47.88600 44.36200 42.53700
C  46.61600 44.76600 42.19000
C  45.77900 43.58900 41.59800
C  46.64800 42.31900 41.90600
C  48.06800 42.99400 42.22900
C  46.28000 41.34500 43.11200
C  45.39400 43.79300 40.07800
C  46.49800 43.94000 39.04600
H  46.34800 42.92500 37.84700
N  50.91500 44.15900 42.82100
C  50.60600 42.90500 42.37100
C  51.87500 42.16900 42.26600
C  52.93800 43.01700 42.50600
C  52.27900 44.34700 42.74500
C  51.84900 40.63100 42.02200
C  54.43000 42.59700 42.47600
O  54.72700 41.39400 42.33100
C  55.56400 43.67800 42.65600
N  50.95800 47.18100 43.40000
C  52.29500 46.80700 43.45900
C  53.22100 48.07900 43.58100
C  52.22500 49.20900 43.83900
C  50.84700 48.47900 43.68500
C  54.38100 47.93600 44.58900
C  52.35200 50.51700 42.91400
C  52.65900 51.85100 43.60400
N  48.20100 47.34800 43.23200
C  48.40300 48.69500 43.52900
C  47.16800 49.43200 43.23100
C  46.25100 48.43300 42.82600
C  46.93800 47.19300 42.81600
C  47.12400 50.95400 43.31200
C  44.88700 48.21100 42.33500
O  43.94500 48.97700 42.04400
C  44.80200 46.68800 42.05000
C  43.73800 46.05700 42.81200
O  42.91100 45.28400 42.33600
O  43.58200 46.52700 44.06900
C  42.50000 45.97400 44.82100
H  49.20200 41.29200 41.97000
H  53.97500 45.62900 43.14900
H  49.67800 50.22600 44.19400
H  44.84000 43.42600 42.12800
H  46.86300 41.67500 41.05300
H  46.59300 40.33400 42.84900
H  45.19100 41.39300 43.11800
H  46.78900 41.75000 43.98600
H  44.79200 44.67300 39.85100
H  44.73100 42.93200 39.98200
H  47.47800 43.74900 39.48300
H  46.58300 44.94400 38.62900
H  52.61500 40.34100 41.30200
H  50.90000 40.17900 41.73700
H  52.15600 40.20900 42.97900
H  55.43700 44.45700 41.90400
H  56.46600 43.10100 42.45300
H  55.54400 44.07400 43.67100
H  53.60400 48.18700 42.56600
H  52.32300 49.57500 44.86000
H  55.25500 47.68700 43.98700
H  54.17100 47.04300 45.17800
H  54.44200 48.77600 45.28100
H  51.40000 50.57700 42.38700
H  53.09200 50.46300 42.11500
H  51.70700 52.38100 43.63200
H  53.29200 52.52500 43.02500
H  53.00200 51.67500 44.62400
H  47.27400 51.37300 44.30700
H  46.12900 51.31300 43.04800
H  47.93000 51.17300 42.61200
H  44.53700 46.66700 40.99300
H  41.72700 46.73800 44.90200
H  42.83900 45.70100 45.82000
H  41.83200 45.17000 44.51200

