158

Mg 46.93700 25.80400 28.76800
C  47.95200 27.80600 31.61200
C  46.01500 23.41900 31.08700
C  46.39500 23.68600 26.27500
C  48.32000 28.17700 26.77100
N  46.82600 25.71400 31.15900
C  47.24800 26.66900 32.00900
C  46.76200 26.32200 33.46100
C  46.30400 24.82500 33.27000
C  46.39200 24.59500 31.75400
C  47.18700 23.77500 34.09500
C  45.63500 27.28800 34.02500
C  45.85200 27.99900 35.36300
H  44.95600 27.67000 36.47800
N  46.29900 23.86400 28.70200
C  45.95200 23.03100 29.77600
C  45.45500 21.78900 29.27500
C  45.61400 21.80000 27.82900
C  46.19700 23.12400 27.52000
C  44.86600 20.74800 30.20400
C  45.27500 20.72100 26.86700
O  45.39200 20.77700 25.62200
C  44.64200 19.49100 27.31900
N  47.30000 25.87800 26.86600
C  46.96800 24.92200 25.91900
C  47.33000 25.36200 24.50900
C  47.72900 26.88500 24.77600
C  47.72200 27.02500 26.25400
C  48.50500 24.57100 23.86900
C  46.68800 27.89300 24.17100
C  47.29600 29.22600 23.64700
N  47.89900 27.70300 29.07100
C  48.38800 28.54500 28.11400
C  48.99800 29.71400 28.72700
C  48.79800 29.45800 30.15000
C  48.20600 28.21300 30.29400
C  49.72800 30.82400 28.03600
C  49.00200 30.02100 31.48300
O  49.59600 31.02800 31.92100
C  48.29300 28.93700 32.53700
C  49.20700 28.80400 33.66800
O  50.33900 28.44600 33.58700
O  48.58700 29.09200 34.84300
C  49.37700 28.78400 36.04100
H  45.51500 22.74300 31.78500
H  45.98300 23.06500 25.47600
H  48.75300 28.72000 25.92900
H  47.66500 26.51400 34.04100
H  45.25400 24.68800 33.52900
H  47.73900 24.12500 34.96700
H  47.78100 23.35700 33.28200
H  46.54600 22.99300 34.50300
H  44.76300 26.64600 34.14600
H  45.39000 28.03400 33.26900
H  45.75000 29.05500 35.11400
H  46.86200 27.87200 35.75400
H  45.10900 19.74300 29.85800
H  43.78700 20.90100 30.19600
H  45.24400 20.80100 31.22600
H  45.23900 18.89300 28.00900
H  44.22000 18.93500 26.48200
H  43.77300 19.84100 27.87600
H  46.43200 25.41700 23.89300
H  48.71200 27.15200 24.38900
H  49.26600 25.04200 23.24900
H  47.93700 23.92800 23.19600
H  48.95200 24.04100 24.71100
H  45.88700 28.13400 24.87100
H  46.13200 27.32800 23.42200
H  47.23900 29.38100 22.57000
H  48.35500 29.30300 23.89000
H  46.77100 29.99900 24.20900
H  49.89300 31.63000 28.75100
H  49.32700 31.21700 27.10200
H  50.67700 30.34700 27.79000
H  47.36300 29.41400 32.84600
H  49.84800 27.80100 36.02500
H  48.86600 28.86400 37.00000
H  50.13500 29.56300 36.11900
Mg 17.35600 51.04400 25.87800
C  19.31300 49.88100 28.46400
C  15.36700 52.65500 28.32300
C  15.88100 52.68900 23.49100
C  19.81300 49.83800 23.56900
N  17.28900 51.20200 28.13100
C  18.14800 50.53600 28.95300
C  17.88500 50.96900 30.45900
C  16.41600 51.54500 30.33100
C  16.36500 51.85200 28.90100
C  15.28400 50.53300 30.71300
C  18.92200 51.92400 31.23000
C  18.82900 51.87300 32.76900
H  17.86400 50.98700 33.50100
N  15.67500 52.24000 25.87000
C  15.04100 52.81800 26.94700
C  13.96600 53.65900 26.45600
C  14.08900 53.76800 25.07100
C  15.26300 52.84400 24.72800
C  12.98500 54.30200 27.31200
C  13.14700 54.46900 24.06200
O  13.16700 54.16700 22.87100
C  12.00900 55.47100 24.55700
N  17.96800 51.39000 23.88400
C  17.09400 52.09300 23.04100
C  17.45800 51.97500 21.56800
C  18.81700 51.27800 21.67200
C  18.88800 50.76900 23.09900
C  16.45600 51.41100 20.48000
C  19.98000 52.38900 21.44400
C  21.19500 51.74900 20.70100
N  19.07500 49.82700 25.98400
C  20.02700 49.47700 24.99300
C  21.13900 48.68500 25.60400
C  20.87000 48.78000 26.96500
C  19.64300 49.59900 27.13300
C  22.28700 47.96300 24.89900
C  21.37200 48.45100 28.29800
O  22.32300 47.86100 28.63300
C  20.32900 49.12800 29.32000
C  19.75200 48.18200 30.26000
O  18.93800 47.33000 29.89200
O  20.29400 48.33500 31.54700
C  19.69400 47.45000 32.51400
H  14.71000 53.11400 29.06500
H  15.38500 53.18200 22.65200
H  20.61900 49.45600 22.93900
H  17.91800 49.97900 30.91400
H  16.14200 52.49700 30.78400
H  14.80400 50.20300 29.79200
H  14.55500 50.95200 31.40700
H  15.71000 49.73200 31.31600
H  18.92600 52.98300 30.97000
H  19.94100 51.63700 30.97200
H  18.59900 52.87700 33.12500
H  19.81600 51.54300 33.09300
H  12.05000 54.01000 26.83400
H  13.12200 55.38200 27.25100
H  12.99700 53.93700 28.33900
H  11.16000 54.87600 24.89300
H  11.71700 56.16700 23.77000
H  12.54800 56.11000 25.25600
H  17.47900 53.03200 21.30400
H  18.85100 50.44100 20.97500
H  17.04800 50.84200 19.76400
H  15.89700 52.20200 19.98000
H  15.68200 50.79100 20.93300
H  20.37400 52.80300 22.37200
H  19.60800 53.15400 20.76200
H  21.42000 52.39800 19.85500
H  20.85400 50.82700 20.22900
H  22.03200 51.52900 21.36500
H  21.90500 47.26500 24.15400
H  22.83800 47.28000 25.54500
H  23.04300 48.62000 24.47000
H  20.91200 49.84700 29.89500
H  18.60700 47.50300 32.45400
H  19.90000 47.78000 33.53300
H  19.97700 46.40500 32.38800

