158

Mg 46.95500 43.96800 42.23200
C  43.47800 43.15200 41.71300
C  47.72600 40.53300 41.49500
C  50.17800 44.81800 41.94000
C  45.99100 47.35100 42.20500
N  45.76100 42.07300 41.74300
C  44.37400 42.06900 41.54300
C  43.90800 40.69900 41.11000
C  45.27900 39.83000 41.18900
C  46.33700 40.84300 41.55500
C  45.14300 38.56600 42.11600
C  43.26100 40.61300 39.68500
C  43.91500 41.37700 38.62100
H  43.98300 40.74300 37.31400
N  48.68500 42.82900 41.79500
C  48.75900 41.47000 41.66200
C  50.17400 41.04000 41.64900
C  50.92200 42.26300 41.74800
C  49.89500 43.40600 41.83000
C  50.60600 39.64800 41.48200
C  52.47100 42.31900 41.64300
O  53.07800 41.29300 41.47500
C  53.24500 43.56700 41.47200
N  47.89400 45.78700 42.26600
C  49.32500 45.89100 42.08700
C  49.75100 47.37800 41.99000
C  48.39100 48.21000 42.11900
C  47.34800 47.06500 42.14200
C  50.71800 47.79200 43.14800
C  48.05400 49.26100 40.98500
C  47.77100 50.62800 41.59700
N  45.12000 45.05900 42.16200
C  44.92800 46.41200 42.21600
C  43.47100 46.65700 42.18500
C  42.92200 45.41100 42.02300
C  43.89600 44.43300 42.02700
C  42.79700 48.03100 42.08800
C  41.66000 44.85600 41.84700
O  40.52800 45.32700 41.92300
C  42.00800 43.27500 41.64800
C  41.40400 42.49800 42.79600
O  40.60000 41.55700 42.73000
O  41.86900 42.99700 44.01600
C  41.33900 42.27800 45.13500
H  47.87600 39.45200 41.48400
H  51.25900 44.91700 41.81900
H  45.64600 48.37500 42.36200
H  43.09700 40.49500 41.80800
H  45.67500 39.50200 40.22800
H  45.71700 38.77600 43.01900
H  45.42400 37.68900 41.53300
H  44.10900 38.28100 42.31000
H  42.25000 41.01400 39.61100
H  43.19200 39.54100 39.49800
H  44.90100 41.64000 39.00400
H  43.35600 42.30200 38.48200
H  50.46600 39.27800 40.46700
H  49.91700 39.10300 42.12700
H  51.57900 39.47300 41.94000
H  52.89700 43.97400 40.52300
H  54.31400 43.51600 41.26700
H  53.14000 44.14600 42.39000
H  50.23700 47.44500 41.01700
H  48.25300 48.53900 43.14900
H  50.66600 47.11000 43.99700
H  50.43500 48.74900 43.58800
H  51.78000 47.77300 42.90600
H  47.22300 49.00800 40.32600
H  48.94400 49.20100 40.35800
H  48.29500 51.30500 40.92300
H  48.16800 50.67000 42.61100
H  46.72700 50.92200 41.70800
H  43.46200 48.86000 42.33200
H  41.96600 48.21100 42.76900
H  42.35500 48.18400 41.10300
H  41.68300 42.97500 40.65200
H  41.65200 42.86500 45.99900
H  41.87100 41.32800 45.17300
H  40.27500 42.15000 44.93700
Mg -1.62200 34.81200 26.86200
C  -3.31900 32.92900 29.38700
C  -0.78000 36.99100 29.32000
C  -0.60400 36.81900 24.40100
C  -3.16300 32.72000 24.43600
N  -2.05100 34.96200 29.12100
C  -2.65500 34.03600 29.91700
C  -2.51400 34.37200 31.35500
C  -1.92000 35.82100 31.31300
C  -1.56900 35.99700 29.83700
C  -2.83000 36.92000 31.96500
C  -1.55700 33.32700 32.06200
C  -2.06400 32.40500 33.19600
H  -1.04600 32.35000 34.42200
N  -0.69400 36.54700 26.87000
C  -0.39100 37.28600 27.97200
C  0.39900 38.47900 27.53300
C  0.32400 38.47400 26.11800
C  -0.31700 37.27900 25.74600
C  1.18600 39.39700 28.46200
C  1.07800 39.40100 25.14600
O  0.96800 39.32400 23.90900
C  1.92700 40.50400 25.56600
N  -1.92900 34.83000 24.71700
C  -1.25800 35.66900 23.92800
C  -1.43400 35.30100 22.43500
C  -2.04400 33.91500 22.47400
C  -2.44700 33.80600 23.94500
C  -2.30800 36.34500 21.66900
C  -1.05400 32.76400 22.07000
C  0.13800 32.51600 23.01800
N  -2.86000 33.05300 26.85900
C  -3.46600 32.38400 25.78800
C  -4.23800 31.23200 26.32200
C  -4.21600 31.44800 27.71700
C  -3.41000 32.57000 28.00400
C  -5.04800 30.37700 25.51400
C  -4.68300 30.95300 28.98500
O  -5.38800 29.92200 29.15800
C  -4.03400 31.75600 30.08900
C  -5.05400 32.11900 31.11400
O  -5.96500 32.88100 30.91000
O  -5.00700 31.23700 32.15000
C  -6.13300 31.35100 33.08700
H  -0.38400 37.62800 30.11400
H  -0.26000 37.32300 23.49500
H  -3.51200 32.03900 23.65800
H  -3.50300 34.43300 31.80900
H  -1.02300 35.91800 31.92400
H  -2.28500 37.36000 32.80000
H  -3.82700 36.63300 32.29700
H  -2.96700 37.60200 31.12500
H  -0.65400 33.81400 32.42900
H  -0.90800 32.84800 31.32900
H  -2.25900 31.38700 32.86100
H  -2.98600 32.91800 33.47000
H  2.23400 39.47400 28.17000
H  1.13400 38.90800 29.43500
H  0.81300 40.40800 28.62200
H  2.21800 41.04200 24.66400
H  2.90900 40.13400 25.86100
H  1.52100 41.20500 26.29600
H  -0.40500 35.30400 22.07700
H  -2.93500 33.75900 21.86600
H  -3.18700 35.85400 21.25200
H  -1.63900 36.71500 20.89300
H  -2.50900 37.22200 22.28600
H  -0.59600 33.00100 21.11000
H  -1.67700 31.88000 21.93300
H  1.03400 32.65200 22.41200
H  0.21800 31.46300 23.28800
H  0.11800 33.14400 23.90900
H  -4.93900 29.44200 26.06400
H  -4.52600 30.02500 24.62400
H  -6.11300 30.57600 25.39600
H  -3.37400 31.13400 30.69400
H  -5.90100 32.09900 33.84500
H  -6.26300 30.38500 33.57500
H  -7.06500 31.66900 32.62000

