158

Mg 2.91800 -1.71600 43.55700
C  6.35700 -0.60900 43.54300
C  2.13600 1.33300 42.30600
C  -0.08300 -2.98000 43.00900
C  4.18700 -4.84600 44.33100
N  4.14100 0.06700 43.03200
C  5.49700 0.44300 43.19900
C  5.79900 1.86200 42.92700
C  4.40000 2.41500 42.65300
C  3.50100 1.20400 42.73000
C  3.91700 3.57400 43.62400
C  6.72200 2.23600 41.68500
C  6.70800 1.30400 40.47000
H  6.27500 1.83100 39.06200
N  1.30300 -0.93900 42.61000
C  1.18700 0.30100 42.20100
C  -0.21700 0.52700 41.74500
C  -0.84000 -0.80700 41.85300
C  0.12400 -1.64400 42.51400
C  -0.82000 1.79200 41.25400
C  -2.23000 -1.17400 41.40200
O  -3.05200 -0.35000 40.98100
C  -2.73300 -2.51500 41.33700
N  2.16900 -3.69000 43.66400
C  0.84600 -3.91500 43.54600
C  0.55900 -5.43000 43.87200
C  1.98100 -6.00400 44.10100
C  2.86600 -4.76900 44.03200
C  -0.46400 -5.42500 45.11400
C  2.49400 -7.02900 43.17700
C  2.35700 -8.48600 43.69100
N  4.90800 -2.63700 43.95900
C  5.20800 -3.86400 44.26400
C  6.57900 -3.95500 44.58600
C  7.18700 -2.71200 44.23300
C  6.04800 -1.92500 43.89100
C  7.18600 -5.29000 44.99600
C  8.42000 -1.94400 44.06300
O  9.61800 -2.29900 44.20600
C  7.92700 -0.51500 43.59100
C  8.51400 0.57200 44.48300
O  9.21100 1.47600 44.07000
O  8.23600 0.33100 45.84600
C  8.99200 1.19200 46.82400
H  1.82100 2.32200 41.96800
H  -1.14000 -3.24700 43.07600
H  4.58100 -5.82100 44.62500
H  6.25800 2.17000 43.86600
H  4.21600 2.74800 41.63200
H  3.21600 3.25300 44.39500
H  3.58400 4.37400 42.96300
H  4.74600 3.99500 44.19200
H  7.65900 1.99900 42.18900
H  6.57900 3.23600 41.27600
H  6.16500 0.37200 40.62900
H  7.73500 0.94100 40.42300
H  -0.09500 2.59300 41.40000
H  -1.62000 2.14900 41.90300
H  -1.21800 1.47500 40.29000
H  -3.10300 -2.96200 42.26000
H  -1.97100 -3.19000 40.94900
H  -3.54000 -2.51400 40.60400
H  0.14100 -5.93900 43.00300
H  2.12100 -6.40400 45.10500
H  -0.31000 -6.28200 45.76900
H  -1.43900 -5.63700 44.67400
H  -0.55200 -4.42600 45.54000
H  3.57500 -6.96100 43.05200
H  1.96000 -6.99700 42.22800
H  1.83400 -9.13600 42.98900
H  1.88100 -8.50100 44.67200
H  3.35200 -8.92300 43.76800
H  8.19900 -5.11100 45.35400
H  7.31200 -5.88500 44.09100
H  6.60700 -5.77500 45.78100
H  8.34300 -0.30600 42.60500
H  10.06700 1.01200 46.80900
H  8.61800 0.88900 47.80300
H  8.72800 2.24800 46.77600
Mg 47.13600 16.10400 28.79900
C  45.05100 15.57200 31.45700
C  48.76500 18.48800 30.60900
C  49.18300 16.85500 26.12000
C  45.06200 14.30200 26.67400
N  46.90100 16.84800 30.93700
C  46.09900 16.40700 31.90100
C  46.46000 16.99700 33.28400
C  47.30200 18.21100 32.81800
C  47.71900 17.88300 31.30700
C  46.69500 19.64700 32.87200
C  47.14100 15.89600 34.19600
C  46.88700 16.06100 35.74000
H  47.93700 15.73800 36.72000
N  48.88400 17.36800 28.57600
C  49.37700 18.22300 29.41700
C  50.41800 19.03400 28.82000
C  50.59500 18.62500 27.44300
C  49.50400 17.60000 27.27700
C  51.18900 20.06800 29.65800
C  51.53400 19.13800 26.37800
O  51.50000 18.66900 25.22000
C  52.40500 20.27700 26.62800
N  47.09100 15.60400 26.68400
C  48.16000 15.88600 25.85100
C  48.15300 14.99300 24.64800
C  46.75300 14.34600 24.73300
C  46.26300 14.72000 26.11100
C  48.48800 15.65500 23.22500
C  46.79600 12.85700 24.52800
C  47.24500 11.92500 25.71900
N  45.39900 15.11900 28.94400
C  44.63300 14.44100 28.00000
C  43.44700 14.01200 28.62800
C  43.54500 14.40600 29.95800
C  44.76400 15.05800 30.13800
C  42.33900 13.08800 28.04300
C  42.83100 14.47500 31.17300
O  41.73800 14.04700 31.41100
C  43.80300 15.18800 32.26000
C  43.09100 16.34700 32.98500
O  43.14300 17.52100 32.63100
O  42.39300 16.01800 34.20200
C  41.95800 17.12400 35.02800
H  49.06500 19.29400 31.28200
H  49.87400 16.99500 25.28600
H  44.48800 13.64100 26.02200
H  45.54700 17.29000 33.80100
H  48.17400 18.15200 33.47000
H  45.67100 19.57800 33.23900
H  46.68200 20.21600 31.94200
H  47.37300 20.18700 33.53400
H  48.21700 15.81300 34.04000
H  46.74700 14.94400 33.84000
H  46.01900 15.48700 36.06400
H  46.60100 17.08600 35.97500
H  52.24000 19.83700 29.48600
H  51.00200 19.98700 30.72900
H  51.03500 21.08400 29.29400
H  52.88500 20.52600 25.68100
H  53.22400 20.01000 27.29600
H  51.93900 21.14800 27.08800
H  48.81500 14.16200 24.89400
H  46.09800 14.93500 24.09100
H  48.46400 16.74400 23.25700
H  47.94800 15.30600 22.34400
H  49.55300 15.47400 23.08100
H  47.39900 12.67600 23.63700
H  45.83800 12.49900 24.15200
H  48.16500 11.42000 25.42500
H  46.52300 11.10900 25.73900
H  47.46300 12.44100 26.65500
H  42.67400 12.05400 28.11700
H  42.24500 13.39600 27.00100
H  41.40500 13.27600 28.57300
H  43.86700 14.46900 33.07700
H  42.33500 18.10800 34.75100
H  42.15700 16.93700 36.08400
H  40.87900 17.25000 34.93900

