158

Mg 24.11700 -5.21200 45.22300
C  26.34200 -3.10700 43.53900
C  21.71800 -4.20600 43.01400
C  22.19100 -7.99000 46.01700
C  26.87200 -6.59300 46.88100
N  24.14700 -3.94400 43.41400
C  25.09700 -3.06200 43.04000
C  24.62700 -2.08500 41.90600
C  23.09300 -2.34600 41.97600
C  22.95300 -3.58400 42.82500
C  22.22100 -1.11400 42.45200
C  25.29300 -2.25200 40.49100
C  25.24100 -1.03100 39.61400
H  24.85500 -1.27600 38.09800
N  22.13300 -5.96700 44.64200
C  21.31400 -5.36100 43.74300
C  20.08800 -6.09600 43.70000
C  20.13300 -7.11300 44.69000
C  21.52500 -7.08300 45.17100
C  18.93900 -5.60000 42.78600
C  18.99500 -8.03700 45.11800
O  17.90200 -7.93700 44.52300
C  19.15700 -9.01200 46.27900
N  24.48100 -7.05600 46.13800
C  23.57200 -8.03400 46.45000
C  24.21700 -9.10000 47.28500
C  25.58700 -8.58000 47.74600
C  25.67700 -7.37400 46.78400
C  23.31900 -9.73700 48.44200
C  26.78600 -9.57700 47.61500
C  27.59100 -9.79800 48.90200
N  26.21700 -4.78000 45.39100
C  27.18400 -5.42700 46.13600
C  28.50400 -4.78500 45.96900
C  28.21400 -3.81400 44.92900
C  26.82700 -3.89500 44.62700
C  29.76000 -5.17200 46.60800
C  28.76200 -2.80600 44.04900
O  29.93400 -2.44700 43.93000
C  27.54400 -2.21500 43.21400
C  27.29000 -0.84000 43.69300
O  26.60800 -0.53600 44.65600
O  27.93900 0.13400 42.87500
C  27.87400 1.49600 43.47400
H  20.97500 -3.70400 42.39000
H  21.70700 -8.88300 46.41700
H  27.70200 -7.00300 47.45900
H  24.87100 -1.07000 42.22000
H  22.73600 -2.62900 40.98700
H  22.89100 -0.25600 42.51200
H  21.77600 -1.40300 43.40400
H  21.38200 -0.97500 41.77000
H  24.82600 -3.13000 40.04500
H  26.33400 -2.54700 40.62200
H  26.23100 -0.60600 39.78000
H  24.53300 -0.43300 40.18900
H  18.31300 -4.85000 43.27000
H  18.17900 -6.36600 42.63100
H  19.33000 -5.08300 41.90900
H  18.17000 -9.17900 46.71000
H  19.76400 -8.56800 47.06800
H  19.57400 -9.96000 45.94000
H  24.43400 -9.94700 46.63500
H  25.56800 -8.20400 48.76900
H  24.07400 -10.05200 49.16200
H  22.69100 -10.51800 48.01400
H  22.71900 -8.94200 48.88600
H  27.48000 -9.17700 46.87600
H  26.38700 -10.55200 47.33400
H  28.66800 -9.78900 48.73600
H  27.24100 -10.79100 49.18500
H  27.16400 -9.04500 49.56300
H  30.63000 -4.98400 45.98000
H  29.76000 -6.18000 47.02400
H  29.88900 -4.45500 47.41900
H  27.77500 -2.33200 42.15500
H  27.01600 1.89100 44.01900
H  27.94800 2.22200 42.66400
H  28.68900 1.52600 44.19700
Mg 16.68000 52.49500 26.00300
C  18.51200 50.86800 28.64100
C  14.18500 52.97800 28.21700
C  14.99900 53.81700 23.50000
C  18.87600 50.97000 23.70400
N  16.46100 52.16800 28.24600
C  17.24100 51.39100 29.08100
C  16.72100 51.38500 30.51100
C  15.27400 51.82700 30.36700
C  15.29900 52.35500 28.86300
C  14.18800 50.77700 30.68100
C  17.57100 52.23100 31.37400
C  17.64600 51.84900 32.86700
H  16.91900 52.80400 33.82300
N  14.92700 53.41400 25.90000
C  14.06600 53.56700 26.96500
C  13.00900 54.48900 26.60000
C  13.16300 54.69300 25.19600
C  14.43500 53.98500 24.83100
C  12.00800 54.95200 27.63100
C  12.31600 55.51300 24.31100
O  12.57400 55.64200 23.09600
C  11.04900 56.18500 24.79200
N  16.93400 52.43900 23.83700
C  16.10200 53.16700 23.03300
C  16.58500 53.15700 21.54200
C  17.87400 52.22300 21.66000
C  17.97900 51.85100 23.15200
C  15.54300 52.55400 20.55800
C  19.29500 52.86100 21.32600
C  19.96200 53.67300 22.46800
N  18.46600 51.30400 26.06900
C  19.17100 50.74900 25.03600
C  20.15800 49.87900 25.59000
C  20.05100 49.98600 26.97500
C  18.92400 50.88900 27.25200
C  21.13800 49.01500 24.79700
C  20.55000 49.52500 28.24600
O  21.52200 48.80300 28.40400
C  19.54800 50.08900 29.37600
C  19.02500 48.88300 30.07100
O  18.06600 48.20800 29.74700
O  19.80600 48.71500 31.21600
C  19.09700 47.86500 32.26200
H  13.23000 52.97400 28.74600
H  14.43100 54.29600 22.70000
H  19.40800 50.45600 22.90100
H  16.70100 50.35000 30.85000
H  15.00500 52.65500 31.02200
H  13.55800 51.13800 31.49300
H  14.68300 49.90400 31.10600
H  13.71500 50.49200 29.74100
H  17.29300 53.27800 31.25000
H  18.59500 52.13000 31.01400
H  18.72000 51.74200 33.02000
H  17.25400 50.84300 33.01400
H  11.94200 56.03300 27.50700
H  12.16700 54.72000 28.68400
H  11.00700 54.57300 27.42600
H  10.45600 56.65400 24.00700
H  11.42000 56.98800 25.42900
H  10.38300 55.44100 25.22900
H  16.97600 54.11400 21.19700
H  17.78900 51.30500 21.07900
H  15.32400 53.33700 19.83300
H  14.59000 52.18600 20.93800
H  15.92000 51.65200 20.07600
H  19.17200 53.57400 20.51000
H  20.05200 52.11500 21.08600
H  20.78500 52.99500 22.69500
H  19.32300 53.87100 23.32900
H  20.48300 54.54900 22.08000
H  21.57900 48.22200 25.40100
H  21.85600 49.65600 24.28700
H  20.55000 48.52500 24.02100
H  20.23600 50.72300 29.93600
H  19.69800 46.98500 32.49100
H  18.13900 47.44500 31.95700
H  18.97400 48.29300 33.25700

