158

Mg 47.34600 34.47400 26.89000
C  45.32400 33.06800 29.42300
C  47.58000 37.22700 28.66800
C  48.97700 35.80100 24.25500
C  46.72900 31.58400 24.92300
N  46.59300 34.99300 28.82000
C  45.85200 34.27300 29.74100
C  46.12700 34.88000 31.16700
C  46.44500 36.43100 30.84400
C  46.86600 36.24700 29.34000
C  45.38000 37.39900 31.19900
C  47.31200 34.20200 31.80500
C  47.67200 34.48100 33.25800
H  46.70100 35.21700 34.21400
N  48.15800 36.23500 26.46900
C  48.16900 37.27900 27.37600
C  48.91000 38.37200 26.83600
C  49.18200 38.00200 25.50800
C  48.75000 36.65500 25.37600
C  49.26500 39.63300 27.57900
C  49.72100 38.83400 24.29600
O  49.73800 38.34000 23.15600
C  50.07100 40.30100 24.39000
N  47.67200 33.83200 24.79000
C  48.37700 34.63700 23.93200
C  48.59900 34.02500 22.58200
C  48.10800 32.52900 22.88500
C  47.47400 32.60700 24.26600
C  47.95300 34.79000 21.41700
C  49.20000 31.44300 22.79800
C  48.82100 30.35200 21.75300
N  46.21800 32.71000 27.05200
C  46.14400 31.56500 26.19700
C  45.42300 30.48800 26.90400
C  44.99800 31.05400 28.09400
C  45.52400 32.42500 28.14500
C  45.15900 29.05000 26.42000
C  44.29700 30.83500 29.32800
O  43.72700 29.80200 29.70000
C  44.30000 32.16800 30.08800
C  44.53900 31.80200 31.53800
O  45.45800 31.12100 31.99500
O  43.59000 32.40600 32.29200
C  43.61800 32.13600 33.68200
H  47.62700 38.16300 29.22800
H  49.67600 36.10000 23.47100
H  46.60700 30.66100 24.35300
H  45.24300 34.75500 31.79200
H  47.28800 36.73700 31.46400
H  45.30500 38.12600 30.39000
H  45.61400 37.79200 32.18800
H  44.41900 36.88600 31.24400
H  48.17000 34.32100 31.14400
H  47.07900 33.13900 31.87300
H  48.46700 35.18600 33.01600
H  48.08600 33.57100 33.69300
H  50.32700 39.87800 27.57900
H  49.03000 39.59700 28.64200
H  48.72000 40.53600 27.30300
H  49.62500 40.75700 25.27400
H  49.43900 40.61600 23.55900
H  51.11800 40.50000 24.16100
H  49.66700 34.02400 22.36100
H  47.33100 32.27800 22.16200
H  48.67200 35.43200 20.90900
H  47.00500 35.31000 21.55700
H  47.82600 34.04100 20.63500
H  49.28200 30.91100 23.74600
H  50.12500 31.89700 22.44200
H  47.86100 30.47900 21.25400
H  48.72100 29.50300 22.42900
H  49.63000 30.12100 21.06000
H  45.82100 28.87100 25.57300
H  44.09400 28.94700 26.20900
H  45.30900 28.47500 27.33300
H  43.27900 32.54700 30.13300
H  42.68900 32.53800 34.08600
H  44.43500 32.70600 34.12500
H  43.81400 31.10100 33.96400
Mg 41.39500 41.92900 26.14300
C  40.73800 44.22900 28.63700
C  42.44800 39.65700 28.56100
C  42.63700 39.98500 23.69400
C  40.60200 44.46500 23.80200
N  41.41600 41.86300 28.32800
C  41.13900 42.97400 29.10600
C  41.28100 42.69100 30.61600
C  41.84700 41.21100 30.53500
C  41.88100 40.83800 29.07500
C  43.14400 40.93300 31.34800
C  39.97400 42.73800 31.53100
C  40.24400 43.27000 32.99300
H  40.20500 42.29800 34.10500
N  42.33100 40.00300 26.14800
C  42.70200 39.23400 27.25300
C  43.29100 38.02700 26.76500
C  43.39700 38.11400 25.33100
C  42.81200 39.41800 24.98000
C  43.88700 36.95800 27.63200
C  44.16800 37.17400 24.35000
O  44.36200 37.42900 23.15500
C  44.80300 35.87400 24.83600
N  41.67900 42.20600 24.09800
C  42.17200 41.24700 23.24400
C  42.01200 41.59100 21.76300
C  41.24100 42.99700 21.84000
C  41.12700 43.27200 23.34300
C  43.27100 41.58200 20.89000
C  39.82000 43.12100 21.23500
C  39.42900 44.41600 20.50400
N  40.71900 43.90700 26.14300
C  40.42800 44.76600 25.16700
C  40.09200 46.06700 25.72600
C  40.07200 45.89000 27.10100
C  40.53000 44.57800 27.32600
C  39.87000 47.39800 25.02500
C  39.89400 46.56100 28.44400
O  39.56700 47.69200 28.72300
C  40.29500 45.48100 29.50500
C  41.27300 45.99800 30.34200
O  42.43000 46.03100 30.07000
O  40.70000 46.25500 31.59200
C  41.64200 46.85000 32.54700
H  42.69100 38.95600 29.36200
H  42.94600 39.33700 22.87100
H  40.23000 45.20500 23.09100
H  42.05200 43.39500 30.92900
H  41.05900 40.50400 30.79600
H  43.32500 41.69900 32.10200
H  44.09700 40.84300 30.82600
H  43.14200 40.05800 31.99800
H  39.56500 41.73300 31.63800
H  39.12600 43.21100 31.03600
H  39.51300 44.06500 33.14100
H  41.20600 43.76200 32.84700
H  44.93900 37.21400 27.76000
H  43.78900 36.01700 27.09100
H  43.34600 36.99500 28.57800
H  45.45200 35.98800 25.70500
H  45.49200 35.49800 24.08000
H  44.07400 35.13600 25.17100
H  41.42100 40.80900 21.28500
H  41.86600 43.80700 21.46500
H  44.12600 41.39600 21.54100
H  43.40300 42.48700 20.29600
H  43.23100 40.70800 20.24000
H  39.08700 43.12600 22.04200
H  39.69600 42.37800 20.44700
H  38.44900 44.71100 20.87800
H  39.29900 44.25900 19.43300
H  40.19800 45.17800 20.62800
H  38.89200 47.35800 24.54500
H  40.71900 47.52200 24.35300
H  39.81500 48.21600 25.74300
H  39.44600 45.19100 30.12500
H  42.15700 46.03100 33.04900
H  41.08300 47.39400 33.30800
H  42.39000 47.58400 32.24500

