158

Mg 29.69600 58.78600 41.47000
C  27.23600 56.82800 39.92300
C  32.13900 56.47900 40.13700
C  32.32200 60.93300 41.90600
C  27.32400 61.16400 42.25100
N  29.61700 56.88700 40.10800
C  28.50800 56.29000 39.68200
C  28.85800 55.06400 38.80300
C  30.24700 54.74300 39.38900
C  30.79200 56.11100 39.92400
C  30.38100 53.61300 40.42300
C  28.78600 55.34700 37.25300
C  28.08200 54.34500 36.39700
H  27.27900 54.88400 35.21100
N  31.89000 58.70800 41.14200
C  32.60500 57.75400 40.56700
C  33.95600 58.05100 40.43500
C  34.12600 59.27500 41.06500
C  32.73900 59.67300 41.55100
C  35.00900 57.14200 39.77200
C  35.39200 60.03800 41.10300
O  36.47500 59.55700 40.74600
C  35.40800 61.37100 41.66500
N  29.78400 60.79300 41.99000
C  30.99900 61.39400 42.25400
C  30.73200 62.83800 42.70800
C  29.13000 62.94200 42.88900
C  28.66700 61.54500 42.39100
C  31.56800 63.20000 43.97800
C  28.35200 64.15300 42.12600
C  27.14600 64.66800 43.07100
N  27.71600 58.93300 41.26900
C  26.88600 59.94600 41.67900
C  25.47500 59.57000 41.43300
C  25.55100 58.36900 40.67500
C  26.94600 58.02100 40.62900
C  24.20200 60.31900 41.69200
C  24.84200 57.38700 39.98700
O  23.60200 57.28900 39.75900
C  25.86900 56.30600 39.48600
C  25.51100 54.95500 40.09000
O  25.19100 54.72700 41.24900
O  25.53800 54.02400 39.06500
C  25.13400 52.67400 39.53000
H  32.78100 55.64100 39.85900
H  33.00100 61.78300 41.81000
H  26.55600 61.85000 42.61500
H  28.26700 54.21400 39.14300
H  30.93700 54.49200 38.58400
H  29.41400 53.48000 40.90900
H  31.07100 54.09200 41.11800
H  30.76600 52.70700 39.95500
H  29.75900 55.44100 36.77100
H  28.33600 56.34000 37.22900
H  27.41400 53.75100 37.02200
H  28.83300 53.64800 36.02500
H  35.86000 57.61600 39.28300
H  34.54800 56.55400 38.97900
H  35.37000 56.34100 40.41700
H  36.46400 61.60800 41.78600
H  34.78600 61.34000 42.56000
H  34.89200 61.91800 40.87600
H  31.02500 63.52800 41.91700
H  28.95400 62.89000 43.96300
H  32.15100 62.31400 44.23100
H  30.96200 63.53800 44.81800
H  32.25400 64.04000 43.86700
H  28.03000 63.77200 41.15700
H  29.07600 64.95000 41.95400
H  26.27600 64.31700 42.51600
H  26.95400 65.73700 43.15100
H  27.10200 64.14700 44.02800
H  23.60300 59.92900 42.51500
H  23.65200 60.12800 40.77000
H  24.40400 61.39000 41.72200
H  25.88100 56.23300 38.39900
H  24.09100 52.64500 39.84600
H  25.69600 52.48200 40.44400
H  25.18100 51.97700 38.69300
Mg -10.36400 39.14300 41.27400
C  -8.82700 36.03400 40.64300
C  -7.91700 40.66800 39.30400
C  -12.29600 41.91800 41.02500
C  -13.15800 37.25000 42.44700
N  -8.62900 38.43400 40.06000
C  -8.21400 37.12200 39.94400
C  -6.98300 37.05700 39.07900
C  -6.46600 38.57900 39.00500
C  -7.69000 39.30500 39.55200
C  -5.14500 38.83500 39.75500
C  -7.20700 36.42300 37.65800
C  -6.22200 35.41300 37.04400
H  -5.56200 35.73400 35.67900
N  -10.04400 41.03700 40.43600
C  -8.99300 41.51300 39.70200
C  -9.18700 42.88200 39.30100
C  -10.40000 43.33500 39.88100
C  -10.96500 42.09100 40.48800
C  -8.18100 43.68400 38.57500
C  -10.94300 44.72900 39.84800
O  -10.45200 45.57400 39.17600
C  -12.15100 45.07100 40.60100
N  -12.40300 39.52300 41.68500
C  -12.90300 40.79200 41.63200
C  -14.43300 40.79900 41.95300
C  -14.67600 39.34200 42.44300
C  -13.35800 38.57200 42.05700
C  -14.88400 41.90400 43.00400
C  -16.01300 38.72700 41.74300
C  -17.08500 37.99200 42.55500
N  -10.83700 37.10900 41.76400
C  -12.02700 36.53700 42.29100
C  -11.71600 35.11900 42.50200
C  -10.53500 34.90900 41.81200
C  -10.05800 36.09800 41.35900
C  -12.65700 34.24800 43.17900
C  -9.60000 33.87200 41.54100
O  -9.53600 32.70100 41.82900
C  -8.41900 34.55100 40.64000
C  -7.13300 34.18000 41.16200
O  -6.63600 33.08200 40.91100
O  -6.65800 35.16400 41.98500
C  -5.46900 34.71400 42.74000
H  -7.01500 41.09600 38.86200
H  -12.95100 42.78600 40.92600
H  -14.01000 36.67100 42.81100
H  -6.25900 36.51000 39.68300
H  -6.29900 38.78200 37.94700
H  -4.31200 38.23800 39.38400
H  -5.31200 38.63900 40.81400
H  -4.83600 39.86400 39.56900
H  -7.09000 37.18400 36.88700
H  -8.25500 36.12700 37.60300
H  -6.80900 34.49400 37.02300
H  -5.35900 35.34200 37.70500
H  -7.68900 44.27600 39.34700
H  -8.81100 44.28300 37.91800
H  -7.50100 43.10200 37.95300
H  -11.99500 44.70700 41.61600
H  -13.06400 44.68500 40.14700
H  -12.16800 46.15700 40.68800
H  -14.88500 40.92900 40.97000
H  -14.77800 39.19400 43.51800
H  -15.53600 42.61000 42.49000
H  -14.00900 42.41400 43.40700
H  -15.37400 41.45000 43.86500
H  -15.66300 38.17500 40.87000
H  -16.50000 39.53200 41.19300
H  -18.03700 38.49600 42.38900
H  -16.82700 37.83400 43.60300
H  -17.08500 36.99400 42.11700
H  -12.53600 33.22800 42.81400
H  -13.65300 34.60700 42.91800
H  -12.50200 34.32600 44.25500
H  -8.44100 34.14300 39.62900
H  -5.05800 35.51600 43.35300
H  -4.69100 34.56400 41.99200
H  -5.62600 33.82200 43.34600

