158

Mg 23.90700 -5.31400 45.61900
C  26.12900 -3.07600 44.06000
C  21.54700 -4.16400 43.61900
C  22.25900 -8.19800 46.17600
C  26.83100 -6.70800 47.18400
N  23.97600 -3.97800 43.83400
C  24.83700 -3.03600 43.54900
C  24.29100 -1.99000 42.58300
C  22.73100 -2.03800 42.87700
C  22.73500 -3.47200 43.52200
C  22.17000 -0.90800 43.81700
C  24.59400 -2.23800 41.12300
C  25.58400 -1.29800 40.44400
H  25.46000 -1.31000 38.94300
N  22.01200 -6.03200 45.11000
C  21.13700 -5.43000 44.23500
C  19.93600 -6.19700 44.19000
C  20.09500 -7.28700 45.04300
C  21.46900 -7.25100 45.49900
C  18.72700 -5.67700 43.48900
C  18.91900 -8.25400 45.40700
O  17.79200 -8.15100 44.93000
C  19.05000 -9.40600 46.32900
N  24.48500 -7.17600 46.49000
C  23.63300 -8.23200 46.63500
C  24.17800 -9.32900 47.46800
C  25.59000 -8.77600 47.90000
C  25.66500 -7.45900 47.14000
C  23.22100 -9.77600 48.59400
C  26.74900 -9.83300 47.73700
C  27.42800 -10.39100 49.10700
N  26.02700 -4.89100 45.82500
C  27.06500 -5.50600 46.50000
C  28.34800 -4.75100 46.31500
C  28.03100 -3.81400 45.34500
C  26.62600 -3.89000 45.16900
C  29.69600 -5.01100 46.90100
C  28.47200 -2.77300 44.48400
O  29.60600 -2.40200 44.33500
C  27.28700 -2.25900 43.66600
C  27.09500 -0.83700 43.86800
O  26.49200 -0.28000 44.77800
O  27.73600 -0.13000 42.94900
C  27.71300 1.37600 42.85400
H  20.70000 -3.78800 43.04200
H  21.68500 -9.12200 46.27600
H  27.69000 -7.16800 47.67700
H  24.58900 -0.96800 42.81800
H  22.16800 -2.02400 41.94400
H  23.06100 -0.55000 44.33200
H  21.43000 -1.38700 44.45700
H  21.67400 -0.14900 43.21100
H  23.71100 -2.27800 40.48500
H  25.12000 -3.19200 41.12700
H  26.64400 -1.48100 40.61700
H  25.43900 -0.34000 40.94400
H  18.18600 -6.49400 43.01200
H  18.85900 -4.98300 42.65900
H  18.10400 -5.23200 44.26500
H  18.02800 -9.68800 46.58200
H  19.61800 -9.19400 47.23400
H  19.51100 -10.18000 45.71400
H  24.32900 -10.11800 46.73100
H  25.47700 -8.34700 48.89600
H  22.68800 -8.93600 49.04000
H  23.74700 -10.29900 49.39300
H  22.53000 -10.44900 48.08800
H  27.42600 -9.36200 47.02500
H  26.30100 -10.67900 47.21600
H  26.85100 -10.02600 49.95700
H  28.51100 -10.28900 49.18600
H  27.22000 -11.45600 49.20700
H  29.76600 -4.61900 47.91600
H  30.40500 -4.36900 46.38000
H  29.89200 -6.07900 46.80700
H  27.59400 -2.33000 42.62200
H  28.23100 1.81800 43.70500
H  26.65200 1.62300 42.83200
H  28.22300 1.65700 41.93200
Mg 34.88300 2.39000 29.22200
C  32.70600 3.93900 31.46100
C  37.22800 2.06500 31.72300
C  36.98600 1.28000 26.96500
C  32.49700 3.09900 26.64800
N  35.01500 3.04400 31.31000
C  33.94200 3.57900 32.07200
C  34.30800 3.37400 33.58200
C  35.88300 3.20400 33.53500
C  36.12600 2.70500 32.10000
C  36.87300 4.39700 33.91200
C  33.45000 2.26900 34.30000
C  32.78900 2.84500 35.57700
H  33.45500 4.02800 36.33000
N  36.83200 1.64800 29.38000
C  37.61400 1.64300 30.43000
C  38.82400 0.92400 30.11000
C  38.71100 0.58300 28.73200
C  37.44400 1.16600 28.26200
C  40.08900 0.79500 31.07100
C  39.72500 -0.19500 27.80500
O  39.51100 -0.52900 26.61300
C  41.10700 -0.72800 28.43600
N  34.72300 2.29100 27.14200
C  35.75300 1.77000 26.46400
C  35.43800 1.68700 24.94700
C  33.90800 1.98800 24.93200
C  33.69500 2.58300 26.30900
C  36.26200 2.61200 24.11100
C  32.95600 0.78400 24.55900
C  32.56700 -0.25400 25.63400
N  32.98800 3.40300 29.02300
C  32.09800 3.53600 27.93600
C  30.79500 3.99400 28.43200
C  30.95800 4.15800 29.81700
C  32.31700 3.80000 30.10500
C  29.60800 4.30800 27.54100
C  30.34300 4.62800 31.01800
O  29.25000 5.03700 31.17900
C  31.42900 4.43100 32.14000
C  31.53300 5.77500 32.78500
O  31.96200 6.76200 32.22800
O  31.06400 5.77200 34.02700
C  31.17000 7.07100 34.73100
H  38.04300 1.94600 32.43900
H  37.65600 0.95300 26.16700
H  31.80000 3.22500 25.81700
H  34.15300 4.40300 33.90400
H  36.21300 2.41200 34.20700
H  37.59000 4.68500 33.14300
H  37.45600 4.10300 34.78400
H  36.38400 5.35700 34.07800
H  33.96900 1.36000 34.60200
H  32.63800 2.02400 33.61500
H  32.78100 2.03700 36.30800
H  31.76100 3.08000 35.30100
H  39.90100 1.25200 32.04200
H  41.00700 1.20700 30.65300
H  40.23000 -0.27300 31.24100
H  40.94100 -1.05600 29.46200
H  41.88300 0.03700 28.40200
H  41.51600 -1.58600 27.90300
H  35.57900 0.63100 24.71500
H  33.79100 2.83300 24.25300
H  36.93300 3.22600 24.71100
H  35.65800 3.33000 23.55600
H  36.88900 1.99300 23.47000
H  33.33400 0.22100 23.70600
H  32.03300 1.18600 24.14000
H  31.51300 -0.04500 25.81600
H  33.12900 -0.22800 26.56800
H  32.76700 -1.23700 25.20800
H  29.87300 4.34800 26.48500
H  29.10300 5.25600 27.72800
H  29.02000 3.41200 27.74000
H  31.02200 3.73800 32.87700
H  30.44900 7.73200 34.25000
H  32.19200 7.43800 34.63800
H  30.93700 6.79300 35.75900

