158

Mg -0.96900 17.81400 27.31800
C  -1.68900 15.66700 30.09800
C  -1.55200 20.45300 29.41300
C  -0.64100 19.79900 24.73500
C  -0.64400 14.95600 25.30200
N  -1.57800 18.01300 29.57100
C  -1.74000 17.05100 30.49600
C  -2.00400 17.68600 31.82700
C  -2.21200 19.15600 31.50400
C  -1.67200 19.22900 30.09200
C  -3.59400 19.73400 31.66900
C  -0.83300 17.53200 32.82000
C  -1.29100 16.81800 34.14800
H  -0.17800 16.57900 35.14300
N  -1.11100 19.82500 27.11400
C  -1.30300 20.78200 28.10200
C  -1.17400 22.15400 27.60000
C  -1.00800 21.99400 26.18800
C  -0.93700 20.54200 25.91700
C  -1.22300 23.39500 28.37700
C  -0.80700 23.03100 25.07300
O  -0.75400 22.76300 23.88200
C  -0.62300 24.46600 25.44300
N  -0.66700 17.40200 25.24700
C  -0.60600 18.44700 24.40600
C  -0.34300 17.92700 22.98100
C  -0.16000 16.39900 23.14200
C  -0.60000 16.20000 24.64200
C  -1.50900 18.40400 21.97300
C  1.31400 15.84600 22.93800
C  2.42000 16.31400 23.90600
N  -1.06200 15.77300 27.53900
C  -0.78800 14.76100 26.70200
C  -1.02900 13.52900 27.38200
C  -1.30700 13.79600 28.67900
C  -1.34600 15.24000 28.75500
C  -1.05300 12.16200 26.79600
C  -1.65300 13.18900 29.95100
O  -1.79300 12.02800 30.24100
C  -1.77800 14.38100 30.94700
C  -0.73800 14.17100 32.01300
O  0.39300 14.63800 31.98200
O  -1.33400 13.48100 32.99400
C  -0.55500 13.11700 34.15600
H  -1.79300 21.29900 30.06100
H  -0.53800 20.33800 23.79100
H  -0.47400 14.02500 24.75700
H  -2.89000 17.20900 32.24400
H  -1.58100 19.81200 32.10500
H  -3.98500 20.00700 30.68900
H  -3.52100 20.57800 32.35400
H  -4.31700 19.11800 32.20400
H  -0.44600 18.50300 33.12800
H  0.07500 17.08200 32.41900
H  -1.73500 15.86600 33.85600
H  -1.96300 17.44100 34.73700
H  -1.56200 23.25300 29.40300
H  -1.96500 24.04800 27.91600
H  -0.24700 23.87800 28.33400
H  -0.21000 24.94000 24.55300
H  0.10000 24.31700 26.24500
H  -1.50100 24.96100 25.85900
H  0.62600 18.25700 22.60600
H  -0.77900 15.85200 22.43100
H  -2.15900 17.62200 21.58100
H  -1.10100 19.12500 21.26400
H  -2.30500 18.88400 22.54200
H  1.66900 16.23600 21.98400
H  1.23600 14.75900 22.97500
H  1.91400 16.87300 24.69400
H  3.05200 17.09100 23.47600
H  3.00000 15.42200 24.14300
H  -0.50300 12.22000 25.85600
H  -2.07100 11.97800 26.45600
H  -0.77800 11.32900 27.44300
H  -2.75600 14.26000 31.41300
H  0.38300 13.67300 34.16600
H  -0.25600 12.06900 34.16300
H  -1.21000 13.43300 34.96800
Mg 0.96100 43.06200 26.51700
C  2.97400 43.28700 29.31800
C  -1.81700 42.47900 28.67700
C  -1.04300 42.95300 23.87900
C  3.73100 43.32500 24.58100
N  0.55000 42.80800 28.73700
C  1.59200 43.02500 29.63900
C  1.11200 43.13900 31.05600
C  -0.37900 42.54600 30.85600
C  -0.57000 42.51900 29.34900
C  -0.49200 41.10100 31.42600
C  1.04400 44.57500 31.68700
C  1.23500 44.65200 33.16800
H  0.88900 43.36600 34.01200
N  -1.18000 42.82100 26.29800
C  -2.12700 42.68000 27.30900
C  -3.40500 42.64300 26.62600
C  -3.18100 42.93200 25.24700
C  -1.76900 42.91600 25.08300
C  -4.69700 42.48400 27.44100
C  -4.16300 43.18800 24.16800
O  -3.81000 43.51400 23.03000
C  -5.66000 43.20000 24.32800
N  1.28900 43.15500 24.52200
C  0.32000 43.06100 23.54400
C  0.78300 43.06400 22.13700
C  2.29000 43.43900 22.45800
C  2.46100 43.38800 23.97000
C  0.54000 41.70600 21.44600
C  2.63900 44.82100 21.93600
C  3.81500 44.98100 20.93100
N  2.95700 43.22500 26.84200
C  4.01300 43.37900 25.97900
C  5.29700 43.34800 26.68600
C  4.89800 43.38100 28.01900
C  3.52700 43.26200 28.07600
C  6.61800 43.45000 26.17200
C  5.44800 43.46800 29.38400
O  6.60000 43.60200 29.76700
C  4.12700 43.42100 30.25400
C  4.32500 42.14800 31.05500
O  4.19000 41.01300 30.71900
O  4.71400 42.55900 32.32000
C  4.96900 41.41400 33.24800
H  -2.63300 42.31700 29.38400
H  -1.54900 42.93000 22.91100
H  4.54100 43.37200 23.85000
H  1.76900 42.50400 31.65000
H  -1.14300 43.19000 31.29000
H  0.13400 40.99000 32.31200
H  -0.28000 40.33800 30.67700
H  -1.50800 40.98200 31.80200
H  0.08300 45.02500 31.43600
H  1.81400 45.11800 31.14000
H  0.66700 45.52500 33.49000
H  2.29600 44.84700 33.32700
H  -5.38000 41.71200 27.08700
H  -5.25300 43.41700 27.35200
H  -4.44100 42.19400 28.46100
H  -5.95600 42.15800 24.45400
H  -6.23700 43.67200 23.53200
H  -5.93500 43.75000 25.22800
H  0.23000 43.89400 21.69600
H  2.87400 42.69000 21.92300
H  1.44100 41.13400 21.22700
H  -0.00600 41.89300 20.52200
H  -0.00700 40.98900 22.05800
H  2.79700 45.43900 22.82100
H  1.81900 45.26800 21.37500
H  4.46000 44.16900 20.59600
H  4.38400 45.83900 21.29000
H  3.42900 45.35300 19.98200
H  6.66700 44.18200 25.36500
H  7.11500 42.51800 25.90300
H  7.21600 43.92300 26.95200
H  4.05600 44.25100 30.95600
H  5.61200 40.72700 32.69800
H  3.98100 41.05800 33.54000
H  5.65800 41.81800 33.98900

