158

Mg 46.95600 35.31600 28.35100
C  45.53900 33.52800 31.05700
C  47.43200 37.94200 30.50400
C  48.04000 37.19800 25.74100
C  46.23900 32.78900 26.22800
N  46.85000 35.53700 30.64200
C  46.10200 34.73800 31.45800
C  46.21400 35.33600 32.86700
C  46.37500 36.85200 32.57900
C  46.90000 36.81500 31.15600
C  45.11300 37.71600 32.81900
C  47.49600 34.72100 33.55300
C  47.46900 34.54800 35.03600
H  46.50100 35.29900 35.87100
N  47.68200 37.21400 28.15400
C  47.93100 38.10500 29.18200
C  48.64700 39.23600 28.68900
C  48.67600 39.13700 27.25300
C  48.13400 37.78700 27.00800
C  49.12100 40.42700 29.60500
C  49.20900 40.14200 26.23600
O  49.22200 39.91700 24.99700
C  49.60600 41.49000 26.74900
N  46.84200 35.19200 26.17100
C  47.44300 36.01700 25.32300
C  47.43900 35.54300 23.86600
C  47.10400 34.03900 24.17100
C  46.67800 33.98300 25.56500
C  46.51700 36.36600 22.82100
C  48.36900 33.12700 23.90700
C  48.59800 32.70300 22.50200
N  46.04800 33.57400 28.49900
C  45.92600 32.61100 27.57500
C  45.37100 31.39000 28.15900
C  45.07800 31.82800 29.43500
C  45.62300 33.05200 29.67000
C  44.94000 30.11700 27.40500
C  44.47800 31.36600 30.71600
O  43.93100 30.37200 30.99400
C  44.54000 32.57800 31.68400
C  44.92400 32.06200 33.00800
O  46.07600 31.95400 33.44700
O  43.85800 31.82000 33.78400
C  44.18500 31.54800 35.15000
H  47.51500 38.76500 31.21700
H  48.18800 37.87500 24.89700
H  46.01000 31.92000 25.60800
H  45.31400 35.01700 33.39200
H  47.12000 37.31100 33.22900
H  44.83800 38.22700 31.89600
H  45.41000 38.41800 33.59800
H  44.28300 37.12600 33.20700
H  48.33500 35.38400 33.34100
H  47.58400 33.69200 33.20400
H  48.40900 34.95200 35.41200
H  47.45900 33.51300 35.38000
H  49.17800 40.16100 30.66100
H  48.35800 41.19900 29.51100
H  50.14600 40.72300 29.38100
H  50.49200 41.64300 27.36500
H  48.77500 42.05800 27.16800
H  49.80600 42.15100 25.90600
H  48.43000 35.57500 23.41400
H  46.25100 33.66300 23.60500
H  45.44900 36.15000 22.82400
H  46.85700 36.31300 21.78700
H  46.52800 37.37700 23.22800
H  48.17200 32.19400 24.43500
H  49.28600 33.56900 24.29700
H  49.66000 32.91400 22.37200
H  48.04300 33.33800 21.81100
H  48.40100 31.64300 22.33900
H  44.07700 30.50300 26.86300
H  44.67700 29.41300 28.19500
H  45.72500 29.86900 26.69100
H  43.62000 33.10900 31.92800
H  43.29900 31.19900 35.68100
H  44.49900 32.49400 35.59200
H  44.90000 30.72500 35.16900
Mg 35.90900 49.69200 26.01200
C  35.77000 47.96200 29.02200
C  34.74600 52.43400 27.56200
C  35.62800 51.13900 22.95800
C  36.71800 46.66300 24.44300
N  35.33500 50.07900 28.06000
C  35.42400 49.32500 29.22500
C  35.07000 50.04300 30.53200
C  34.59100 51.41000 29.94500
C  34.89800 51.33700 28.37400
C  33.14100 51.84000 30.38000
C  36.19400 50.04100 31.56300
C  35.84300 49.89800 32.96300
H  34.36100 50.10000 33.51100
N  35.31100 51.50300 25.32600
C  34.94800 52.54300 26.20400
C  34.79600 53.71800 25.40500
C  34.89100 53.36500 24.04300
C  35.26800 51.91500 24.05200
C  34.51800 55.14800 25.90900
C  34.45300 54.17700 22.86600
O  34.47600 53.74100 21.68700
C  34.06500 55.59400 23.09300
N  36.08800 48.90300 24.02500
C  35.93700 49.73700 22.89800
C  36.22400 49.01200 21.62500
C  36.72800 47.67000 22.16200
C  36.51900 47.77100 23.66300
C  34.99900 48.95400 20.68100
C  38.19500 47.33800 21.78600
C  39.31600 47.91100 22.72100
N  36.24600 47.67300 26.58400
C  36.59500 46.53300 25.86400
C  36.64000 45.47400 26.73000
C  36.35700 45.95200 27.98500
C  36.06400 47.31000 27.85400
C  37.06900 43.99900 26.39600
C  36.24000 45.57500 29.40600
O  36.47000 44.50200 29.93500
C  35.73900 46.89600 30.09900
C  34.43900 46.53300 30.66100
O  33.42700 46.50800 30.00900
O  34.57300 46.12700 31.99200
C  33.38400 45.69200 32.75600
H  34.40000 53.32900 28.08500
H  35.59600 51.67400 22.00600
H  37.02800 45.78900 23.86700
H  34.24800 49.48100 30.97700
H  35.25100 52.21200 30.27500
H  32.61300 50.93100 30.66700
H  32.69300 52.17000 29.44300
H  33.12700 52.65300 31.10700
H  36.71800 50.98400 31.40600
H  37.00900 49.32700 31.44100
H  36.45800 50.67000 33.42600
H  36.26300 48.95400 33.31000
H  34.75000 55.05700 26.97100
H  33.47400 55.45500 25.83700
H  35.23700 55.89000 25.56300
H  33.81400 56.01200 22.11800
H  34.84400 56.30000 23.37900
H  33.17200 55.61800 23.71800
H  37.06700 49.56000 21.20300
H  36.16200 46.81600 21.78900
H  34.22500 49.55100 21.16300
H  34.60300 47.95200 20.51900
H  35.20800 49.51600 19.77100
H  38.58100 47.67200 20.82300
H  38.34600 46.26400 21.67600
H  40.10600 48.43600 22.18300
H  39.77800 47.13200 23.32800
H  38.90500 48.60700 23.45200
H  36.21200 43.33900 26.26300
H  37.73400 43.62100 27.17200
H  37.39800 43.89500 25.36100
H  36.50300 47.14900 30.83300
H  33.67300 45.69800 33.80700
H  33.05100 44.70000 32.44900
H  32.48600 46.28000 32.56600

