158

Mg 45.36400 4.08500 45.31700
C  43.25700 6.96600 45.41700
C  42.50600 2.22100 44.68300
C  47.36200 1.45800 44.77800
C  48.14600 6.28700 45.16000
N  43.12500 4.56800 45.01000
C  42.55400 5.82200 44.98200
C  41.02700 5.78700 44.74400
C  40.76100 4.22900 44.87700
C  42.21700 3.60900 44.88300
C  39.94600 3.75600 46.12400
C  40.43600 6.37400 43.50600
C  41.33400 6.31400 42.24900
H  40.64500 6.45000 40.92500
N  44.98700 2.08900 44.91700
C  43.77100 1.54000 44.61600
C  43.94200 0.06900 44.37500
C  45.33400 -0.12800 44.60800
C  45.96000 1.13300 44.84200
C  42.72800 -0.91000 44.11900
C  45.96300 -1.50600 44.50900
O  45.25500 -2.48100 44.15300
C  47.36300 -1.73500 44.95400
N  47.45200 3.88400 45.02900
C  48.00700 2.67500 44.94900
C  49.51500 2.76500 44.65600
C  49.78500 4.28600 44.76300
C  48.40100 4.88900 45.05400
C  50.55900 1.88800 45.40500
C  50.44000 4.80900 43.42500
C  51.95000 4.76000 43.39000
N  45.71500 6.23000 45.23400
C  46.85800 6.97100 45.22700
C  46.50600 8.44000 45.39800
C  45.10400 8.42800 45.64300
C  44.70500 7.10400 45.39200
C  47.42100 9.62200 45.24400
C  43.97300 9.27100 45.98200
O  43.91700 10.47500 46.34500
C  42.76100 8.34000 45.73600
C  41.96400 8.36400 46.96900
O  42.17100 7.65100 47.97400
O  40.96900 9.29900 46.92500
C  40.15000 9.35700 48.14100
H  41.61200 1.63200 44.46800
H  48.06900 0.65400 44.56300
H  49.06800 6.87200 45.15500
H  40.43100 6.19900 45.55800
H  40.19900 3.90800 44.00000
H  40.52800 3.40600 46.97700
H  39.32200 2.88000 45.94800
H  39.27400 4.54600 46.45900
H  40.25500 7.41000 43.79100
H  39.44800 5.94800 43.33600
H  41.80700 5.33200 42.20700
H  42.07600 7.06100 42.53000
H  42.51600 -1.54000 44.98300
H  43.01400 -1.43400 43.20700
H  41.78300 -0.38000 44.00100
H  47.45200 -2.80300 45.15200
H  47.64000 -1.08800 45.78700
H  48.01400 -1.45100 44.12700
H  49.65400 2.40000 43.63800
H  50.49700 4.59400 45.52900
H  50.07500 1.24200 46.13800
H  51.30800 2.47100 45.94100
H  51.05300 1.25300 44.67000
H  50.12700 5.84100 43.27000
H  50.16300 4.18500 42.57600
H  52.30800 4.18100 42.53900
H  52.38400 4.18400 44.20700
H  52.42200 5.73800 43.29000
H  48.29500 9.24100 44.71600
H  47.67100 9.85700 46.27900
H  46.94200 10.55200 44.93900
H  42.07400 8.72100 44.98100
H  39.60000 8.42800 48.29500
H  39.44800 10.18900 48.19900
H  40.69700 9.44300 49.08000
Mg 35.38700 2.67200 29.23600
C  33.44700 3.99200 31.79200
C  38.00800 2.66700 31.28700
C  37.21800 1.79100 26.73000
C  32.63400 3.24700 27.04400
N  35.73000 3.53600 31.20900
C  34.77100 3.74800 32.15600
C  35.16100 3.57800 33.56300
C  36.72700 3.49300 33.39500
C  36.85200 3.14500 31.86200
C  37.58300 4.74600 33.68300
C  34.44700 2.50700 34.40900
C  34.08500 2.89700 35.82400
H  35.06200 3.83900 36.63500
N  37.38900 2.16900 29.01400
C  38.28000 2.23600 30.02400
C  39.57400 1.76900 29.56400
C  39.38500 1.49300 28.17300
C  37.96100 1.74900 27.89800
C  40.81500 1.74600 30.45600
C  40.41800 1.20000 27.05000
O  40.00500 1.07800 25.88700
C  41.92300 1.04400 27.35900
N  34.96400 2.49900 27.16700
C  35.94900 2.23200 26.38900
C  35.44600 2.25000 24.92700
C  33.93300 2.38500 25.06900
C  33.80000 2.74400 26.50400
C  36.18700 3.31900 23.97600
C  33.02100 1.19800 24.49300
C  32.71100 0.03300 25.42200
N  33.41000 3.30300 29.38600
C  32.39500 3.39600 28.41000
C  31.13500 3.92100 29.09200
C  31.55700 4.20900 30.39800
C  32.88400 3.78400 30.49000
C  29.83300 4.17200 28.52200
C  31.03800 4.66100 31.66400
O  29.96900 5.08300 32.01500
C  32.21100 4.44800 32.70400
C  32.39000 5.63600 33.57700
O  32.92500 6.64600 33.19100
O  31.74100 5.54500 34.82200
C  31.64800 6.74400 35.65300
H  38.78400 2.40900 32.01100
H  37.77900 1.45700 25.85500
H  31.83700 3.52100 26.35000
H  34.93300 4.50600 34.08800
H  37.09000 2.70600 34.05600
H  36.86800 5.47000 34.07200
H  37.94000 5.17000 32.74400
H  38.42100 4.42500 34.30100
H  35.22700 1.75400 34.52600
H  33.57900 2.04800 33.93500
H  34.10100 1.95000 36.36300
H  33.11100 3.36600 35.96100
H  41.16100 0.71300 30.44100
H  40.60400 2.10000 31.46500
H  41.57900 2.34900 29.96700
H  42.08200 0.11200 27.90200
H  42.23100 1.80000 28.08100
H  42.37500 1.17200 26.37500
H  35.73700 1.30500 24.46800
H  33.64100 3.25600 24.48300
H  36.94000 3.92700 24.47800
H  35.41700 3.98700 23.59000
H  36.65300 2.74400 23.17600
H  33.54900 0.69400 23.68300
H  32.12600 1.53500 23.97100
H  32.71100 -0.91000 24.87500
H  31.72600 0.10200 25.88400
H  33.48800 -0.13000 26.16900
H  29.86000 4.01400 27.44300
H  29.54900 5.22400 28.51300
H  29.09800 3.53200 29.00900
H  31.91500 3.59900 33.32100
H  32.20800 6.58300 36.57300
H  30.65400 7.01900 36.00500
H  32.15200 7.54300 35.10900

