158

Mg 26.81300 50.69400 26.75400
C  24.73200 51.55700 29.64600
C  29.14100 49.55300 28.94100
C  28.58900 49.67000 24.10000
C  24.35700 51.94100 24.76900
N  26.77500 50.39900 29.06500
C  25.85600 50.80200 29.99700
C  26.21400 50.40100 31.43300
C  27.74700 50.00400 31.16300
C  27.95500 50.00600 29.63500
C  28.83000 50.80000 31.91800
C  25.36300 49.27100 32.19500
C  24.77300 49.50000 33.55400
H  25.78500 49.94000 34.60000
N  28.58200 49.72100 26.58600
C  29.43100 49.35900 27.60500
C  30.57700 48.68700 27.09700
C  30.53000 48.78000 25.66500
C  29.20200 49.38400 25.41100
C  31.68200 48.26800 28.02000
C  31.51200 48.40600 24.53900
O  31.31300 48.74500 23.35800
C  32.87200 47.94800 24.88600
N  26.53500 50.71400 24.70900
C  27.39600 50.27500 23.74800
C  26.86400 50.58500 22.36000
C  25.43200 50.88200 22.60500
C  25.40100 51.21100 24.09800
C  27.67000 51.71700 21.63300
C  24.30000 49.90100 22.19400
C  23.11800 50.48900 21.45500
N  25.04400 51.69700 27.06000
C  24.11900 52.19000 26.12800
C  22.88300 52.69300 26.80400
C  23.14800 52.54500 28.15300
C  24.42400 51.88500 28.26900
C  21.68000 53.24100 26.08900
C  22.57000 52.77200 29.49800
O  21.60700 53.37100 29.79400
C  23.57100 52.12400 30.46600
C  23.97900 53.16100 31.50400
O  24.76800 54.01200 31.25600
O  23.22900 52.93100 32.61600
C  23.61700 53.69500 33.80500
H  29.83100 49.14700 29.68300
H  29.15600 49.35600 23.22200
H  23.58600 52.24300 24.05700
H  26.16300 51.31900 32.01900
H  27.90400 48.93600 31.31700
H  28.44500 50.96900 32.92300
H  29.11700 51.73100 31.42900
H  29.73400 50.19100 31.95600
H  25.89200 48.32000 32.14000
H  24.45100 49.19300 31.60400
H  24.34200 48.57300 33.93200
H  23.98100 50.24900 33.58900
H  32.34800 47.52300 27.58300
H  31.28100 47.90900 28.96800
H  32.13900 49.23600 28.22300
H  33.51800 48.04000 24.01200
H  32.82100 46.89000 25.14300
H  33.24600 48.47000 25.76700
H  27.07000 49.69900 21.76000
H  25.02800 51.79700 22.17100
H  28.44800 52.04800 22.32200
H  27.07200 52.57100 21.31600
H  28.34400 51.41800 20.83000
H  23.80600 49.43500 23.04600
H  24.74700 49.05800 21.66600
H  23.03300 49.89700 20.54400
H  23.31300 51.48300 21.05200
H  22.19100 50.55900 22.02400
H  20.96300 53.63000 26.81100
H  21.14600 52.59600 25.39100
H  22.15700 53.96500 25.42900
H  23.10600 51.27900 30.97200
H  22.71500 53.76500 34.41300
H  23.95500 54.72000 33.65400
H  24.38900 53.15000 34.34700
Mg -4.62900 24.80400 25.33300
C  -3.41300 26.13300 28.35300
C  -6.67600 22.58700 27.30500
C  -5.39000 22.99000 22.59300
C  -2.48400 26.74200 23.64800
N  -4.95400 24.28800 27.62000
C  -4.36200 25.09100 28.62500
C  -5.00300 24.74100 29.92600
C  -5.98100 23.45300 29.62200
C  -5.84900 23.43100 28.09700
C  -5.53600 22.05900 30.18500
C  -5.81200 25.93900 30.56500
C  -5.62000 26.14600 32.11400
H  -4.94300 25.09800 33.01400
N  -5.96000 23.19900 24.97200
C  -6.69900 22.49400 25.88900
C  -7.57000 21.64000 25.15800
C  -7.14400 21.66100 23.79900
C  -6.14400 22.66300 23.74900
C  -8.79300 20.99700 25.80200
C  -7.64100 20.79900 22.59500
O  -7.21300 20.90500 21.42200
C  -8.75300 19.80100 22.89100
N  -4.12900 24.90900 23.30500
C  -4.42600 23.96800 22.39200
C  -3.56000 24.21800 21.13700
C  -2.85200 25.54800 21.44900
C  -3.19800 25.82800 22.88300
C  -2.63400 23.06400 20.62100
C  -3.36300 26.80200 20.66700
C  -2.34700 27.48500 19.74700
N  -3.20400 26.17100 25.81900
C  -2.47800 27.04600 25.04200
C  -1.70900 27.93700 25.76900
C  -2.05500 27.66700 27.11500
C  -2.98300 26.53900 27.09800
C  -0.70300 29.02300 25.23100
C  -1.68400 27.98500 28.49600
O  -0.93000 28.75100 29.07300
C  -2.65200 27.05800 29.29200
C  -1.87500 26.23200 30.31200
O  -1.39000 25.11400 30.10400
O  -1.89100 26.89200 31.55500
C  -1.18400 26.19600 32.64700
H  -7.33300 21.94800 27.89800
H  -5.60100 22.42100 21.68600
H  -1.73100 27.29500 23.08200
H  -4.23500 24.45300 30.64400
H  -6.98800 23.67700 29.97400
H  -5.06700 21.55300 29.34100
H  -6.34200 21.45700 30.60500
H  -4.85200 22.17800 31.02500
H  -6.89900 25.85100 30.57300
H  -5.76200 26.83100 29.94100
H  -6.59900 26.18200 32.59300
H  -5.09700 27.09500 32.23000
H  -8.99300 21.38700 26.80000
H  -8.80500 19.91400 25.92400
H  -9.54200 21.52500 25.21200
H  -9.08800 19.26800 22.00100
H  -9.53600 20.46700 23.25400
H  -8.39100 19.05700 23.60000
H  -4.33100 24.41400 20.39200
H  -1.78200 25.48400 21.25100
H  -3.03000 22.67500 19.68400
H  -2.68100 22.29200 21.38900
H  -1.61100 23.37400 20.40700
H  -3.78000 27.54200 21.35000
H  -4.26100 26.51800 20.11800
H  -2.21900 28.54300 19.97900
H  -2.74700 27.42900 18.73500
H  -1.38600 26.97300 19.77200
H  -0.12300 28.51400 24.46100
H  -0.11200 29.47600 26.02700
H  -1.25600 29.84600 24.77900
H  -3.31100 27.70000 29.87800
H  -0.19300 26.65000 32.63100
H  -0.95900 25.12900 32.62300
H  -1.60300 26.51600 33.60100

