158

Mg 25.92300 -0.15400 29.37800
C  27.69900 -0.15400 32.29700
C  23.05600 0.17300 31.19900
C  24.29300 -0.55000 26.44900
C  28.86400 -0.63700 27.56100
N  25.45600 0.15100 31.48500
C  26.37400 0.06700 32.53500
C  25.67500 0.25800 33.90500
C  24.15600 0.24000 33.57200
C  24.19300 0.20100 31.99200
C  23.37100 -0.92800 34.27600
C  26.24400 1.58600 34.54400
C  26.94700 1.50500 35.97700
H  26.69300 2.50900 37.12800
N  23.95200 -0.19200 28.92700
C  22.89900 -0.04500 29.77900
C  21.67300 -0.04000 29.00200
C  22.02000 -0.12300 27.60800
C  23.52100 -0.29800 27.63900
C  20.26500 0.07800 29.62900
C  21.04700 -0.16300 26.43600
O  21.41000 -0.37400 25.29000
C  19.59000 0.08100 26.69100
N  26.45900 -0.51800 27.20200
C  25.59200 -0.59000 26.21300
C  26.22200 -0.67700 24.78100
C  27.73300 -0.74300 25.18200
C  27.70300 -0.65700 26.74600
C  25.69200 -1.85900 23.89600
C  28.72900 0.26000 24.52200
C  28.40300 1.71400 24.71900
N  27.83400 -0.51500 29.84100
C  28.99600 -0.66000 28.99600
C  30.22200 -0.66500 29.79300
C  29.74300 -0.47400 31.09700
C  28.30400 -0.39100 31.06900
C  31.67100 -0.85000 29.22000
C  30.15200 -0.35600 32.48000
O  31.29000 -0.31400 32.94400
C  28.88100 -0.07200 33.26100
C  28.82500 -1.18600 34.25000
O  28.33200 -2.30100 34.03000
O  29.38400 -0.79400 35.44100
C  29.44800 -1.80300 36.48700
H  22.12100 0.36800 31.72900
H  23.64100 -0.84700 25.62500
H  29.79900 -0.74200 27.00700
H  26.00600 -0.62000 34.45900
H  23.69900 1.17800 33.88700
H  22.98100 -1.70800 33.62200
H  22.47700 -0.48100 34.71100
H  23.94000 -1.44400 35.04900
H  25.44000 2.31100 34.67500
H  26.97300 2.02900 33.86600
H  27.96500 1.72500 35.65800
H  26.92700 0.44400 36.22600
H  19.74800 -0.83600 29.33800
H  19.79100 1.04000 29.43100
H  20.29200 -0.08900 30.70600
H  19.06700 0.34800 25.77200
H  19.47600 1.02400 27.22600
H  19.09500 -0.68100 27.29300
H  26.10400 0.22000 24.17300
H  28.06300 -1.75500 24.94500
H  26.54200 -2.49500 23.64700
H  25.19500 -1.59300 22.96300
H  24.98100 -2.37800 24.53800
H  28.64000 0.06000 23.45400
H  29.75900 0.07400 24.82600
H  27.34100 1.93500 24.61600
H  29.05600 2.23400 24.01800
H  28.78700 2.15500 25.63900
H  32.38000 -0.34400 29.87500
H  31.77400 -0.39500 28.23500
H  31.91600 -1.90500 29.10700
H  29.02700 0.88100 33.77200
H  28.96900 -1.43400 37.39300
H  30.50200 -1.93900 36.73200
H  29.00300 -2.76900 36.24900
Mg 48.27500 45.64500 43.48300
C  44.85600 45.63600 42.63300
C  48.51400 42.61400 42.13500
C  51.69900 46.13100 43.57800
C  47.92000 49.02700 44.13800
N  46.78500 44.23500 42.66600
C  45.44600 44.39700 42.42000
C  44.80000 43.10000 41.79400
C  46.02400 42.07700 41.93900
C  47.19800 42.99300 42.25000
C  45.73200 40.86500 42.86600
C  44.37600 43.41400 40.33900
C  43.04800 42.82600 39.79800
H  43.24300 41.96600 38.58100
N  49.83900 44.49700 43.05500
C  49.71800 43.26500 42.53800
C  51.08500 42.72100 42.40300
C  52.02300 43.60500 42.80000
C  51.24600 44.79800 43.25100
C  51.20600 41.35700 41.73900
C  53.50800 43.31900 42.81200
O  53.99200 42.27000 42.40800
C  54.49300 44.21300 43.43900
N  49.64100 47.40800 43.72800
C  50.95500 47.28800 43.76700
C  51.64400 48.60000 44.07000
C  50.43700 49.54800 44.30700
C  49.24900 48.69300 44.01800
C  52.79200 48.63100 45.02200
C  50.40400 50.80300 43.45100
C  50.20500 52.15200 44.23300
N  46.80400 47.11000 43.30600
C  46.74300 48.39800 43.78500
C  45.41700 48.94400 43.88000
C  44.64800 47.92900 43.27800
C  45.52300 46.81500 43.05500
C  44.99600 50.33000 44.40700
C  43.40100 47.58900 42.70200
O  42.40700 48.29300 42.50400
C  43.50100 46.09700 42.28000
C  42.34700 45.31000 42.79800
O  41.68900 44.60500 42.08700
O  42.22900 45.46300 44.20900
C  41.11700 44.78800 44.80700
H  48.66600 41.56100 41.88500
H  52.78300 46.11100 43.70800
H  47.70500 50.02400 44.53000
H  43.96800 42.83300 42.44600
H  46.19500 41.67800 40.94000
H  44.66300 40.70700 42.72400
H  45.88800 41.01000 43.93500
H  46.28200 39.98800 42.52700
H  45.12700 43.02100 39.65400
H  44.26600 44.45800 40.04700
H  42.30500 43.60300 39.61500
H  42.61400 42.26400 40.62500
H  50.43900 41.14100 40.99600
H  51.31000 40.57300 42.48800
H  52.18700 41.43800 41.27100
H  54.88400 44.93600 42.72400
H  55.32900 43.56900 43.71300
H  54.11500 44.60600 44.38300
H  52.03500 48.84400 43.08300
H  50.38000 49.77400 45.37200
H  52.92400 47.66300 45.50600
H  52.80400 49.47800 45.70800
H  53.68300 48.65300 44.39400
H  49.81200 50.59300 42.56100
H  51.35500 50.95800 42.94200
H  51.21400 52.56100 44.29000
H  49.83500 51.98500 45.24500
H  49.51900 52.82400 43.71900
H  43.98300 50.30200 44.00500
H  45.55700 51.20200 44.07200
H  45.10200 50.36100 45.49200
H  43.23700 46.10300 41.22200
H  41.00500 44.70900 45.88800
H  41.05900 43.71400 44.63000
H  40.20200 45.27200 44.46400

