158

Mg 40.67600 8.69200 29.30700
C  42.38300 9.88700 32.06800
C  38.63200 6.93500 31.44300
C  38.97800 7.38200 26.59600
C  43.01600 10.12900 27.14900
N  40.54700 8.40300 31.55200
C  41.27800 9.07600 32.44200
C  40.70800 9.01200 33.87900
C  39.63500 7.88800 33.67800
C  39.53400 7.73700 32.12400
C  39.79600 6.67300 34.56200
C  40.36800 10.31500 34.62200
C  39.25600 10.29600 35.66300
H  39.46500 11.22600 36.82000
N  39.11900 7.32700 29.02800
C  38.41300 6.69700 30.07300
C  37.41100 5.83400 29.49600
C  37.48100 5.94400 28.08900
C  38.62300 6.84000 27.80700
C  36.52500 4.94700 30.28900
C  36.58200 5.33100 27.05100
O  36.75100 5.55100 25.87300
C  35.45300 4.47900 27.33700
N  40.99900 8.61300 27.16100
C  40.05500 8.20600 26.24200
C  40.35000 8.66900 24.87900
C  41.65900 9.55100 25.07100
C  41.89700 9.51800 26.63400
C  40.51000 7.54600 23.77800
C  41.56200 10.90400 24.36400
C  40.39100 11.82000 24.82100
N  42.34900 9.72500 29.52500
C  43.21000 10.25900 28.57200
C  44.29900 10.97900 29.28900
C  43.91300 10.91000 30.64700
C  42.75300 10.10300 30.73200
C  45.32500 11.73000 28.49500
C  44.29500 11.38400 31.93400
O  45.18600 12.13400 32.28300
C  43.28400 10.77600 32.92000
C  44.08200 10.10700 34.10700
O  44.66400 9.00400 34.09000
O  44.12700 11.02600 35.20400
C  44.55900 10.41700 36.54300
H  37.93100 6.49400 32.15600
H  38.39900 7.01000 25.74900
H  43.60400 10.73300 26.45400
H  41.62900 8.69500 34.36700
H  38.62200 8.23400 33.88500
H  40.58200 6.81800 35.30300
H  40.06900 5.77400 34.01000
H  38.84000 6.58700 35.08000
H  40.02700 11.08000 33.92400
H  41.25000 10.74800 35.09400
H  39.10700 9.30800 36.09800
H  38.40800 10.64900 35.07600
H  35.53800 5.40700 30.26900
H  36.83300 4.92900 31.33400
H  36.39400 3.93400 29.90800
H  34.71800 4.87800 28.03600
H  35.73500 3.48400 27.68100
H  34.98400 4.20300 26.39200
H  39.49500 9.20700 24.47100
H  42.50900 9.02600 24.63700
H  41.23800 7.80900 23.01000
H  39.64000 7.31000 23.16500
H  40.94800 6.62500 24.16300
H  41.53400 10.70200 23.29300
H  42.49200 11.43900 24.56100
H  39.69800 11.35000 25.51900
H  39.91700 12.07700 23.87400
H  40.80700 12.71100 25.29200
H  44.87600 12.21500 27.62800
H  46.15600 11.06000 28.27500
H  45.62500 12.44900 29.25800
H  42.63600 11.54500 33.33900
H  44.44400 9.33600 36.62400
H  43.88400 10.74400 37.33400
H  45.54400 10.74200 36.87900
Mg -1.98400 35.09900 26.97700
C  -3.41200 33.09000 29.34700
C  -0.29600 36.94300 29.26300
C  -0.69900 37.00800 24.38700
C  -3.98900 33.45900 24.52600
N  -1.83200 34.97500 29.07100
C  -2.53300 34.08100 29.86100
C  -2.26600 34.43300 31.35000
C  -1.33800 35.71500 31.31400
C  -1.20300 35.91800 29.77000
C  -1.83700 37.01000 32.07400
C  -1.63800 33.20100 32.03100
C  -2.28400 32.73900 33.33600
H  -1.37500 32.37900 34.54700
N  -0.66100 36.67100 26.86600
C  0.02700 37.21600 27.88500
C  0.91300 38.20500 27.44400
C  0.78000 38.27800 26.01300
C  -0.23900 37.32600 25.69500
C  1.73600 39.02400 28.45200
C  1.39700 39.29800 25.01100
O  1.21000 39.15000 23.84000
C  2.20900 40.33700 25.52500
N  -2.48900 35.34300 24.83700
C  -1.74500 36.19000 23.94800
C  -2.04800 35.90400 22.38100
C  -3.06900 34.73200 22.55900
C  -3.19700 34.52300 24.05700
C  -2.56900 37.07600 21.55400
C  -2.65100 33.36600 21.83900
C  -2.09200 32.19900 22.69300
N  -3.36200 33.55800 26.84300
C  -4.18700 33.08900 25.86300
C  -5.01500 32.05500 26.41400
C  -4.76800 32.04800 27.76100
C  -3.77200 33.00600 27.95400
C  -5.88500 31.23100 25.63800
C  -5.16500 31.31600 28.98500
O  -6.02400 30.43700 29.15200
C  -4.27400 31.98300 30.13100
C  -5.21300 32.68400 30.99600
O  -5.79800 33.73400 30.74100
O  -5.18800 31.99200 32.23000
C  -6.06900 32.53500 33.30600
H  0.11000 37.51900 30.09700
H  -0.32800 37.54400 23.51200
H  -4.52600 32.89900 23.75700
H  -3.16900 34.75700 31.86600
H  -0.40200 35.41400 31.78600
H  -2.82400 36.89700 32.52100
H  -1.82900 37.83000 31.35600
H  -1.16300 37.14600 32.92000
H  -0.60400 33.37600 32.32900
H  -1.74200 32.27800 31.46100
H  -2.73700 31.76900 33.12700
H  -2.98900 33.46800 33.73600
H  2.77000 39.09600 28.11400
H  1.75200 38.60300 29.45800
H  1.29000 40.01600 28.38800
H  2.40000 41.10800 24.77900
H  3.09000 39.99700 26.07000
H  1.70800 40.86500 26.33600
H  -1.11100 35.53400 21.96500
H  -3.99800 34.99400 22.05300
H  -2.20900 36.98100 20.52900
H  -2.31500 38.02200 22.03200
H  -3.65700 37.02400 21.50300
H  -1.96900 33.58700 21.01800
H  -3.46200 32.95900 21.23600
H  -1.73900 32.54900 23.66300
H  -1.24400 31.67300 22.25400
H  -2.90700 31.48200 22.78400
H  -5.62400 31.35500 24.58700
H  -6.91300 31.53600 25.83200
H  -5.71400 30.19200 25.91900
H  -3.60400 31.23700 30.55800
H  -5.72100 33.50300 33.66600
H  -5.96800 31.92600 34.20500
H  -7.12000 32.57300 33.02200

