158

Mg 2.37100 -1.55600 44.97200
C  5.80600 -1.15000 44.06200
C  1.65500 1.07600 42.82800
C  -0.78900 -2.48900 44.93400
C  3.25800 -4.69900 46.35200
N  3.59000 -0.18000 43.71900
C  5.00600 -0.19600 43.49300
C  5.34300 0.80900 42.43900
C  4.06100 1.71400 42.37000
C  3.03000 0.81400 43.03100
C  4.18400 3.10200 43.08900
C  5.82100 0.12000 41.11200
C  5.02000 -0.18000 39.83000
H  5.17100 0.79500 38.61900
N  0.60900 -0.70000 44.16600
C  0.53100 0.38000 43.34400
C  -0.87700 0.64100 43.06000
C  -1.72000 -0.34500 43.73200
C  -0.64500 -1.24600 44.30500
C  -1.32100 1.83700 42.26000
C  -3.27700 -0.35500 43.69600
O  -3.98100 0.56600 43.21500
C  -3.90100 -1.56400 44.23300
N  1.34900 -3.33300 45.41600
C  0.04000 -3.44800 45.43600
C  -0.58000 -4.76500 45.97000
C  0.77100 -5.45800 46.49800
C  1.86700 -4.48000 46.07200
C  -1.51300 -4.55600 47.13400
C  1.04200 -6.87700 45.92600
C  0.72800 -7.96500 46.92800
N  4.15800 -2.69200 45.30800
C  4.32300 -3.88800 45.95400
C  5.79900 -4.22300 46.01000
C  6.37000 -3.08100 45.33200
C  5.32000 -2.21400 44.94100
C  6.46000 -5.47600 46.55500
C  7.62000 -2.56400 44.90200
O  8.75800 -2.93300 45.11800
C  7.34100 -1.23200 44.12200
C  8.07300 -0.13000 44.87200
O  7.89800 0.21200 45.98700
O  8.78000 0.63500 43.93000
C  9.46600 1.79600 44.56600
H  1.45600 2.06600 42.41400
H  -1.73800 -3.00600 44.78300
H  3.46600 -5.66200 46.82300
H  6.12400 1.37700 42.94500
H  3.79100 1.85400 41.32300
H  5.20400 3.44500 43.26400
H  3.57800 3.19700 43.99000
H  3.66000 3.66200 42.31600
H  6.13600 -0.89900 41.33500
H  6.63900 0.75400 40.76900
H  3.98400 -0.18700 40.16900
H  5.21100 -1.21400 39.53900
H  -1.68700 1.70500 41.24200
H  -0.48900 2.54200 42.25200
H  -2.03200 2.35500 42.90300
H  -3.49400 -2.40900 43.67800
H  -4.98200 -1.41900 44.22300
H  -3.65300 -1.67700 45.28900
H  -1.08900 -5.40500 45.24900
H  0.76800 -5.45200 47.58800
H  -0.98800 -4.34400 48.06500
H  -2.12000 -5.44800 47.29200
H  -2.18800 -3.71700 46.96800
H  2.06100 -6.87100 45.54000
H  0.28500 -6.98200 45.14900
H  0.40800 -7.54000 47.88000
H  1.58100 -8.62600 47.07800
H  -0.05400 -8.60000 46.51300
H  7.21600 -5.83600 45.85800
H  5.67100 -6.21600 46.69200
H  6.92300 -5.33000 47.53000
H  7.86000 -1.35000 43.17100
H  8.87400 2.44600 45.21100
H  9.93500 2.36000 43.75900
H  10.19600 1.51500 45.32500
Mg 53.87300 24.33900 44.36800
C  51.21700 26.41700 43.59700
C  52.19300 21.81200 42.88500
C  56.66900 22.58100 44.25300
C  55.56300 27.13200 45.73700
N  52.03000 24.22000 43.09700
C  51.08300 25.20900 42.93800
C  49.88000 24.65100 42.17300
C  50.00900 23.08900 42.50600
C  51.47600 22.96800 42.88600
C  49.10000 22.47000 43.62500
C  49.90600 25.04400 40.60800
C  48.57200 25.57700 39.89000
H  47.99600 24.58000 38.78000
N  54.34400 22.41800 43.74900
C  53.53200 21.53900 43.19800
C  54.22600 20.28400 42.97400
C  55.52900 20.45900 43.36200
C  55.56400 21.82700 43.87300
C  53.46500 19.01800 42.50100
C  56.54600 19.37400 43.41600
O  56.46700 18.25000 42.96500
C  57.83800 19.66400 44.09100
N  55.89700 24.95800 44.79600
C  56.78500 23.94600 44.76400
C  58.07600 24.41000 45.36900
C  57.76800 25.87000 45.95000
C  56.39300 26.02300 45.47000
C  58.66300 23.42400 46.39500
C  58.65200 27.03300 45.37000
C  58.84800 28.24900 46.28200
N  53.46100 26.30500 44.74100
C  54.18500 27.28000 45.36000
C  53.35300 28.48000 45.47800
C  52.13500 28.21800 44.90500
C  52.33500 26.90100 44.37600
C  53.64800 29.72200 46.22100
C  50.72300 28.60200 44.52900
O  50.15200 29.60500 44.73800
C  50.16600 27.43500 43.74100
C  49.55700 27.86900 42.38800
O  50.10700 28.20300 41.38800
O  48.19400 27.86200 42.54300
C  47.41100 28.59700 41.42800
H  51.63000 20.98100 42.45400
H  57.63500 22.07400 44.29900
H  56.07700 27.95900 46.23200
H  49.03800 25.09700 42.70200
H  49.87100 22.46900 41.62000
H  49.34700 22.89600 44.59700
H  49.05000 21.38600 43.52000
H  48.16200 22.93400 43.32000
H  50.25800 24.15900 40.07800
H  50.63300 25.85600 40.56000
H  48.77600 26.51400 39.37000
H  47.75600 25.83500 40.56500
H  53.98700 18.47200 41.71500
H  52.52600 19.29900 42.02400
H  53.27300 18.37500 43.36100
H  58.49400 20.31000 43.50800
H  58.31800 18.69800 44.24800
H  57.67000 20.22000 45.01300
H  58.80800 24.51300 44.56800
H  57.84300 25.74600 47.03000
H  59.54400 22.91200 46.00900
H  57.88900 22.72300 46.70800
H  59.09100 23.91900 47.26700
H  58.15000 27.37800 44.46600
H  59.61300 26.62500 45.05800
H  59.88300 28.57700 46.37700
H  58.35700 28.23100 47.25500
H  58.35500 29.05700 45.74200
H  53.41300 29.59300 47.27700
H  53.10000 30.54200 45.75600
H  54.71600 29.90400 46.10600
H  49.34500 27.00800 44.31900
H  47.50700 27.82400 40.66400
H  47.88300 29.54400 41.16800
H  46.36000 28.64000 41.71400

