158

Mg 24.23700 -7.30400 47.04100
C  26.77300 -5.20900 46.11000
C  22.04400 -5.57300 44.93800
C  22.00300 -9.79000 47.41900
C  26.64400 -9.28600 48.76700
N  24.41800 -5.52100 45.63200
C  25.57700 -4.89000 45.38100
C  25.36000 -3.74400 44.34300
C  23.82200 -3.73100 44.18900
C  23.38000 -5.02200 44.97400
C  23.06300 -2.41700 44.67300
C  26.22300 -3.98200 43.13200
C  26.71700 -2.60900 42.54900
H  25.89400 -2.00900 41.42100
N  22.25600 -7.58600 46.41200
C  21.59600 -6.76300 45.53300
C  20.24800 -7.26000 45.46000
C  20.13700 -8.44000 46.30800
C  21.49100 -8.64700 46.77000
C  19.16400 -6.51400 44.62700
C  18.87800 -9.16600 46.62600
O  17.74400 -8.77300 46.21700
C  18.87600 -10.38100 47.58400
N  24.30800 -9.27300 48.08400
C  23.21300 -10.02900 48.14300
C  23.50700 -11.27000 48.98300
C  24.93000 -11.08000 49.45200
C  25.34200 -9.82000 48.72400
C  22.44000 -11.70400 50.13500
C  25.87800 -12.21000 49.12700
C  26.32500 -13.01600 50.30800
N  26.32200 -7.26700 47.40800
C  27.15400 -8.08600 48.13400
C  28.50100 -7.55800 48.11600
C  28.41400 -6.35800 47.37300
C  27.06200 -6.31400 46.97800
C  29.72200 -8.18200 48.67700
C  29.07400 -5.22500 46.82300
O  30.18800 -4.76900 47.00300
C  28.04200 -4.51200 45.93900
C  28.08800 -3.02800 46.24600
O  27.73800 -2.53400 47.34300
O  28.64000 -2.37600 45.19200
C  28.82300 -0.91500 45.50900
H  21.30300 -4.98200 44.39600
H  21.36900 -10.65500 47.62700
H  27.39100 -9.82100 49.35800
H  25.68700 -2.84200 44.86000
H  23.66600 -3.86100 43.11800
H  23.76900 -1.87400 45.30300
H  22.20600 -2.64200 45.30800
H  22.79500 -1.86900 43.77000
H  25.72500 -4.43400 42.27400
H  27.05100 -4.65200 43.36300
H  27.76800 -2.70300 42.27500
H  26.65100 -1.90900 43.38200
H  18.30300 -7.15200 44.42700
H  19.52800 -6.10200 43.68500
H  18.93000 -5.68500 45.29500
H  17.83100 -10.68600 47.63700
H  19.19100 -10.18700 48.61000
H  19.44600 -11.22200 47.19000
H  23.46600 -12.05300 48.22500
H  25.11000 -10.92000 50.51500
H  22.64300 -11.12300 51.03500
H  22.77100 -12.73300 50.27400
H  21.41500 -11.62400 49.77200
H  26.79500 -11.87100 48.64300
H  25.34300 -12.88300 48.45700
H  27.19700 -12.58700 50.80000
H  26.56800 -14.01400 49.94300
H  25.58900 -13.09800 51.10800
H  29.87200 -9.18500 48.27700
H  29.64500 -8.26900 49.76100
H  30.58700 -7.57900 48.39800
H  28.38800 -4.67600 44.91900
H  27.92900 -0.30300 45.40000
H  29.46000 -0.42900 44.77000
H  29.17800 -0.73800 46.52500
Mg 42.55300 41.69000 25.41800
C  42.08400 44.34100 27.67800
C  43.94900 39.89500 28.07800
C  43.58900 39.41100 23.32400
C  41.97800 43.96000 22.79800
N  42.92700 42.10200 27.65300
C  42.67500 43.29700 28.32800
C  42.91400 43.06800 29.86300
C  43.56500 41.62800 29.95100
C  43.56200 41.21900 28.48800
C  44.91800 41.63800 30.67900
C  41.63600 43.27400 30.74500
C  41.55900 42.64600 32.22200
H  41.42300 43.57300 33.44400
N  43.39400 39.76800 25.63200
C  43.88600 39.22400 26.78900
C  44.13900 37.85600 26.52300
C  44.06500 37.55400 25.12200
C  43.64500 38.91200 24.62100
C  44.62300 36.84300 27.59000
C  44.37300 36.36900 24.28700
O  44.33700 36.27200 23.09100
C  44.95900 35.20800 24.90500
N  42.64600 41.64100 23.34900
C  43.15500 40.54600 22.73200
C  43.18100 40.71500 21.22500
C  42.58300 42.16400 21.03000
C  42.37200 42.65900 22.46100
C  44.60800 40.49900 20.59600
C  41.29800 42.10100 20.29800
C  39.97000 42.05500 21.03400
N  42.07900 43.75900 25.22700
C  41.83900 44.51200 24.10000
C  41.40000 45.78000 24.51600
C  41.47000 45.82600 25.95800
C  41.87900 44.49600 26.31400
C  40.90000 46.81600 23.65400
C  41.29900 46.54900 27.17400
O  41.01600 47.71000 27.32800
C  41.55500 45.57900 28.28800
C  42.66200 46.15200 29.25800
O  43.83800 46.17000 28.97000
O  42.11700 46.74600 30.36900
C  43.03400 47.31000 31.36400
H  44.44800 39.42500 28.92800
H  44.11200 38.88300 22.52400
H  41.63400 44.63000 22.00700
H  43.56400 43.86900 30.21600
H  42.84200 40.97100 30.43500
H  45.05900 42.44500 31.39900
H  45.74000 41.75400 29.97300
H  44.98000 40.62000 31.06300
H  40.83400 42.99200 30.06200
H  41.47600 44.33900 30.91100
H  42.28200 41.85700 32.42700
H  40.62000 42.10900 32.08700
H  45.68700 36.74900 27.37400
H  44.14000 35.86700 27.54200
H  44.48500 37.08200 28.64500
H  45.03700 34.44200 24.13300
H  44.32700 34.80800 25.69800
H  45.97300 35.43300 25.23600
H  42.44600 39.98000 20.89800
H  43.35500 42.76700 20.55300
H  44.83200 41.26800 19.85700
H  44.54600 39.52200 20.11600
H  45.44200 40.52200 21.29800
H  41.26100 41.28700 19.57400
H  41.32400 42.97100 19.64300
H  39.94700 42.18800 22.11600
H  39.50300 41.07200 20.98400
H  39.19100 42.73600 20.69200
H  39.84500 46.54600 23.60200
H  41.26300 46.74500 22.62900
H  40.93000 47.84300 24.01900
H  40.65500 45.47500 28.89400
H  43.76800 46.55000 31.63100
H  42.54500 47.67800 32.26500
H  43.67000 48.07100 30.91200

