158

Mg 16.70300 52.17000 25.78900
C  18.30600 50.70000 28.42400
C  14.36600 53.49400 27.86700
C  14.98600 53.51500 23.07100
C  19.18900 51.04700 23.47200
N  16.48900 52.25700 27.90900
C  17.23600 51.51000 28.83900
C  16.73300 51.82400 30.29300
C  15.35800 52.46100 30.07100
C  15.37500 52.74500 28.53200
C  14.15200 51.47200 30.46200
C  17.75200 52.74600 31.01200
C  18.31700 52.15200 32.31500
H  17.83300 52.87700 33.55300
N  14.93200 53.29000 25.49300
C  14.15400 53.69600 26.47400
C  13.01300 54.44600 25.89800
C  13.06100 54.41300 24.55700
C  14.30600 53.67400 24.26800
C  11.97100 55.08600 26.83900
C  12.15900 54.97300 23.49400
O  12.37100 54.85200 22.31600
C  10.84000 55.63400 23.90800
N  16.95900 52.11300 23.54900
C  16.14400 52.83400 22.68400
C  16.70900 52.73000 21.23100
C  18.15800 52.20700 21.45800
C  18.14500 51.79400 22.92800
C  15.82100 51.92100 20.26300
C  19.40600 53.09300 21.03400
C  20.59800 52.30400 20.62900
N  18.41700 51.05400 25.89300
C  19.29100 50.66100 24.90900
C  20.28900 49.78000 25.59100
C  19.93600 49.80200 26.96600
C  18.80300 50.59800 27.07800
C  21.38100 49.14100 24.90100
C  20.41700 49.39700 28.20600
O  21.45900 48.87800 28.59300
C  19.41900 50.02000 29.28200
C  19.03100 48.96400 30.25700
O  18.05200 48.25000 30.10300
O  19.84000 49.00200 31.34400
C  19.40500 48.25000 32.49900
H  13.56700 53.79500 28.54800
H  14.49200 53.96100 22.20500
H  19.96100 50.71100 22.77600
H  16.64600 50.89900 30.86400
H  15.21100 53.35100 30.68300
H  13.53300 52.18000 31.01300
H  14.44800 50.60800 31.05800
H  13.65200 51.23300 29.52400
H  17.29000 53.72100 31.16400
H  18.63400 52.95400 30.40600
H  19.40700 52.13600 32.27600
H  18.00600 51.16200 32.65000
H  11.94800 56.14300 26.57200
H  12.18500 55.08900 27.90700
H  10.98400 54.62500 26.79400
H  10.18600 54.99600 24.50300
H  10.33300 55.95100 22.99700
H  10.97000 56.51700 24.53400
H  16.68900 53.77900 20.93600
H  18.40600 51.29100 20.92200
H  16.45600 51.05500 20.08100
H  15.62200 52.38200 19.29500
H  14.84200 51.69600 20.68600
H  19.69400 53.59800 21.95600
H  19.19800 53.87900 20.30800
H  21.25900 52.34600 21.49400
H  21.05400 52.82400 19.78600
H  20.35100 51.30500 20.26900
H  21.16600 49.16600 23.83200
H  21.38900 48.07700 25.13600
H  22.34400 49.57400 25.17100
H  20.02100 50.75000 29.82300
H  18.56500 48.79400 32.93200
H  20.17200 48.09700 33.25700
H  19.01900 47.24000 32.35700
Mg -9.94900 39.16000 39.63000
C  -8.53900 36.07900 39.38100
C  -6.73300 40.38200 38.57600
C  -11.39900 42.13800 38.77900
C  -13.03400 37.82400 40.05700
N  -7.75000 38.38900 39.24400
C  -7.54700 37.06100 39.09400
C  -6.02200 36.77300 38.70600
C  -5.45200 38.19700 38.94200
C  -6.69800 39.05200 38.92100
C  -4.61800 38.31400 40.30500
C  -5.87000 36.01100 37.37000
C  -5.16700 36.72600 36.22200
H  -5.65600 36.33400 34.76500
N  -9.20600 41.01200 38.91800
C  -7.87100 41.24700 38.47300
C  -7.79100 42.67600 38.10100
C  -9.09200 43.21400 38.15600
C  -9.98700 42.11400 38.57600
C  -6.52000 43.40400 37.71600
C  -9.42800 44.59800 37.60000
O  -8.61100 45.36100 37.15000
C  -10.86600 45.03700 37.55200
N  -11.97800 39.90200 39.27900
C  -12.29200 41.18500 39.13000
C  -13.84200 41.35800 39.08500
C  -14.32500 39.92800 39.50400
C  -13.06800 39.11800 39.60700
C  -14.43800 42.57800 39.88400
C  -15.45600 39.39700 38.63100
C  -15.12200 38.95500 37.23100
N  -10.64600 37.38400 39.83100
C  -11.91300 36.96000 40.17100
C  -11.81300 35.55700 40.45200
C  -10.56100 35.16600 39.99500
C  -9.85100 36.27700 39.67100
C  -12.92500 34.62300 40.86900
C  -9.74200 33.98000 39.70600
O  -9.92600 32.79700 39.74900
C  -8.38300 34.52800 39.21900
C  -7.36700 33.69800 39.99400
O  -7.27100 33.57600 41.20400
O  -6.60100 33.01500 39.09400
C  -5.53200 32.31400 39.70300
H  -5.80600 40.82900 38.21000
H  -12.00000 43.03900 38.63900
H  -13.98200 37.33700 40.29600
H  -5.51500 36.16900 39.45900
H  -4.75700 38.58100 38.19500
H  -4.25400 37.40500 40.78300
H  -5.28200 38.65000 41.10100
H  -3.75400 38.96500 40.16800
H  -6.84900 35.69600 37.01000
H  -5.31300 35.09200 37.55000
H  -4.10900 36.49800 36.35100
H  -5.38400 37.79300 36.27200
H  -6.33100 43.22200 36.65800
H  -5.66700 43.06200 38.30200
H  -6.55100 44.49300 37.73100
H  -11.26100 45.02100 38.56700
H  -11.44400 44.35100 36.93200
H  -10.95300 46.05200 37.16400
H  -13.95600 41.56100 38.02000
H  -14.81000 39.98600 40.47900
H  -15.10100 42.19000 40.65700
H  -15.10600 43.17000 39.25900
H  -13.68300 43.21000 40.35200
H  -16.25700 40.13100 38.53900
H  -15.89400 38.52700 39.12100
H  -15.59300 39.71600 36.61000
H  -15.51600 37.95300 37.06100
H  -14.08600 38.76300 36.94900
H  -12.67600 33.60300 40.57400
H  -13.84100 34.80400 40.30700
H  -13.24100 34.74000 41.90500
H  -8.37700 34.42100 38.13500
H  -5.93700 31.57700 40.39700
H  -4.83400 32.89600 40.30500
H  -4.86000 31.77700 39.03300

