158

Mg 41.64800 40.51300 26.74800
C  41.04700 42.84300 29.15500
C  42.44700 38.21400 29.13100
C  42.25900 38.33800 24.19800
C  40.67400 42.85700 24.31200
N  41.97600 40.60600 28.90300
C  41.53100 41.63100 29.70900
C  41.51000 41.27100 31.20400
C  41.95300 39.72600 31.12700
C  42.15100 39.48900 29.62900
C  43.20800 39.40200 32.00500
C  40.14700 41.41900 31.89600
C  39.83200 40.66500 33.20600
H  39.28100 41.42800 34.43700
N  42.38200 38.61600 26.70200
C  42.68200 37.80900 27.78800
C  43.17800 36.49100 27.33000
C  43.12600 36.47200 25.90300
C  42.55700 37.87100 25.53100
C  43.55500 35.43500 28.29500
C  43.51800 35.29000 24.98300
O  43.20100 35.22300 23.79900
C  44.24500 34.15800 25.57900
N  41.65200 40.64000 24.53100
C  41.74900 39.57400 23.79400
C  41.58000 39.88600 22.28500
C  40.83000 41.27200 22.31800
C  41.09000 41.63500 23.81700
C  42.90900 39.83600 21.40800
C  39.43800 41.33800 21.83100
C  38.32300 40.71100 22.69600
N  41.04300 42.43300 26.65000
C  40.67700 43.31800 25.59400
C  40.36600 44.61800 26.15800
C  40.50300 44.45600 27.51600
C  40.87500 43.13100 27.79300
C  39.99700 45.88800 25.41000
C  40.39100 45.15600 28.76100
O  40.04600 46.30700 29.01800
C  40.59000 44.09100 29.89900
C  41.58100 44.52000 30.93600
O  42.76400 44.66200 30.64500
O  41.02500 44.72300 32.21500
C  42.00600 45.17400 33.30200
H  42.72400 37.47400 29.88500
H  42.41800 37.49600 23.52200
H  40.21600 43.52000 23.57500
H  42.14600 41.83800 31.88300
H  41.08800 39.12000 31.39300
H  42.89400 39.06500 32.99300
H  43.83900 40.28500 32.10300
H  43.83900 38.59900 31.62600
H  39.38700 41.35100 31.11800
H  40.22300 42.47300 32.16500
H  40.61000 39.96300 33.50900
H  39.08800 39.89100 33.01600
H  42.77800 34.67100 28.30500
H  43.58000 35.81300 29.31800
H  44.47200 34.93400 27.98500
H  43.74900 33.59500 26.37100
H  45.17500 34.52900 26.01000
H  44.51300 33.30000 24.96200
H  40.94900 39.11700 21.84000
H  41.38700 41.93600 21.65700
H  42.98000 38.92500 20.81500
H  43.81000 39.96900 22.00600
H  42.93700 40.68600 20.72500
H  39.40000 40.73700 20.92200
H  39.25500 42.40600 21.71300
H  38.61700 40.29100 23.65800
H  37.67800 40.08400 22.08100
H  37.61200 41.51200 22.89700
H  39.62900 45.68000 24.40500
H  40.85300 46.56200 25.39300
H  39.25800 46.44000 25.99000
H  39.64300 43.95900 30.42100
H  41.63600 46.01500 33.88900
H  42.99200 45.50500 32.97400
H  42.14500 44.36200 34.01500
Mg 26.30600 50.54900 25.88100
C  24.26700 51.67300 28.46200
C  28.65100 49.72600 28.16600
C  28.04200 49.16500 23.43300
C  23.75200 51.60900 23.62100
N  26.43000 50.62700 28.03200
C  25.49300 51.08900 28.92500
C  25.94000 50.97300 30.45600
C  27.48100 50.56200 30.27600
C  27.57500 50.29400 28.74900
C  28.43900 51.67100 30.71800
C  25.12500 49.90800 31.15900
C  24.37800 50.32400 32.47600
H  25.09800 50.77500 33.73600
N  28.13100 49.59800 25.81500
C  28.91600 49.33600 26.83000
C  30.15100 48.68400 26.38600
C  29.89700 48.27300 25.00300
C  28.59300 48.94400 24.67800
C  31.29300 48.44100 27.29400
C  30.73500 47.45000 24.12600
O  30.42900 47.28900 22.92300
C  31.84500 46.68900 24.59700
N  26.03500 50.60400 23.82300
C  26.88600 49.84200 23.04100
C  26.46200 49.85800 21.60000
C  24.95100 50.34600 21.75800
C  24.90900 50.89700 23.14400
C  27.34100 50.75100 20.64900
C  23.80800 49.32800 21.45800
C  24.15800 47.85900 21.66300
N  24.51700 51.62600 25.95500
C  23.62600 52.00400 24.95400
C  22.58300 52.78100 25.53200
C  22.70400 52.66200 26.91200
C  23.92900 51.91600 27.12100
C  21.58700 53.51800 24.74100
C  22.12700 53.00100 28.18300
O  21.07500 53.51000 28.54100
C  23.12000 52.32500 29.26600
C  23.52800 53.51700 30.04600
O  24.43900 54.32000 29.83500
O  22.73500 53.48300 31.16700
C  23.27900 54.31400 32.22000
H  29.32300 49.44900 28.98100
H  28.51500 48.74100 22.54500
H  22.91500 51.86100 22.96700
H  25.79500 52.00700 30.76600
H  27.84100 49.69200 30.82700
H  28.02400 52.64800 30.96400
H  29.09900 51.79500 29.85900
H  29.07200 51.25400 31.50200
H  25.74700 49.09800 31.54000
H  24.43600 49.51300 30.41300
H  23.79600 49.42800 32.69100
H  23.54700 50.99600 32.26000
H  31.17000 47.57500 27.94400
H  31.42900 49.37000 27.84800
H  32.22000 48.20900 26.76900
H  32.67400 47.38400 24.73100
H  31.99700 45.95500 23.80600
H  31.48800 46.22800 25.51800
H  26.38100 48.86800 21.15100
H  24.78200 51.12800 21.01800
H  27.55300 50.26500 19.69700
H  28.25600 51.03700 21.16700
H  26.83700 51.68700 20.40800
H  23.48100 49.61200 20.45800
H  23.02700 49.56200 22.18200
H  24.85700 47.78100 22.49600
H  24.55700 47.27800 20.83200
H  23.18200 47.44200 21.91100
H  20.80400 53.90900 25.39000
H  21.07900 52.84700 24.04800
H  22.02400 54.32800 24.15800
H  22.71200 51.60300 29.97400
H  23.69300 55.22600 31.79000
H  24.07300 53.86700 32.81700
H  22.44600 54.60900 32.85900

