158

Mg 46.75400 25.76400 27.72300
C  47.95600 27.94800 30.34600
C  45.82400 23.40500 30.12400
C  46.04700 23.71100 25.20500
C  48.41200 27.91700 25.43300
N  46.93400 25.69500 29.90200
C  47.30600 26.69700 30.80800
C  46.89100 26.35800 32.24500
C  46.31600 24.92600 32.15200
C  46.28400 24.60900 30.63900
C  46.78300 23.82300 33.09100
C  46.05700 27.45200 33.05700
C  46.75900 27.96300 34.35800
H  45.76400 28.29200 35.54400
N  45.84600 23.86300 27.65000
C  45.74500 23.01700 28.74900
C  45.46900 21.66600 28.23300
C  45.34700 21.77900 26.81000
C  45.75300 23.17300 26.48300
C  45.18000 20.52000 29.20400
C  44.93100 20.78400 25.78800
O  44.98600 20.86600 24.55200
C  44.63300 19.36100 26.24300
N  47.08900 25.79800 25.63200
C  46.54800 24.91100 24.79500
C  46.82800 25.21300 23.29700
C  47.62100 26.54700 23.31500
C  47.62700 26.83600 24.87100
C  47.75300 24.13200 22.68200
C  46.95800 27.78600 22.60800
C  47.90100 28.60900 21.65500
N  47.82000 27.57300 27.84100
C  48.40900 28.34300 26.81900
C  49.13200 29.49700 27.37700
C  48.95100 29.37200 28.72400
C  48.13200 28.25400 28.98500
C  49.97000 30.43300 26.70000
C  49.42700 29.95500 30.03800
O  50.13500 30.86400 30.39000
C  48.67500 29.09800 31.12000
C  49.76400 28.53500 31.99500
O  50.62000 27.78300 31.66000
O  49.75500 29.22700 33.22900
C  50.86900 29.10100 34.15800
H  45.47300 22.63200 30.81200
H  45.73100 23.14200 24.32900
H  48.97100 28.62600 24.81800
H  47.88500 26.16400 32.64900
H  45.27300 25.14300 32.38400
H  45.95000 23.56400 33.74400
H  47.58900 24.09700 33.77300
H  47.00500 22.88100 32.59100
H  45.14400 26.99500 33.44100
H  45.95800 28.34000 32.43300
H  47.29600 28.87000 34.07900
H  47.52800 27.25800 34.67100
H  45.57700 19.52200 29.01500
H  44.09800 20.45200 29.31700
H  45.48300 20.76200 30.22200
H  45.53300 18.90400 26.65200
H  44.35900 18.70700 25.41500
H  43.95000 19.26400 27.08700
H  45.88000 25.18600 22.76100
H  48.68200 26.50200 23.06700
H  48.56000 23.71800 23.28600
H  48.19400 24.45600 21.73900
H  47.25600 23.17400 22.53000
H  46.53600 28.43800 23.37200
H  46.13400 27.29700 22.08900
H  47.78400 28.24500 20.63400
H  48.97800 28.51700 21.80000
H  47.63200 29.66600 21.65700
H  49.66400 30.46300 25.65400
H  51.01100 30.20600 26.92800
H  49.76800 31.41700 27.12200
H  47.89800 29.74600 31.52400
H  51.03600 30.09400 34.57500
H  51.80500 28.67200 33.80200
H  50.64700 28.55900 35.07800
Mg 48.03200 35.85900 27.89200
C  46.16300 33.90500 30.16900
C  48.29800 38.18400 30.29100
C  49.56900 37.66100 25.43100
C  47.46300 33.35200 25.42400
N  47.29700 36.02300 29.99100
C  46.65200 35.09600 30.76700
C  46.75600 35.45400 32.31500
C  47.13300 36.95500 32.19300
C  47.50300 37.12800 30.65400
C  46.15300 37.97700 32.71800
C  47.85800 34.53500 33.03000
C  48.00600 34.86200 34.45600
H  46.96700 35.56300 35.20500
N  48.75000 37.71200 27.85100
C  48.93000 38.51700 28.95700
C  49.71700 39.69700 28.58800
C  50.01200 39.55200 27.18600
C  49.45900 38.24200 26.75900
C  50.13500 40.68900 29.64200
C  50.67400 40.56700 26.21300
O  50.68800 40.44800 24.96500
C  51.31100 41.81100 26.83200
N  48.21200 35.63400 25.62600
C  48.92900 36.50800 24.89500
C  49.17300 36.06100 23.45600
C  48.64200 34.59500 23.47300
C  48.03700 34.54700 24.87800
C  48.44900 36.86700 22.32900
C  49.74700 33.45000 23.22700
C  49.31800 32.47700 22.06600
N  47.05600 33.95200 27.78300
C  46.88900 33.07300 26.70700
C  46.21800 31.91900 27.18800
C  45.81300 32.26100 28.48800
C  46.36100 33.48500 28.83400
C  45.77000 30.77100 26.33900
C  45.02600 31.79300 29.62200
O  44.43900 30.70900 29.77400
C  45.14100 32.89800 30.76900
C  45.32000 32.33200 32.12500
O  45.95600 31.35500 32.52200
O  44.52300 33.07600 32.93200
C  44.43100 32.73700 34.31600
H  48.28300 39.01500 30.99900
H  50.21300 38.15600 24.70200
H  47.48400 32.53600 24.70000
H  45.74800 35.40500 32.72800
H  48.03500 37.07100 32.79300
H  46.64100 38.71900 33.35000
H  45.35100 37.59400 33.34900
H  45.59900 38.49800 31.93800
H  48.78700 34.70300 32.48500
H  47.69300 33.46200 32.93400
H  48.90100 35.48000 34.52700
H  48.15000 33.89300 34.93400
H  51.20900 40.55200 29.76900
H  49.68800 40.44200 30.60500
H  49.80600 41.69300 29.37300
H  51.55700 41.88900 27.89100
H  50.78300 42.65700 26.39200
H  52.33200 41.88000 26.45800
H  50.23200 36.02500 23.19700
H  47.86800 34.52100 22.70900
H  49.16000 37.59100 21.93100
H  47.58300 37.42900 22.68100
H  48.16600 36.26300 21.46700
H  49.93200 32.87800 24.13600
H  50.62000 34.00900 22.89200
H  49.95900 32.46400 21.18500
H  48.30900 32.74800 21.75400
H  49.41000 31.43900 22.38800
H  46.71300 30.58700 25.82600
H  44.98300 30.93900 25.60300
H  45.46900 29.95600 26.99700
H  44.14400 33.33800 30.76100
H  43.75200 33.40800 34.84200
H  45.44900 32.70700 34.70400
H  43.96900 31.75500 34.42800

