158

Mg 16.75000 -1.66000 27.73500
C  15.50100 0.39100 30.41300
C  18.53900 -3.41900 30.02200
C  18.44900 -3.32300 25.07500
C  15.05800 0.21200 25.51300
N  16.92800 -1.53800 29.96300
C  16.39100 -0.63200 30.83100
C  16.90900 -0.80100 32.27900
C  17.92500 -2.02100 32.09100
C  17.81100 -2.37200 30.60600
C  19.40600 -1.90800 32.59700
C  15.62400 -1.04200 33.17200
C  15.76000 -0.58100 34.72700
H  17.16200 -0.22200 35.28300
N  18.21000 -3.15900 27.57500
C  18.81300 -3.74200 28.63200
C  19.71500 -4.80500 28.20000
C  19.60700 -4.84600 26.76300
C  18.71400 -3.78200 26.41800
C  20.61200 -5.57700 29.18200
C  20.17500 -5.86500 25.76900
O  19.92400 -5.82700 24.59600
C  21.20400 -6.97000 26.20200
N  16.85200 -1.58900 25.57000
C  17.54400 -2.26500 24.71300
C  17.37600 -1.72400 23.19500
C  16.24500 -0.66000 23.44700
C  16.00200 -0.67500 24.95000
C  18.69500 -1.16200 22.62200
C  14.95800 -0.89600 22.56900
C  14.42900 0.35400 21.97600
N  15.57500 -0.04000 27.90400
C  14.85800 0.61900 26.87000
C  14.04000 1.73400 27.39700
C  14.26800 1.67300 28.78200
C  15.17500 0.56900 29.02300
C  13.20800 2.61000 26.55900
C  13.90900 2.33000 30.04900
O  13.21600 3.31500 30.30700
C  14.69400 1.54500 31.16400
C  15.58400 2.47700 31.96800
O  16.78500 2.73200 31.75300
O  14.85400 3.00900 32.97700
C  15.73200 3.62300 34.03500
H  19.21800 -3.83200 30.77100
H  18.96800 -3.79100 24.23500
H  14.48700 0.76600 24.76500
H  17.42700 0.02700 32.76300
H  17.46500 -2.88000 32.58200
H  19.48900 -0.98400 33.16900
H  20.12200 -1.77600 31.78500
H  19.65100 -2.81800 33.14400
H  15.38400 -2.10100 33.07400
H  14.80500 -0.51700 32.67900
H  15.44200 -1.38700 35.38900
H  15.02000 0.19800 34.90700
H  20.52000 -6.64000 28.95900
H  20.37500 -5.30300 30.21000
H  21.64200 -5.26000 29.01600
H  20.68600 -7.84200 26.60100
H  21.81200 -6.44800 26.94100
H  21.85500 -7.18200 25.35400
H  17.00600 -2.55200 22.58900
H  16.57300 0.37500 23.35000
H  18.39400 -0.51200 21.80100
H  19.28000 -1.93900 22.12900
H  19.20700 -0.44600 23.26500
H  14.19200 -1.24700 23.26000
H  15.22500 -1.66000 21.83900
H  14.30300 0.20400 20.90400
H  15.04700 1.22900 22.18000
H  13.45200 0.60200 22.39000
H  13.74700 3.54900 26.43600
H  12.28500 2.94800 27.03200
H  13.02400 2.21800 25.55900
H  13.96100 1.20700 31.89700
H  15.24100 3.66500 35.00700
H  16.04300 4.59900 33.66100
H  16.53700 2.92300 34.26000
Mg 48.90000 45.14800 42.91600
C  45.45200 45.49000 41.91400
C  48.62300 41.82800 42.07600
C  52.12000 45.11400 42.81900
C  48.71300 48.59200 43.56500
N  47.31300 43.95500 41.83300
C  46.00900 44.25400 41.62500
C  45.20900 43.07500 41.21000
C  46.06300 41.95800 41.83400
C  47.43900 42.58100 41.93300
C  45.51000 41.41000 43.13100
C  44.93500 42.95300 39.68400
C  45.60500 43.97800 38.74600
H  45.21300 43.91400 37.29800
N  50.24600 43.59900 42.58700
C  49.94200 42.29500 42.29000
C  51.11800 41.56000 42.53900
C  52.16900 42.46100 42.63700
C  51.55700 43.79400 42.67000
C  51.22900 40.06900 42.45200
C  53.63500 42.03000 42.85400
O  54.01300 40.90200 42.65600
C  54.71200 43.07200 43.22400
N  50.21500 46.68100 42.95600
C  51.56000 46.39200 43.04800
C  52.36900 47.77000 43.22800
C  51.23600 48.73200 43.63900
C  49.96500 47.96900 43.41500
C  53.45200 47.59000 44.31600
C  51.22800 50.18400 42.99400
C  51.45700 51.30800 43.92100
N  47.35700 46.71300 42.98200
C  47.51300 48.08100 43.25000
C  46.19500 48.72800 43.15600
C  45.40300 47.73500 42.61100
C  46.11900 46.55300 42.49400
C  45.92400 50.22400 43.21800
C  44.06500 47.49500 42.07700
O  43.13700 48.25200 41.93500
C  44.11800 46.03800 41.51800
C  42.94100 45.33400 42.12600
O  42.13000 44.78100 41.38300
O  42.74400 45.50300 43.46300
C  41.46300 44.88700 43.88500
H  48.41500 40.76300 41.95400
H  53.20600 45.21800 42.87500
H  48.66600 49.59900 43.98400
H  44.22700 43.01200 41.68000
H  46.13300 41.09800 41.16800
H  45.22900 40.36700 42.98700
H  44.66200 41.93900 43.56700
H  46.29300 41.47600 43.88700
H  43.87900 43.17500 39.53400
H  45.14000 41.92900 39.37000
H  46.69400 44.01600 38.74800
H  45.33100 44.95600 39.14200
H  51.80100 39.81300 41.56000
H  50.26900 39.60000 42.23700
H  51.68200 39.77200 43.39900
H  55.58500 42.49900 43.53700
H  54.17300 43.60700 44.00600
H  54.94700 43.73200 42.38900
H  52.68500 47.99700 42.21000
H  51.30400 48.88500 44.71600
H  53.73400 48.51200 44.82500
H  54.40300 47.26300 43.89500
H  53.15600 46.81400 45.02100
H  50.21700 50.26700 42.59700
H  51.81900 50.17700 42.07900
H  51.70700 52.19500 43.34000
H  52.28200 51.08000 44.59700
H  50.63700 51.54500 44.59800
H  46.54900 50.85500 42.58500
H  45.91800 50.53800 44.26200
H  44.90300 50.40900 42.88400
H  43.98400 45.96200 40.43900
H  40.66800 45.20600 43.21100
H  41.17300 45.22600 44.87900
H  41.63500 43.81100 43.90300

