158

Mg 26.84000 49.15700 26.31500
C  25.08000 50.98600 28.82400
C  28.88400 47.96300 28.74700
C  28.91500 48.28700 23.90000
C  24.97300 50.87600 24.06400
N  26.85100 49.28700 28.60600
C  25.98700 50.05800 29.35500
C  26.21600 49.78200 30.89500
C  27.64200 49.00100 30.81600
C  27.80600 48.71900 29.34400
C  28.86500 49.84500 31.37900
C  25.01600 49.03000 31.40800
C  24.54100 49.52500 32.83700
H  24.21600 48.52100 33.96000
N  28.57500 48.15500 26.38500
C  29.22600 47.64400 27.45100
C  30.44100 46.95800 27.01500
C  30.49900 47.18000 25.58100
C  29.28600 47.92900 25.21700
C  31.38900 46.27900 27.91400
C  31.64400 46.72700 24.68900
O  31.60500 47.02100 23.49500
C  32.87100 45.93900 25.26600
N  26.98600 49.69900 24.24100
C  27.82100 48.97300 23.41500
C  27.46900 49.15300 21.89500
C  26.03700 49.92000 22.02000
C  25.92800 50.07800 23.52900
C  28.46600 49.78300 20.90300
C  24.79400 49.16200 21.45900
C  24.33500 47.88600 22.23800
N  25.25000 50.64900 26.36600
C  24.64000 51.25200 25.33900
C  23.55500 52.13500 25.86700
C  23.70300 52.00000 27.22800
C  24.81100 51.17500 27.43900
C  22.64800 52.93000 24.95600
C  23.15200 52.46400 28.55600
O  22.14400 53.16600 28.92800
C  24.03500 51.83800 29.62100
C  24.56600 52.89400 30.55300
O  25.24100 53.86800 30.27900
O  23.83600 52.79100 31.74000
C  23.70500 53.87000 32.74700
H  29.54400 47.50300 29.48600
H  29.61200 47.82300 23.19900
H  24.39900 51.36000 23.27000
H  26.36700 50.64800 31.54000
H  27.74500 48.06100 31.35900
H  28.55200 50.81300 31.77000
H  29.58300 50.04200 30.58400
H  29.31200 49.19500 32.13200
H  25.31100 47.99200 31.55900
H  24.21300 49.06800 30.67200
H  23.53700 49.90700 32.65100
H  25.22300 50.27600 33.23400
H  31.46300 45.25500 27.55000
H  30.95300 46.28900 28.91300
H  32.31300 46.82700 28.10300
H  33.43000 46.53000 25.99000
H  33.52100 45.72200 24.41800
H  32.40900 45.06800 25.73000
H  27.39500 48.13500 21.51300
H  26.20200 50.89700 21.56700
H  29.26700 50.30000 21.43100
H  27.86400 50.57200 20.45400
H  28.83800 49.08500 20.15200
H  24.99700 48.85400 20.43300
H  23.90200 49.78000 21.35100
H  24.56100 47.08400 21.53600
H  23.25100 47.98700 22.28500
H  24.96000 47.68500 23.10900
H  21.98600 53.46500 25.63700
H  22.00000 52.25800 24.39300
H  23.24100 53.57500 24.30700
H  23.54300 51.04900 30.19000
H  24.19600 53.44100 33.62000
H  22.68700 54.08200 33.07600
H  24.22900 54.74200 32.35600
Mg 5.43600 54.15900 40.10500
C  4.61700 50.65800 40.13700
C  8.56600 53.21100 39.05700
C  6.04400 57.31800 39.43300
C  2.05600 54.93400 40.54600
N  6.37300 52.12500 39.45400
C  5.88300 50.87900 39.57000
C  6.95900 49.82700 39.22000
C  8.24500 50.72700 39.38400
C  7.69900 52.15500 39.32500
C  9.20300 50.61300 40.66300
C  6.79300 49.13300 37.87800
C  6.27500 49.84500 36.64600
H  7.12900 50.95200 36.05900
N  7.08200 55.09100 39.23100
C  8.30900 54.60700 39.03200
C  9.23500 55.68200 38.82400
C  8.55500 56.93000 38.79500
C  7.15600 56.49700 39.14800
C  10.76300 55.34700 38.64100
C  9.17200 58.33000 38.59000
O  10.38500 58.49800 38.44700
C  8.26800 59.54200 38.29800
N  4.24300 55.80300 39.94500
C  4.80800 57.06000 39.84700
C  3.76100 58.17700 40.14900
C  2.43800 57.37300 40.28400
C  2.96100 55.94200 40.23100
C  4.01200 59.04200 41.39900
C  1.37600 57.64700 39.23200
C  -0.01700 58.03200 39.86400
N  3.69700 53.04100 40.42800
C  2.41600 53.52400 40.70800
C  1.63200 52.34900 41.04200
C  2.41500 51.18900 40.91500
C  3.65400 51.69900 40.44500
C  0.18100 52.34400 41.36700
C  2.48400 49.81500 41.05000
O  1.61500 49.00300 41.38500
C  3.98200 49.37200 40.64700
C  3.90300 48.33000 39.65500
O  3.86800 48.50400 38.46000
O  4.16500 47.05700 40.14800
C  4.13600 45.88100 39.20700
H  9.59000 52.95400 38.78000
H  6.18900 58.40000 39.39600
H  1.08900 55.16900 40.99700
H  6.96900 49.10200 40.03400
H  8.93500 50.50300 38.57100
H  8.92900 49.72700 41.23600
H  9.04900 51.45600 41.33700
H  10.25200 50.55200 40.37200
H  6.28500 48.20900 38.15400
H  7.77000 48.87100 37.47200
H  5.27300 50.21500 36.86700
H  6.15300 49.06700 35.89200
H  11.17300 56.06700 37.93300
H  10.83600 54.41000 38.08900
H  11.43000 55.20000 39.49000
H  8.76200 60.35500 37.76700
H  7.95600 60.03500 39.21900
H  7.35700 59.25300 37.77400
H  3.76300 58.88700 39.32200
H  2.03900 57.50700 41.29000
H  4.57700 58.37200 42.04800
H  3.06500 59.35900 41.83400
H  4.50700 59.98000 41.14900
H  1.37200 56.87000 38.46800
H  1.69300 58.50600 38.64000
H  0.00400 58.00000 40.95300
H  -0.86700 57.39200 39.62600
H  -0.20000 59.08500 39.65400
H  -0.44000 53.19900 41.09900
H  0.23400 52.32500 42.45600
H  -0.26700 51.42100 41.00000
H  4.47600 48.90000 41.49600
H  3.16800 45.39100 39.09800
H  4.60800 44.98600 39.61200
H  4.47900 46.13200 38.20300

