158

Mg 25.38600 1.08000 29.56100
C  27.39100 1.11900 32.33600
C  22.59100 1.42500 31.68000
C  23.40600 1.18000 26.83300
C  28.10600 0.60000 27.56300
N  25.05700 1.29600 31.79100
C  26.06200 1.31400 32.75100
C  25.39700 1.65500 34.16000
C  23.86000 1.66000 33.85200
C  23.83600 1.50600 32.36800
C  22.90100 0.63300 34.65100
C  25.96400 3.04700 34.75300
C  26.70100 2.89000 36.12400
H  26.15200 3.75000 37.30200
N  23.32500 1.01500 29.30200
C  22.36900 1.15900 30.25400
C  21.03400 1.06600 29.66500
C  21.28300 0.86700 28.26100
C  22.70400 1.03100 28.06100
C  19.78400 1.12600 30.51000
C  20.26300 0.57400 27.22200
O  20.52000 0.33100 26.05900
C  18.82500 0.42300 27.64900
N  25.74500 0.93500 27.46700
C  24.78800 1.09900 26.50300
C  25.27700 1.04700 25.05600
C  26.82000 1.01500 25.34300
C  26.95300 0.94800 26.84600
C  24.74700 -0.06500 24.12200
C  27.71300 2.16800 24.67400
C  27.32400 2.49500 23.20600
N  27.31700 0.76500 29.87700
C  28.33400 0.64900 28.94100
C  29.53400 0.55200 29.69600
C  29.22400 0.71400 31.04200
C  27.84600 0.89800 31.08000
C  30.81400 0.18200 29.10600
C  29.75500 0.77600 32.40300
O  30.87500 0.64000 32.75700
C  28.53600 1.05200 33.24000
C  28.24900 -0.01200 34.29800
O  27.68000 -1.11900 34.12900
O  28.80800 0.37200 35.48200
C  28.63300 -0.54100 36.61500
H  21.71300 1.61000 32.30200
H  22.69000 1.21300 26.00800
H  29.00000 0.57300 26.93800
H  25.55500 0.78900 34.80300
H  23.48800 2.66700 34.03900
H  22.39200 0.00800 33.91700
H  22.15600 1.24000 35.16400
H  23.41000 -0.02800 35.35300
H  25.16000 3.76600 34.90800
H  26.65700 3.50100 34.04500
H  27.68400 3.25600 35.82800
H  26.69900 1.85100 36.45400
H  19.19900 0.20600 30.50500
H  19.23600 1.97200 30.09500
H  20.06000 1.23600 31.55900
H  18.65900 -0.57800 28.04700
H  18.24900 0.32800 26.72800
H  18.51100 1.20300 28.34300
H  24.98800 2.03700 24.70300
H  27.17700 0.06300 24.95100
H  24.01000 -0.75300 24.53500
H  25.54700 -0.66800 23.69400
H  24.29500 0.49800 23.30400
H  28.74000 1.80300 24.69100
H  27.51900 2.98100 25.37400
H  26.72800 3.40200 23.10100
H  26.79500 1.64400 22.77800
H  28.25700 2.64800 22.66400
H  31.58900 0.52500 29.79200
H  30.98600 0.73900 28.18400
H  30.80500 -0.90500 29.02700
H  28.74200 1.99400 33.74900
H  27.57000 -0.54600 36.85500
H  29.21500 -0.13600 37.44300
H  29.07800 -1.52900 36.50000
Mg 44.33200 4.93900 47.45300
C  42.30300 7.65300 46.50400
C  41.74300 2.84100 46.50400
C  46.57600 2.48400 47.32200
C  47.03200 7.25400 47.14900
N  42.19300 5.26900 46.80000
C  41.63500 6.43100 46.42400
C  40.30700 6.26200 45.75400
C  39.98400 4.73500 46.12100
C  41.39500 4.18800 46.52400
C  38.95800 4.60700 47.31200
C  40.31000 6.52700 44.23700
C  39.47000 7.71000 43.71600
H  40.11900 8.55900 42.60600
N  44.08300 2.86400 47.22800
C  43.01000 2.27100 46.73900
C  43.35900 0.84800 46.51600
C  44.70000 0.68500 46.93500
C  45.23900 2.01500 47.22500
C  42.42200 -0.18800 46.07300
C  45.42600 -0.65700 47.01600
O  44.92700 -1.70900 46.63500
C  46.74800 -0.79400 47.57800
N  46.53000 4.86600 47.16100
C  47.19100 3.73800 47.25300
C  48.66800 3.88100 47.16200
C  48.87500 5.44200 47.18300
C  47.42100 5.92200 47.16300
C  49.48700 3.13900 48.18500
C  49.59000 6.10400 45.92400
C  50.71500 5.31900 45.19300
N  44.60700 7.06800 47.07800
C  45.77700 7.80200 47.11500
C  45.41500 9.17500 47.08300
C  44.03900 9.20800 46.81000
C  43.61000 7.88800 46.83800
C  46.28300 10.40900 47.13700
C  42.91200 9.97900 46.50100
O  42.86200 11.15400 46.13500
C  41.69600 9.00200 46.36700
C  40.82600 9.13500 47.54400
O  40.93900 8.68800 48.67900
O  39.73800 9.89800 47.28200
C  38.71000 10.28100 48.34000
H  40.98100 2.20700 46.04400
H  47.39400 1.80300 47.07600
H  47.86900 7.95300 47.09200
H  39.55000 6.91000 46.19600
H  39.52200 4.08200 45.38000
H  39.36200 4.33700 48.28700
H  38.23700 3.81700 47.10300
H  38.39200 5.53900 47.30200
H  39.98000 5.62700 43.71900
H  41.29900 6.74600 43.83300
H  39.23100 8.36600 44.55200
H  38.53600 7.31000 43.32100
H  41.59000 0.27200 45.54100
H  42.02100 -0.73200 46.92800
H  42.96800 -0.83800 45.38900
H  47.44600 -0.45400 46.81200
H  46.84800 -1.84300 47.85900
H  46.81000 -0.21900 48.50200
H  49.00000 3.48700 46.20200
H  49.43300 5.89300 48.00400
H  50.17700 3.83400 48.66300
H  50.11000 2.35500 47.75400
H  48.87600 2.85100 49.04200
H  50.17000 6.95900 46.27200
H  48.81700 6.46300 45.24400
H  51.60300 5.92000 45.00100
H  50.17900 4.90100 44.34100
H  50.92000 4.51500 45.90000
H  46.29300 10.79900 48.15500
H  45.89600 11.24700 46.55900
H  47.25200 9.99700 46.85500
H  41.13500 9.25600 45.46800
H  37.75900 10.41800 47.82600
H  38.89800 11.23100 48.84000
H  38.65600 9.52700 49.12500

