158

Mg 34.36500 2.14900 29.45500
C  32.28400 3.36900 32.02200
C  36.94000 2.16200 31.53500
C  36.33800 1.60300 26.76000
C  31.62200 2.74700 27.18000
N  34.56400 2.70800 31.51100
C  33.57900 2.99000 32.46300
C  34.10700 2.83900 33.95300
C  35.64800 2.47000 33.79000
C  35.74100 2.52800 32.18300
C  36.58400 3.45600 34.59700
C  33.26000 1.79700 34.77000
C  33.03700 2.01400 36.32500
H  33.84700 3.04500 37.01700
N  36.40700 1.96100 29.20400
C  37.32300 1.97100 30.20400
C  38.67100 1.59500 29.69200
C  38.56400 1.43500 28.24600
C  37.08400 1.70100 28.01200
C  39.85900 1.35500 30.65900
C  39.54200 0.95100 27.21800
O  39.23100 0.89500 26.04400
C  40.95100 0.43000 27.64900
N  33.98400 2.13000 27.31100
C  35.02800 1.91700 26.44800
C  34.62300 2.02900 25.00900
C  33.04100 2.02100 25.17700
C  32.84400 2.31700 26.59500
C  35.18800 3.34700 24.29400
C  32.38400 0.71500 24.67600
C  32.21800 -0.41600 25.71900
N  32.40600 3.01100 29.46500
C  31.42800 3.16400 28.52800
C  30.22000 3.69100 29.10300
C  30.53700 3.79100 30.45700
C  31.85700 3.36200 30.65100
C  28.88800 3.96400 28.43400
C  29.95900 4.12300 31.76300
O  28.87000 4.53700 32.11500
C  31.07600 3.66700 32.76700
C  31.18400 4.68000 33.85000
O  31.71300 5.80400 33.74400
O  30.45200 4.31600 34.97200
C  30.30800 5.23900 36.03900
H  37.65800 1.93700 32.32600
H  36.90600 1.29400 25.88000
H  30.75000 2.75400 26.52200
H  33.97400 3.84900 34.33900
H  35.81500 1.42600 34.05300
H  37.41600 3.85000 34.01300
H  36.93200 3.04700 35.54500
H  36.03000 4.35300 34.87500
H  33.60400 0.80000 34.49500
H  32.21500 1.95700 34.50600
H  33.08200 1.07600 36.87800
H  32.04300 2.42900 36.49000
H  39.91600 1.92900 31.58400
H  40.77700 1.62400 30.13500
H  39.95600 0.28500 30.83900
H  40.87500 -0.08500 28.60700
H  41.50600 1.34800 27.83800
H  41.50000 -0.28100 27.03000
H  34.92300 1.14700 24.44400
H  32.56700 2.85400 24.65800
H  35.97700 3.87400 24.83000
H  34.39900 3.98700 23.90000
H  35.68800 3.07500 23.36400
H  32.99500 0.33300 23.85900
H  31.45800 1.00800 24.18200
H  32.40100 -0.04700 26.72800
H  32.86900 -1.27200 25.54400
H  31.23100 -0.86800 25.62600
H  28.78200 3.54900 27.43200
H  29.01500 5.04600 28.38300
H  27.97700 3.91200 29.03000
H  30.67500 2.83500 33.34600
H  29.98800 6.26500 35.85400
H  31.29600 5.42600 36.45800
H  29.66600 4.68600 36.72400
Mg 28.54600 58.35300 42.81700
C  26.34300 56.34400 41.14500
C  31.13000 57.08100 41.00600
C  30.62400 61.07300 43.64100
C  26.03900 60.19200 44.15700
N  28.67200 56.81900 41.31300
C  27.67800 56.10000 40.72900
C  28.13200 54.95900 39.89100
C  29.74500 55.18900 39.95100
C  29.90100 56.41500 40.86300
C  30.64100 53.95000 40.28200
C  27.54200 55.22300 38.48400
C  26.77200 53.97800 37.86900
H  27.22800 53.58700 36.52000
N  30.66900 58.78900 42.64200
C  31.50800 58.09800 41.81400
C  32.81300 58.66000 41.90400
C  32.71000 59.89400 42.60600
C  31.31100 59.96900 43.05300
C  34.04300 58.24400 41.07200
C  33.92500 60.89200 42.82800
O  35.04100 60.62400 42.46900
C  33.78700 62.11800 43.61500
N  28.46100 60.42300 43.72000
C  29.37100 61.33700 44.00200
C  28.88400 62.60700 44.62200
C  27.42000 62.23100 44.95200
C  27.24100 60.85200 44.27100
C  29.61700 63.05400 45.96000
C  26.29700 63.23500 44.55300
C  25.40400 63.63400 45.73800
N  26.58300 58.27100 42.77600
C  25.64600 59.10900 43.34400
C  24.31800 58.57200 43.03700
C  24.53600 57.49800 42.20100
C  25.98100 57.39500 42.03900
C  23.02000 59.12000 43.57500
C  23.90800 56.44200 41.44300
O  22.73500 56.08400 41.45000
C  25.04200 55.62500 40.76700
C  24.93100 54.22600 41.31300
O  25.34200 53.80600 42.37300
O  24.28400 53.49800 40.36100
C  24.05600 52.08500 40.77600
H  31.89900 56.64000 40.36800
H  31.15800 61.95100 44.01000
H  25.25700 60.67800 44.74300
H  27.94400 54.02600 40.42300
H  30.11800 55.51400 38.98000
H  30.15500 52.97500 40.29700
H  31.10800 54.21900 41.22900
H  31.40400 53.75100 39.53000
H  28.35500 55.42900 37.78900
H  26.78200 56.00500 38.44600
H  25.70600 54.19800 37.80200
H  27.02200 53.19300 38.58300
H  33.99300 58.81500 40.14400
H  33.93300 57.21900 40.71800
H  34.99200 58.36600 41.59300
H  33.04500 62.88100 43.38300
H  34.76500 62.59600 43.55700
H  33.73500 61.93200 44.68700
H  28.67400 63.29200 43.80100
H  27.20500 61.98500 45.99200
H  29.40700 64.11400 46.10700
H  30.67200 62.93600 45.71100
H  29.29800 62.48400 46.83200
H  25.63000 62.76100 43.83300
H  26.63500 64.11700 44.00800
H  25.84600 64.26300 46.51000
H  25.07000 62.72200 46.23200
H  24.51400 64.15900 45.39100
H  23.03900 60.21000 43.58300
H  22.86100 58.79900 44.60500
H  22.23600 58.70400 42.94300
H  24.91300 55.56700 39.68600
H  23.81100 52.06200 41.83800
H  24.93300 51.49400 40.51000
H  23.21700 51.70700 40.19200

