158

Mg -2.04900 16.98500 26.35600
C  -2.35400 14.69700 29.04500
C  -2.41400 19.55700 28.56600
C  -1.99800 18.94700 23.80200
C  -2.11400 14.14800 24.20300
N  -2.31800 17.03600 28.52600
C  -2.42700 16.03700 29.39500
C  -2.62700 16.53200 30.84500
C  -2.52800 18.10200 30.68700
C  -2.38000 18.28300 29.15200
C  -3.71100 18.91800 31.32200
C  -1.59600 16.15500 31.94300
C  -1.38600 17.05300 33.17800
H  -2.02600 16.57900 34.42100
N  -2.23500 18.99700 26.19800
C  -2.37800 19.93000 27.22500
C  -2.29300 21.26200 26.61800
C  -2.20500 21.06400 25.20400
C  -2.09200 19.59300 25.01100
C  -2.56300 22.53600 27.39300
C  -2.08100 22.04000 24.03300
O  -2.09500 21.69900 22.85100
C  -1.96500 23.50000 24.29900
N  -2.10900 16.60400 24.28800
C  -2.08300 17.63200 23.36000
C  -2.09800 17.10300 21.87800
C  -2.11500 15.56900 22.09000
C  -2.02700 15.43600 23.60700
C  -3.24700 17.66400 21.06700
C  -1.05200 14.74400 21.31600
C  -0.84700 15.15900 19.86500
N  -2.24000 14.84800 26.51900
C  -2.20500 13.85000 25.57700
C  -2.28500 12.58300 26.23300
C  -2.34900 12.82900 27.62100
C  -2.27500 14.26400 27.69700
C  -2.18700 11.26100 25.55900
C  -2.52900 12.26900 28.87900
O  -2.71900 11.10100 29.23700
C  -2.51800 13.42900 29.89600
C  -1.45900 13.05000 30.77800
O  -0.29200 13.51000 30.87200
O  -1.97500 12.12700 31.67700
C  -1.08500 11.72700 32.83600
H  -2.26300 20.33900 29.31300
H  -1.95800 19.55700 22.89600
H  -1.89100 13.26200 23.60500
H  -3.58500 16.19700 31.24100
H  -1.51600 18.45600 30.87900
H  -4.52300 19.04300 30.60400
H  -3.35600 19.88600 31.67600
H  -4.11900 18.40900 32.19500
H  -0.57900 15.98800 31.58600
H  -2.00100 15.20400 32.29100
H  -1.72000 18.07800 33.01800
H  -0.30800 17.12700 33.31700
H  -3.46800 23.06300 27.09200
H  -1.60200 23.04800 27.35800
H  -2.62900 22.34300 28.46300
H  -1.43300 23.64500 25.24000
H  -2.99600 23.81000 24.46500
H  -1.37400 23.99700 23.52900
H  -1.08600 17.37400 21.57800
H  -3.10600 15.22500 21.79500
H  -2.95300 18.31800 20.24600
H  -3.85400 18.39000 21.60800
H  -3.86200 16.91300 20.57000
H  -1.35900 13.70100 21.39500
H  -0.08600 14.78100 21.81800
H  0.21800 15.08800 19.64300
H  -1.14400 16.17000 19.58700
H  -1.40300 14.45400 19.24700
H  -3.16500 10.99400 25.15600
H  -2.02100 10.42600 26.23900
H  -1.53500 11.36600 24.69100
H  -3.53200 13.29000 30.27000
H  -0.70000 10.78800 32.43900
H  -1.58200 11.56200 33.79200
H  -0.29600 12.44500 33.05800
Mg 5.96400 54.82500 42.01200
C  5.80300 51.26800 41.57500
C  9.01400 54.76900 40.47700
C  5.76000 58.12800 41.82300
C  2.74900 54.63700 43.42700
N  7.08300 53.19900 40.91200
C  6.92900 51.78000 40.96600
C  8.12500 51.04900 40.33500
C  9.17800 52.23900 40.18700
C  8.43100 53.48500 40.61600
C  10.49700 51.97700 40.93100
C  7.84700 50.30000 39.04200
C  6.91000 50.96900 38.06400
H  7.02100 50.51600 36.58500
N  7.18900 56.31000 41.22800
C  8.45000 56.06100 40.67500
C  8.98800 57.38700 40.30100
C  8.04800 58.40300 40.64700
C  6.92800 57.60200 41.23300
C  10.28800 57.52900 39.62600
C  8.30800 59.88200 40.50200
O  9.43200 60.29100 40.19400
C  7.25900 60.96300 40.81500
N  4.44200 56.12100 42.50500
C  4.68200 57.49900 42.49800
C  3.64900 58.33300 43.28600
C  2.69300 57.17900 43.76900
C  3.32200 55.86700 43.15300
C  4.20200 59.27300 44.38700
C  1.12700 57.31100 43.57600
C  0.34300 56.76900 42.33800
N  4.54800 53.28000 42.49800
C  3.30000 53.38200 43.10500
C  2.91400 52.10400 43.46700
C  3.74600 51.15300 42.80600
C  4.74700 51.97900 42.22000
C  1.77800 51.74800 44.35900
C  4.17200 49.76400 42.65500
O  3.74000 48.68900 43.01800
C  5.41600 49.80300 41.78300
C  5.20800 49.05900 40.46200
O  4.30100 49.40400 39.68200
O  5.98800 47.91400 40.29300
C  5.83600 47.10900 39.07200
H  10.07500 54.63600 40.25500
H  5.69700 59.21800 41.83900
H  1.88600 54.71900 44.09100
H  8.45400 50.34000 41.09500
H  9.32700 52.35700 39.11300
H  11.36200 51.96000 40.26800
H  10.56500 50.99100 41.39000
H  10.65400 52.66700 41.76000
H  7.54500 49.29100 39.32200
H  8.79800 50.08700 38.55400
H  6.99800 52.05600 38.08500
H  5.95400 50.63300 38.46400
H  10.21600 57.87600 38.59500
H  10.80900 56.57300 39.58700
H  10.90600 58.19400 40.23000
H  6.46200 60.74200 40.10400
H  7.66800 61.96400 40.67300
H  7.05500 60.88200 41.88300
H  3.15500 59.05300 42.63400
H  2.89200 57.04100 44.83200
H  5.28600 59.16800 44.40700
H  3.81000 58.90100 45.33300
H  3.92300 60.30400 44.16700
H  0.98100 58.38700 43.47400
H  0.64600 56.98800 44.50000
H  -0.43400 56.10200 42.71000
H  1.02400 56.28000 41.64100
H  -0.17100 57.54500 41.77100
H  1.86400 52.39200 45.23400
H  1.86900 50.72900 44.73700
H  0.87500 51.89700 43.76700
H  6.20900 49.31500 42.35000
H  6.65600 46.39300 39.13000
H  5.83700 47.76400 38.20100
H  4.88000 46.58500 39.05200

