158

Mg 47.27400 15.24100 29.06900
C  45.33200 15.39700 31.81500
C  49.67800 17.21900 30.69600
C  48.99600 15.47700 26.20300
C  44.55000 13.71900 27.26300
N  47.48100 16.06900 30.99500
C  46.49300 16.02500 32.00800
C  47.05000 16.63500 33.39000
C  48.23200 17.49500 32.76500
C  48.47900 16.83200 31.40700
C  48.05300 19.06700 32.74800
C  47.39800 15.52900 34.36600
C  46.94200 15.81900 35.78800
H  46.84200 17.28200 36.19000
N  49.11800 16.10200 28.59000
C  49.95100 16.82400 29.38100
C  51.24700 16.99300 28.73000
C  51.07200 16.42800 27.39400
C  49.67300 15.95600 27.38300
C  52.50000 17.49100 29.43100
C  52.07800 16.26500 26.18000
O  51.82600 15.59600 25.17300
C  53.38900 16.95800 26.32500
N  46.71000 14.99800 26.95600
C  47.72800 14.95000 26.04300
C  47.26600 14.23900 24.74700
C  45.87200 13.63700 25.15000
C  45.69700 14.13200 26.56800
C  47.22900 15.27000 23.61600
C  45.84900 12.11300 24.92000
C  46.28500 11.29100 26.16100
N  45.20800 14.78700 29.39200
C  44.27200 14.12500 28.61100
C  43.05200 13.96700 29.40200
C  43.41400 14.42100 30.72500
C  44.76800 14.87400 30.61600
C  41.85700 13.19700 28.98900
C  42.98100 14.47800 32.11000
O  42.01800 13.89300 32.57700
C  44.16100 15.24400 32.81000
C  43.53100 16.36200 33.38300
O  43.16000 17.38000 32.81500
O  43.39000 16.19700 34.73600
C  42.84500 17.30700 35.57400
H  50.36800 17.88600 31.21700
H  49.68700 15.38200 25.36300
H  43.79900 13.22100 26.64700
H  46.21500 17.25600 33.71300
H  49.17200 17.37100 33.30300
H  47.98600 19.28600 31.68300
H  48.92800 19.59300 33.13200
H  47.14900 19.36700 33.27800
H  48.47300 15.59600 34.20300
H  47.10600 14.51900 34.07700
H  47.64700 15.37600 36.49200
H  45.93700 15.41000 35.89100
H  52.36100 17.96800 30.40200
H  53.11600 18.18200 28.85600
H  53.11100 16.62200 29.67500
H  53.32700 17.96500 26.73600
H  53.95700 17.15200 25.41500
H  54.03700 16.39900 27.00100
H  47.88100 13.38800 24.45700
H  45.15500 14.06800 24.45200
H  48.02500 15.09400 22.89300
H  47.51700 16.28000 23.90600
H  46.31100 15.26600 23.02800
H  46.50500 11.85600 24.08800
H  44.81200 11.83100 24.73400
H  47.05800 11.90000 26.62900
H  46.80300 10.34700 25.98900
H  45.41400 10.94700 26.72000
H  41.89400 12.16000 29.32200
H  41.78400 13.12700 27.90400
H  40.99700 13.69300 29.43800
H  44.43400 14.59700 33.64400
H  41.82600 17.55900 35.27800
H  43.50700 18.16900 35.50600
H  42.64100 16.91300 36.56900
Mg 41.77600 41.45900 26.18800
C  40.92800 43.72300 28.73000
C  42.71700 39.13500 28.65800
C  43.06800 39.59700 23.73500
C  41.08800 43.98200 23.75300
N  41.89100 41.48300 28.44700
C  41.36000 42.45600 29.25000
C  41.56600 42.05900 30.77400
C  42.18300 40.59900 30.71500
C  42.30100 40.36300 29.19300
C  43.43300 40.21700 31.68400
C  40.22700 42.02000 31.48300
C  40.17800 41.48700 32.92400
H  40.38000 42.38700 34.14000
N  42.60700 39.62500 26.14700
C  42.97700 38.81100 27.26800
C  43.41200 37.48800 26.74100
C  43.68200 37.70700 25.33500
C  43.11400 39.01700 24.98500
C  43.52200 36.23200 27.53900
C  44.21700 36.75800 24.36400
O  44.69500 37.12200 23.27900
C  44.53600 35.31200 24.68800
N  41.98100 41.66900 24.01500
C  42.48300 40.72800 23.20700
C  42.40600 41.09700 21.75200
C  41.56600 42.40100 21.78200
C  41.48300 42.66500 23.25900
C  43.74000 41.34200 21.05500
C  40.20100 42.18600 21.16400
C  39.23800 41.21900 21.95800
N  41.22000 43.42200 26.14400
C  41.03900 44.34300 25.11600
C  40.64800 45.62600 25.66900
C  40.53000 45.42100 27.04000
C  40.92100 44.06400 27.31000
C  40.56100 46.89400 24.92100
C  40.26000 46.03100 28.32900
O  39.98200 47.17600 28.56700
C  40.43100 44.97600 29.41600
C  41.44600 45.43800 30.34600
O  42.63400 45.49700 30.05800
O  41.01500 45.68800 31.67400
C  42.01000 46.22900 32.56200
H  43.02500 38.40200 29.40700
H  43.38000 38.92600 22.93200
H  40.71200 44.77400 23.10200
H  42.26800 42.77500 31.20200
H  41.37800 39.92900 31.01700
H  43.13200 39.86200 32.66900
H  44.21400 40.97700 31.64900
H  43.93400 39.33900 31.27600
H  39.42500 41.43400 31.03300
H  39.86900 42.99600 31.81000
H  40.88200 40.65700 32.96900
H  39.17800 41.12100 33.15600
H  43.24000 36.51300 28.55400
H  44.55200 35.88100 27.60700
H  42.90800 35.44000 27.11300
H  45.42500 35.33100 25.31800
H  44.76200 34.71100 23.80700
H  43.74200 34.83900 25.26700
H  41.80900 40.35900 21.21700
H  42.06200 43.21400 21.25200
H  43.95800 40.32000 20.74400
H  44.35500 41.64900 21.90100
H  43.58500 41.83700 20.09600
H  40.41800 41.71600 20.20500
H  39.77000 43.16600 20.95900
H  38.47000 41.79000 22.47900
H  39.74800 40.60600 22.70200
H  38.79800 40.58000 21.19200
H  40.87200 47.76700 25.49400
H  39.52600 47.03200 24.60800
H  41.29100 46.81500 24.11500
H  39.52800 44.70300 29.96300
H  41.51600 47.02300 33.12200
H  42.91000 46.59500 32.06900
H  42.33600 45.50000 33.30400

