158

Mg 9.19500 47.32300 28.04700
C  7.49000 46.93500 31.06700
C  12.03600 47.61800 29.80000
C  10.62800 48.43200 25.13900
C  6.06200 47.36100 26.40700
N  9.65700 47.41100 30.29300
C  8.85500 47.02000 31.24400
C  9.58800 46.98800 32.60700
C  11.04400 47.33800 32.14500
C  10.94600 47.47500 30.65800
C  11.69300 48.53600 32.84200
C  9.50900 45.66100 33.45500
C  9.31900 45.85300 34.96700
H  10.00900 44.94100 35.96500
N  11.12600 47.70600 27.45000
C  12.15000 47.77400 28.36400
C  13.40700 47.99700 27.55000
C  13.02300 48.17300 26.18200
C  11.58300 48.12100 26.20300
C  14.89600 47.86800 28.19600
C  13.85100 48.25500 24.91900
O  13.41300 48.15200 23.79100
C  15.32000 48.36800 25.17900
N  8.38200 47.93700 26.05800
C  9.22800 48.37800 25.04100
C  8.39800 48.88600 23.81800
C  7.05000 48.23900 24.09000
C  7.14500 47.70900 25.59700
C  8.41800 50.40100 23.64800
C  6.70800 47.11500 23.01500
C  6.56200 47.65000 21.57500
N  7.10400 47.18700 28.49700
C  5.97600 47.31700 27.77600
C  4.79200 47.20300 28.67200
C  5.30900 47.02900 29.97700
C  6.75400 47.07700 29.82000
C  3.34900 47.19300 28.27600
C  4.98100 46.86600 31.41000
O  3.90300 46.82300 31.94300
C  6.32400 46.60300 32.10900
C  6.25000 45.16200 32.55000
O  6.66700 44.22100 31.96900
O  5.63700 45.17200 33.75400
C  5.76200 43.81800 34.46100
H  12.94800 47.73800 30.38800
H  11.13500 48.73900 24.22200
H  5.18300 47.43100 25.76300
H  9.22900 47.81500 33.22000
H  11.74300 46.51400 32.29000
H  11.52500 49.43600 32.25000
H  12.72400 48.20100 32.73500
H  11.39800 48.58300 33.89100
H  10.41500 45.06300 33.36200
H  8.65400 45.08100 33.10700
H  8.26700 45.82800 35.25300
H  9.68800 46.85100 35.20200
H  14.90700 48.02300 29.27500
H  15.44800 48.74000 27.84500
H  15.26200 46.85900 28.00500
H  15.59900 49.30300 25.66500
H  15.74100 48.35000 24.17400
H  15.70700 47.50700 25.72400
H  8.82500 48.37700 22.95400
H  6.20600 48.91600 23.95800
H  8.81200 50.82200 24.57300
H  7.37000 50.65000 23.48300
H  8.96200 50.82100 22.80100
H  5.73500 46.67400 23.23300
H  7.43200 46.30200 23.05800
H  7.34500 47.23900 20.93800
H  6.69400 48.73100 21.62100
H  5.61300 47.32100 21.15400
H  3.26200 47.25100 27.19100
H  2.85600 47.98500 28.83900
H  2.82300 46.26900 28.51600
H  6.46800 47.18800 33.01700
H  6.63200 43.21200 34.20600
H  4.90500 43.21200 34.17000
H  5.71000 43.83900 35.54900
Mg -11.11700 16.54600 43.25900
C  -7.61000 17.47600 42.83400
C  -11.76300 19.94300 42.88200
C  -14.27500 15.70500 42.65600
C  -10.16700 13.21200 43.04400
N  -9.84800 18.41000 42.82300
C  -8.47300 18.56600 42.69200
C  -7.98500 19.94200 42.52700
C  -9.23800 20.68700 42.99700
C  -10.38300 19.64100 42.92000
C  -9.09600 21.46200 44.33700
C  -7.54400 20.24100 41.07200
C  -6.19000 20.63400 40.90100
H  -5.15800 19.72800 40.18600
N  -12.81800 17.66600 42.98400
C  -12.86000 18.99000 42.77600
C  -14.20800 19.45600 42.65100
C  -15.01300 18.24600 42.62200
C  -14.06000 17.11400 42.69400
C  -14.69000 20.80900 42.41500
C  -16.48300 18.20900 42.42800
O  -17.14800 19.23800 42.27800
C  -17.23300 16.82900 42.41000
N  -12.07400 14.73500 42.77100
C  -13.42800 14.60700 42.71300
C  -13.95500 13.12700 42.66900
C  -12.60300 12.35100 42.88900
C  -11.56400 13.45600 42.93200
C  -14.93800 12.80900 43.89700
C  -12.39600 11.26400 41.79600
C  -11.66300 11.68700 40.52600
N  -9.34100 15.51500 43.12800
C  -9.13300 14.19700 43.17200
C  -7.71000 13.89800 43.08900
C  -7.07100 15.14200 43.05500
C  -8.07400 16.12400 43.01800
C  -7.08800 12.54200 43.05400
C  -5.79300 15.83600 42.92000
O  -4.67400 15.38600 42.89800
C  -6.14600 17.40600 42.86500
C  -5.54400 18.00400 44.09500
O  -5.37600 17.39700 45.13900
O  -5.06900 19.25700 43.91000
C  -4.46600 19.86700 45.06500
H  -11.94700 21.02000 42.88600
H  -15.29700 15.32100 42.65800
H  -9.88800 12.15600 43.05700
H  -7.20600 20.14800 43.26100
H  -9.51800 21.51500 42.34500
H  -8.33100 21.14000 45.04400
H  -10.00800 21.15800 44.85000
H  -9.02300 22.54300 44.22000
H  -8.13500 21.00100 40.56200
H  -7.62800 19.31900 40.49700
H  -5.71000 20.89700 41.84300
H  -6.05400 21.57700 40.37100
H  -13.84800 21.36400 42.00000
H  -15.01900 21.26400 43.34800
H  -15.41600 20.84800 41.60300
H  -18.25800 17.14100 42.20800
H  -17.03800 16.35800 43.37300
H  -16.78200 16.23500 41.61600
H  -14.38700 12.92800 41.68800
H  -12.45300 11.95500 43.89300
H  -15.30700 13.77500 44.24300
H  -14.59400 12.20100 44.73400
H  -15.78400 12.27900 43.46000
H  -13.35300 10.78300 41.59000
H  -11.81000 10.46200 42.24500
H  -11.62000 12.77400 40.45000
H  -12.12600 11.39000 39.58500
H  -10.65500 11.28300 40.43100
H  -6.10100 12.55400 43.51600
H  -7.02100 12.14900 42.04000
H  -7.77100 11.87100 43.57700
H  -5.80500 17.86100 41.93500
H  -3.92900 20.76700 44.76500
H  -3.66500 19.22000 45.42300
H  -5.17300 20.18200 45.83300

