158

Mg 1.64400 -2.39400 43.32200
C  4.90100 -1.77600 42.90700
C  0.57900 0.31800 41.65600
C  -1.75100 -3.54700 43.47300
C  2.54400 -5.53600 44.80900
N  2.66700 -0.91500 42.37200
C  4.04700 -0.81900 42.25200
C  4.40400 0.39100 41.42700
C  2.91300 1.13300 41.31200
C  1.94100 0.13200 41.85500
C  2.93600 2.43300 42.18800
C  5.07000 0.07400 40.03000
C  6.39200 0.76800 39.77100
H  6.39000 1.81000 38.69400
N  -0.32600 -1.63500 42.78500
C  -0.53400 -0.46100 42.06500
C  -1.96200 -0.26900 41.92300
C  -2.62500 -1.28300 42.63000
C  -1.58400 -2.27700 42.96900
C  -2.48700 1.05100 41.30800
C  -4.16700 -1.35500 42.83000
O  -4.90800 -0.45600 42.47300
C  -4.91200 -2.52100 43.45200
N  0.46700 -4.26900 44.17000
C  -0.83600 -4.43700 44.10100
C  -1.23500 -5.78200 44.75800
C  0.20900 -6.45000 45.06200
C  1.17000 -5.35300 44.64400
C  -2.27100 -5.85800 45.91300
C  0.47000 -7.83600 44.43100
C  0.75100 -8.97100 45.43700
N  3.34500 -3.50300 43.86000
C  3.58600 -4.65800 44.49700
C  5.07900 -4.85300 44.66700
C  5.67000 -3.68700 44.06700
C  4.54900 -2.95400 43.56300
C  5.88800 -5.96200 45.32200
C  6.92200 -2.94000 43.76600
O  8.08800 -3.12700 44.06000
C  6.42900 -1.67300 42.88900
C  6.96000 -0.62000 43.70300
O  6.70300 -0.40700 44.86300
O  7.93200 -0.02900 42.98200
C  8.50900 1.20400 43.66100
H  0.44500 1.26600 41.13000
H  -2.76800 -3.94600 43.46500
H  2.97100 -6.46500 45.19100
H  5.09200 0.98900 42.02400
H  2.89900 1.43600 40.26500
H  3.02900 3.27900 41.50700
H  3.73000 2.45900 42.93500
H  1.96600 2.51600 42.67900
H  4.40600 0.40000 39.23000
H  5.26800 -0.99800 40.03800
H  7.08200 -0.00700 39.43700
H  6.91000 1.25800 40.59600
H  -3.01300 0.77000 40.39500
H  -1.70900 1.81300 41.26000
H  -3.29300 1.45300 41.92200
H  -5.96500 -2.25200 43.52600
H  -4.48900 -2.83200 44.40700
H  -4.92700 -3.33900 42.73100
H  -1.66800 -6.29300 43.89700
H  0.09400 -6.67300 46.12300
H  -3.13800 -5.26900 45.61500
H  -1.82500 -5.51900 46.84800
H  -2.58700 -6.89200 46.05700
H  1.41000 -7.78900 43.88000
H  -0.36500 -8.14000 43.80000
H  1.79100 -9.27700 45.31900
H  0.07600 -9.82700 45.45500
H  0.82800 -8.54100 46.43600
H  5.30000 -6.57300 46.00700
H  6.73400 -5.53200 45.85900
H  6.30000 -6.62800 44.56400
H  6.94900 -1.71300 41.93200
H  8.84900 1.89800 42.89300
H  9.27200 0.97900 44.40700
H  7.75100 1.79800 44.17200
Mg 31.10300 59.44000 39.08000
C  28.40100 57.09500 38.08300
C  33.22200 56.94600 38.48600
C  33.43400 61.72900 39.61100
C  28.48600 61.87700 39.32900
N  30.78500 57.27700 38.36700
C  29.62900 56.44100 38.21600
C  30.02200 54.97700 38.09700
C  31.61900 55.03000 38.26000
C  31.90400 56.53700 38.41400
C  32.25200 54.00300 39.29400
C  29.44100 54.24300 36.83100
C  30.00500 54.70000 35.46000
H  29.08800 54.86500 34.21200
N  33.00400 59.35300 39.12400
C  33.74600 58.23900 38.85000
C  35.16700 58.53800 39.03800
C  35.28100 59.87700 39.43600
C  33.88300 60.43900 39.44600
C  36.26900 57.55800 38.68500
C  36.54800 60.69900 39.73100
O  37.64800 60.15700 39.54400
C  36.57100 62.09700 40.19700
N  30.96100 61.57700 39.36400
C  32.12800 62.27100 39.65600
C  31.80600 63.70600 40.08000
C  30.20500 63.71600 39.95000
C  29.85000 62.27700 39.61600
C  32.24200 64.11600 41.42400
C  29.71000 64.80100 38.89000
C  28.81000 65.91400 39.51600
N  28.94100 59.57100 38.73100
C  28.04800 60.59800 38.92600
C  26.70700 60.24200 38.46900
C  26.82200 58.85000 38.23200
C  28.18400 58.49600 38.40400
C  25.46800 61.24400 38.33300
C  26.00200 57.69500 37.96200
O  24.78100 57.59400 37.89800
C  26.95100 56.50000 37.79300
C  26.54100 55.54800 38.83900
O  26.54700 55.76800 40.01500
O  25.91500 54.47300 38.28800
C  25.53300 53.44200 39.30300
H  33.93000 56.12200 38.59500
H  34.13500 62.55600 39.74400
H  27.68700 62.61900 39.38500
H  29.54100 54.57400 38.98900
H  32.02400 54.76800 37.28300
H  32.82600 54.63200 39.97500
H  33.01200 53.37500 38.82900
H  31.65300 53.36800 39.94700
H  28.35300 54.21500 36.88700
H  29.81200 53.22900 36.97900
H  30.86100 54.09900 35.15400
H  30.35300 55.72100 35.61800
H  36.04200 56.57800 38.26400
H  36.74400 57.39100 39.65200
H  37.04000 58.00000 38.05400
H  35.95100 62.23200 41.08300
H  36.26000 62.69300 39.33900
H  37.58800 62.27300 40.54900
H  32.22800 64.35400 39.31100
H  29.77900 63.89700 40.93700
H  31.50300 63.82500 42.17100
H  32.57300 65.15400 41.41800
H  33.14500 63.60100 41.75100
H  29.13600 64.38300 38.06400
H  30.56200 65.38200 38.53500
H  29.24600 66.90900 39.43500
H  28.56300 65.82300 40.57400
H  27.82200 65.87800 39.05500
H  25.26700 61.45700 39.38300
H  24.66400 60.80800 37.74000
H  25.72900 62.22600 37.93900
H  26.77900 56.07300 36.80500
H  26.29300 53.31500 40.07400
H  25.32700 52.52500 38.75000
H  24.59100 53.76700 39.74500

