158

Mg 1.12900 7.38300 26.10700
C  1.68700 9.59300 28.98200
C  0.77000 4.89200 28.32900
C  0.68900 5.45800 23.46500
C  1.60400 10.17700 24.06200
N  1.31500 7.32500 28.43300
C  1.53300 8.23500 29.37200
C  1.57700 7.60900 30.76200
C  1.36000 6.13300 30.43600
C  1.18600 6.06200 28.96600
C  2.43400 5.09900 30.94800
C  0.57800 8.22100 31.80600
C  0.81700 8.00600 33.30300
H  2.08900 7.43400 33.88600
N  0.86700 5.37400 25.93300
C  0.61300 4.52300 26.89700
C  0.24900 3.22100 26.40500
C  0.35000 3.32400 24.99000
C  0.63000 4.75700 24.75500
C  0.12700 1.97700 27.25600
C  0.16800 2.29900 23.90200
O  0.42400 2.54000 22.72000
C  -0.11900 0.87200 24.31200
N  1.04600 7.81600 24.10800
C  0.84900 6.81700 23.16600
C  0.62000 7.37100 21.74300
C  1.06800 8.87800 21.91800
C  1.26000 8.98900 23.41800
C  1.40800 6.62800 20.67200
C  -0.00600 9.99900 21.51400
C  0.19900 10.74300 20.18500
N  1.54000 9.42300 26.41300
C  1.70200 10.37400 25.46500
C  1.94600 11.71400 26.16200
C  1.96100 11.39800 27.57500
C  1.67600 10.01500 27.67300
C  2.23700 13.05600 25.49700
C  2.20500 11.91000 28.90500
O  2.52200 12.97600 29.31600
C  2.04800 10.77300 29.93800
C  3.35500 10.70600 30.70000
O  4.38700 10.19400 30.33400
O  3.14200 11.07300 32.02200
C  4.40100 11.55300 32.68000
H  0.66800 4.16000 29.13300
H  0.48900 4.84400 22.58500
H  2.03700 10.93600 23.40800
H  2.56800 7.76400 31.18900
H  0.42300 5.85100 30.91500
H  3.13700 5.57100 31.63400
H  2.95500 4.61700 30.12100
H  1.95100 4.24500 31.42400
H  -0.43400 7.86600 31.61400
H  0.58500 9.30800 31.72900
H  -0.06100 7.46700 33.66000
H  0.71700 9.01700 33.69800
H  0.67600 1.11300 26.88200
H  -0.94200 1.84300 27.41700
H  0.63000 2.24600 28.18500
H  -0.31400 0.31600 23.39600
H  -1.02100 0.82500 24.92200
H  0.72300 0.41500 24.83100
H  -0.44400 7.27200 21.52700
H  2.04600 8.96700 21.44700
H  2.04900 7.31200 20.11600
H  0.81900 6.03100 19.97700
H  2.05300 5.89000 21.15000
H  -0.24000 10.69300 22.32200
H  -0.94200 9.44000 21.52300
H  -0.60600 10.54200 19.47900
H  1.04400 10.39300 19.59300
H  0.38900 11.80000 20.37400
H  3.22500 13.50000 25.62100
H  1.49900 13.70800 25.96400
H  2.07500 13.02200 24.42000
H  1.31400 11.03900 30.69800
H  4.96100 12.11600 31.93300
H  5.03200 10.79500 33.14400
H  3.95400 12.29700 33.33900
Mg 25.76200 51.22900 26.56900
C  23.74300 52.05700 29.27900
C  28.19100 50.17200 28.85700
C  28.13500 51.20600 24.09000
C  23.47200 52.53500 24.42900
N  25.93600 51.02900 28.87600
C  24.93200 51.42400 29.73400
C  25.31800 51.02800 31.15600
C  26.84800 50.59600 31.02200
C  27.02000 50.58100 29.49100
C  27.92000 51.41200 31.80900
C  24.42400 49.94200 31.73400
C  24.68500 49.58700 33.25800
H  23.83900 50.06200 34.39000
N  27.82500 50.69900 26.43700
C  28.60900 50.26800 27.52000
C  29.95600 49.94400 27.04000
C  30.02700 50.30500 25.67500
C  28.63800 50.74400 25.33100
C  31.06400 49.38200 27.98100
C  31.21600 50.21600 24.74100
O  31.22300 50.48700 23.50400
C  32.52400 49.70400 25.24600
N  25.85400 51.94700 24.65700
C  26.89800 51.80700 23.81000
C  26.53400 52.14300 22.38500
C  24.91500 52.33200 22.41000
C  24.78000 52.29500 23.92900
C  27.38400 53.36100 21.83900
C  24.20400 51.20300 21.64900
C  24.46200 49.75200 22.04300
N  23.83400 52.05600 26.78900
C  23.04900 52.56200 25.77900
C  21.75500 53.04300 26.35700
C  21.96600 52.85900 27.76400
C  23.26100 52.27800 27.89700
C  20.65200 53.61000 25.46800
C  21.44700 53.07700 29.10300
O  20.37000 53.58800 29.50000
C  22.53900 52.60400 30.07000
C  22.86000 53.86600 30.86000
O  23.32000 54.94100 30.45800
O  22.58300 53.54600 32.12800
C  22.91900 54.56100 33.10300
H  28.95600 49.84100 29.56300
H  28.88000 51.03700 23.31000
H  22.61300 52.72100 23.78100
H  25.29100 51.89600 31.81400
H  26.87000 49.51600 31.16500
H  28.75700 51.62500 31.14300
H  28.43200 50.72800 32.48500
H  27.59300 52.32300 32.31200
H  24.58500 49.02600 31.16500
H  23.39000 50.27700 31.64700
H  25.72900 49.87700 33.37300
H  24.68900 48.50300 33.37300
H  31.05100 48.29400 28.03600
H  30.78200 49.55200 29.02000
H  32.07500 49.78500 27.91900
H  32.54000 48.70400 25.68100
H  33.01000 50.49000 25.82300
H  33.19000 49.70300 24.38300
H  26.82700 51.27400 21.79600
H  24.52800 53.26900 22.01100
H  28.13800 53.68700 22.55500
H  26.69300 54.18100 21.64100
H  27.85600 53.00900 20.92100
H  24.55800 51.37400 20.63200
H  23.12200 51.32900 21.67600
H  25.34600 49.69200 22.67800
H  24.71000 49.16400 21.15900
H  23.66500 49.24100 22.58400
H  19.80400 53.98200 26.04300
H  20.42200 52.82700 24.74500
H  21.16000 54.41800 24.94200
H  22.12000 51.85200 30.73800
H  23.40900 54.13400 33.97800
H  21.96600 54.98300 33.42100
H  23.50300 55.34100 32.61500

