158

Mg 53.85700 23.92900 43.73700
C  51.06600 26.07200 43.24100
C  51.93300 21.29700 42.71900
C  56.64500 21.91100 44.04600
C  55.69600 26.62900 44.82500
N  51.77000 23.78700 42.89800
C  50.81800 24.79800 42.65700
C  49.54900 24.18000 42.01200
C  49.78500 22.66300 42.26300
C  51.30100 22.55500 42.64700
C  48.95900 22.03600 43.41200
C  49.28600 24.61300 40.57200
C  50.48400 24.61600 39.63600
H  50.13600 24.93400 38.17300
N  54.26100 21.91400 43.34300
C  53.30700 21.00000 42.99100
C  53.95200 19.71700 42.83100
C  55.23900 19.85400 43.21500
C  55.43900 21.26900 43.48400
C  53.20300 18.43100 42.42400
C  56.23300 18.69000 43.16900
O  55.83400 17.54600 43.07400
C  57.67300 19.00400 42.97100
N  55.83300 24.25100 44.22100
C  56.79700 23.28000 44.26200
C  58.11800 23.76000 44.94200
C  57.83100 25.30100 45.07800
C  56.38300 25.43700 44.60000
C  58.54700 23.12100 46.29900
C  58.84300 26.30900 44.37200
C  59.80200 27.13300 45.28000
N  53.47800 25.87000 44.18000
C  54.31800 26.88500 44.64900
C  53.59900 28.06600 44.89700
C  52.34200 27.83600 44.29400
C  52.30700 26.46000 43.90100
C  54.12200 29.31300 45.43400
C  50.93900 28.34800 44.11200
O  50.34500 29.40200 44.38000
C  50.22300 27.30700 43.19400
C  50.00800 27.90400 41.87000
O  50.91300 28.21100 41.14700
O  48.68400 28.13300 41.61700
C  48.30500 28.68100 40.31800
H  51.39500 20.40400 42.39400
H  57.54300 21.37800 44.36500
H  56.43100 27.36900 45.14600
H  48.63500 24.51000 42.50700
H  49.71500 21.96200 41.43100
H  48.36900 22.78500 43.94100
H  49.60300 21.51800 44.12200
H  48.38300 21.25800 42.91000
H  48.81500 25.58500 40.42600
H  48.58900 23.89300 40.14200
H  50.84900 23.59000 39.66900
H  51.16000 25.35500 40.06500
H  53.23700 17.61600 43.14700
H  53.63500 18.15500 41.46200
H  52.14700 18.56900 42.18700
H  58.25900 18.99600 43.89000
H  57.89900 19.88300 42.36800
H  57.97400 18.24500 42.24900
H  58.89600 23.65000 44.18600
H  57.70900 25.59800 46.12000
H  57.83200 22.35300 46.59300
H  58.61500 23.84200 47.11400
H  59.52000 22.67600 46.09000
H  58.28700 26.92500 43.66500
H  59.39600 25.62000 43.73400
H  59.94600 28.17900 45.00800
H  60.73800 26.58300 45.18700
H  59.51200 27.01300 46.32300
H  53.49400 30.13800 45.09900
H  55.16300 29.49700 45.16900
H  54.10300 29.32500 46.52300
H  49.34100 27.24000 43.83200
H  49.12900 28.92400 39.64700
H  47.60300 29.50700 40.43400
H  47.69200 27.83300 40.01300
Mg 16.91700 52.61300 25.70200
C  18.57500 51.24600 28.57400
C  14.44000 53.76500 27.66000
C  15.19300 53.08600 22.88600
C  19.38900 50.99000 23.73100
N  16.51300 52.39700 27.88300
C  17.35700 51.98900 28.84100
C  16.80600 52.31200 30.24000
C  15.46200 53.10000 29.91000
C  15.45900 53.10300 28.37400
C  14.14300 52.52300 30.49600
C  17.80200 52.96700 31.19700
C  17.91300 52.56400 32.68300
H  16.89700 51.66000 33.31600
N  15.03000 53.33300 25.25600
C  14.11400 53.75100 26.21500
C  12.88700 54.25100 25.55600
C  13.11800 54.10100 24.14300
C  14.50100 53.50600 24.03500
C  11.64300 54.68500 26.33100
C  12.16400 54.41700 22.94400
O  12.46500 54.07200 21.79500
C  10.81900 55.20600 23.14700
N  17.31000 52.21300 23.61700
C  16.40700 52.44600 22.65600
C  16.97600 51.99500 21.29300
C  18.50000 51.90700 21.50600
C  18.46800 51.73300 23.04500
C  16.37800 50.71200 20.74600
C  19.30800 53.11600 20.93500
C  20.24900 52.68400 19.88700
N  18.68500 51.50100 26.06800
C  19.49200 50.83800 25.13700
C  20.46200 50.05100 25.77100
C  20.18400 50.17400 27.14700
C  19.06100 51.08000 27.25700
C  21.37500 49.12900 25.17100
C  20.55600 49.65900 28.44100
O  21.47500 48.93400 28.74900
C  19.51400 50.41800 29.47900
C  18.79900 49.37800 30.27600
O  17.61900 49.09200 30.17700
O  19.63300 48.92100 31.26000
C  19.18400 47.95200 32.24100
H  13.72600 54.30000 28.28900
H  14.79400 53.26600 21.88500
H  20.12900 50.52000 23.08000
H  16.48900 51.38700 30.72200
H  15.62200 54.14100 30.19200
H  14.42000 51.53000 30.85100
H  13.35000 52.42900 29.75500
H  13.71800 53.23200 31.20700
H  17.46300 53.99700 31.30700
H  18.79100 52.94900 30.73900
H  18.25900 53.41500 33.27000
H  18.75000 51.87100 32.60000
H  11.62400 55.77100 26.42200
H  11.53500 54.10800 27.24900
H  10.78300 54.26500 25.81000
H  10.33800 55.43000 22.19600
H  11.02500 56.09800 23.73800
H  10.18600 54.58800 23.78500
H  16.68400 52.72800 20.54100
H  18.88300 50.96700 21.11000
H  15.31700 50.96200 20.72800
H  16.57700 49.94500 21.49500
H  16.84600 50.48200 19.78900
H  19.88400 53.58800 21.73100
H  18.65000 53.84100 20.45500
H  20.27000 53.12000 18.88800
H  20.19000 51.63400 19.60000
H  21.28500 52.72500 20.22100
H  22.19900 49.69800 24.74100
H  20.90900 48.57100 24.35900
H  21.80900 48.37700 25.83000
H  20.06900 51.14500 30.07200
H  19.93500 48.05300 33.02500
H  19.20500 46.89500 31.97300
H  18.22800 48.27100 32.65800

