158

Mg -2.89200 17.47200 26.60200
C  -3.30200 15.42600 29.43700
C  -3.61400 20.19100 28.67100
C  -2.91100 19.46700 24.00300
C  -3.03900 14.64900 24.67900
N  -3.22600 17.68400 28.80400
C  -3.23600 16.78500 29.84600
C  -3.50500 17.39500 31.26400
C  -3.90200 18.83400 30.85700
C  -3.56700 18.91400 29.29900
C  -5.34800 19.37300 31.18000
C  -2.29600 17.27200 32.18700
C  -2.71900 16.86400 33.57100
H  -1.84000 16.99500 34.92300
N  -2.98500 19.57100 26.42000
C  -3.26200 20.51900 27.34700
C  -3.17800 21.82600 26.70300
C  -2.85600 21.64200 25.36300
C  -2.98300 20.19900 25.14900
C  -3.44700 23.07600 27.40600
C  -2.51200 22.59200 24.27700
O  -2.61000 22.25700 23.08400
C  -1.96200 24.05700 24.57200
N  -2.98000 17.10200 24.66400
C  -2.95800 18.11500 23.74000
C  -3.01300 17.58800 22.26100
C  -2.93700 16.01700 22.57400
C  -2.91700 15.88000 24.06800
C  -4.30500 18.04000 21.55500
C  -1.64900 15.46100 21.97200
C  -0.28800 15.53700 22.68000
N  -3.07500 15.46900 26.94000
C  -3.13800 14.42600 26.03900
C  -3.17800 13.20200 26.70300
C  -3.26500 13.52400 28.07400
C  -3.22700 14.96500 28.13500
C  -3.30000 11.86800 26.02900
C  -3.40600 12.94900 29.35200
O  -3.37700 11.75400 29.73200
C  -3.57300 14.22300 30.26600
C  -2.73300 13.99800 31.45800
O  -1.50500 13.94700 31.43400
O  -3.50400 13.68000 32.56300
C  -2.80800 13.26600 33.75400
H  -3.67500 21.00200 29.40000
H  -2.72400 19.91200 23.02400
H  -3.08700 13.75200 24.05900
H  -4.34400 16.87500 31.72700
H  -3.26200 19.54600 31.37900
H  -5.78000 18.65100 31.87300
H  -6.06200 19.45600 30.36000
H  -5.42600 20.29100 31.76200
H  -1.92600 18.27400 32.40400
H  -1.59600 16.61600 31.66900
H  -3.13900 15.85900 33.62900
H  -3.53000 17.56000 33.78600
H  -2.45300 23.38500 27.72900
H  -4.14000 22.85400 28.21600
H  -3.89600 23.86700 26.80500
H  -1.11200 24.02400 25.25300
H  -2.65000 24.71800 25.09900
H  -1.79400 24.59700 23.64000
H  -2.11600 17.83600 21.69300
H  -3.88800 15.54700 22.32400
H  -4.84100 18.63900 22.29100
H  -4.96000 17.20800 21.29900
H  -4.13100 18.71600 20.71700
H  -1.58100 15.88900 20.97200
H  -1.89200 14.41600 21.78000
H  -0.10100 14.62700 23.24900
H  -0.16800 16.48500 23.20600
H  0.49500 15.60200 21.92500
H  -2.49600 11.14000 26.13600
H  -3.59400 11.88000 24.98000
H  -4.15800 11.48000 26.57800
H  -4.59500 14.17800 30.64200
H  -1.77400 13.00000 33.53500
H  -3.18400 12.31400 34.12800
H  -2.79800 13.95200 34.60200
Mg 25.01000 1.55000 29.40500
C  27.03100 1.55400 32.28700
C  22.27700 1.94500 31.43400
C  23.12800 1.21400 26.64400
C  27.82900 0.86600 27.50500
N  24.71700 1.67300 31.62700
C  25.72200 1.91300 32.60400
C  25.12200 2.21600 33.93800
C  23.52300 2.09200 33.67600
C  23.44300 1.91900 32.12800
C  22.82300 0.99500 34.54500
C  25.66100 3.58000 34.47900
C  26.36800 3.57500 35.83000
H  25.81900 4.63500 36.84700
N  23.00100 1.58500 29.12200
C  21.99300 1.70200 30.02300
C  20.67800 1.64500 29.43800
C  20.89800 1.45500 28.04500
C  22.41000 1.45400 27.84000
C  19.33100 1.82400 30.23500
C  19.82500 1.19600 26.98800
O  20.19200 1.17200 25.77100
C  18.44500 0.98900 27.42800
N  25.39900 1.06900 27.36900
C  24.47900 1.13700 26.37100
C  25.10300 1.43400 24.91900
C  26.60800 1.33300 25.21200
C  26.61300 1.02400 26.80000
C  24.53300 0.37600 23.93100
C  27.40500 2.53600 24.76900
C  27.31000 3.77500 25.50700
N  26.98100 1.07100 29.81000
C  27.98200 0.84300 28.95100
C  29.25400 0.68300 29.62700
C  28.94000 0.89000 31.01800
C  27.52000 1.11900 31.03200
C  30.51900 0.66600 29.02700
C  29.51800 1.04900 32.31700
O  30.64200 0.85000 32.82700
C  28.24800 1.56500 33.22100
C  28.28300 0.66200 34.41900
O  27.82300 -0.45100 34.41700
O  28.80500 1.36200 35.47100
C  29.14200 0.35700 36.53700
H  21.41600 2.18300 32.06200
H  22.53200 1.22500 25.72900
H  28.70500 0.86300 26.85300
H  25.31000 1.44600 34.68700
H  23.03000 2.98200 34.06700
H  23.53300 0.35600 35.07100
H  22.24700 0.29400 33.94200
H  22.15700 1.48400 35.25600
H  24.83700 4.28700 34.58100
H  26.39100 4.03500 33.81000
H  27.39400 3.76700 35.51600
H  26.49100 2.62900 36.35700
H  19.44600 2.09000 31.28500
H  18.86400 0.84600 30.35400
H  18.74300 2.64000 29.81400
H  18.32000 0.24200 28.21200
H  17.91400 0.77900 26.50000
H  18.13900 1.97300 27.78300
H  24.82200 2.40000 24.50000
H  26.99900 0.52900 24.58800
H  23.96100 0.95300 23.20400
H  23.95200 -0.41200 24.41100
H  25.36400 -0.06500 23.38100
H  27.00600 2.81700 23.79400
H  28.40700 2.11600 24.67900
H  26.72400 3.59800 26.40900
H  26.85400 4.67200 25.08600
H  28.34100 4.05700 25.72100
H  30.93100 -0.32800 28.85600
H  31.24800 1.14000 29.68400
H  30.53100 1.18400 28.06800
H  28.54600 2.57700 33.49300
H  28.26500 -0.13000 36.96400
H  29.72700 0.82700 37.32900
H  29.80900 -0.34100 36.03200

