158

Mg 8.05100 3.42000 27.81200
C  9.53000 2.06900 30.60500
C  5.93000 5.33900 29.97800
C  6.26200 4.57800 25.05600
C  9.57000 1.12100 25.82100
N  7.78400 3.67600 30.07600
C  8.64000 3.07900 30.97100
C  8.44200 3.73100 32.34100
C  7.26300 4.73100 32.07100
C  6.93800 4.57300 30.62100
C  5.94000 4.47700 32.92300
C  9.73100 4.35200 32.89400
C  9.49800 5.18300 34.14700
H  10.36500 4.92600 35.35100
N  6.34500 4.73600 27.56000
C  5.69300 5.46200 28.58500
C  4.64400 6.20900 27.96600
C  4.68300 5.93400 26.56300
C  5.78100 5.04600 26.32600
C  3.71400 7.02900 28.74300
C  3.86500 6.52800 25.42400
O  3.87100 6.16400 24.25500
C  2.89400 7.66400 25.74200
N  7.96300 2.90900 25.72700
C  7.20300 3.58100 24.77200
C  7.58400 3.20000 23.34400
C  8.57600 2.04800 23.61800
C  8.77300 2.05500 25.12000
C  6.27000 2.82700 22.47600
C  9.80500 1.85800 22.80700
C  9.91300 0.57000 21.93900
N  9.21900 1.95800 28.03400
C  9.81400 1.10000 27.20400
C  10.65900 0.17700 27.86000
C  10.63500 0.58000 29.18000
C  9.70300 1.61600 29.26300
C  11.30600 -0.99800 27.15400
C  11.21200 0.33000 30.55300
O  12.00000 -0.52000 30.94400
C  10.59300 1.43300 31.51700
C  9.88400 0.83300 32.71100
O  8.86100 0.19500 32.75300
O  10.48400 1.24000 33.83900
C  9.84400 0.89800 35.09800
H  5.38900 5.94400 30.70900
H  5.78200 5.03200 24.18600
H  10.16200 0.48600 25.15900
H  8.12900 2.93900 33.02200
H  7.64000 5.75100 32.00700
H  5.58900 5.39600 33.39200
H  6.23100 3.80100 33.72700
H  5.17500 3.95000 32.35300
H  10.19100 5.03800 32.18200
H  10.53100 3.64500 33.11200
H  8.46400 5.04800 34.46300
H  9.57300 6.24300 33.90500
H  3.95700 8.07300 28.54600
H  3.83300 7.03400 29.82600
H  2.66100 6.85800 28.52200
H  2.06100 7.20200 26.27200
H  2.66700 8.19900 24.82000
H  3.43300 8.32800 26.41700
H  8.19000 3.95900 22.85000
H  7.95200 1.18600 23.38500
H  6.32600 1.90400 21.90000
H  6.12300 3.62800 21.75200
H  5.44800 2.90800 23.18800
H  10.68100 1.93300 23.45100
H  10.02200 2.68400 22.13000
H  10.77100 0.03600 22.34700
H  10.09600 0.89300 20.91400
H  9.01300 -0.04200 21.89800
H  12.06900 -0.53400 26.52900
H  10.54600 -1.56100 26.61200
H  11.80600 -1.58500 27.92500
H  11.43400 2.09600 31.72000
H  10.44200 1.42800 35.83900
H  9.96300 -0.18500 35.06000
H  8.80100 1.21000 35.04800
Mg 40.35200 10.17700 29.32000
C  42.13900 11.31900 32.25000
C  38.07100 8.64700 31.46300
C  38.89300 8.74100 26.66200
C  43.06800 11.05200 27.53100
N  40.08200 10.08300 31.55600
C  40.87100 10.67300 32.56100
C  40.33000 10.36300 33.98400
C  39.06500 9.38700 33.69700
C  39.04600 9.35200 32.11000
C  39.17600 7.96000 34.33900
C  39.98800 11.66700 34.65600
C  39.91500 11.38900 36.17700
H  40.68600 12.26100 37.16800
N  38.59200 9.02600 29.08900
C  37.79900 8.50900 30.06500
C  36.61200 7.86600 29.50900
C  36.78700 8.07800 28.07200
C  38.14300 8.63500 27.88800
C  35.54200 7.12300 30.32300
C  35.87100 7.65600 26.89500
O  36.25000 7.84700 25.74600
C  34.45900 7.20800 27.28100
N  40.97800 9.76300 27.41600
C  40.22000 9.18700 26.45700
C  41.02600 9.14800 25.09600
C  42.28900 9.96000 25.37600
C  42.10500 10.28600 26.84000
C  41.14100 7.73100 24.58800
C  42.37100 11.27500 24.60900
C  41.30200 12.41700 24.69200
N  42.18900 11.07900 29.69900
C  43.12400 11.48800 28.86000
C  44.20300 12.23700 29.54100
C  43.81600 12.15800 30.90300
C  42.61600 11.50500 30.93200
C  45.45400 12.86000 29.04600
C  44.22000 12.47400 32.21500
O  45.24200 13.02700 32.60900
C  43.14200 11.98800 33.18400
C  43.81000 11.00300 34.15800
O  44.03700 9.82500 33.94600
O  44.21600 11.65400 35.27000
C  44.77400 10.73000 36.29600
H  37.32500 8.33400 32.19600
H  38.43600 8.37600 25.74000
H  43.84000 11.43600 26.86100
H  41.22600 9.85300 34.33700
H  38.11400 9.82500 34.00000
H  39.66200 8.14800 35.29600
H  39.70700 7.27600 33.67700
H  38.17200 7.58600 34.53700
H  38.96400 11.92500 34.38300
H  40.67500 12.50500 34.54300
H  40.19700 10.34900 36.34100
H  38.85300 11.37500 36.41900
H  35.62300 7.17900 31.40800
H  35.48100 6.11500 29.91100
H  34.59200 7.65400 30.26600
H  33.93900 7.84900 27.99200
H  34.57500 6.23700 27.76200
H  33.83200 7.10900 26.39500
H  40.45500 9.72800 24.37100
H  43.12500 9.26200 25.34800
H  40.86200 6.98800 25.33600
H  42.17200 7.42200 24.41700
H  40.43200 7.51200 23.78900
H  42.35900 10.97400 23.56200
H  43.37800 11.67400 24.72700
H  40.85500 12.44200 23.69900
H  41.69700 13.43000 24.77500
H  40.50000 12.22500 25.40500
H  45.47900 12.72500 27.96500
H  46.36800 12.33400 29.32200
H  45.53800 13.91100 29.32300
H  42.60600 12.83300 33.61500
H  44.12900 9.90800 36.60700
H  44.86500 11.33700 37.19700
H  45.72200 10.34300 35.92300

