158

Mg 43.31400 2.92700 47.16500
C  41.65400 5.90000 46.49000
C  40.39500 1.16700 46.58900
C  45.10600 0.08600 47.10900
C  46.28300 4.81900 46.89900
N  41.29600 3.46300 46.65800
C  40.84000 4.75500 46.48100
C  39.37800 4.64800 46.00500
C  38.98600 3.25200 46.55100
C  40.30500 2.54200 46.60500
C  38.21200 3.19500 47.93100
C  39.21200 4.71700 44.47600
C  38.49100 6.00700 44.00300
H  39.09900 6.63100 42.70100
N  42.79800 0.87000 46.83500
C  41.59400 0.41200 46.67600
C  41.59600 -1.02800 46.64900
C  42.92200 -1.41600 46.63300
C  43.70200 -0.13500 46.87400
C  40.27400 -1.87200 46.63800
C  43.44700 -2.85000 46.43800
O  42.71500 -3.79700 46.17700
C  44.97000 -3.05400 46.54900
N  45.42500 2.52100 46.64800
C  45.85000 1.29600 47.06400
C  47.43200 1.33300 47.19600
C  47.72900 2.82800 46.80400
C  46.34000 3.41500 46.86100
C  48.00500 0.92200 48.62500
C  48.26500 2.87300 45.34500
C  49.75000 3.45300 45.29700
N  43.94400 5.00200 46.88800
C  45.14400 5.62200 46.83800
C  44.95600 7.02400 46.86000
C  43.58600 7.16000 46.68100
C  43.02800 5.93600 46.69600
C  46.02400 8.10000 46.98500
C  42.53100 8.16200 46.53300
O  42.60200 9.39900 46.42200
C  41.18900 7.32000 46.40000
C  40.36900 7.73800 47.56000
O  40.47400 7.34500 48.72900
O  39.45200 8.69500 47.08300
C  38.65600 9.47300 48.07000
H  39.46800 0.62000 46.40400
H  45.79400 -0.76200 47.09800
H  47.21500 5.38000 46.99300
H  38.74800 5.34400 46.56000
H  38.31600 2.68100 45.90700
H  38.95200 3.15900 48.73100
H  37.74200 2.21300 47.99000
H  37.52000 4.01900 48.10400
H  38.62600 3.84300 44.19000
H  40.23300 4.64100 44.10100
H  38.58900 6.73000 44.81200
H  37.41700 5.85900 43.89300
H  39.70800 -1.62500 45.73900
H  39.68100 -1.55100 47.49300
H  40.52200 -2.93200 46.58400
H  45.35400 -2.40700 45.76000
H  45.30000 -4.06900 46.32600
H  45.21300 -2.72700 47.56000
H  47.74600 0.57300 46.47900
H  48.35600 3.34000 47.53400
H  47.19900 0.49700 49.22400
H  48.41900 1.86000 48.99700
H  48.86400 0.25000 48.62200
H  47.68200 3.59200 44.77000
H  48.19400 1.92700 44.80800
H  49.59100 4.52500 45.18200
H  50.44400 2.97500 44.60600
H  50.14100 3.21000 46.28500
H  45.54500 9.05500 46.77000
H  46.70400 7.89800 46.15700
H  46.55600 7.87200 47.90900
H  40.64500 7.45800 45.46500
H  38.81200 9.26600 49.12800
H  37.59300 9.34400 47.86400
H  38.89500 10.50700 47.82000
Mg 36.28500 49.56600 24.83700
C  36.51800 47.85900 27.86400
C  35.22700 52.32000 26.46200
C  36.00100 51.05400 21.85000
C  37.43900 46.61700 23.19800
N  35.84200 49.98900 26.91200
C  36.14400 49.18100 27.99300
C  35.81600 49.93200 29.31100
C  35.47800 51.35900 28.87300
C  35.46000 51.23500 27.29800
C  34.16200 51.93600 29.45000
C  36.89600 49.92600 30.48500
C  36.42100 49.42600 31.83600
H  34.93400 49.38400 32.34600
N  35.68000 51.44900 24.21100
C  35.22600 52.47300 25.02900
C  34.90200 53.61500 24.20400
C  35.08400 53.22800 22.87200
C  35.57200 51.85600 22.92000
C  34.57500 55.04500 24.74700
C  34.79500 54.07700 21.59500
O  34.79000 53.65800 20.42600
C  34.61600 55.61000 21.69700
N  36.36600 48.83600 22.73400
C  36.33500 49.72300 21.76600
C  36.75000 49.12700 20.41700
C  37.32100 47.72100 20.78700
C  36.99200 47.70200 22.33900
C  35.55200 48.95500 19.43500
C  38.83900 47.48700 20.48900
C  39.92000 48.33500 21.25200
N  36.78300 47.59300 25.39800
C  37.26000 46.51800 24.62300
C  37.54400 45.39600 25.53800
C  37.22300 45.88000 26.81600
C  36.87500 47.21700 26.69400
C  38.09900 44.05500 25.24200
C  37.10200 45.56100 28.20500
O  37.31100 44.53400 28.82600
C  36.68900 46.81900 28.96600
C  35.36700 46.44300 29.69900
O  34.31000 46.47800 29.17400
O  35.69800 45.88700 30.91900
C  34.60100 45.41700 31.81000
H  34.80200 53.19000 26.96600
H  35.94000 51.56900 20.88900
H  37.82200 45.71800 22.71000
H  34.90400 49.46500 29.68200
H  36.36000 51.97100 29.06600
H  34.46500 52.39400 30.39100
H  33.47100 51.14000 29.72700
H  33.59200 52.61500 28.81600
H  37.29800 50.90100 30.76100
H  37.71100 49.25500 30.21400
H  36.99800 50.01800 32.54600
H  36.74600 48.39500 31.97100
H  33.67200 55.49200 24.32900
H  35.43200 55.71200 24.65500
H  34.19000 54.95900 25.76300
H  33.70300 55.69900 22.28600
H  34.39700 56.18500 20.79700
H  35.50800 55.98800 22.19600
H  37.47200 49.75100 19.89000
H  36.61400 46.99800 20.38100
H  34.79500 49.72300 19.59000
H  35.00400 48.02800 19.60300
H  35.90200 49.08200 18.41100
H  38.98700 47.50700 19.41000
H  38.96400 46.41700 20.65100
H  39.46900 48.72600 22.16400
H  40.23300 49.07700 20.51800
H  40.62400 47.58200 21.60700
H  38.23000 43.45900 26.14500
H  39.07500 44.19100 24.77600
H  37.63000 43.42600 24.48600
H  37.48100 47.17500 29.62400
H  34.62500 44.32800 31.75600
H  33.62200 45.72500 31.44400
H  34.75300 45.82100 32.81100

