158

Mg 17.53400 -0.96000 28.53700
C  16.79200 1.20300 31.07600
C  19.60000 -2.79000 30.76600
C  19.02000 -2.53600 25.88500
C  16.02300 1.28500 26.27900
N  18.25500 -0.66400 30.64900
C  17.63000 0.11700 31.50700
C  17.82200 -0.31700 32.96500
C  18.95100 -1.36500 32.85600
C  18.88500 -1.68600 31.34600
C  20.41300 -0.93700 33.22200
C  16.35900 -0.77300 33.57600
C  15.89800 -0.34100 34.96600
H  17.07500 -0.00100 35.94500
N  18.96400 -2.46500 28.35200
C  19.63000 -3.11500 29.39100
C  20.36600 -4.27200 28.82000
C  20.27700 -4.15800 27.35300
C  19.43600 -2.96100 27.14600
C  20.96500 -5.40000 29.61300
C  20.93200 -5.02100 26.35400
O  20.96800 -4.75300 25.16000
C  21.62500 -6.29300 26.77000
N  17.66000 -0.62200 26.38100
C  18.26200 -1.46200 25.51100
C  18.00700 -1.08800 24.03700
C  16.94300 0.06900 24.24500
C  16.82800 0.28900 25.70400
C  19.22900 -0.70700 23.13300
C  15.57800 -0.20800 23.53000
C  14.48600 -1.13600 24.20400
N  16.47200 0.81300 28.62300
C  15.82800 1.59300 27.69700
C  15.22500 2.77000 28.31900
C  15.51700 2.55400 29.66500
C  16.28300 1.40100 29.75500
C  14.61300 3.93400 27.76400
C  15.38800 3.15500 31.00600
O  14.83900 4.19000 31.30700
C  16.09700 2.24900 31.94200
C  17.01300 3.07600 32.76000
O  18.02600 3.63300 32.34500
O  16.47800 3.28900 34.00000
C  17.16700 4.33600 34.83700
H  20.09500 -3.41100 31.51500
H  19.37800 -3.05400 24.99300
H  15.42300 1.93700 25.64200
H  18.21100 0.60800 33.38900
H  18.64000 -2.22800 33.44500
H  21.18400 -1.07300 32.46400
H  20.78100 -1.50800 34.07400
H  20.42600 0.13700 33.40300
H  16.45500 -1.85100 33.69900
H  15.61700 -0.60000 32.79600
H  15.36500 -1.11500 35.51700
H  15.35800 0.60500 35.01600
H  20.33300 -6.25700 29.38400
H  20.86500 -5.28400 30.69300
H  22.03900 -5.49300 29.45400
H  22.48900 -6.16500 27.42100
H  21.91300 -6.78000 25.83800
H  20.89900 -6.89900 27.31300
H  17.40100 -1.89100 23.61600
H  17.32100 0.98100 23.78300
H  20.15200 -0.97200 23.64800
H  19.28300 0.36100 22.92200
H  19.27500 -1.23700 22.18200
H  15.80200 -0.66900 22.56800
H  15.02800 0.73200 23.49700
H  13.49500 -0.71600 24.37900
H  14.75800 -1.62300 25.14000
H  14.36400 -2.05000 23.62200
H  14.63000 4.80500 28.42000
H  13.56300 3.72300 27.56100
H  15.13200 4.08100 26.81700
H  15.27700 1.77500 32.48100
H  16.66300 5.25600 34.54300
H  18.24200 4.45600 34.69900
H  16.95400 3.96500 35.83900
Mg 41.65700 9.00300 29.42500
C  43.57100 10.41000 31.95200
C  39.55500 7.65600 31.84100
C  39.85900 7.67700 26.95000
C  44.16100 9.87500 27.20400
N  41.78900 8.70200 31.71500
C  42.47100 9.62500 32.48900
C  41.97800 9.50700 33.97400
C  40.73100 8.49900 33.89700
C  40.69900 8.21500 32.41600
C  40.58000 7.35000 34.95900
C  41.78500 10.89900 34.65200
C  41.10100 10.84500 36.01100
H  41.90400 11.21500 37.19400
N  39.94600 7.85200 29.35700
C  39.21500 7.43600 30.48700
C  38.00700 6.76000 30.01500
C  38.08800 6.72500 28.57800
C  39.29300 7.46000 28.25100
C  37.17100 5.96500 30.98200
C  37.09500 6.13100 27.63400
O  37.39500 5.79600 26.44800
C  35.73400 5.84000 28.04100
N  41.99800 8.79300 27.38600
C  41.05500 8.32100 26.47900
C  41.56100 8.25900 25.01800
C  42.87700 9.13700 25.10800
C  43.07600 9.20900 26.67800
C  41.75500 6.85900 24.36800
C  42.81900 10.43500 24.28100
C  42.43200 11.77800 24.97500
N  43.51000 9.89100 29.54100
C  44.38000 10.20000 28.53200
C  45.48500 10.97900 29.02500
C  45.12700 11.15700 30.35000
C  44.00000 10.39100 30.62600
C  46.64900 11.44400 28.22700
C  45.50900 11.84300 31.58700
O  46.47600 12.57800 31.88100
C  44.52600 11.36000 32.73200
C  45.32000 10.58400 33.70500
O  45.77800 9.50800 33.40400
O  45.34200 11.18100 34.97800
C  45.95500 10.41800 36.07500
H  38.83700 7.44000 32.63500
H  39.25800 7.36700 26.09200
H  44.91600 10.09600 26.44800
H  42.78900 9.02000 34.51500
H  39.87700 9.14100 34.11100
H  41.33100 7.34700 35.75000
H  40.55400 6.33100 34.57200
H  39.61200 7.45400 35.44900
H  41.20500 11.40300 33.87800
H  42.76200 11.38200 34.67800
H  40.61600 9.89500 36.23200
H  40.32600 11.60900 35.95500
H  37.86400 5.58200 31.73100
H  36.76800 5.07200 30.50500
H  36.39200 6.57200 31.44300
H  35.37800 6.62300 28.71100
H  35.87800 4.93800 28.63600
H  35.14200 5.65000 27.14600
H  40.93000 8.74500 24.27400
H  43.73600 8.66200 24.63300
H  41.82900 6.07600 25.12300
H  42.64100 6.83900 23.73500
H  40.89200 6.66800 23.73000
H  42.22500 10.28400 23.38000
H  43.86200 10.49000 23.96900
H  41.93900 11.54600 25.92000
H  41.84300 12.43500 24.33600
H  43.35300 12.30000 25.23600
H  47.55900 11.21800 28.78200
H  46.44100 12.47700 27.94800
H  46.82500 10.80700 27.36100
H  44.07800 12.28400 33.09700
H  47.04100 10.49600 36.13200
H  45.70400 9.35700 36.05000
H  45.56500 10.79500 37.02100

