158

Mg 3.45600 0.69500 44.44300
C  6.25500 2.77800 44.25500
C  1.55300 3.20300 42.98100
C  0.89900 -1.55500 43.90900
C  5.64400 -1.95800 45.28900
N  3.87800 2.67300 43.70000
C  5.11400 3.30700 43.66400
C  4.97300 4.77500 43.28200
C  3.36000 4.95100 43.20600
C  2.86400 3.55500 43.33500
C  2.69900 5.89700 44.26000
C  5.74500 5.11700 41.89700
C  6.08800 3.97000 40.93300
H  6.51600 4.25300 39.50100
N  1.43100 0.79000 43.70400
C  0.88400 1.91400 43.13400
C  -0.42300 1.59600 42.66300
C  -0.64600 0.22400 42.97600
C  0.55700 -0.26200 43.59000
C  -1.41800 2.62800 42.03100
C  -1.92300 -0.64700 42.56000
O  -2.83200 -0.09000 41.98100
C  -2.20400 -2.06700 43.02300
N  3.32400 -1.46900 44.37800
C  2.11600 -2.12700 44.28900
C  2.36000 -3.59500 44.51300
C  3.78000 -3.73400 45.18400
C  4.30800 -2.32000 44.92600
C  1.30000 -4.42100 45.16700
C  4.68900 -4.98300 44.71800
C  5.35000 -5.73400 45.82300
N  5.50100 0.35200 44.67300
C  6.23600 -0.70900 45.16800
C  7.55900 -0.31000 45.49900
C  7.69100 1.00500 45.07900
C  6.39800 1.37700 44.65500
C  8.64200 -1.20200 45.98200
C  8.54600 2.20400 44.97300
O  9.73700 2.32000 45.14100
C  7.60400 3.35300 44.49500
C  7.61500 4.55600 45.35500
O  8.38700 5.47700 45.14800
O  6.69600 4.58300 46.34500
C  6.62000 5.81900 47.16300
H  1.01000 4.08300 42.63100
H  0.13500 -2.32500 43.78100
H  6.27300 -2.73600 45.72700
H  5.38200 5.31400 44.13700
H  3.11100 5.38000 42.23600
H  3.02400 5.48600 45.21600
H  1.64700 5.79900 43.99100
H  3.02000 6.93400 44.16400
H  6.64300 5.54600 42.34400
H  5.17800 5.89800 41.38900
H  5.40100 3.12500 40.96300
H  7.02500 3.52500 41.26500
H  -1.41400 2.38600 40.96800
H  -1.06200 3.65400 42.11900
H  -2.43200 2.42800 42.37700
H  -1.94600 -2.18700 44.07500
H  -1.55900 -2.59300 42.31900
H  -3.27000 -2.29100 42.97900
H  2.31200 -3.87000 43.45900
H  3.58100 -3.70300 46.25600
H  0.64400 -3.82600 45.80100
H  1.80500 -5.22900 45.69600
H  0.83500 -4.92400 44.31900
H  5.33500 -4.59100 43.93300
H  4.09200 -5.73100 44.19600
H  4.91600 -5.43000 46.77600
H  6.41200 -5.50200 45.75300
H  5.13100 -6.80100 45.82700
H  8.88800 -2.02800 45.31500
H  8.37500 -1.53300 46.98500
H  9.61600 -0.71400 46.01000
H  8.24700 3.59300 43.64800
H  5.84600 6.47500 46.76600
H  7.57600 6.34200 47.17700
H  6.32000 5.54500 48.17400
Mg 17.68600 -1.94800 28.44000
C  16.74700 0.31300 31.08400
C  19.47900 -3.76000 30.58300
C  18.29700 -4.01400 25.90400
C  16.35200 0.39600 26.33100
N  18.24400 -1.54800 30.52700
C  17.72900 -0.64800 31.41300
C  18.20400 -1.04500 32.80500
C  19.14500 -2.24300 32.61900
C  18.85300 -2.61700 31.14700
C  20.67100 -1.88100 32.98000
C  17.04700 -1.31400 33.80400
C  17.09000 -0.72600 35.21300
H  18.35500 -0.65800 35.94800
N  18.66100 -3.76300 28.34600
C  19.38800 -4.30700 29.31500
C  19.99200 -5.55600 28.83600
C  19.72500 -5.66700 27.44500
C  18.81300 -4.49000 27.15900
C  20.56600 -6.54400 29.78900
C  20.17700 -6.75200 26.36000
O  19.79400 -6.73800 25.19200
C  21.05400 -7.88700 26.82400
N  17.44700 -1.78600 26.37900
C  17.71600 -2.79200 25.54500
C  17.50000 -2.38300 24.03900
C  16.77200 -0.97800 24.19400
C  16.92300 -0.70400 25.70400
C  18.61500 -2.48700 23.03800
C  15.31100 -0.85800 23.61600
C  15.24900 -0.19300 22.25800
N  16.73200 0.02300 28.57100
C  16.15800 0.73800 27.61100
C  15.43700 1.84500 28.13100
C  15.67500 1.78500 29.51100
C  16.48000 0.60100 29.76300
C  14.64000 2.81700 27.26200
C  15.45900 2.40900 30.79100
O  14.80600 3.38500 31.16900
C  16.11400 1.42000 31.82500
C  17.10700 2.16600 32.66400
O  18.32100 2.33800 32.41600
O  16.42700 2.79400 33.64400
C  17.33100 3.77000 34.39700
H  19.94600 -4.39500 31.33900
H  18.53600 -4.59100 25.00800
H  15.97900 1.10900 25.59300
H  18.75400 -0.13000 33.02600
H  18.77600 -3.01000 33.30100
H  20.95200 -2.02500 34.02400
H  20.90100 -0.82900 32.80700
H  21.32900 -2.50000 32.37000
H  17.11500 -2.37100 34.06300
H  16.09300 -1.13800 33.30800
H  16.43300 -1.20900 35.93600
H  16.53800 0.21400 35.19000
H  21.48000 -6.07400 30.15300
H  20.95600 -7.51100 29.47100
H  20.00300 -6.67300 30.71300
H  21.38200 -8.53400 26.01000
H  20.41900 -8.42900 27.52400
H  21.89300 -7.41000 27.32900
H  16.76300 -3.10200 23.68200
H  17.32900 -0.27100 23.57900
H  19.54700 -2.74500 23.54100
H  18.85900 -1.51300 22.61400
H  18.36400 -3.24000 22.29200
H  14.74100 -0.32100 24.37300
H  14.80000 -1.81800 23.54400
H  16.21900 -0.00400 21.79800
H  14.79400 0.79400 22.34300
H  14.72900 -0.90100 21.61300
H  15.24300 3.58800 26.78400
H  14.06400 3.33000 28.03200
H  13.95400 2.39700 26.52600
H  15.23500 1.14700 32.40900
H  16.97100 4.78200 34.21600
H  18.40300 3.74000 34.20400
H  17.16200 3.68100 35.47000

