158

Mg -2.20900 16.93400 26.88600
C  -2.91300 14.68100 29.57600
C  -2.59800 19.50600 29.20600
C  -1.97600 19.07500 24.35500
C  -2.46600 14.21400 24.72100
N  -2.91800 17.08900 29.13300
C  -3.00100 16.00000 30.09400
C  -3.07300 16.41300 31.59400
C  -3.00000 17.98900 31.36400
C  -2.85000 18.19400 29.79900
C  -4.14100 18.84700 32.00300
C  -1.79800 15.93300 32.39000
C  -1.31900 16.72500 33.63200
H  -1.16000 15.89800 34.94400
N  -2.30200 18.94200 26.73800
C  -2.39100 19.81700 27.80100
C  -2.21800 21.17100 27.35300
C  -2.13600 21.10000 25.92900
C  -2.16000 19.68700 25.63900
C  -2.15200 22.29500 28.33300
C  -2.04800 22.19500 24.88400
O  -2.12800 22.05200 23.64700
C  -1.86400 23.61000 25.36200
N  -2.20000 16.61900 24.82300
C  -2.03800 17.70100 23.99500
C  -1.98600 17.23400 22.55900
C  -2.06800 15.66000 22.67400
C  -2.26200 15.46000 24.16600
C  -3.07300 17.64800 21.54300
C  -0.90400 14.86200 22.03600
C  -1.22600 13.90100 20.90100
N  -2.49900 14.85100 27.05400
C  -2.59800 13.92900 26.05200
C  -2.91300 12.64600 26.58900
C  -3.00200 12.87600 27.98400
C  -2.75400 14.23600 28.19900
C  -2.89600 11.35300 25.85700
C  -3.29400 12.26700 29.26300
O  -3.64500 11.09800 29.51600
C  -3.06000 13.37900 30.32600
C  -1.90100 12.92300 31.13300
O  -0.73500 13.29300 31.10700
O  -2.46600 11.99300 32.00300
C  -1.60800 11.43800 33.02700
H  -2.62000 20.34300 29.90700
H  -1.75100 19.63900 23.44800
H  -2.71700 13.35600 24.09400
H  -4.00400 16.12600 32.08300
H  -2.04400 18.30900 31.77800
H  -4.83000 18.16600 32.50300
H  -4.45100 19.42100 31.13000
H  -3.64900 19.49700 32.72700
H  -0.94200 15.73700 31.74400
H  -1.98300 14.90200 32.69000
H  -1.95700 17.59000 33.81500
H  -0.31300 17.12300 33.49900
H  -1.53700 23.08500 27.90100
H  -1.57000 22.04100 29.21900
H  -3.11600 22.71900 28.61500
H  -1.78200 24.10800 24.39600
H  -1.00500 23.72200 26.02300
H  -2.73700 24.01900 25.87200
H  -1.04100 17.53400 22.10500
H  -2.99500 15.30800 22.22200
H  -3.12700 18.72000 21.35000
H  -4.01000 17.29900 21.97600
H  -3.00200 17.18600 20.55800
H  -0.42000 14.24700 22.79500
H  -0.22800 15.65300 21.70900
H  -0.99600 12.89700 21.25900
H  -0.53300 14.14300 20.09600
H  -2.20400 14.06400 20.44800
H  -2.73900 10.64600 26.67200
H  -1.99300 11.23000 25.25800
H  -3.73500 11.30000 25.16200
H  -3.99900 13.38100 30.88000
H  -1.67700 10.35300 32.95300
H  -2.14900 11.57600 33.96300
H  -0.56600 11.75800 32.99600
Mg 16.78100 51.65400 26.59700
C  18.98400 50.56500 29.24300
C  14.60000 52.70000 29.13400
C  14.91000 52.96700 24.22400
C  19.33500 51.05200 24.36100
N  16.77500 51.60700 28.86400
C  17.72200 51.14500 29.72300
C  17.36600 51.39300 31.19100
C  15.91200 51.75000 31.10600
C  15.74000 52.03500 29.58400
C  15.00600 50.59600 31.64100
C  18.33900 52.46700 31.83100
C  18.64600 52.36400 33.30400
H  17.65800 51.58600 34.22100
N  15.01700 52.71400 26.67500
C  14.25100 53.07900 27.75300
C  13.03700 53.84200 27.32900
C  13.05400 53.81800 25.89600
C  14.33500 53.12000 25.53500
C  12.03600 54.29500 28.37400
C  12.09800 54.43200 24.87000
O  12.25700 54.46900 23.65800
C  10.99500 55.13300 25.46400
N  16.97500 51.86500 24.52900
C  16.08000 52.42300 23.74300
C  16.49500 52.31500 22.25500
C  17.95800 51.95600 22.33300
C  18.17000 51.73300 23.88900
C  15.56600 51.38100 21.54100
C  18.96100 53.17100 21.92600
C  20.15200 52.89800 21.03000
N  18.64100 50.73800 26.67600
C  19.53100 50.50700 25.66800
C  20.64900 49.81500 26.17300
C  20.42300 49.72900 27.59000
C  19.30100 50.38700 27.85000
C  21.96500 49.44800 25.49500
C  21.10000 49.34900 28.86100
O  22.15400 48.72500 29.01700
C  20.22500 49.97900 30.00100
C  19.87300 48.84500 30.90600
O  19.22100 47.88400 30.59000
O  20.22800 49.14500 32.22200
C  20.10800 48.06200 33.26500
H  13.91200 53.00000 29.92700
H  14.33700 53.48700 23.45300
H  20.13000 50.98300 23.61600
H  17.55600 50.48800 31.76800
H  15.85700 52.74300 31.55200
H  15.52500 49.74700 32.08600
H  14.29900 50.21500 30.90500
H  14.42000 50.99700 32.46800
H  17.87500 53.42700 31.60500
H  19.29300 52.46700 31.30400
H  18.85800 53.31700 33.79000
H  19.58400 51.81600 33.21200
H  11.07200 53.78700 28.40700
H  11.83200 55.35500 28.21900
H  12.44800 54.22900 29.38100
H  10.49900 55.45500 24.54900
H  11.38900 55.99400 26.00400
H  10.38900 54.51500 26.12600
H  16.37500 53.35300 21.94700
H  18.22300 51.08800 21.72800
H  14.66800 51.02600 22.04600
H  16.09900 50.45600 21.31800
H  15.32900 51.82700 20.57500
H  19.41800 53.70300 22.76000
H  18.37600 53.90800 21.37500
H  20.17900 51.86500 20.68500
H  21.12500 53.08300 21.48500
H  20.18500 53.50800 20.12700
H  22.13400 50.29800 24.83400
H  21.96300 48.52100 24.92100
H  22.70900 49.38800 26.28900
H  20.79300 50.73300 30.54500
H  20.09800 47.05400 32.85000
H  19.40600 48.32700 34.05500
H  21.07200 48.20200 33.75500

