158

Mg 35.02000 49.51700 25.76600
C  35.02000 47.93600 28.87100
C  33.95700 52.36200 27.29400
C  34.90800 51.13000 22.71000
C  35.69600 46.51700 24.15900
N  34.33800 50.01800 27.85000
C  34.62500 49.23300 28.98000
C  34.47600 49.98900 30.27000
C  34.16800 51.48400 29.71600
C  34.14000 51.27700 28.16500
C  32.93400 52.14200 30.24500
C  35.69200 50.06100 31.16500
C  35.42300 49.68900 32.69400
H  33.95000 49.52200 33.20500
N  34.50000 51.45300 25.05900
C  34.05200 52.50500 25.86100
C  33.58600 53.58300 25.02400
C  33.91300 53.24400 23.65200
C  34.49500 51.93000 23.76600
C  32.86600 54.82600 25.64500
C  33.77500 54.06700 22.37300
O  34.04800 53.61400 21.26500
C  33.12900 55.44400 22.55600
N  35.15000 48.90700 23.77700
C  35.19700 49.77200 22.68800
C  35.92600 49.13300 21.47400
C  36.20600 47.70500 21.95500
C  35.64000 47.68900 23.39100
C  35.01800 49.06000 20.21700
C  37.79600 47.32100 21.89800
C  38.08500 46.46200 20.63200
N  35.41300 47.54400 26.31700
C  35.62500 46.35100 25.59300
C  35.90100 45.29500 26.48100
C  35.68200 45.87600 27.72800
C  35.35300 47.22600 27.58800
C  36.32300 43.88600 26.06600
C  35.56800 45.53900 29.16600
O  35.74400 44.52100 29.72100
C  35.17600 46.89600 30.00200
C  33.95000 46.52900 30.75500
O  32.80500 46.88100 30.52100
O  34.28500 45.77000 31.86600
C  33.24900 45.23000 32.78900
H  33.58400 53.27700 27.75900
H  35.12000 51.56300 21.73000
H  35.96800 45.58100 23.66700
H  33.59700 49.64500 30.81500
H  35.03700 52.11100 29.91500
H  32.14500 51.44500 30.52800
H  32.53100 52.91900 29.59500
H  33.31500 52.63100 31.14100
H  36.14900 51.05000 31.14900
H  36.46900 49.40500 30.77400
H  35.89100 50.48900 33.26900
H  35.94300 48.75700 32.91200
H  33.48900 55.11700 26.49000
H  31.92000 54.42700 26.01000
H  32.84100 55.70100 24.99500
H  33.03800 55.90900 21.57400
H  33.76000 56.14200 23.10600
H  32.08600 55.36900 22.86200
H  36.83400 49.72400 21.34500
H  35.65300 46.97900 21.35900
H  34.24100 49.82300 20.26500
H  34.62000 48.07500 19.97500
H  35.60200 49.53600 19.42900
H  38.19600 46.78700 22.76100
H  38.43800 48.18700 21.73600
H  37.31600 46.44100 19.86000
H  38.20400 45.43000 20.96200
H  38.91500 46.81800 20.02100
H  36.87500 43.47900 26.91400
H  37.01800 43.84200 25.22800
H  35.45900 43.26700 25.82500
H  36.02000 47.19500 30.62400
H  33.05600 44.25700 32.33700
H  32.27400 45.70700 32.70200
H  33.63700 45.14200 33.80400
Mg -5.19400 24.46400 27.31600
C  -3.83000 26.48000 29.67100
C  -6.49300 22.50700 29.77300
C  -5.97000 22.17200 24.98400
C  -3.61800 26.27300 24.77000
N  -5.20400 24.57000 29.42500
C  -4.70400 25.53000 30.24000
C  -4.94100 25.26900 31.72800
C  -5.66000 23.91100 31.72300
C  -5.79800 23.65200 30.26000
C  -4.99400 22.78200 32.57700
C  -5.73400 26.43900 32.45500
C  -5.52700 26.52000 33.98000
H  -6.73500 26.56000 34.90500
N  -6.32500 22.74000 27.32200
C  -6.69900 22.07800 28.43900
C  -7.33200 20.85900 28.10100
C  -7.19100 20.69500 26.71500
C  -6.47500 21.89700 26.21200
C  -8.09900 20.08100 29.02200
C  -7.76100 19.60200 25.82900
O  -7.73600 19.69900 24.61600
C  -8.42500 18.39800 26.39600
N  -4.91600 24.30200 25.13400
C  -5.14600 23.23500 24.45700
C  -4.73000 23.31000 22.96800
C  -4.24200 24.82400 22.91000
C  -4.25500 25.20600 24.37400
C  -3.63300 22.17800 22.75300
C  -5.23300 25.75700 22.12100
C  -4.65500 27.09500 21.82500
N  -4.01000 26.01400 27.21500
C  -3.44900 26.63400 26.11100
C  -2.69300 27.78200 26.58900
C  -2.77700 27.77600 27.95600
C  -3.59200 26.66100 28.28900
C  -2.11700 28.73300 25.67000
C  -2.48300 28.45300 29.21800
O  -1.95800 29.56500 29.49900
C  -3.03200 27.52800 30.39700
C  -1.88500 27.10000 31.20500
O  -0.84800 26.59300 30.77500
O  -2.19100 27.35100 32.53000
C  -1.16700 26.78100 33.42700
H  -6.75700 21.85800 30.61100
H  -6.06300 21.36100 24.25800
H  -2.99800 26.76100 24.01400
H  -3.96300 25.25800 32.20900
H  -6.64900 23.95200 32.18100
H  -4.13800 23.05700 33.19300
H  -4.42500 22.06000 31.99200
H  -5.75800 22.35200 33.22600
H  -6.79200 26.40500 32.19600
H  -5.38800 27.39600 32.06400
H  -5.08300 27.50800 34.10500
H  -4.87800 25.73700 34.37200
H  -9.01100 19.82100 28.48500
H  -8.44300 20.61300 29.90900
H  -7.61800 19.25300 29.54300
H  -9.45600 18.59700 26.68900
H  -7.97900 17.99700 27.30700
H  -8.42100 17.63100 25.62200
H  -5.56800 23.08800 22.30700
H  -3.25300 24.95600 22.47200
H  -3.99900 21.31100 22.20300
H  -3.31400 21.92000 23.76300
H  -2.92700 22.65700 22.07500
H  -6.14200 25.85200 22.71400
H  -5.43400 25.16300 21.22900
H  -5.22500 27.86400 22.34600
H  -4.75900 27.28600 20.75700
H  -3.59600 27.14600 22.07800
H  -1.82300 29.68000 26.12200
H  -2.78000 28.99000 24.84400
H  -1.27900 28.16000 25.27200
H  -3.67600 28.19300 30.97300
H  -1.65800 26.75800 34.40000
H  -0.28200 27.40600 33.54700
H  -0.90800 25.78400 33.07000

