158

Mg 43.95000 5.08700 46.82500
C  42.10900 7.99100 46.90900
C  41.20000 3.20100 46.65600
C  45.95200 2.35800 46.32000
C  46.91900 7.08300 46.99900
N  41.88500 5.59300 46.75800
C  41.34400 6.83500 46.79400
C  39.78600 6.74200 46.76800
C  39.48200 5.19800 46.75100
C  40.87000 4.59600 46.73400
C  38.49400 4.69700 47.86000
C  39.04000 7.62800 45.69300
C  39.74300 7.40300 44.25000
H  38.96200 6.74400 43.12800
N  43.61900 3.04500 46.49600
C  42.42100 2.41900 46.47700
C  42.56600 1.00900 46.21700
C  43.92200 0.74600 46.00600
C  44.56300 2.11500 46.21600
C  41.37600 0.01200 46.02600
C  44.54000 -0.50800 45.45400
O  43.84600 -1.42700 45.22200
C  45.91700 -0.72100 45.15900
N  46.12900 4.77200 46.76000
C  46.61100 3.56300 46.49700
C  48.17600 3.61100 46.43000
C  48.48000 5.00300 47.01800
C  47.10500 5.68000 46.93700
C  48.92000 2.48900 47.03000
C  49.64700 5.77300 46.23300
C  50.93400 6.10400 46.98900
N  44.43900 7.09800 46.74000
C  45.67400 7.76100 46.92100
C  45.51500 9.16700 47.11700
C  44.12600 9.32400 47.15300
C  43.50300 8.07600 46.83700
C  46.64000 10.20500 47.33600
C  43.01300 10.26300 47.35300
O  42.98000 11.47000 47.59800
C  41.72500 9.42800 47.10100
C  40.83700 9.56400 48.23100
O  40.89700 8.98500 49.31300
O  39.95000 10.55800 47.96200
C  38.99100 10.99700 48.96200
H  40.26600 2.63600 46.63200
H  46.36800 1.36800 46.11900
H  47.83600 7.64500 47.18500
H  39.48700 7.14000 47.73700
H  39.22000 4.80100 45.77000
H  37.51200 4.53500 47.41600
H  38.40400 5.48700 48.60600
H  38.84600 3.87400 48.48200
H  39.02500 8.65100 46.07100
H  38.05100 7.17300 45.73200
H  40.78400 7.08600 44.31100
H  39.86400 8.40200 43.83100
H  41.53800 -0.57600 45.12200
H  40.40000 0.49600 46.00700
H  41.44200 -0.79200 46.75900
H  46.06200 -1.72700 44.76600
H  46.44900 -0.58100 46.10000
H  46.26200 -0.00800 44.40900
H  48.39600 3.42600 45.37900
H  48.70400 4.99900 48.08400
H  48.28400 1.99300 47.76200
H  49.75800 2.91800 47.57900
H  49.20300 1.82700 46.21200
H  49.28000 6.66500 45.72500
H  49.78200 5.05800 45.42000
H  51.00000 7.19200 46.95600
H  51.71700 5.56800 46.45300
H  50.91800 5.75800 48.02200
H  46.37300 11.26100 47.28800
H  47.40500 10.08800 46.56900
H  47.09400 10.07900 48.31900
H  41.27400 10.01300 46.29900
H  38.05100 10.73100 48.47900
H  38.97800 12.07200 49.14600
H  39.07100 10.54000 49.94800
Mg 40.89500 9.36400 29.91100
C  42.82200 10.61500 32.51700
C  38.52900 8.43400 32.02200
C  39.31000 8.07800 27.14700
C  43.57200 10.36200 27.71700
N  40.72300 9.50500 31.98200
C  41.57400 10.14800 32.90000
C  41.04100 10.00200 34.37300
C  39.66000 9.33600 34.17800
C  39.61200 9.05800 32.65800
C  39.39300 8.03400 35.03200
C  40.98400 11.44200 35.06900
C  40.07700 11.55000 36.30400
H  40.64900 12.49000 37.40500
N  39.16500 8.33000 29.64000
C  38.27300 8.14200 30.60500
C  37.07800 7.54200 30.04100
C  37.26800 7.54600 28.64800
C  38.63000 7.97500 28.44400
C  35.84000 7.21300 30.88900
C  36.36000 7.05600 27.51800
O  36.58500 7.14500 26.34700
C  35.00300 6.57600 27.77400
N  41.43600 8.98000 27.74700
C  40.61900 8.53000 26.85600
C  41.29200 8.40100 25.48400
C  42.50900 9.43300 25.65500
C  42.56300 9.55000 27.14500
C  41.60700 6.96300 25.00900
C  42.23500 10.76100 24.88400
C  41.76200 12.03700 25.71900
N  42.89300 10.25300 30.04900
C  43.80600 10.65000 29.07100
C  44.93500 11.31500 29.67800
C  44.54500 11.34700 31.01600
C  43.28000 10.65200 31.18600
C  46.09700 11.81500 28.91700
C  44.94200 11.95000 32.31900
O  45.78300 12.72300 32.62700
C  43.89800 11.38000 33.30900
C  44.67500 10.51500 34.21700
O  45.63500 9.83600 33.86200
O  44.11200 10.46000 35.41700
C  44.50500 9.48900 36.49000
H  37.66400 8.42500 32.68900
H  38.80200 7.52600 26.35300
H  44.34400 10.78300 27.06900
H  41.69200 9.31900 34.91900
H  38.88100 10.03500 34.48300
H  40.24500 7.81300 35.67600
H  39.47400 7.25300 34.27600
H  38.44900 8.07500 35.57500
H  40.51100 12.00000 34.26100
H  41.98000 11.81300 35.31100
H  39.93600 10.54800 36.70800
H  39.15900 11.98900 35.91300
H  35.88500 7.56700 31.91900
H  35.79500 6.12500 30.94400
H  34.89900 7.60000 30.49800
H  34.46200 7.43100 28.17700
H  35.27900 5.80500 28.49400
H  34.76300 6.14500 26.80200
H  40.42800 8.76800 24.93000
H  43.45300 9.04100 25.27700
H  42.64700 6.99900 24.68400
H  40.93700 6.59700 24.23100
H  41.50800 6.33100 25.89200
H  41.37800 10.52200 24.25500
H  43.14500 11.02400 24.34300
H  41.86200 11.96200 26.80200
H  40.71300 12.16600 25.45200
H  42.39700 12.84700 25.35900
H  46.85100 12.12900 29.63800
H  45.90800 12.67900 28.28000
H  46.60200 11.06800 28.30500
H  43.44200 12.24200 33.79600
H  43.64500 8.90300 36.81400
H  44.86900 10.03400 37.36100
H  45.12900 8.68000 36.11000

