158

Mg 40.50500 9.67500 30.62600
C  42.48200 11.06800 33.19700
C  38.40200 8.38400 33.00500
C  38.82300 8.31100 28.10100
C  43.09900 10.67900 28.33500
N  40.42700 9.80300 32.76100
C  41.30700 10.41500 33.63600
C  40.80800 10.33800 35.10100
C  39.46600 9.55600 35.04400
C  39.42000 9.21900 33.54000
C  39.50600 8.31600 36.02200
C  40.55000 11.75300 35.82300
C  41.18600 11.82800 37.24100
H  40.51000 12.54100 38.35200
N  38.85100 8.59200 30.53700
C  38.11000 8.15500 31.64700
C  36.97600 7.36600 31.17300
C  36.97700 7.48900 29.73800
C  38.30700 8.13800 29.41800
C  36.07300 6.67900 32.14600
C  35.95500 6.95400 28.75500
O  36.04600 6.94300 27.50000
C  34.62800 6.40900 29.31000
N  40.98700 9.34700 28.57400
C  40.04000 8.87000 27.66600
C  40.52700 9.07100 26.20800
C  41.89100 9.84700 26.31700
C  42.02200 9.95200 27.83500
C  40.50000 7.85500 25.29500
C  41.99400 11.06900 25.49300
C  41.06600 12.18200 25.89200
N  42.40700 10.62600 30.65100
C  43.32100 10.89200 29.68000
C  44.44300 11.60800 30.31100
C  44.20700 11.66300 31.64500
C  42.90900 11.09600 31.79500
C  45.56200 12.33000 29.71200
C  44.60600 12.21200 32.98900
O  45.57400 12.90100 33.31500
C  43.53600 11.78500 33.98100
C  44.17100 10.99900 34.99500
O  44.36000 9.82300 35.03100
O  44.52400 11.78900 36.03100
C  45.38500 11.22800 37.02000
H  37.63200 8.08500 33.72000
H  38.19300 7.81500 27.36000
H  43.76800 11.23700 27.67600
H  41.57900 9.75200 35.60100
H  38.68600 10.27000 35.30900
H  39.66700 7.37300 35.50000
H  38.56900 8.34100 36.57800
H  40.36800 8.39000 36.68500
H  39.51700 12.02300 36.04400
H  41.00000 12.51400 35.18500
H  42.21300 12.16000 37.08900
H  41.34000 10.85000 37.69600
H  35.48700 5.85800 31.73300
H  35.40100 7.41000 32.59600
H  36.74700 6.26400 32.89600
H  33.86500 6.35400 28.53300
H  34.39300 7.26400 29.94500
H  34.74200 5.53200 29.94800
H  39.87100 9.74300 25.65600
H  42.65000 9.14900 25.96400
H  40.14200 6.94600 25.77900
H  41.45800 7.58500 24.85100
H  39.75600 8.10100 24.53700
H  41.89000 10.92200 24.41800
H  43.04100 11.37100 25.53000
H  40.45700 11.73900 26.67900
H  40.26400 12.25400 25.15800
H  41.39300 13.17600 26.19600
H  46.45600 11.97600 30.22600
H  45.36500 13.39600 29.82700
H  45.73900 12.13600 28.65400
H  43.00800 12.60900 34.46100
H  44.86700 10.40200 37.50800
H  45.60000 12.05000 37.70300
H  46.35200 11.00800 36.56800
Mg 10.62600 47.53800 25.90300
C  8.53900 47.34600 28.84100
C  13.19900 48.49900 27.96200
C  12.65500 47.46900 23.28300
C  7.98000 46.70300 23.95400
N  10.72400 47.97600 28.17300
C  9.82800 47.74100 29.18300
C  10.42200 48.10000 30.55200
C  11.76500 48.80400 30.13700
C  11.95800 48.27200 28.68200
C  11.70600 50.34300 30.05300
C  10.64400 46.81800 31.39200
C  10.14500 46.89200 32.82100
H  10.37600 45.67600 33.71000
N  12.66200 48.00600 25.65200
C  13.56400 48.34000 26.64300
C  14.87600 48.22400 26.09100
C  14.78800 47.91500 24.74500
C  13.32600 47.88300 24.52100
C  16.12800 48.44700 27.02400
C  15.94800 47.79300 23.76700
O  15.73200 47.81000 22.52000
C  17.35400 47.73400 24.31200
N  10.34000 47.34700 23.85300
C  11.33200 47.35600 22.94100
C  10.85500 47.11900 21.57900
C  9.36500 46.92700 21.78200
C  9.21200 46.99700 23.30600
C  11.14700 48.21600 20.58400
C  8.86200 45.66100 21.06000
C  9.24000 44.29500 21.63400
N  8.61500 47.24700 26.22800
C  7.65100 46.81200 25.32400
C  6.40400 46.61500 25.97700
C  6.72200 46.84800 27.34400
C  8.07900 47.19400 27.44700
C  5.06900 46.03900 25.43100
C  6.12700 46.75400 28.73700
O  5.01700 46.44300 29.17900
C  7.35600 47.04000 29.77300
C  7.53500 45.74800 30.46500
O  8.29800 44.82200 30.20200
O  6.71300 45.77300 31.53500
C  6.84800 44.57400 32.45700
H  13.94400 48.88600 28.66100
H  13.33300 47.16500 22.48300
H  7.19800 46.38900 23.26000
H  9.71600 48.76000 31.05400
H  12.65900 48.53400 30.70000
H  10.95500 50.77800 30.71200
H  11.31900 50.54900 29.05400
H  12.71700 50.74100 30.13400
H  11.72600 46.75900 31.50400
H  10.40000 45.91500 30.83200
H  9.10200 47.20800 32.80200
H  10.69900 47.69900 33.30100
H  15.80900 48.51400 28.06400
H  16.57800 49.43500 26.92500
H  16.77200 47.57100 26.94400
H  17.45100 46.98600 25.09900
H  17.54800 48.73800 24.68900
H  18.03300 47.46800 23.50200
H  11.28300 46.20100 21.17600
H  8.77800 47.74500 21.36400
H  11.52900 47.80700 19.64900
H  11.76400 48.94200 21.11400
H  10.22900 48.72800 20.29600
H  9.23000 45.66900 20.03400
H  7.78100 45.69600 20.92500
H  9.30000 44.30300 22.72200
H  10.21600 43.91100 21.33600
H  8.49200 43.54200 21.38700
H  4.56800 46.82100 24.86200
H  4.40500 45.56800 26.15600
H  5.38500 45.23300 24.76800
H  7.24500 47.89200 30.44400
H  7.60700 44.56000 33.24000
H  6.84100 43.67400 31.84400
H  5.91600 44.52700 33.02000

