158

Mg 27.57600 50.82800 26.11300
C  25.48000 51.72900 28.81700
C  29.68500 49.50400 28.35000
C  29.80900 50.57200 23.65200
C  25.34000 52.53900 24.00400
N  27.53500 50.61800 28.35300
C  26.59900 51.06600 29.28800
C  26.99100 50.63100 30.66000
C  28.46500 50.24900 30.52800
C  28.61800 50.12300 28.97700
C  29.55400 51.22000 31.16300
C  26.07900 49.52000 31.21800
C  25.62000 49.59000 32.64300
H  26.56000 49.97500 33.73700
N  29.48700 50.08600 26.00000
C  30.17900 49.51800 27.03400
C  31.50500 49.10600 26.60400
C  31.59300 49.45900 25.24800
C  30.28800 50.08500 24.91000
C  32.46600 48.32200 27.42400
C  32.76000 49.42700 24.31800
O  32.69700 49.94300 23.20500
C  34.03200 48.87000 24.83400
N  27.61200 51.61600 24.12100
C  28.59800 51.23500 23.24600
C  28.21700 51.41900 21.72600
C  26.84000 52.16700 21.89500
C  26.52500 52.10800 23.43300
C  29.25700 52.22200 20.92000
C  25.70000 51.54900 21.06800
C  25.19500 50.17200 21.49800
N  25.80600 51.97700 26.32500
C  24.97500 52.54000 25.38100
C  23.80600 53.18600 25.96200
C  23.96800 52.88500 27.31800
C  25.19700 52.15600 27.49800
C  22.68400 54.00000 25.26900
C  23.41000 53.04900 28.62700
O  22.34600 53.58800 28.97600
C  24.34700 52.33000 29.60700
C  24.79500 53.38000 30.66200
O  25.59800 54.31800 30.42200
O  24.16700 53.15300 31.86500
C  24.68800 53.91600 33.04000
H  30.48600 49.12000 28.98500
H  30.38300 50.51000 22.72500
H  24.55700 53.04400 23.43500
H  26.93900 51.51300 31.29800
H  28.59000 49.20200 30.80600
H  29.04900 51.96000 31.78500
H  30.09600 51.64600 30.31900
H  30.22800 50.70500 31.84800
H  26.48300 48.51200 31.12100
H  25.18000 49.56200 30.60300
H  25.14400 48.65100 32.92800
H  24.84500 50.35600 32.65600
H  33.45500 48.74700 27.59000
H  32.63400 47.34700 26.96700
H  32.05000 48.03500 28.39000
H  34.70800 48.80600 23.98100
H  33.75900 47.84600 25.09200
H  34.29000 49.51500 25.67500
H  28.31400 50.39600 21.36400
H  26.83500 53.20300 21.55600
H  30.08000 52.63600 21.50200
H  28.68000 53.00300 20.42400
H  29.70700 51.62300 20.12800
H  26.20900 51.50200 20.10600
H  24.86700 52.24200 20.94600
H  25.36200 49.46700 20.68300
H  24.19800 50.10700 21.93300
H  25.87200 49.78300 22.25800
H  21.77700 54.09300 25.86600
H  22.40200 53.37100 24.42400
H  23.03000 55.01400 25.06900
H  23.78000 51.52600 30.07500
H  24.78100 54.97800 32.81300
H  25.65200 53.49700 33.32800
H  23.96100 53.97700 33.85000
Mg -10.59200 38.15500 41.30300
C  -8.63100 35.42600 40.36800
C  -8.25800 40.23900 39.55700
C  -12.78600 40.81100 41.56000
C  -13.01000 36.03400 42.58400
N  -8.76800 37.87100 39.85800
C  -8.12800 36.62700 39.77200
C  -6.71300 36.74800 39.18400
C  -6.53900 38.27000 39.08300
C  -7.93200 38.88600 39.51300
C  -5.35300 38.88900 39.78600
C  -6.61600 36.05200 37.77000
C  -5.53200 35.00400 37.55500
H  -4.37000 35.40200 36.61600
N  -10.46900 40.16200 40.78400
C  -9.41000 40.87200 40.11400
C  -9.67000 42.27900 40.11600
C  -10.96700 42.49400 40.61400
C  -11.47200 41.10200 41.01200
C  -8.66800 43.22600 39.48700
C  -11.73200 43.85000 40.78200
O  -11.16300 44.83500 40.32600
C  -13.05100 44.02400 41.39500
N  -12.75900 38.35400 41.69200
C  -13.39100 39.55300 41.87000
C  -14.74300 39.41400 42.47900
C  -14.79800 37.84100 42.80200
C  -13.42400 37.34500 42.29800
C  -15.07300 40.33900 43.66400
C  -15.89200 37.03200 42.05600
C  -16.69100 35.91100 42.76500
N  -10.79800 36.11200 41.45200
C  -11.80200 35.38800 42.04200
C  -11.42300 33.99600 42.16300
C  -10.17600 33.95900 41.47600
C  -9.84700 35.29700 41.05700
C  -12.14900 32.93700 42.89000
C  -9.12100 33.06300 41.08400
O  -8.91900 31.83600 41.32400
C  -8.04800 33.94900 40.36500
C  -6.74800 33.73700 41.07400
O  -5.90700 32.93100 40.86000
O  -6.62100 34.77100 41.95400
C  -5.39400 34.73200 42.77800
H  -7.45500 40.90000 39.22400
H  -13.25400 41.73600 41.90300
H  -13.73600 35.35800 43.04000
H  -5.97300 36.30900 39.85200
H  -6.44200 38.58500 38.04400
H  -4.56900 39.05200 39.04700
H  -4.99300 38.27300 40.61000
H  -5.58400 39.86200 40.22200
H  -6.33100 36.85600 37.09200
H  -7.63600 35.72800 37.56100
H  -6.09000 34.15600 37.15700
H  -5.07200 34.69300 38.49300
H  -7.74500 43.28100 40.06500
H  -8.97300 44.26800 39.39500
H  -8.58400 42.84600 38.46800
H  -13.02600 43.56200 42.38200
H  -13.86500 43.71800 40.73800
H  -13.15300 45.09100 41.58900
H  -15.35300 39.62700 41.60100
H  -15.01700 37.77000 43.86800
H  -16.04600 40.81600 43.54600
H  -14.14300 40.88200 43.83300
H  -15.10900 39.77100 44.59300
H  -15.55700 36.52600 41.15000
H  -16.62500 37.65900 41.54900
H  -16.34700 34.94000 42.40800
H  -17.77100 35.90200 42.61500
H  -16.57500 36.08400 43.83500
H  -11.50100 32.06600 42.79800
H  -13.11700 32.62400 42.49800
H  -12.26400 33.30900 43.90800
H  -7.96500 33.58900 39.34000
H  -5.46200 33.97000 43.55500
H  -5.41300 35.63300 43.39100
H  -4.51400 34.45800 42.19700

