158

Mg 25.50700 -0.04700 29.04200
C  27.48900 -0.36200 31.88200
C  22.75300 0.42300 30.88900
C  23.73200 0.09900 26.03400
C  28.36200 -0.84800 27.01600
N  25.18100 -0.17700 31.05800
C  26.14000 -0.01000 32.09300
C  25.53300 0.21300 33.47100
C  23.97800 0.40800 33.14500
C  23.95400 0.13900 31.62000
C  22.98500 -0.48800 33.97700
C  26.23700 1.44500 34.10100
C  26.98600 1.15300 35.44200
H  26.56500 1.97900 36.60700
N  23.59700 0.18300 28.58200
C  22.60000 0.41700 29.48000
C  21.36700 0.69500 28.83200
C  21.60900 0.63900 27.41200
C  22.99200 0.28400 27.29400
C  20.17300 1.04200 29.67100
C  20.57200 0.81700 26.26400
O  20.89400 0.48100 25.12100
C  19.17800 1.21700 26.53200
N  25.97700 -0.50100 26.84100
C  25.08800 -0.20900 25.88500
C  25.75800 -0.13900 24.51500
C  27.26700 -0.43400 24.76200
C  27.21600 -0.59800 26.32600
C  24.99300 -0.97400 23.38000
C  28.22100 0.62200 24.11800
C  28.56300 1.77200 25.01600
N  27.50700 -0.63500 29.33800
C  28.53400 -0.92400 28.42600
C  29.71400 -1.27500 29.23500
C  29.32500 -1.05400 30.56000
C  28.00600 -0.63900 30.57600
C  31.01400 -1.72900 28.67500
C  29.81600 -1.00600 31.90400
O  30.93800 -1.23100 32.27700
C  28.64300 -0.52000 32.79700
C  28.44800 -1.45200 33.91000
O  27.57000 -2.27000 34.01400
O  29.45000 -1.28200 34.85300
C  29.38000 -2.05200 36.14900
H  21.98000 0.73300 31.59600
H  23.22700 0.29800 25.08600
H  29.19700 -1.13800 26.37400
H  25.55000 -0.68800 34.08400
H  23.73200 1.44100 33.38700
H  22.49300 -1.18300 33.29700
H  22.23800 0.21500 34.34700
H  23.36800 -0.94400 34.89000
H  25.39700 2.06800 34.41000
H  26.92400 1.90900 33.39300
H  28.05600 1.35900 35.43100
H  26.75200 0.11900 35.69500
H  20.07600 0.57900 30.65300
H  19.26500 0.64600 29.21700
H  20.06100 2.10600 29.87900
H  18.93300 2.16200 27.01600
H  18.70400 0.38000 27.04300
H  18.70100 1.36900 25.56400
H  25.78100 0.86600 24.09300
H  27.61500 -1.45000 24.57300
H  24.57100 -1.84900 23.87400
H  25.59000 -1.15000 22.48500
H  24.17900 -0.32900 23.04600
H  27.81900 1.00500 23.18000
H  29.16600 0.09400 23.98800
H  27.83300 1.95600 25.80400
H  28.68700 2.68100 24.42800
H  29.52800 1.55900 25.47700
H  30.82600 -2.75100 28.34600
H  31.89400 -1.86000 29.30500
H  31.43200 -1.09000 27.89700
H  29.05700 0.41700 33.17100
H  29.96100 -1.58100 36.94200
H  29.70000 -3.08100 35.98100
H  28.33600 -2.10000 36.45600
Mg 47.17000 44.43000 42.78800
C  43.75200 43.89600 42.17000
C  47.65200 41.10600 42.45800
C  50.40000 45.18300 43.01400
C  46.47100 47.95600 42.68100
N  45.85100 42.74400 42.14800
C  44.51700 42.70700 42.12400
C  43.86500 41.29000 42.09100
C  45.14300 40.47800 42.24900
C  46.29000 41.47400 42.25100
C  45.00600 39.46700 43.44900
C  43.09400 40.94600 40.72100
C  43.52800 41.57200 39.33100
H  43.20000 40.98200 37.94400
N  48.79300 43.27600 42.72800
C  48.78900 41.91200 42.67200
C  50.17100 41.46200 42.81000
C  50.98400 42.64100 42.78600
C  50.06600 43.79400 42.82600
C  50.61000 39.95700 42.84000
C  52.52800 42.64300 42.67900
O  53.22300 41.56100 42.70300
C  53.30800 43.89300 42.61500
N  48.26100 46.26200 42.69700
C  49.57300 46.26400 42.96900
C  49.98900 47.66800 43.38600
C  48.73300 48.52500 43.51200
C  47.73700 47.55200 43.03000
C  50.94800 47.61300 44.61900
C  48.81200 49.85400 42.69300
C  48.32700 51.08200 43.43700
N  45.45000 45.75500 42.48800
C  45.34300 47.11800 42.49300
C  43.97900 47.51200 42.17100
C  43.30900 46.27400 42.21000
C  44.21100 45.21000 42.34300
C  43.42400 48.92500 42.03000
C  41.97800 45.63500 42.11900
O  40.84500 46.13400 41.93700
C  42.17800 44.05900 42.15200
C  41.41000 43.69900 43.39900
O  40.31300 43.11900 43.44800
O  42.26400 43.77600 44.47500
C  41.90600 43.02600 45.70000
H  47.88400 40.04000 42.49600
H  51.43200 45.50200 43.17600
H  46.15200 48.99700 42.77000
H  43.16300 41.38700 42.91900
H  45.29300 39.87800 41.35100
H  45.06200 38.48500 42.97900
H  44.13900 39.67200 44.07700
H  45.83400 39.56800 44.15000
H  42.04800 41.24900 40.75800
H  43.07500 39.87000 40.55200
H  44.61600 41.58500 39.38500
H  43.30700 42.63200 39.20800
H  50.72200 39.37500 41.92500
H  49.84400 39.45400 43.43000
H  51.37300 39.70300 43.57500
H  52.70800 44.52600 41.96100
H  54.32700 43.82000 42.23300
H  53.39500 44.34900 43.60100
H  50.57000 48.13300 42.58900
H  48.47000 48.51600 44.56900
H  51.92800 47.25600 44.30300
H  50.62700 46.93500 45.41000
H  51.01800 48.60400 45.06600
H  48.17000 49.71900 41.82200
H  49.73900 50.20800 42.24200
H  47.53800 51.65500 42.95000
H  49.09900 51.80100 43.71100
H  47.84900 50.62800 44.30500
H  43.64300 49.12900 40.98200
H  43.98000 49.57800 42.70200
H  42.33900 48.96300 42.12200
H  41.62200 43.68900 41.29100
H  41.30300 43.67700 46.33300
H  42.70500 42.65600 46.34200
H  41.43500 42.07900 45.43600

