158

Mg -1.67200 18.06600 27.53300
C  -2.24400 15.82700 30.06500
C  -2.21200 20.66400 29.55500
C  -1.37500 20.05800 24.81700
C  -1.89000 15.28400 25.22300
N  -2.06300 18.21200 29.64200
C  -2.24300 17.18300 30.52400
C  -2.57000 17.66600 31.94500
C  -2.90700 19.19000 31.69100
C  -2.32500 19.39800 30.22800
C  -4.43400 19.63500 31.89200
C  -1.44500 17.45900 32.94200
C  -1.90100 16.92000 34.24800
H  -0.87200 16.81500 35.38600
N  -1.73500 20.08100 27.20600
C  -1.94100 20.99700 28.22600
C  -1.74200 22.36900 27.74300
C  -1.58100 22.27100 26.34700
C  -1.56300 20.73800 26.08100
C  -1.78500 23.58300 28.58400
C  -1.31900 23.30900 25.34700
O  -1.41100 23.13900 24.11500
C  -0.87700 24.53700 25.84100
N  -1.63200 17.70100 25.32100
C  -1.44100 18.71400 24.42100
C  -1.56700 18.33900 22.96500
C  -1.86600 16.78000 23.08800
C  -1.82400 16.52800 24.60800
C  -2.81200 19.04800 22.30300
C  -0.89900 16.00000 22.15200
C  0.63500 15.97200 22.55900
N  -1.89300 16.02200 27.58100
C  -1.94100 15.01900 26.61300
C  -2.06500 13.68200 27.20900
C  -2.16700 13.97000 28.58000
C  -2.10000 15.38600 28.72200
C  -1.97500 12.40000 26.53100
C  -2.33900 13.35900 29.86600
O  -2.52700 12.18600 30.10100
C  -2.39600 14.52600 30.87900
C  -1.09400 14.29100 31.65900
O  0.05600 14.42100 31.24900
O  -1.37500 13.81300 32.86400
C  -0.23700 13.68300 33.75500
H  -2.30000 21.33400 30.41300
H  -1.20300 20.72500 23.96900
H  -1.96900 14.49000 24.47700
H  -3.48600 17.18800 32.29000
H  -2.32600 19.68400 32.46900
H  -4.79900 20.08100 30.96700
H  -4.49200 20.38200 32.68400
H  -5.10300 18.81300 32.14800
H  -0.95300 18.41600 33.11600
H  -0.62500 16.81700 32.62100
H  -2.45900 15.98700 34.16600
H  -2.63400 17.59700 34.68800
H  -2.25300 23.42300 29.55600
H  -2.13000 24.49900 28.10400
H  -0.75200 23.78400 28.86700
H  -1.67600 25.27400 25.92300
H  -0.35700 25.10900 25.07200
H  -0.23300 24.41600 26.71200
H  -0.65100 18.61300 22.44100
H  -2.85900 16.44600 22.78700
H  -2.82100 18.62600 21.29900
H  -2.68600 20.12800 22.21900
H  -3.73700 18.88300 22.85500
H  -1.00800 16.44400 21.16200
H  -1.31500 14.99500 22.23300
H  0.84600 16.40600 23.53600
H  1.14700 16.65200 21.87800
H  1.17900 15.04600 22.37400
H  -1.20600 11.75900 26.96200
H  -1.65200 12.45900 25.49100
H  -2.98000 12.02800 26.72900
H  -3.28300 14.38200 31.49500
H  0.31300 14.62300 33.81700
H  0.40000 12.89500 33.35200
H  -0.57400 13.33200 34.73000
Mg 0.27700 8.56900 26.46100
C  1.12100 10.50300 29.29000
C  -0.03200 5.82300 28.62300
C  -0.18100 6.55500 23.81700
C  1.16600 11.16100 24.39400
N  0.62000 8.20700 28.73400
C  0.83500 9.13700 29.66100
C  0.76600 8.58600 31.11700
C  0.65800 7.02800 30.87800
C  0.35900 6.98700 29.34200
C  1.96500 6.25400 31.33900
C  -0.50500 9.05100 31.88600
C  -0.17700 9.49700 33.33000
H  1.02100 8.94700 34.13500
N  -0.15700 6.45700 26.26700
C  -0.24500 5.54900 27.27400
C  -0.48900 4.24100 26.69300
C  -0.68500 4.47800 25.29700
C  -0.30100 5.85000 25.04100
C  -0.57200 2.97700 27.45300
C  -1.18800 3.46500 24.23000
O  -1.30500 3.83900 23.05100
C  -1.62300 2.13200 24.58300
N  0.47900 8.87300 24.50500
C  0.18200 7.90000 23.57000
C  0.51900 8.34700 22.15900
C  0.82500 9.90300 22.40000
C  0.82200 9.99700 23.85700
C  1.68800 7.57100 21.54000
C  -0.11100 10.95600 21.68700
C  -1.38500 11.43300 22.46200
N  1.17700 10.44000 26.76800
C  1.39200 11.41500 25.82700
C  1.77900 12.66500 26.51700
C  1.79900 12.36500 27.85000
C  1.36200 10.97600 27.92600
C  2.06400 13.96900 25.93200
C  1.87200 12.89400 29.20600
O  2.10400 13.97900 29.63000
C  1.48500 11.72200 30.18800
C  2.67500 11.57600 31.28200
O  3.54900 10.71700 31.23300
O  2.43100 12.49400 32.29600
C  3.42600 12.56200 33.33600
H  -0.10200 4.97600 29.30900
H  -0.66300 6.05000 22.97700
H  1.36400 11.94700 23.66300
H  1.67900 8.92300 31.60700
H  -0.17900 6.48400 31.31600
H  2.72100 7.01500 31.53400
H  2.39700 5.51500 30.66500
H  1.57300 5.73400 32.21300
H  -1.25400 8.26100 31.93800
H  -1.04300 9.84500 31.36800
H  -1.03500 9.38400 33.99300
H  -0.00300 10.57200 33.27800
H  -0.28600 2.95600 28.50500
H  0.17300 2.28200 27.06400
H  -1.57000 2.54500 27.38200
H  -0.89000 1.45000 25.01300
H  -2.14100 1.80100 23.68200
H  -2.39100 2.36400 25.32100
H  -0.32100 8.37400 21.46600
H  1.80900 10.18000 22.02300
H  2.61100 7.72500 22.10000
H  1.94600 7.87600 20.52600
H  1.40700 6.51900 21.49500
H  -0.50400 10.49900 20.77800
H  0.51800 11.82200 21.48600
H  -1.50200 11.07700 23.48500
H  -2.36600 11.27200 22.01300
H  -1.30500 12.51300 22.58400
H  1.56900 13.97800 24.96100
H  3.09300 13.93300 25.57600
H  1.78500 14.87800 26.46500
H  0.62400 11.96500 30.81100
H  4.30900 13.12300 33.02800
H  3.70400 11.62200 33.81200
H  2.97900 13.18100 34.11400

