158

Mg 17.65800 0.03500 27.88700
C  16.27700 1.93900 30.37100
C  19.43700 -1.78400 30.07100
C  19.10500 -1.69500 25.30400
C  15.89100 2.00300 25.55000
N  17.99800 0.13300 29.89800
C  17.19600 0.90100 30.74300
C  17.62200 0.67800 32.21600
C  18.81000 -0.32900 32.14500
C  18.77800 -0.72800 30.65500
C  20.22600 0.23500 32.67000
C  16.39600 0.18000 33.06800
C  16.61000 0.14500 34.55400
H  17.85000 0.73100 35.23600
N  19.00200 -1.49100 27.71800
C  19.51200 -2.24900 28.80500
C  20.28000 -3.37200 28.40700
C  20.22700 -3.35100 26.95000
C  19.45900 -2.12100 26.57100
C  20.97600 -4.43900 29.35400
C  20.89100 -4.27500 25.95500
O  20.79900 -4.24900 24.68800
C  21.72500 -5.39900 26.54200
N  17.51100 0.14800 25.76500
C  18.29800 -0.61200 24.91500
C  18.07600 -0.21100 23.46400
C  16.89500 0.81400 23.58700
C  16.74100 0.96700 25.05100
C  19.47000 0.29700 22.88900
C  15.60500 0.55900 22.74900
C  14.32300 0.07400 23.40000
N  16.38200 1.65100 27.94000
C  15.80800 2.38400 26.91200
C  14.88000 3.32900 27.46000
C  15.06400 3.28600 28.83700
C  15.97200 2.19700 28.99900
C  14.11000 4.21200 26.70500
C  14.83300 3.84900 30.11500
O  14.13300 4.80000 30.48900
C  15.46900 2.96800 31.14600
C  16.23800 3.81800 32.05500
O  17.22600 4.37700 31.73400
O  15.72700 3.81400 33.37300
C  16.36800 4.77000 34.35400
H  20.06000 -2.38500 30.73600
H  19.48400 -2.20100 24.41400
H  15.25100 2.52900 24.83800
H  17.93500 1.62900 32.64600
H  18.54700 -1.15500 32.80600
H  20.73400 -0.49500 33.30100
H  20.09600 1.22900 33.09900
H  20.77300 0.47800 31.75900
H  16.27500 -0.84900 32.72800
H  15.51700 0.75100 32.76800
H  16.52200 -0.87800 34.92000
H  15.74400 0.62500 35.01100
H  20.85600 -4.24700 30.42000
H  22.06000 -4.51000 29.26500
H  20.64100 -5.47600 29.37000
H  22.09100 -5.96200 25.68400
H  21.04600 -5.96800 27.17700
H  22.54100 -5.13400 27.21400
H  17.88600 -1.13800 22.92300
H  17.17400 1.82400 23.28400
H  20.11400 0.55900 23.72800
H  19.39700 1.09700 22.15200
H  19.98800 -0.49100 22.34300
H  15.85200 -0.07200 21.89600
H  15.36600 1.53400 22.32300
H  13.67000 -0.38000 22.65400
H  13.85600 0.94100 23.86800
H  14.55700 -0.63400 24.19400
H  13.52100 3.47100 26.16400
H  14.76100 4.81200 26.06900
H  13.55600 4.93500 27.30400
H  14.71300 2.56600 31.82100
H  16.64900 5.68400 33.83200
H  17.18400 4.24000 34.84500
H  15.65300 4.98700 35.14800
Mg 47.66800 24.66800 28.19200
C  48.54500 27.25000 30.63900
C  47.12200 22.55700 30.79200
C  47.12600 22.31400 25.89500
C  48.55500 26.96500 25.71300
N  48.02100 24.90800 30.50100
C  48.21200 26.02900 31.28300
C  47.80200 25.77600 32.76400
C  47.69600 24.21300 32.82700
C  47.50800 23.86000 31.32200
C  48.97000 23.54000 33.39900
C  46.49200 26.50500 33.16900
C  46.53900 27.29800 34.53300
H  47.17200 26.65200 35.71500
N  46.97200 22.78100 28.30800
C  46.83100 22.07700 29.49800
C  46.39600 20.73900 29.11500
C  46.36600 20.67300 27.74800
C  46.81800 21.93700 27.27500
C  45.98100 19.65000 30.19700
C  45.91400 19.48400 26.82900
O  45.66900 19.53000 25.67700
C  45.98300 18.13100 27.55900
N  47.84600 24.59800 26.09900
C  47.59200 23.47600 25.34200
C  47.64300 23.76500 23.81100
C  48.26200 25.24200 23.76700
C  48.16300 25.66500 25.27600
C  48.38100 22.70600 22.99800
C  47.57000 26.36300 22.80000
C  48.58700 27.26300 22.11500
N  48.42300 26.64700 28.13600
C  48.66300 27.43000 26.97900
C  49.13100 28.74200 27.42100
C  49.10100 28.68500 28.84000
C  48.66000 27.43300 29.21600
C  49.59600 29.89600 26.53000
C  49.33400 29.49200 30.04700
O  49.76200 30.65400 30.16600
C  48.87200 28.65400 31.30500
C  49.88500 28.46200 32.33000
O  50.95800 27.91400 32.21100
O  49.41600 29.12400 33.43200
C  49.92400 28.78200 34.80000
H  46.96100 21.86600 31.62200
H  46.90400 21.65600 25.05200
H  48.64000 27.75100 24.95900
H  48.59900 26.16500 33.39800
H  46.85900 23.92300 33.46200
H  49.23800 24.18400 34.23600
H  49.79800 23.53600 32.69000
H  48.85000 22.51800 33.76000
H  45.63800 25.83000 33.21300
H  46.17100 27.29200 32.48700
H  45.47800 27.32200 34.78300
H  46.95100 28.29400 34.37100
H  46.62400 18.77000 30.20500
H  44.99600 19.21300 30.02600
H  45.99400 20.04900 31.21100
H  45.86400 17.38400 26.77400
H  45.16500 18.02100 28.27100
H  46.98500 18.11100 27.98700
H  46.59700 23.94100 23.55900
H  49.32300 25.09700 23.56300
H  47.60600 22.28300 22.35800
H  48.89000 21.97900 23.63100
H  49.04200 23.19000 22.28000
H  46.95700 27.07100 23.35700
H  46.88900 26.04100 22.01200
H  48.63100 28.30700 22.42600
H  48.48800 27.20800 21.03100
H  49.58000 26.88100 22.35000
H  49.78300 30.67000 27.27400
H  48.81100 30.21800 25.84500
H  50.56100 29.70900 26.05900
H  48.02900 29.13800 31.79900
H  50.53300 27.87900 34.82900
H  49.12500 28.77700 35.54100
H  50.65600 29.51400 35.14200

