158

Mg 0.57400 43.47200 26.04400
C  2.87100 43.70300 28.66100
C  -1.94500 43.41000 28.16300
C  -1.42400 42.93500 23.35400
C  3.33000 43.39800 23.81200
N  0.48300 43.48600 28.20000
C  1.49700 43.78600 29.07600
C  0.94700 43.89800 30.48400
C  -0.64100 43.74300 30.27800
C  -0.71600 43.45600 28.78000
C  -1.23300 42.45700 30.95900
C  1.34300 45.20600 31.26800
C  1.62600 45.06300 32.75900
H  0.96500 43.84600 33.37100
N  -1.38800 43.25800 25.85600
C  -2.30500 43.22400 26.82900
C  -3.61400 42.90400 26.33800
C  -3.55100 42.80700 24.93500
C  -2.04300 43.00400 24.63800
C  -4.91200 42.91600 27.22900
C  -4.61600 42.39400 23.85300
O  -4.43300 42.33400 22.62500
C  -6.01600 41.93900 24.32900
N  0.92400 43.36500 23.87700
C  -0.14300 43.17300 22.99200
C  0.37300 43.07900 21.57600
C  1.89300 43.35700 21.70100
C  2.09600 43.43200 23.22200
C  0.05400 41.77900 20.83200
C  2.40400 44.62100 21.03700
C  3.64300 44.49200 20.19600
N  2.72900 43.53000 26.11100
C  3.69700 43.51500 25.13900
C  4.99100 43.47300 25.78400
C  4.71400 43.62300 27.15600
C  3.30600 43.58400 27.31600
C  6.28000 43.50400 25.14800
C  5.35000 43.78900 28.45000
O  6.48200 43.87800 28.85800
C  4.12900 43.71100 29.46900
C  4.35900 42.66700 30.45800
O  4.37800 41.44100 30.31800
O  4.66100 43.24700 31.67300
C  4.91600 42.29300 32.72100
H  -2.76000 43.71000 28.82400
H  -2.15800 42.87100 22.54800
H  4.17600 43.24300 23.13900
H  1.46000 43.09100 31.00800
H  -1.15700 44.66000 30.56300
H  -0.44100 41.78900 31.29800
H  -1.91600 41.81900 30.39800
H  -1.73500 42.76400 31.87700
H  0.53000 45.92900 31.19800
H  2.15100 45.67800 30.70800
H  1.28500 45.98200 33.23600
H  2.66900 44.89800 33.02700
H  -5.71700 43.52700 26.82200
H  -4.76200 43.35800 28.21400
H  -5.23000 41.88300 27.37200
H  -5.88300 41.33400 25.22500
H  -6.58100 41.44100 23.54000
H  -6.47800 42.87500 24.64200
H  -0.13500 43.93800 21.13700
H  2.48800 42.48800 21.42200
H  -0.81100 42.03800 20.22100
H  -0.41500 41.02800 21.46700
H  0.85700 41.40500 20.19600
H  2.68600 45.34900 21.79800
H  1.60700 45.05100 20.43000
H  3.80000 43.46400 19.86900
H  4.50500 44.60100 20.85400
H  3.73600 45.26300 19.43200
H  6.59100 44.47300 24.75800
H  6.15400 42.79700 24.32800
H  7.07600 43.20800 25.83200
H  4.07900 44.68200 29.96100
H  5.43200 42.86200 33.49400
H  5.47200 41.37600 32.52700
H  3.98400 41.81200 33.01700
Mg -10.68300 18.20000 40.31200
C  -7.13600 17.93000 40.20100
C  -10.28600 21.38200 39.32800
C  -13.96700 18.20700 39.68500
C  -10.83700 14.65400 40.40800
N  -8.82200 19.53000 39.73800
C  -7.52400 19.23800 39.91300
C  -6.62500 20.38800 39.35300
C  -7.73500 21.53500 39.36700
C  -9.07300 20.81500 39.52200
C  -7.44400 22.63400 40.50100
C  -6.00600 20.10900 37.87800
C  -4.41600 19.90100 37.85200
H  -3.98000 18.73800 36.99700
N  -11.96200 19.62100 39.77700
C  -11.64300 20.89300 39.46500
C  -12.83200 21.73800 39.31300
C  -13.94900 20.84100 39.41000
C  -13.32600 19.44300 39.56900
C  -12.85500 23.15500 39.25200
C  -15.43200 21.23700 39.18100
O  -15.71500 22.42600 38.96400
C  -16.54300 20.29400 39.26000
N  -12.29600 16.64100 40.09800
C  -13.59100 16.94000 39.91800
C  -14.47300 15.64200 40.00000
C  -13.37700 14.50900 40.24900
C  -12.06900 15.31600 40.28600
C  -15.55500 15.66900 41.07700
C  -13.46700 13.32200 39.34500
C  -13.69600 11.94300 40.10800
N  -9.31500 16.57500 40.36000
C  -9.51500 15.21500 40.40100
C  -8.24000 14.50500 40.56000
C  -7.29900 15.56400 40.57300
C  -8.00600 16.76200 40.33900
C  -8.01500 13.06000 40.68600
C  -5.81400 15.85800 40.61700
O  -4.89300 14.99600 40.65200
C  -5.72200 17.43200 40.47500
C  -5.16700 18.10300 41.73300
O  -4.56600 19.16500 41.69800
O  -5.49700 17.40100 42.86900
C  -5.27200 18.10200 44.17500
H  -10.25000 22.36800 38.85900
H  -15.05800 18.20000 39.63800
H  -10.92200 13.56800 40.47600
H  -5.78700 20.62500 40.00900
H  -7.77600 22.10600 38.44000
H  -6.56400 22.33000 41.06800
H  -8.27900 22.62300 41.20200
H  -7.25300 23.62900 40.10000
H  -6.23600 20.99100 37.28000
H  -6.56700 19.30300 37.40700
H  -4.08500 19.62400 38.85300
H  -3.97400 20.77100 37.36600
H  -13.32200 23.75500 38.47000
H  -11.80600 23.45400 39.26300
H  -13.38200 23.43300 40.16400
H  -16.48900 19.66700 38.37000
H  -17.50400 20.77200 39.07100
H  -16.42100 19.67500 40.15000
H  -14.93800 15.60800 39.01500
H  -13.46600 14.07100 41.24300
H  -15.89400 16.67800 41.31300
H  -15.34500 15.21200 42.04300
H  -16.39000 15.13700 40.62100
H  -12.52700 13.19200 38.80800
H  -14.29100 13.50700 38.65600
H  -14.11900 12.08000 41.10400
H  -12.70700 11.48900 40.15600
H  -14.34500 11.34900 39.46400
H  -8.50000 12.72200 41.60200
H  -6.96700 12.78300 40.79400
H  -8.38100 12.56600 39.78600
H  -5.03200 17.68600 39.67000
H  -6.17000 18.40200 44.71400
H  -4.53200 18.89600 44.07600
H  -4.71200 17.33100 44.70500

