158

Mg 48.39200 25.59500 27.62200
C  49.15200 27.71400 30.26200
C  47.32600 23.39500 29.96300
C  48.08200 23.46300 25.09300
C  50.50700 27.73600 25.52100
N  48.32200 25.53000 29.83800
C  48.54300 26.55700 30.73900
C  48.25100 26.22800 32.21500
C  47.59500 24.82900 32.05900
C  47.82100 24.51900 30.51600
C  48.14600 23.67600 32.91100
C  47.21100 27.16800 32.93300
C  46.48400 26.76700 34.19100
H  46.50100 27.75800 35.30900
N  47.66500 23.75300 27.52600
C  47.29100 23.00900 28.57700
C  46.61400 21.81300 28.03400
C  47.01500 21.75800 26.68000
C  47.58800 23.03400 26.36800
C  45.83500 20.88100 28.90500
C  46.85400 20.58200 25.77000
O  47.41600 20.54100 24.69300
C  45.95700 19.47700 26.12100
N  49.26000 25.60600 25.51400
C  48.94300 24.54300 24.69300
C  49.31100 24.89600 23.22800
C  50.14900 26.22300 23.38200
C  49.94800 26.58900 24.85300
C  50.09000 23.73300 22.63000
C  49.65500 27.38600 22.38900
C  50.75300 27.96800 21.43100
N  49.49900 27.34900 27.75000
C  50.33800 28.05700 26.90200
C  50.77700 29.33100 27.51000
C  50.25800 29.26700 28.84900
C  49.60200 27.97700 28.97100
C  51.45700 30.43900 26.94400
C  50.26800 29.91900 30.13700
O  50.62100 30.96900 30.57000
C  49.46700 28.97600 31.08400
C  50.41500 28.66300 32.16700
O  51.47300 28.03100 32.07300
O  49.88500 29.05800 33.43100
C  50.80100 28.65000 34.51000
H  46.99600 22.73600 30.76900
H  47.96300 22.76700 24.26000
H  51.04200 28.41800 24.85600
H  49.24100 26.17900 32.66800
H  46.52200 24.88300 32.24000
H  47.33500 23.15900 33.42400
H  48.91300 23.99300 33.61800
H  48.77700 22.91600 32.45000
H  46.39300 27.37200 32.24200
H  47.69800 28.10900 33.19200
H  46.81800 25.82100 34.61700
H  45.44200 26.61200 33.90900
H  46.38100 19.94000 28.96300
H  44.94500 20.48600 28.41500
H  45.56500 21.16200 29.92400
H  46.42000 19.00800 26.98900
H  45.83400 18.73200 25.33500
H  45.01500 20.00900 26.25500
H  48.34900 24.97800 22.72200
H  51.20600 25.95800 23.36800
H  50.32800 22.99800 23.39800
H  51.05800 24.07500 22.26300
H  49.49100 23.30800 21.82500
H  49.51400 28.28500 22.98900
H  48.75400 27.06500 21.86700
H  50.77300 29.04700 21.58500
H  50.36500 27.71500 20.44400
H  51.76600 27.58600 21.55500
H  51.53000 31.21200 27.70900
H  50.81900 30.93300 26.21100
H  52.39800 30.14500 26.48000
H  48.58300 29.53100 31.40000
H  50.50400 27.64500 34.80900
H  50.57200 29.39100 35.27600
H  51.86400 28.52000 34.30700
Mg -5.56100 25.62100 26.14600
C  -4.29200 26.96300 29.21100
C  -7.71800 23.76500 28.04200
C  -6.43800 24.07900 23.37200
C  -2.97200 27.38700 24.43000
N  -5.73500 25.24600 28.40400
C  -5.24200 25.97200 29.42200
C  -5.91100 25.57100 30.74600
C  -6.65000 24.27800 30.36000
C  -6.79400 24.46900 28.83800
C  -6.04000 22.89300 30.78700
C  -6.93400 26.70800 31.23400
C  -7.12700 26.91600 32.74300
H  -6.51600 25.76100 33.57600
N  -6.99900 24.25500 25.70900
C  -7.82700 23.67200 26.61700
C  -8.80500 22.80400 25.88400
C  -8.39900 22.90600 24.54000
C  -7.22100 23.77600 24.49700
C  -9.82400 21.87300 26.64700
C  -9.00000 22.12500 23.34600
O  -8.45200 22.10600 22.24300
C  -10.23000 21.26900 23.59600
N  -4.66500 25.48800 24.27100
C  -5.27400 24.78100 23.26500
C  -4.69400 25.16800 21.86500
C  -3.82300 26.37400 22.18100
C  -3.82800 26.46100 23.72400
C  -4.07900 23.99900 21.04200
C  -4.34200 27.74100 21.57500
C  -3.79100 28.14300 20.24200
N  -4.02100 26.86100 26.62800
C  -3.01800 27.50500 25.87700
C  -2.25300 28.36200 26.70100
C  -2.71900 28.21300 27.97200
C  -3.79800 27.26000 27.90400
C  -1.13500 29.15400 26.23900
C  -2.53100 28.64700 29.36100
O  -1.82400 29.55800 29.79100
C  -3.50500 27.75300 30.26600
C  -2.62800 27.02500 31.15100
O  -1.73300 26.27800 30.82100
O  -2.88700 27.32800 32.45600
C  -1.97900 26.77400 33.50900
H  -8.34000 23.07400 28.61400
H  -6.76100 23.73600 22.38700
H  -2.19000 27.94100 23.90500
H  -5.08200 25.22800 31.36600
H  -7.68700 24.28100 30.69600
H  -6.14000 22.06100 30.09000
H  -6.27300 22.55700 31.79800
H  -4.97600 23.10500 30.89400
H  -7.87800 26.61300 30.69700
H  -6.44500 27.57800 30.79600
H  -8.18800 27.00500 32.97700
H  -6.69100 27.88300 32.99200
H  -10.73100 21.80500 26.04600
H  -10.10100 22.24200 27.63500
H  -9.35500 20.89800 26.78200
H  -10.49100 20.73200 22.68400
H  -11.18900 21.68800 23.89800
H  -10.07500 20.42800 24.27200
H  -5.61100 25.44900 21.34600
H  -2.82100 26.08800 21.86300
H  -3.77500 23.23100 21.75300
H  -3.26000 24.40500 20.44900
H  -4.88900 23.65800 20.39700
H  -4.16400 28.57700 22.25100
H  -5.42300 27.71100 21.44400
H  -4.58000 28.49100 19.57600
H  -3.18500 27.34300 19.81700
H  -3.20500 29.05200 20.37300
H  -0.57200 28.57800 25.50400
H  -0.59200 29.35100 27.16300
H  -1.48700 30.11600 25.86600
H  -3.94000 28.49000 30.94000
H  -2.58700 26.84200 34.41100
H  -1.06100 27.36200 33.53200
H  -1.79700 25.70200 33.42700

