158

Mg 8.86300 2.67200 28.20400
C  10.41400 1.21900 30.88000
C  7.23600 4.86200 30.22900
C  7.18200 3.78800 25.44200
C  10.33700 0.16900 25.97600
N  8.79000 2.91000 30.29000
C  9.60100 2.31500 31.18200
C  9.50800 2.90200 32.60100
C  8.28300 3.86900 32.48100
C  8.03100 3.84700 30.91000
C  7.00900 3.45700 33.22000
C  10.85200 3.44600 33.26500
C  10.97700 3.28900 34.77100
H  9.71500 2.97000 35.55500
N  7.49000 4.13700 27.84900
C  6.99800 4.95000 28.87300
C  5.97200 5.80700 28.28700
C  6.04200 5.60600 26.86700
C  6.94500 4.48000 26.65200
C  5.30600 6.86700 29.08500
C  5.27700 6.38300 25.77100
O  5.42400 6.23700 24.53900
C  4.17100 7.35900 26.17700
N  8.82600 2.06800 25.96700
C  8.00700 2.73600 25.10000
C  8.06000 2.09700 23.70900
C  9.31000 1.09900 23.80300
C  9.50700 1.07100 25.30800
C  6.62700 1.48000 23.45500
C  10.63000 1.49700 22.98300
C  11.23500 0.31900 22.26900
N  9.93200 0.88300 28.33400
C  10.49100 0.05900 27.37600
C  11.35100 -0.96300 28.09500
C  11.31100 -0.54300 29.45700
C  10.48100 0.55700 29.58600
C  12.04300 -2.16400 27.46400
C  11.76500 -0.82300 30.80700
O  12.63500 -1.64100 31.16900
C  11.08800 0.26300 31.83300
C  10.07900 -0.43400 32.72000
O  8.90700 -0.76600 32.42100
O  10.71500 -0.67200 33.92100
C  9.90100 -1.34500 34.97300
H  6.80300 5.51800 30.98700
H  6.46400 4.11000 24.68400
H  10.87900 -0.55300 25.36100
H  9.10000 2.10300 33.22100
H  8.49300 4.82200 32.96700
H  6.20500 3.14200 32.55400
H  6.59700 4.30200 33.77100
H  7.13400 2.64100 33.93200
H  10.74400 4.46700 32.89700
H  11.61900 2.89200 32.72400
H  11.35300 4.24800 35.12600
H  11.63400 2.43600 34.94200
H  5.88900 7.17200 29.95400
H  4.26000 6.62500 29.27600
H  5.30300 7.73900 28.43100
H  3.59000 7.77000 25.35100
H  4.74800 8.25000 26.42400
H  3.53200 6.87700 26.91800
H  8.29800 2.94400 23.06500
H  9.02300 0.09200 23.50100
H  6.03300 1.60100 24.36100
H  6.72500 0.40800 23.28400
H  6.20100 1.88500 22.53700
H  11.35600 2.07600 23.55400
H  10.37400 2.14100 22.14200
H  10.77800 0.36000 21.28000
H  11.16300 -0.70100 22.64800
H  12.26500 0.65400 22.14900
H  11.80400 -2.39600 26.42600
H  11.69500 -3.03000 28.02900
H  13.08700 -1.98000 27.71700
H  11.86600 0.64400 32.49500
H  10.35800 -2.27300 35.31600
H  8.83100 -1.44100 34.78800
H  9.87800 -0.79900 35.91600
Mg 43.74200 3.18100 47.44300
C  41.23300 5.37400 46.56800
C  41.31700 0.57700 47.44900
C  46.27700 0.91100 47.62500
C  46.01300 5.68300 47.38500
N  41.48400 2.98500 46.85400
C  40.65900 4.08000 46.66400
C  39.17700 3.67100 46.53300
C  39.28200 2.16900 47.07500
C  40.76900 1.90500 47.19600
C  38.52200 1.89800 48.46400
C  38.67500 3.67900 45.03400
C  37.56600 4.71400 44.60900
H  37.87100 5.63100 43.43900
N  43.75400 1.00100 47.51400
C  42.69000 0.12300 47.45400
C  43.17200 -1.27200 47.57100
C  44.56500 -1.21400 47.81600
C  44.96000 0.29400 47.66900
C  42.25800 -2.43400 47.46900
C  45.46400 -2.40100 48.02100
O  44.95000 -3.51900 47.95700
C  46.98600 -2.25300 48.20200
N  45.90000 3.29200 47.41800
C  46.69100 2.19100 47.45600
C  48.16400 2.60000 47.46100
C  48.10100 4.17200 47.47800
C  46.60500 4.42100 47.45700
C  49.06900 1.98100 48.55400
C  49.01800 4.94200 46.49700
C  50.45800 4.91900 46.89300
N  43.69600 5.24700 47.14100
C  44.68000 6.16300 47.16000
C  44.15800 7.47800 46.84200
C  42.78700 7.23600 46.69200
C  42.55400 5.86600 46.80500
C  44.92100 8.73000 46.69500
C  41.44900 7.81700 46.47200
O  41.12000 8.95400 46.45900
C  40.38800 6.62000 46.33900
C  39.53700 6.81700 47.53700
O  39.86000 6.87000 48.68600
O  38.25800 6.93700 47.11100
C  37.22300 7.13100 48.15800
H  40.53600 -0.18300 47.38800
H  47.17900 0.30300 47.72400
H  46.74700 6.49200 47.39200
H  38.57600 4.28100 47.20900
H  38.92400 1.48200 46.30800
H  37.94700 2.76000 48.80400
H  39.31600 1.76100 49.19800
H  37.84100 1.05400 48.35600
H  38.28200 2.69100 44.79200
H  39.47300 3.99200 44.36200
H  37.26000 5.38400 45.41200
H  36.66300 4.16200 44.34800
H  42.58900 -2.96800 46.57900
H  41.19800 -2.23600 47.31100
H  42.35300 -3.14500 48.28900
H  47.40300 -1.89700 47.26000
H  47.30800 -3.24200 48.52800
H  47.15400 -1.49500 48.96800
H  48.51700 2.30900 46.47200
H  48.51100 4.49100 48.43600
H  49.91200 1.50000 48.05800
H  48.55000 1.28200 49.21100
H  49.41800 2.71500 49.28000
H  48.71100 5.96800 46.29600
H  48.79100 4.46800 45.54200
H  50.63700 4.45900 47.86500
H  50.86400 5.92800 46.96200
H  51.08700 4.46200 46.12900
H  44.37000 9.57000 47.11800
H  45.19500 8.81200 45.64400
H  45.80800 8.69800 47.32800
H  39.87000 6.72300 45.38500
H  37.12800 6.36400 48.92700
H  36.26100 7.22500 47.65300
H  37.40200 8.10000 48.62400

