158

Mg 24.01600 -6.70400 47.58300
C  26.12200 -4.12400 46.43300
C  21.66000 -5.57000 45.39300
C  22.16700 -9.39000 48.40200
C  26.79800 -8.11600 49.23800
N  23.95700 -5.05200 46.06700
C  24.85500 -4.09400 45.87300
C  24.35200 -3.03900 44.79000
C  22.77600 -3.41600 44.65000
C  22.76300 -4.71900 45.45000
C  21.83300 -2.33000 45.32900
C  25.15300 -3.11800 43.54800
C  25.69900 -1.82400 42.93800
H  25.05700 -1.40700 41.58000
N  22.10600 -7.30400 47.12400
C  21.38000 -6.78300 46.04600
C  20.06700 -7.55500 45.92000
C  20.15100 -8.57100 46.93800
C  21.49700 -8.42200 47.58800
C  18.89700 -7.10400 45.08000
C  19.06500 -9.60200 47.26000
O  18.08000 -9.59800 46.50200
C  19.23300 -10.56900 48.42200
N  24.33300 -8.47300 48.71000
C  23.48200 -9.42000 48.92200
C  23.92500 -10.46900 49.96400
C  25.45500 -10.07300 50.15500
C  25.58800 -8.82800 49.32600
C  23.03700 -10.51000 51.27400
C  26.51800 -11.05200 49.76600
C  26.58100 -11.43100 48.29800
N  26.08700 -6.29100 47.79800
C  27.02300 -6.88300 48.59900
C  28.23100 -6.05300 48.54500
C  27.96900 -4.97200 47.70300
C  26.61000 -5.17200 47.26800
C  29.53100 -6.23600 49.17600
C  28.40100 -3.73800 47.13100
O  29.48000 -3.08600 47.23100
C  27.24900 -3.19200 46.19100
C  26.95200 -1.85700 46.62200
O  26.13600 -1.56500 47.50900
O  27.77000 -0.96100 46.00500
C  27.64000 0.48100 46.38300
H  20.97200 -5.27300 44.59800
H  21.70000 -10.37300 48.48800
H  27.49500 -8.57500 49.94200
H  24.48500 -2.07600 45.28400
H  22.40900 -3.68100 43.65800
H  22.52300 -1.67700 45.86300
H  21.16100 -2.71300 46.09700
H  21.40400 -1.65600 44.58700
H  24.53400 -3.56100 42.76900
H  25.96800 -3.83400 43.65800
H  26.75200 -2.08300 42.82400
H  25.58100 -0.95400 43.58500
H  18.40200 -7.90500 44.53000
H  19.17200 -6.39400 44.30100
H  18.14800 -6.55100 45.64700
H  18.27200 -11.05800 48.58500
H  19.40600 -10.12500 49.40200
H  19.92200 -11.36700 48.14500
H  23.98400 -11.45600 49.50600
H  25.56900 -9.95100 51.23300
H  22.68800 -11.49100 51.59400
H  22.15000 -9.88100 51.19100
H  23.62900 -10.20100 52.13500
H  26.25900 -11.98700 50.26300
H  27.49900 -10.78900 50.16100
H  26.85900 -12.48200 48.21000
H  27.40300 -10.90600 47.81300
H  25.62500 -11.21700 47.82000
H  29.92400 -5.31900 49.61500
H  30.22400 -6.62100 48.42900
H  29.59700 -6.98500 49.96500
H  27.65100 -3.13800 45.17900
H  27.79200 1.14900 45.53500
H  28.30800 0.68900 47.21800
H  26.67100 0.89800 46.65700
Mg 6.70500 53.93000 40.99900
C  5.91600 50.49900 40.89900
C  9.79400 53.05800 39.77700
C  7.06400 57.12400 40.04100
C  3.46000 54.53200 42.01000
N  7.70500 51.94400 40.38100
C  7.23400 50.72800 40.42700
C  8.28100 49.65800 40.00200
C  9.60400 50.47000 40.11200
C  9.03100 51.89800 40.03600
C  10.42800 50.23100 41.39200
C  8.03600 49.03100 38.54300
C  7.68000 49.96400 37.40300
H  6.45600 49.63000 36.50300
N  8.23300 54.95200 40.00500
C  9.43500 54.37600 39.67900
C  10.25800 55.51000 38.95100
C  9.46900 56.69600 38.99200
C  8.19000 56.28800 39.69700
C  11.61400 55.29200 38.32900
C  9.84800 58.03700 38.34600
O  10.96000 58.10400 37.76800
C  9.05700 59.22400 38.47800
N  5.31300 55.61500 40.83200
C  5.87600 56.85500 40.63300
C  4.91500 57.94100 41.21800
C  3.60200 57.11800 41.52700
C  4.13300 55.66700 41.52000
C  5.52100 58.62700 42.39700
C  2.63700 57.33100 40.30200
C  1.25500 56.66700 40.26900
N  5.03100 52.81800 41.52600
C  3.87000 53.22100 42.06200
C  3.15200 52.04000 42.57100
C  3.87700 50.99000 42.13400
C  5.00600 51.49400 41.38400
C  1.84200 52.06600 43.24600
C  3.93600 49.57200 42.14800
O  3.18200 48.88700 42.72900
C  5.24700 49.15900 41.32900
C  4.67500 48.34700 40.23200
O  3.86700 48.82300 39.41000
O  5.22900 47.08800 40.26300
C  4.48800 46.17700 39.42200
H  10.79300 52.87500 39.37600
H  7.36800 58.16300 39.89300
H  2.42300 54.75200 42.27100
H  8.31800 48.81200 40.68900
H  10.26600 50.21700 39.28400
H  10.50500 51.14700 41.97800
H  11.44300 49.97600 41.08800
H  10.09200 49.45100 42.07500
H  7.15500 48.39300 38.60600
H  8.99000 48.57100 38.28500
H  8.54600 50.00900 36.74200
H  7.47600 50.97300 37.76000
H  11.78100 55.55500 37.28400
H  11.76100 54.21400 38.25800
H  12.41600 55.78600 38.87700
H  8.09800 59.06600 37.98600
H  9.50500 60.08500 37.98100
H  8.84000 59.36000 39.53800
H  4.77900 58.58500 40.35000
H  3.11100 57.28600 42.48500
H  6.61000 58.59900 42.42700
H  5.15100 58.21400 43.33600
H  5.34000 59.69500 42.27400
H  3.19900 57.01900 39.42100
H  2.40600 58.39500 40.34300
H  0.47100 57.40200 40.08900
H  0.89500 56.32000 41.23800
H  1.28300 55.86900 39.52700
H  1.28300 52.99100 43.10700
H  1.85500 52.05400 44.33600
H  1.21300 51.24300 42.90500
H  5.89300 48.48500 41.89200
H  3.41400 46.18600 39.61100
H  4.93000 45.18400 39.50500
H  4.61500 46.53400 38.40000

