158

Mg 8.52400 2.02800 27.58500
C  10.19800 0.96500 30.42800
C  6.93000 4.35900 29.56500
C  7.07300 3.09800 24.79400
C  10.16000 -0.46200 25.78000
N  8.60000 2.57800 29.80000
C  9.31800 2.00700 30.73700
C  9.06200 2.67600 32.14300
C  8.05800 3.79200 31.79400
C  7.81000 3.60600 30.28800
C  6.81700 3.99700 32.57100
C  10.28100 3.15900 32.93100
C  10.07700 4.25600 34.07500
H  10.52400 3.89700 35.46400
N  7.23500 3.50700 27.20300
C  6.67300 4.33400 28.20000
C  5.73000 5.17600 27.53500
C  5.83300 4.92300 26.08200
C  6.67400 3.74900 25.99000
C  4.73100 6.14400 28.11700
C  5.03400 5.51600 24.92500
O  5.25300 5.13800 23.78700
C  3.90400 6.60600 25.09500
N  8.60800 1.46300 25.58200
C  7.94600 2.08500 24.60100
C  8.19600 1.49400 23.26100
C  9.10600 0.27700 23.57900
C  9.34300 0.43700 25.03900
C  6.87600 1.08500 22.45300
C  10.37400 0.18200 22.69000
C  10.15300 -0.32200 21.34000
N  9.86300 0.56300 27.97500
C  10.39700 -0.42600 27.14200
C  11.23500 -1.31800 27.87900
C  11.23000 -0.76500 29.20000
C  10.33000 0.33100 29.20100
C  12.03300 -2.54600 27.32600
C  11.71900 -0.87700 30.58800
O  12.51300 -1.66300 31.07800
C  11.06400 0.19300 31.43600
C  10.23500 -0.34900 32.48100
O  9.16000 -0.95300 32.31900
O  10.80400 -0.25500 33.76200
C  9.91000 -0.81600 34.88300
H  6.47800 5.12400 30.20100
H  6.62800 3.40600 23.84600
H  10.70200 -1.20600 25.19300
H  8.51000 2.03300 32.82900
H  8.60400 4.73600 31.78400
H  5.99700 3.54700 32.01000
H  6.59500 5.05200 32.73100
H  6.87700 3.55500 33.56500
H  10.95100 3.57100 32.17600
H  10.79000 2.28900 33.34500
H  9.03400 4.51100 34.26400
H  10.55900 5.15600 33.69200
H  4.98600 7.07800 27.61700
H  4.95000 6.21800 29.18200
H  3.67500 5.89200 28.01700
H  3.42800 6.96500 24.18200
H  4.27800 7.56900 25.44100
H  3.14600 6.21300 25.77300
H  8.74000 2.26800 22.72000
H  8.55700 -0.66500 23.59400
H  6.00800 1.10000 23.11200
H  6.86000 0.06200 22.07800
H  6.79100 1.74200 21.58700
H  11.02300 -0.54600 23.17600
H  10.83000 1.17100 22.63700
H  10.20300 0.45500 20.57700
H  9.14200 -0.70700 21.47300
H  10.85600 -1.10400 21.05200
H  11.34500 -3.33200 27.01400
H  12.65800 -2.76300 28.19300
H  12.74100 -2.14500 26.60000
H  11.79200 0.85600 31.90400
H  9.57300 0.07300 35.41700
H  10.57400 -1.30200 35.59800
H  9.05100 -1.44100 34.63900
Mg 46.87700 15.05600 27.74900
C  44.90000 15.08500 30.72000
C  48.91800 17.41800 29.24300
C  48.47200 15.18300 25.01200
C  44.24700 13.16700 26.25600
N  46.82000 16.07600 29.74700
C  45.98100 15.94300 30.78300
C  46.52300 16.62900 32.00300
C  47.55200 17.69200 31.37400
C  47.79700 16.99700 30.01200
C  47.20200 19.16400 31.22300
C  47.28000 15.56400 32.93200
C  46.96900 15.63600 34.40000
H  48.17700 15.47800 35.40300
N  48.57900 16.04800 27.22400
C  49.28900 16.94100 27.95600
C  50.42200 17.42200 27.19500
C  50.37000 16.75500 25.92100
C  49.12800 15.97100 26.01200
C  51.41400 18.43500 27.72500
C  51.30600 16.80600 24.69700
O  51.11600 16.19200 23.62900
C  52.56900 17.68200 24.83400
N  46.26700 14.37700 25.78800
C  47.25500 14.50800 24.84600
C  46.93800 13.61100 23.62400
C  45.53800 12.96000 24.02900
C  45.31000 13.51500 25.41600
C  46.83100 14.48800 22.35800
C  45.45500 11.32700 23.96600
C  46.68400 10.57500 24.62500
N  45.02600 14.22100 28.26300
C  44.05800 13.57900 27.52400
C  42.93400 13.26800 28.38100
C  43.23700 13.85200 29.61600
C  44.49800 14.43600 29.52900
C  41.63600 12.76000 27.95200
C  42.61300 14.10100 30.96500
O  41.50300 13.89500 31.46600
C  43.82300 14.84000 31.71500
C  43.27400 16.16700 32.19600
O  43.02200 17.10300 31.50100
O  43.12500 16.13000 33.58500
C  42.67600 17.30200 34.36200
H  49.59600 18.14100 29.70300
H  49.14900 15.18900 24.15600
H  43.41500 12.64200 25.78400
H  45.70900 17.03500 32.60300
H  48.44500 17.74000 31.99700
H  46.99100 19.39700 30.17900
H  48.04400 19.76100 31.57200
H  46.27200 19.30400 31.77300
H  48.35000 15.63500 32.73400
H  46.95500 14.57000 32.62400
H  46.26000 14.86800 34.70900
H  46.48500 16.59500 34.58500
H  51.70500 19.12600 26.93400
H  52.28500 17.90100 28.10600
H  51.03000 19.01800 28.56300
H  53.12600 17.62700 23.89900
H  53.18200 17.29800 25.64900
H  52.26800 18.72900 24.85900
H  47.67500 12.80800 23.63400
H  44.79000 13.26800 23.29700
H  46.50900 15.51400 22.53600
H  46.04700 14.10400 21.70500
H  47.84100 14.55500 21.95300
H  45.49500 11.02700 22.91900
H  44.59200 10.89500 24.47200
H  47.27300 10.15200 23.81200
H  46.24700 9.77700 25.22600
H  47.23900 11.22400 25.30300
H  41.22300 13.19600 27.04300
H  40.98600 13.04300 28.78000
H  41.80600 11.69100 27.82500
H  44.16600 14.35700 32.63000
H  42.30700 18.17100 33.81800
H  43.47600 17.69100 34.99200
H  41.85900 17.01300 35.02300

