158

Mg 46.90800 16.02600 28.21800
C  45.04100 15.60700 31.01300
C  48.87200 18.25800 29.74900
C  48.70000 16.29200 25.25600
C  44.65800 13.96300 26.46000
N  47.00200 16.79300 30.18300
C  46.07600 16.54100 31.17300
C  46.40600 17.34100 32.46400
C  47.54200 18.24300 31.98000
C  47.85600 17.71500 30.52600
C  47.24700 19.75900 31.94000
C  46.92100 16.33200 33.52200
C  47.15600 16.92200 34.94200
H  48.55700 16.73900 35.53500
N  48.53400 17.13800 27.61200
C  49.24200 17.97200 28.38700
C  50.26400 18.61700 27.63900
C  50.21100 18.14800 26.25300
C  49.13800 17.08800 26.35800
C  51.19400 19.70900 28.08300
C  51.00000 18.51100 24.97900
O  50.81800 18.00200 23.89400
C  52.01900 19.57700 25.04200
N  46.65800 15.33000 26.10300
C  47.55200 15.44500 25.12400
C  47.09200 14.77200 23.84400
C  45.79800 14.00900 24.20000
C  45.70900 14.40300 25.71300
C  46.90100 15.81900 22.72500
C  45.75100 12.53500 23.82700
C  46.46100 11.64600 24.78700
N  45.18800 15.02100 28.54000
C  44.32000 14.36200 27.77200
C  43.19400 13.85800 28.57400
C  43.41900 14.29400 29.85700
C  44.61400 15.00400 29.75400
C  42.12600 12.91200 28.08200
C  42.99800 14.17200 31.20600
O  42.07800 13.57700 31.73800
C  43.98700 15.07700 32.02900
C  43.16200 16.11100 32.70700
O  42.39900 16.81800 32.09100
O  43.41400 16.18600 34.05200
C  42.46900 17.00100 34.86300
H  49.55600 18.92800 30.27400
H  49.32300 16.41200 24.36700
H  44.02000 13.24800 25.93700
H  45.55500 17.88900 32.86700
H  48.46000 18.14100 32.55900
H  47.37900 20.14000 30.92700
H  48.01000 20.25400 32.53900
H  46.21400 19.99300 32.19600
H  47.85100 15.86900 33.19200
H  46.07100 15.66400 33.66200
H  46.56500 16.48500 35.74600
H  46.95900 17.99100 35.02600
H  51.12700 20.03100 29.12200
H  50.94900 20.58000 27.47500
H  52.20400 19.30400 28.02800
H  51.65700 20.58300 25.25500
H  52.64400 19.54300 24.15000
H  52.74100 19.41200 25.84200
H  47.77000 13.93100 23.70300
H  44.93200 14.56000 23.83400
H  45.94300 15.66000 22.23000
H  47.74300 16.00300 22.05800
H  46.78700 16.72600 23.31900
H  46.26200 12.45400 22.86800
H  44.67800 12.34000 23.81800
H  46.91100 12.13200 25.65300
H  47.25300 11.15900 24.21900
H  45.72800 11.00200 25.27300
H  42.55600 12.35400 27.25000
H  41.25700 13.49300 27.77400
H  41.83300 12.19700 28.85000
H  44.40600 14.44600 32.81300
H  42.00600 17.76500 34.23900
H  43.08000 17.48700 35.62500
H  41.70100 16.42300 35.37700
Mg 25.42900 52.15800 26.91700
C  22.91700 52.83400 29.46200
C  27.51000 51.24900 29.56800
C  28.01300 52.17000 24.81600
C  23.33100 53.49900 24.63600
N  25.23500 52.17100 29.28400
C  24.10000 52.27600 30.07700
C  24.32400 51.94700 31.52200
C  25.89100 51.68100 31.55900
C  26.26600 51.69900 30.04700
C  26.74500 52.76400 32.39900
C  23.41400 50.76600 32.06900
C  23.01300 50.65600 33.52900
H  23.70300 51.44800 34.60800
N  27.38500 51.64300 27.15100
C  28.04300 51.21500 28.23500
C  29.44100 50.88100 27.95600
C  29.66100 51.23200 26.60300
C  28.34300 51.70800 26.14200
C  30.43100 50.41100 28.98200
C  30.85400 51.13200 25.73400
O  30.87200 51.49900 24.54200
C  32.11200 50.57600 26.33000
N  25.62900 52.69600 24.94500
C  26.77400 52.65800 24.25100
C  26.66600 53.18000 22.84900
C  25.17000 53.46500 22.79000
C  24.63700 53.21500 24.21600
C  27.58000 54.35500 22.44800
C  24.40600 52.63300 21.74100
C  23.62100 51.39400 22.17500
N  23.47000 52.91100 27.01600
C  22.70300 53.38600 25.93500
C  21.42400 53.79900 26.39700
C  21.52700 53.71500 27.82100
C  22.72800 53.07100 28.09100
C  20.20700 54.36000 25.72800
C  20.77400 53.95500 29.07300
O  19.66700 54.32700 29.22000
C  21.67000 53.33900 30.15700
C  22.02500 54.33000 31.21800
O  22.75700 55.27000 31.09400
O  21.16500 54.11500 32.28300
C  21.19600 55.25200 33.20000
H  28.18800 50.96500 30.37600
H  28.76300 52.25900 24.02700
H  22.67600 54.09900 24.00000
H  23.92900 52.80900 32.05800
H  26.06800 50.67400 31.93700
H  27.29600 53.52400 31.84500
H  27.41000 52.23400 33.08000
H  26.17100 53.41700 33.05800
H  23.93900 49.83900 31.84200
H  22.47700 50.78600 31.51300
H  23.07100 49.59000 33.74500
H  21.97900 50.93300 33.73500
H  30.09800 50.46300 30.01900
H  31.35900 50.97400 28.87900
H  30.61600 49.38100 28.67800
H  31.90100 49.62200 26.81300
H  32.29100 51.33000 27.09700
H  33.00300 50.52400 25.70500
H  26.94400 52.36400 22.18100
H  25.02400 54.54200 22.71800
H  28.36500 54.00400 21.77800
H  28.03800 54.89900 23.27400
H  26.96200 55.06100 21.89300
H  25.14600 52.28800 21.01800
H  23.70700 53.23500 21.16000
H  24.01800 51.07100 23.13800
H  23.87400 50.57700 21.49900
H  22.54100 51.50700 22.08200
H  20.64000 54.60800 24.75900
H  19.84400 55.28000 26.18700
H  19.32500 53.72300 25.66400
H  21.21600 52.50500 30.69100
H  21.25500 56.26700 32.80700
H  22.00000 55.10800 33.92200
H  20.20000 55.19300 33.64000

