158

Mg -2.13300 17.29600 26.52200
C  -2.50600 15.04000 29.26200
C  -2.65900 19.78800 28.70200
C  -1.77900 19.26100 23.94900
C  -1.94500 14.48400 24.41900
N  -2.59200 17.34900 28.75200
C  -2.66200 16.35000 29.68300
C  -3.16200 16.88800 31.03600
C  -3.15300 18.43900 30.82100
C  -2.71000 18.55700 29.31700
C  -4.56700 19.08800 31.11600
C  -2.50500 16.32200 32.26800
C  -2.82800 16.97200 33.58000
H  -2.13000 16.30600 34.79800
N  -2.09200 19.28800 26.35300
C  -2.38700 20.16000 27.35700
C  -2.18100 21.46400 26.78300
C  -1.85500 21.35100 25.43500
C  -1.85200 19.93200 25.19900
C  -2.29800 22.73700 27.68200
C  -1.40600 22.55300 24.42300
O  -0.94100 22.28500 23.27500
C  -1.45800 23.92700 24.87000
N  -1.93000 16.90600 24.47500
C  -1.84700 17.92500 23.62800
C  -1.91400 17.50200 22.16900
C  -1.89900 15.90700 22.29000
C  -1.87600 15.72800 23.83400
C  -3.22000 18.09700 21.55900
C  -0.69000 15.18500 21.59400
C  0.67300 15.07700 22.33800
N  -2.14300 15.14800 26.73700
C  -2.08000 14.16300 25.80400
C  -2.25300 12.88600 26.38600
C  -2.44600 13.12300 27.76200
C  -2.35500 14.54800 27.93800
C  -2.26500 11.60200 25.60900
C  -2.70800 12.55600 29.05700
O  -2.82600 11.37500 29.35600
C  -2.74200 13.77300 30.00100
C  -1.68100 13.48200 30.97100
O  -0.51000 13.86400 30.90500
O  -2.15600 12.59300 31.88900
C  -1.25200 12.01900 32.85100
H  -2.83000 20.61300 29.39700
H  -1.68700 19.91400 23.07800
H  -2.04900 13.69000 23.67700
H  -4.15900 16.45600 31.12000
H  -2.34700 18.87500 31.41200
H  -5.23600 18.27900 31.41100
H  -4.90800 19.56500 30.19800
H  -4.46300 19.92100 31.81100
H  -1.42000 16.22900 32.25400
H  -2.77200 15.27600 32.42000
H  -3.90000 16.80800 33.69100
H  -2.64100 18.04600 33.56900
H  -1.29000 23.02900 27.98000
H  -2.82400 22.61700 28.62900
H  -2.98200 23.47300 27.26000
H  -1.07200 24.68000 24.18400
H  -0.93900 23.99500 25.82600
H  -2.53100 24.11600 24.89600
H  -0.96100 17.85800 21.77700
H  -2.81500 15.41100 21.97000
H  -3.62900 18.94700 22.10600
H  -3.89900 17.25200 21.44800
H  -3.05700 18.47500 20.55000
H  -0.46500 15.74600 20.68700
H  -0.88600 14.17600 21.23100
H  1.01600 14.04800 22.23100
H  0.58400 15.31600 23.39800
H  1.27100 15.88500 21.91700
H  -1.53900 11.53200 24.79900
H  -3.24100 11.64300 25.12400
H  -2.28000 10.76800 26.31000
H  -3.72500 13.84100 30.46700
H  -1.63700 11.11200 33.31700
H  -1.08900 12.74100 33.65200
H  -0.32100 11.87700 32.30200
Mg -11.40000 38.31700 41.58500
C  -9.00600 35.75900 41.08300
C  -9.51400 40.41700 39.70100
C  -14.08500 40.32900 41.41100
C  -13.56500 35.72000 42.92900
N  -9.53900 38.06400 40.42800
C  -8.74400 36.93000 40.47900
C  -7.44700 37.22100 39.71500
C  -7.59300 38.74400 39.26900
C  -8.97100 39.11700 39.79400
C  -6.42900 39.74500 39.57800
C  -7.01900 36.21300 38.60600
C  -5.71700 35.48200 38.80600
H  -4.62600 35.60300 37.68300
N  -11.68900 40.23300 40.87400
C  -10.83500 40.92500 40.01300
C  -11.42600 42.12900 39.59300
C  -12.67000 42.20800 40.25500
C  -12.88500 40.90600 40.93400
C  -10.63600 43.05900 38.70400
C  -13.59000 43.44600 40.12800
O  -13.10700 44.48700 39.64900
C  -15.00300 43.45200 40.63200
N  -13.53400 38.05200 42.14900
C  -14.37100 39.06100 42.01300
C  -15.79700 38.69500 42.36100
C  -15.63900 37.25200 42.91100
C  -14.14900 36.97400 42.69400
C  -16.58500 39.66700 43.27300
C  -16.50500 36.33500 41.96200
C  -18.07300 36.66600 41.84700
N  -11.25900 36.23300 42.13100
C  -12.18600 35.36600 42.73700
C  -11.54500 34.10100 43.00500
C  -10.29400 34.19500 42.40900
C  -10.18100 35.49700 41.81900
C  -12.22100 32.98200 43.63500
C  -9.10800 33.57000 42.20500
O  -8.81800 32.44800 42.59800
C  -8.12600 34.57600 41.45500
C  -6.88400 34.81000 42.27600
O  -5.91800 34.08200 42.32400
O  -6.87200 36.07000 42.92300
C  -5.71800 36.44400 43.62900
H  -8.79200 41.07200 39.21000
H  -14.99800 40.92300 41.32400
H  -14.21000 34.97000 43.39200
H  -6.68000 37.17000 40.48800
H  -7.75900 38.64100 38.19600
H  -5.48100 39.25300 39.79500
H  -6.56000 40.54200 40.31100
H  -6.15000 40.28400 38.67200
H  -6.96500 36.63500 37.60200
H  -7.80400 35.45700 38.55900
H  -6.03300 34.44400 38.90500
H  -5.19900 35.80500 39.70900
H  -11.08200 43.96900 38.30500
H  -10.33700 42.43600 37.86100
H  -9.83500 43.34700 39.38600
H  -14.94800 43.17800 41.68500
H  -15.63700 42.90800 39.93200
H  -15.33200 44.48800 40.54200
H  -16.25300 38.70000 41.37100
H  -15.99500 37.12200 43.93300
H  -17.12700 39.02200 43.96400
H  -17.30100 40.25000 42.69300
H  -15.84800 40.32600 43.73300
H  -16.35300 35.30800 42.29500
H  -16.14100 36.46300 40.94300
H  -18.30500 37.53900 42.45700
H  -18.71600 35.85700 42.19200
H  -18.37200 36.99300 40.85200
H  -12.59700 33.24100 44.62500
H  -11.61700 32.07500 43.60700
H  -13.07300 32.74000 42.99900
H  -7.84600 34.00100 40.57200
H  -5.61600 37.52800 43.66100
H  -4.80400 36.06900 43.16900
H  -5.82200 36.14200 44.67200

