158

Mg 0.02700 7.99000 26.73800
C  0.84600 9.79600 29.64900
C  -0.22900 5.18900 28.70000
C  -0.11900 6.12900 23.80100
C  0.59200 10.80600 24.93500
N  0.40300 7.52400 28.95400
C  0.44800 8.43300 29.93900
C  0.15400 7.87500 31.32000
C  0.19900 6.33500 31.04300
C  0.18400 6.29800 29.46800
C  1.42600 5.65300 31.72500
C  -1.22500 8.44800 31.79100
C  -1.29200 9.06700 33.15100
H  -0.23200 8.84500 34.23000
N  -0.25700 5.93500 26.31300
C  -0.27300 4.94100 27.23900
C  -0.59800 3.62600 26.62400
C  -0.50800 3.85300 25.18400
C  -0.28500 5.37600 25.02900
C  -0.93100 2.37900 27.36600
C  -0.47600 2.89600 23.94900
O  -0.28200 3.22800 22.81000
C  -0.77700 1.35600 24.12100
N  0.49200 8.38300 24.62300
C  0.13300 7.48800 23.59200
C  0.10800 8.18200 22.23000
C  0.23400 9.74600 22.70000
C  0.41900 9.67000 24.20500
C  1.23200 7.68200 21.28200
C  -1.03200 10.61000 22.25800
C  -0.66800 11.75100 21.31600
N  0.59900 9.94700 27.12700
C  0.83000 10.99700 26.28300
C  1.23600 12.16000 27.02900
C  1.26500 11.75800 28.38000
C  0.93000 10.40100 28.36700
C  1.45200 13.52800 26.53500
C  1.61400 12.12900 29.71400
O  2.20200 13.10800 30.06300
C  1.24600 10.88200 30.61700
C  2.35700 10.45100 31.50600
O  3.11600 9.51200 31.40700
O  2.43100 11.35000 32.48700
C  3.69200 11.31300 33.19200
H  -0.24900 4.26900 29.28800
H  -0.19900 5.62800 22.83400
H  0.60900 11.74000 24.36900
H  0.92800 8.16400 32.03100
H  -0.74200 5.93700 31.42200
H  2.37800 5.86700 31.23900
H  1.20300 4.58900 31.65000
H  1.50000 5.94900 32.77200
H  -1.99100 7.67300 31.82700
H  -1.54100 9.17700 31.04500
H  -2.27800 8.76700 33.50700
H  -1.35600 10.13500 32.94200
H  -0.03700 1.81200 27.62600
H  -1.57000 1.84700 26.66100
H  -1.52200 2.55800 28.26400
H  -0.88200 0.90000 23.13700
H  -1.62000 1.08600 24.75700
H  0.12700 1.05500 24.65200
H  -0.82000 7.90100 21.73200
H  1.14600 10.21400 22.32800
H  1.93900 7.07800 21.85000
H  1.88100 8.42800 20.82500
H  0.82600 7.15600 20.41800
H  -1.43200 10.99700 23.19500
H  -1.79100 10.05400 21.70800
H  -1.50300 11.91800 20.63500
H  0.30900 11.73700 20.83300
H  -0.71800 12.67100 21.89700
H  2.53000 13.67100 26.46100
H  1.06100 14.27200 27.22800
H  0.92100 13.65800 25.59200
H  0.39700 11.14800 31.24600
H  4.46400 11.15400 32.43900
H  3.88500 10.48400 33.87300
H  3.90600 12.30400 33.59200
Mg 23.46100 -5.13200 45.74000
C  25.61300 -2.72200 44.21700
C  20.83600 -3.82700 43.84700
C  21.71500 -7.70900 46.67900
C  26.31400 -6.38800 47.38800
N  23.31800 -3.54700 44.15100
C  24.28600 -2.67400 43.75400
C  23.68300 -1.55400 42.84800
C  22.15200 -1.75000 43.04800
C  22.05700 -3.13800 43.67300
C  21.39800 -0.73700 43.98400
C  24.09000 -1.73500 41.34200
C  24.77900 -0.62500 40.58700
H  25.42000 -0.96300 39.21800
N  21.50800 -5.75500 45.21900
C  20.59400 -5.08100 44.51100
C  19.34300 -5.79800 44.65900
C  19.56100 -6.99600 45.36100
C  20.99300 -6.86000 45.79400
C  18.16700 -5.26700 44.07800
C  18.59900 -8.14100 45.54000
O  17.49000 -8.01300 45.07600
C  18.94400 -9.50100 46.17800
N  24.03600 -6.93500 46.78600
C  23.09000 -7.82500 47.02800
C  23.71200 -8.97100 47.85200
C  25.04500 -8.42300 48.36900
C  25.14400 -7.15500 47.46200
C  22.75900 -9.52600 48.91900
C  26.21600 -9.49600 48.23900
C  27.43600 -9.46300 49.19300
N  25.58900 -4.71800 45.86300
C  26.66000 -5.32200 46.52200
C  27.83700 -4.57100 46.30600
C  27.47900 -3.54100 45.46300
C  26.07200 -3.68700 45.11900
C  29.21800 -4.89800 46.88700
C  28.03100 -2.34800 44.75200
O  29.13500 -1.83200 44.63000
C  26.74500 -1.76100 43.94500
C  26.53000 -0.28400 44.20200
O  25.46400 0.22600 44.67200
O  27.59000 0.41700 43.73600
C  27.57300 1.89200 43.68500
H  19.92700 -3.35200 43.47400
H  21.15400 -8.62400 46.88100
H  27.15300 -6.68100 48.02300
H  24.03500 -0.54100 43.04200
H  21.60200 -1.83200 42.11100
H  22.16100 -0.16100 44.50800
H  20.69800 -1.26600 44.63200
H  20.80400 -0.18300 43.25700
H  23.30100 -2.14000 40.70700
H  24.76200 -2.59000 41.27200
H  25.49000 -0.08800 41.21500
H  23.99300 0.11100 40.41700
H  18.09200 -5.65200 43.06100
H  18.14500 -4.17800 44.03200
H  17.31200 -5.73300 44.56700
H  19.89800 -9.85400 45.78500
H  18.24000 -10.29500 45.92800
H  19.10300 -9.42400 47.25300
H  23.99800 -9.75800 47.15400
H  24.94600 -8.06300 49.39300
H  21.70000 -9.28200 49.00600
H  23.15200 -9.39700 49.92800
H  22.72500 -10.60800 48.79000
H  26.59000 -9.33600 47.22700
H  25.72600 -10.46900 48.23000
H  28.28700 -9.00700 48.68600
H  27.81300 -10.47600 49.33900
H  27.20800 -9.12900 50.20500
H  29.42300 -5.96600 46.96200
H  29.12500 -4.62200 47.93700
H  30.01500 -4.38600 46.34900
H  26.80100 -1.75400 42.85700
H  27.83000 2.23200 44.68800
H  26.61600 2.19600 43.26100
H  28.38600 2.13300 43.00000

