158

Mg 8.31700 3.35000 27.82800
C  9.75900 1.87900 30.44700
C  6.39900 5.32900 29.78500
C  6.87500 4.75900 24.97600
C  9.94300 1.10900 25.61000
N  7.96500 3.45600 29.89300
C  8.80100 2.93400 30.85100
C  8.57400 3.46900 32.28300
C  7.44600 4.50700 32.04700
C  7.19100 4.43000 30.47800
C  6.11800 4.34700 32.85900
C  9.88900 3.94400 32.94600
C  9.67900 4.90100 34.01900
H  10.65000 4.76100 35.23000
N  6.74700 4.71300 27.47100
C  6.07300 5.41100 28.40500
C  5.18000 6.29500 27.77600
C  5.33200 6.22900 26.34800
C  6.33100 5.19800 26.19900
C  4.33600 7.33800 28.54000
C  4.63300 6.92700 25.23700
O  4.91400 6.71800 24.04800
C  3.38700 7.70000 25.53100
N  8.46000 2.97500 25.58700
C  7.67500 3.65600 24.70000
C  7.89400 3.09900 23.25600
C  9.01600 2.00000 23.43900
C  9.16600 2.02000 24.91400
C  6.60100 2.53300 22.55300
C  10.43200 2.54800 22.93600
C  10.57800 2.08100 21.51200
N  9.49300 1.79500 27.94300
C  10.16200 0.97200 27.01700
C  10.95800 -0.04100 27.66300
C  10.85300 0.33500 29.03200
C  9.94800 1.43400 29.11400
C  11.58200 -1.25600 27.08500
C  11.31000 -0.00000 30.39000
O  12.07700 -0.85200 30.78600
C  10.68400 1.02300 31.29900
C  9.99300 0.37300 32.45400
O  8.95500 -0.22300 32.40900
O  10.69900 0.53700 33.60300
C  9.95300 0.08700 34.83200
H  6.00600 6.13400 30.41000
H  6.42000 5.09300 24.04100
H  10.53900 0.60200 24.84800
H  8.19300 2.66600 32.91400
H  7.82400 5.51000 32.24800
H  5.27500 4.09400 32.21500
H  5.85000 5.28000 33.35500
H  6.23600 3.63900 33.68000
H  10.53700 4.46000 32.23700
H  10.45700 3.12800 33.39400
H  8.64200 4.85000 34.34900
H  9.74700 5.95700 33.75600
H  4.43600 8.35000 28.14700
H  4.51600 7.42900 29.61100
H  3.35400 6.90900 28.34200
H  2.96200 7.95300 24.56000
H  3.72700 8.61100 26.02200
H  2.72700 7.08200 26.13900
H  8.23500 3.81400 22.50700
H  8.70900 0.99800 23.13800
H  6.72200 1.54400 22.11100
H  6.18200 3.14900 21.75800
H  5.81000 2.55600 23.30200
H  11.15800 1.97000 23.50900
H  10.71000 3.59900 23.01700
H  9.69200 1.48800 21.28600
H  11.41300 1.38100 21.51400
H  10.76200 2.95500 20.88700
H  11.36200 -2.07400 27.77100
H  12.62900 -0.99400 26.93000
H  11.14200 -1.36500 26.09400
H  11.42900 1.71400 31.69300
H  9.31800 -0.79700 34.76200
H  9.18900 0.84400 35.00800
H  10.65900 0.00700 35.65800
Mg 47.93800 35.48800 28.77200
C  46.04300 33.30200 30.85400
C  47.40700 37.97200 31.20000
C  49.01700 37.81300 26.67600
C  47.39100 33.21500 26.07500
N  46.87400 35.55500 30.81700
C  46.38000 34.50700 31.50200
C  46.32400 34.91700 33.00700
C  46.18400 36.44900 32.96100
C  46.83900 36.69200 31.57400
C  44.83800 37.08600 33.29400
C  47.65200 34.22800 33.64400
C  47.58700 33.85500 35.16700
H  46.56400 34.65500 35.91200
N  48.54800 37.50000 29.01900
C  48.22800 38.33100 30.07200
C  48.91800 39.62400 29.84000
C  49.46300 39.54400 28.51300
C  48.93500 38.26400 27.97000
C  49.00500 40.61200 30.94900
C  50.53700 40.45200 27.94000
O  51.14700 40.17900 26.88100
C  51.04600 41.74800 28.67000
N  48.17000 35.48200 26.53800
C  48.70700 36.57900 25.98600
C  48.83900 36.27400 24.49800
C  48.52500 34.75000 24.34300
C  48.02100 34.44600 25.71400
C  47.94300 37.14700 23.58300
C  49.68800 33.78800 24.00700
C  50.78400 33.47600 25.00600
N  47.01900 33.67400 28.47800
C  46.91700 32.78200 27.33800
C  46.25800 31.56100 27.72300
C  46.00600 31.62500 29.13500
C  46.43500 33.01700 29.51300
C  46.01300 30.34400 26.87500
C  45.38600 30.99500 30.33100
O  44.77000 29.96700 30.47100
C  45.42900 31.99500 31.43700
C  45.95200 31.48000 32.77700
O  47.10500 31.02900 33.03100
O  44.95000 31.45100 33.70900
C  45.26700 30.90800 34.99900
H  47.13800 38.71100 31.95800
H  49.37400 38.45900 25.87100
H  47.35400 32.48600 25.26300
H  45.50300 34.44200 33.54300
H  46.88800 36.68100 33.76000
H  44.32000 37.65600 32.52300
H  44.99100 37.74400 34.14900
H  44.04000 36.41400 33.60900
H  48.54300 34.83800 33.49400
H  47.88200 33.34900 33.04200
H  48.56100 34.10700 35.58500
H  47.41700 32.81100 35.43000
H  48.73400 41.62300 30.64400
H  50.06500 40.58700 31.20500
H  48.34900 40.31700 31.76800
H  51.99100 42.05800 28.22400
H  51.23900 41.61400 29.73400
H  50.33000 42.55800 28.53600
H  49.89100 36.45800 24.27800
H  47.73200 34.58900 23.61300
H  47.49800 37.97600 24.13300
H  47.09900 36.62500 23.13200
H  48.62400 37.37500 22.76300
H  50.20100 34.26900 23.17400
H  49.24800 32.82900 23.73300
H  51.65200 33.24400 24.38700
H  50.34100 32.73200 25.66700
H  50.98400 34.32700 25.65700
H  45.26400 30.46400 26.09200
H  45.60500 29.52300 27.46600
H  46.88000 29.97500 26.32800
H  44.37500 32.17500 31.64900
H  44.40500 30.39800 35.42800
H  45.54500 31.74200 35.64300
H  46.04900 30.14900 34.96200

