158

Mg 27.22500 49.81300 27.35900
C  25.09900 50.98900 29.97300
C  29.27600 48.73200 29.85700
C  29.27900 49.05400 24.89200
C  24.88100 51.04200 25.06600
N  27.09300 49.94700 29.58400
C  26.15900 50.36100 30.50100
C  26.41300 50.03400 31.99800
C  27.73400 49.21000 31.82600
C  28.09400 49.29100 30.32700
C  29.00700 49.55600 32.74800
C  25.27500 49.35500 32.75500
C  24.88300 50.11400 34.08900
H  24.59700 49.30500 35.30000
N  29.07300 49.06000 27.42500
C  29.77900 48.62900 28.49300
C  31.12600 48.26500 28.02100
C  31.17700 48.39800 26.61800
C  29.80000 48.80100 26.25600
C  32.23700 47.85200 29.03500
C  32.31200 48.12200 25.64100
O  32.22300 48.33100 24.41000
C  33.60400 47.64400 26.13300
N  27.12200 50.11700 25.32600
C  27.99700 49.51200 24.51900
C  27.69900 49.56900 23.01600
C  26.20700 50.07200 23.09000
C  26.05400 50.50300 24.53000
C  28.69300 50.38900 22.11800
C  25.06300 49.08200 22.60400
C  23.80600 49.85200 21.96600
N  25.35600 50.86100 27.42000
C  24.51700 51.28400 26.42600
C  23.31500 51.88000 26.99500
C  23.54900 51.85500 28.38000
C  24.80800 51.19400 28.57300
C  22.16700 52.38500 26.19100
C  22.87500 52.11600 29.61200
O  21.72700 52.45600 29.85600
C  23.92000 51.59600 30.66500
C  24.31400 52.72000 31.63000
O  25.26400 53.51300 31.45700
O  23.44200 52.87600 32.70100
C  23.83900 53.86400 33.68700
H  29.85600 48.33000 30.69000
H  29.86000 48.84300 23.99200
H  24.17800 51.33300 24.28300
H  26.65000 50.99200 32.46100
H  27.35800 48.20200 31.99900
H  28.62000 49.92100 33.69900
H  29.69700 50.30600 32.36000
H  29.59300 48.68300 33.03500
H  25.59600 48.35400 33.04300
H  24.42800 49.22600 32.08100
H  23.95500 50.66700 33.94500
H  25.61300 50.84200 34.44200
H  33.20000 48.36200 29.00700
H  32.46300 46.79400 28.90200
H  31.90700 47.98500 30.06600
H  33.20400 46.82300 26.72800
H  34.15800 48.36300 26.73600
H  34.22800 47.33900 25.29200
H  27.70000 48.54300 22.64700
H  26.19500 51.01900 22.55000
H  29.42200 50.84300 22.78900
H  28.19100 51.25000 21.67700
H  29.07000 49.87500 21.23400
H  24.69300 48.51700 23.45900
H  25.38400 48.43600 21.78700
H  23.85400 49.56000 20.91700
H  23.72600 50.93900 21.98100
H  22.82900 49.60300 22.38100
H  21.23900 51.87300 26.44400
H  22.35700 52.53800 25.12900
H  22.00900 53.39200 26.57800
H  23.29600 50.91500 31.24400
H  24.85700 53.59000 33.96300
H  23.09500 53.96000 34.47800
H  23.81800 54.80800 33.14200
Mg -6.03100 25.57800 24.59100
C  -4.31800 26.44800 27.41400
C  -7.74000 23.13900 26.59100
C  -7.23800 24.00900 21.73700
C  -4.01500 27.49900 22.60700
N  -6.14100 24.89700 26.72700
C  -5.27600 25.46700 27.68100
C  -5.71900 25.09300 29.06200
C  -6.61100 23.82500 28.87500
C  -6.88400 23.95400 27.33000
C  -5.91600 22.45800 29.27200
C  -6.53200 26.28000 29.73900
C  -6.27600 26.55600 31.25000
H  -5.66900 25.45700 32.14200
N  -7.41600 23.86400 24.22300
C  -8.03200 23.06100 25.21000
C  -8.82100 22.06400 24.53100
C  -8.71500 22.28100 23.10200
C  -7.71900 23.35600 22.94100
C  -9.75300 21.08900 25.22600
C  -9.46400 21.64600 21.93400
O  -9.19200 21.86800 20.74700
C  -10.61300 20.60900 22.16800
N  -5.73200 25.69600 22.46600
C  -6.34200 25.05000 21.51800
C  -6.08100 25.66500 20.10700
C  -5.16700 26.85600 20.42700
C  -4.95500 26.71800 21.93800
C  -5.47900 24.63300 19.06700
C  -5.73900 28.34100 20.08200
C  -6.36200 28.47400 18.64400
N  -4.44000 26.79500 24.88900
C  -3.74800 27.54400 24.03200
C  -2.77100 28.30500 24.80100
C  -3.01600 27.98600 26.09400
C  -3.94900 26.95800 26.11800
C  -1.85900 29.38800 24.29400
C  -2.65300 28.28500 27.50900
O  -1.92200 29.13200 28.01200
C  -3.60800 27.32800 28.35300
C  -2.67700 26.57600 29.28400
O  -2.15500 25.48100 29.06500
O  -2.48500 27.36300 30.39900
C  -1.63400 26.91400 31.49700
H  -8.29600 22.42700 27.20400
H  -7.61100 23.69600 20.76000
H  -3.48400 28.15300 21.91200
H  -4.85000 24.79000 29.64600
H  -7.56800 23.90200 29.39100
H  -5.74600 21.75600 28.45500
H  -6.48100 21.95700 30.05800
H  -4.94800 22.74200 29.68600
H  -7.61800 26.18400 29.72600
H  -6.41600 27.16000 29.10600
H  -7.20600 26.88500 31.71400
H  -5.57700 27.38900 31.31600
H  -9.45700 21.07900 26.27500
H  -9.67700 20.08000 24.81900
H  -10.78800 21.42900 25.20700
H  -11.30800 20.59400 21.32900
H  -11.17300 21.01000 23.01300
H  -10.15800 19.62300 22.25700
H  -7.03300 26.09000 19.78800
H  -4.32800 26.83800 19.73200
H  -4.98600 23.77800 19.53000
H  -4.74200 25.17400 18.47400
H  -6.31800 24.35900 18.42700
H  -4.96400 29.10100 20.17600
H  -6.48400 28.58400 20.83900
H  -6.06700 29.38700 18.12700
H  -7.44400 28.58000 18.71600
H  -6.04200 27.64600 18.01200
H  -2.39100 30.33700 24.35800
H  -1.52200 29.20700 23.27300
H  -0.99600 29.26900 24.94900
H  -4.30500 27.88000 28.98300
H  -1.16600 25.94200 31.34500
H  -2.36400 26.78800 32.29700
H  -0.88600 27.69500 31.63400

