158

Mg 24.19600 -5.01900 45.32800
C  26.42400 -2.64300 43.93600
C  21.60500 -3.68200 43.45400
C  22.33000 -7.46300 46.29200
C  27.10700 -6.28000 47.01200
N  24.13000 -3.41000 43.78500
C  25.14200 -2.58300 43.35000
C  24.65400 -1.60100 42.31600
C  23.04400 -1.73700 42.51200
C  22.84500 -2.99900 43.30600
C  22.41600 -0.50900 43.14500
C  25.10500 -1.97700 40.87500
C  25.64200 -0.80400 40.01400
H  25.36700 -1.03800 38.47900
N  22.23600 -5.42500 45.03200
C  21.35300 -4.81400 44.17600
C  20.04900 -5.47500 44.23500
C  20.24400 -6.55900 45.09800
C  21.67300 -6.52600 45.54500
C  18.86900 -4.98200 43.56700
C  19.13400 -7.67700 45.30500
O  17.97500 -7.48800 44.97600
C  19.45600 -8.95300 46.00800
N  24.64600 -6.55800 46.54500
C  23.67000 -7.46200 46.78900
C  24.22900 -8.80800 47.34100
C  25.71300 -8.34500 47.71400
C  25.82800 -7.01600 47.03500
C  23.49300 -9.43100 48.52700
C  26.82200 -9.31000 47.34600
C  27.14100 -10.31700 48.46500
N  26.31100 -4.54200 45.48700
C  27.35800 -5.13300 46.26200
C  28.60500 -4.37900 46.12400
C  28.22300 -3.32800 45.21800
C  26.87700 -3.54200 44.88000
C  29.88900 -4.64800 46.74400
C  28.69800 -2.16600 44.54300
O  29.76800 -1.55700 44.62300
C  27.56000 -1.69800 43.63400
C  27.38900 -0.20400 43.79300
O  26.67900 0.38800 44.62700
O  28.19300 0.41300 42.85800
C  28.45300 1.92600 42.95900
H  20.77100 -3.17000 42.96900
H  21.66300 -8.20200 46.74100
H  28.00100 -6.74600 47.43200
H  25.04200 -0.61300 42.56500
H  22.58300 -1.88900 41.53600
H  21.73900 -0.70200 43.97700
H  21.81400 0.10200 42.47300
H  23.28600 0.06800 43.46100
H  24.30900 -2.46900 40.31600
H  25.94100 -2.67400 40.83100
H  26.67800 -0.59000 40.27800
H  25.12200 0.10200 40.32300
H  17.98400 -5.61500 43.63400
H  19.02200 -4.47500 42.61400
H  18.67300 -4.12600 44.21200
H  18.62400 -9.64700 45.88700
H  19.69500 -8.63800 47.02400
H  20.30600 -9.43900 45.52900
H  24.20600 -9.56100 46.55300
H  25.74400 -8.07600 48.77000
H  22.72700 -8.79300 48.96800
H  24.30000 -9.73700 49.19200
H  22.92000 -10.34200 48.35600
H  27.72500 -8.80300 47.00500
H  26.44800 -9.81000 46.45300
H  28.11500 -10.80500 48.48100
H  26.37500 -11.07700 48.31000
H  26.99800 -9.81200 49.42100
H  29.86400 -4.16300 47.72000
H  30.75500 -4.24300 46.22000
H  30.03100 -5.71800 46.89600
H  27.78500 -1.88600 42.58400
H  29.38300 2.08700 42.41300
H  28.55900 2.26600 43.98900
H  27.64900 2.48000 42.47500
Mg -4.85700 25.32300 26.17400
C  -3.68500 26.62500 29.03200
C  -6.93000 23.26000 28.17500
C  -5.70100 23.73500 23.43600
C  -2.38700 27.08300 24.27800
N  -5.06500 24.78000 28.37200
C  -4.56700 25.63300 29.35000
C  -5.19500 25.36100 30.69400
C  -5.94200 23.94900 30.44500
C  -5.98100 23.91400 28.93300
C  -5.27200 22.67200 30.98800
C  -6.17800 26.48800 31.24300
C  -6.20400 26.69600 32.78400
H  -5.72800 25.61700 33.75400
N  -6.15000 23.79900 25.84300
C  -7.02500 23.09900 26.74600
C  -7.91900 22.19000 25.99300
C  -7.56300 22.30900 24.61200
C  -6.42300 23.35400 24.60200
C  -8.86300 21.38100 26.68000
C  -8.16000 21.54900 23.42100
O  -7.81700 21.82400 22.21900
C  -9.25700 20.49000 23.69200
N  -4.20700 25.46900 24.15400
C  -4.76400 24.69000 23.20900
C  -4.15900 25.01800 21.77300
C  -3.16700 26.13600 22.07800
C  -3.26000 26.24400 23.58800
C  -3.56900 23.74800 21.04900
C  -3.47200 27.44500 21.28000
C  -2.50000 27.79600 20.16800
N  -3.38100 26.62300 26.49300
C  -2.53000 27.37100 25.66500
C  -1.71500 28.29600 26.47600
C  -2.17000 28.10500 27.72100
C  -3.06800 26.97500 27.77000
C  -0.63400 29.21100 25.98600
C  -2.06300 28.50000 29.06700
O  -1.36200 29.34100 29.53800
C  -2.89600 27.49000 29.95300
C  -1.95900 26.67400 30.77400
O  -1.21500 25.75400 30.30300
O  -1.83700 27.27200 32.04200
C  -0.91900 26.77000 33.04200
H  -7.50900 22.58900 28.81100
H  -6.00800 23.22600 22.52000
H  -1.70200 27.64200 23.63700
H  -4.36400 25.22700 31.38600
H  -6.98400 23.94400 30.76500
H  -4.70600 22.18300 30.19500
H  -6.11100 22.05800 31.31300
H  -4.58800 22.92300 31.79800
H  -7.22300 26.33000 30.97500
H  -5.81700 27.45700 30.89800
H  -7.23800 26.98100 32.97800
H  -5.69800 27.64400 32.96800
H  -8.43900 20.37900 26.73100
H  -9.81700 21.50300 26.16700
H  -8.98200 21.66600 27.72500
H  -9.03600 19.74800 24.46000
H  -9.51500 19.95900 22.77600
H  -10.15600 21.01200 24.02200
H  -4.96100 25.30300 21.09200
H  -2.16700 25.84600 21.75500
H  -2.53700 23.89900 20.73200
H  -4.11300 23.41100 20.16600
H  -3.67200 22.94900 21.78300
H  -3.55700 28.23900 22.02200
H  -4.39600 27.42400 20.70200
H  -1.81700 28.54800 20.56300
H  -3.09000 28.17300 19.33300
H  -1.92600 26.96600 19.75400
H  -0.92100 29.34300 24.94300
H  0.36400 28.77300 26.01500
H  -0.70300 30.11500 26.59000
H  -3.56500 27.94600 30.68200
H  0.09800 27.13300 32.88800
H  -0.96200 25.68700 32.92600
H  -1.24700 27.05000 34.04300

