158

Mg 30.89900 58.55200 40.31100
C  28.26800 56.44300 38.87900
C  33.18400 56.35000 38.96900
C  33.28600 60.94600 40.47700
C  28.38300 61.13500 40.67000
N  30.70700 56.61800 38.85900
C  29.53900 55.89500 38.61400
C  29.92900 54.42000 38.15700
C  31.52800 54.33100 38.28100
C  31.87300 55.81600 38.69500
C  32.05000 53.21800 39.22700
C  29.39500 53.93100 36.76500
C  29.73000 54.78000 35.54400
H  28.63300 55.30700 34.64800
N  32.96400 58.61400 39.93100
C  33.74500 57.58000 39.50000
C  35.14200 57.99700 39.39900
C  35.20600 59.34500 39.84700
C  33.76200 59.70800 40.10900
C  36.25600 57.13400 38.84100
C  36.40700 60.27800 39.99500
O  37.47000 59.61700 39.94000
C  36.39400 61.77200 40.15400
N  30.80400 60.73200 40.53600
C  31.93400 61.47800 40.67600
C  31.67300 62.91100 41.02200
C  30.16100 62.89900 41.09900
C  29.70500 61.54300 40.68400
C  32.42100 63.40800 42.37800
C  29.32800 64.05100 40.49600
C  28.28500 64.81100 41.38100
N  28.70500 58.66200 40.17400
C  27.84600 59.78100 40.26800
C  26.49800 59.38100 39.90900
C  26.62200 58.10400 39.34600
C  27.95300 57.71100 39.53700
C  25.24400 60.25500 39.94000
C  25.91300 57.00000 38.69400
O  24.73700 56.99000 38.22900
C  26.93300 55.73700 38.62000
C  26.52900 54.69900 39.63500
O  27.22600 54.27500 40.54500
O  25.27500 54.31900 39.33400
C  24.79100 53.06600 40.00400
H  33.92000 55.58700 38.70700
H  34.08700 61.62800 40.76800
H  27.65000 61.92100 40.86500
H  29.49500 53.73700 38.88800
H  32.07200 54.28100 37.33800
H  32.92200 52.73800 38.78300
H  31.28200 52.48500 39.47300
H  32.43800 53.57400 40.18100
H  28.32900 53.71500 36.69900
H  29.78900 52.94000 36.53800
H  30.56800 54.32200 35.01900
H  30.20900 55.66300 35.96700
H  37.23900 57.53700 38.59800
H  35.93400 56.59800 37.94900
H  36.41200 56.43600 39.66400
H  36.09500 62.03100 41.16900
H  35.78800 62.24800 39.38200
H  37.39300 62.16900 39.97500
H  31.93100 63.57800 40.19900
H  29.98300 62.94900 42.17300
H  33.22300 64.09600 42.11000
H  32.82100 62.59100 42.97800
H  31.74800 64.01500 42.98300
H  28.86700 63.75800 39.55300
H  30.06300 64.80000 40.20100
H  28.53000 65.83900 41.64900
H  28.21900 64.21100 42.28900
H  27.37300 64.77900 40.78500
H  25.53000 61.20300 40.39400
H  24.42300 59.84200 40.52600
H  24.96100 60.48700 38.91400
H  26.84900 55.37100 37.59600
H  25.49900 52.26700 40.22400
H  23.89600 52.72200 39.48600
H  24.59600 53.42700 41.01400
Mg 35.57500 49.44600 25.75600
C  36.07100 47.54000 28.56000
C  34.08600 51.81900 27.86300
C  34.43400 51.04800 23.08000
C  36.27900 46.64300 23.85400
N  34.96000 49.53400 27.91800
C  35.48200 48.77700 28.86200
C  35.31500 49.31100 30.25700
C  34.43600 50.54500 30.03500
C  34.51400 50.69200 28.55000
C  33.03500 50.51200 30.67900
C  36.68300 49.54800 31.02400
C  36.79200 49.04000 32.46200
H  36.77100 50.11400 33.58500
N  34.59200 51.25800 25.49700
C  34.09800 52.09100 26.49600
C  33.52900 53.31100 25.85200
C  33.62200 53.09900 24.42800
C  34.25100 51.75700 24.26300
C  33.11800 54.52500 26.72600
C  33.36800 54.04700 23.23700
O  33.51000 53.82400 22.05200
C  32.88900 55.49100 23.65300
N  35.44000 48.99300 23.77200
C  35.00600 49.77800 22.81700
C  35.13900 49.21500 21.41800
C  35.85600 47.85100 21.69800
C  35.87700 47.79200 23.19600
C  33.92200 49.01400 20.58100
C  37.32400 47.58400 21.16400
C  37.56600 46.32400 20.42400
N  36.22900 47.52800 26.06000
C  36.46200 46.49500 25.20600
C  36.86600 45.33900 25.96400
C  36.86600 45.72200 27.31800
C  36.37400 47.07100 27.31100
C  37.28000 43.98200 25.42900
C  37.14400 45.28100 28.66100
O  37.59300 44.24200 29.02700
C  36.62400 46.46200 29.59000
C  35.65200 45.97200 30.53100
O  34.49000 45.80000 30.22900
O  36.18400 45.74800 31.76500
C  35.22700 45.50800 32.84200
H  33.56900 52.45400 28.58600
H  34.06000 51.54300 22.18100
H  36.66100 45.81100 23.25900
H  34.70500 48.61900 30.83600
H  35.03400 51.33900 30.48000
H  32.83800 49.57600 31.20100
H  32.18500 50.42000 30.00300
H  32.84800 51.41300 31.26300
H  36.88300 50.61800 31.07800
H  37.49600 49.17900 30.39800
H  37.80200 48.63100 32.48600
H  36.05500 48.28300 32.73500
H  32.05800 54.54500 26.98100
H  33.44800 55.47400 26.30400
H  33.70500 54.51000 27.64400
H  32.49100 56.12800 22.86300
H  33.79200 55.99900 23.99400
H  32.20200 55.41100 24.49500
H  35.74800 49.93800 20.87600
H  35.16600 47.07000 21.38100
H  33.89600 49.90200 19.94900
H  32.97100 49.16900 21.09100
H  34.06600 48.14900 19.93300
H  37.99500 47.65700 22.02100
H  37.65300 48.42400 20.55300
H  38.48600 46.44600 19.85300
H  36.69500 46.20700 19.77800
H  37.69700 45.46300 21.07900
H  37.69900 44.21300 24.45000
H  36.43000 43.30300 25.36200
H  38.05300 43.58400 26.08600
H  37.53200 46.75900 30.11400
H  35.58500 45.96500 33.76500
H  35.10600 44.43200 32.96900
H  34.23700 45.91300 32.63300

