158

Mg 35.48800 3.08600 29.54100
C  33.02000 4.21600 31.72900
C  37.70600 3.39700 32.23100
C  37.90900 2.01300 27.43700
C  33.21300 3.17100 26.90900
N  35.29500 3.74800 31.67600
C  34.17900 3.97500 32.37500
C  34.42200 4.03800 33.88600
C  36.03900 4.00900 33.98400
C  36.37300 3.71500 32.55400
C  36.66300 5.24800 34.54000
C  33.78100 2.98900 34.78800
C  33.72500 3.23000 36.28500
H  34.72500 4.19000 37.01100
N  37.62200 2.78400 29.80300
C  38.24200 2.81900 31.02100
C  39.55900 2.20600 30.89500
C  39.59300 1.74500 29.50000
C  38.35600 2.17900 28.85300
C  40.48400 1.94400 32.10000
C  40.74600 1.00100 28.81100
O  40.61400 0.59700 27.62200
C  42.00600 0.54300 29.63300
N  35.56300 2.77600 27.48200
C  36.68400 2.42500 26.84000
C  36.41500 2.21000 25.33800
C  34.86500 2.28400 25.24300
C  34.47400 2.68400 26.60400
C  37.23700 3.17800 24.44700
C  34.22200 0.87000 24.90600
C  33.88000 0.70700 23.39200
N  33.51100 3.67500 29.30400
C  32.76400 3.71000 28.12200
C  31.39000 4.21600 28.53000
C  31.48000 4.43700 29.91500
C  32.80200 4.10000 30.35800
C  30.20100 4.35500 27.64900
C  30.71900 4.83200 31.04500
O  29.57800 5.25200 31.03400
C  31.63000 4.53700 32.27700
C  31.54000 5.73100 33.28800
O  31.89200 6.84900 33.12900
O  30.87300 5.20500 34.33600
C  30.80800 5.95900 35.56200
H  38.36700 3.38500 33.10100
H  38.69900 1.55900 26.83500
H  32.65700 3.41000 25.99900
H  33.95200 4.93900 34.27900
H  36.30500 3.25900 34.73000
H  35.90200 6.01100 34.69700
H  37.41700 5.69800 33.89400
H  37.08400 4.96100 35.50400
H  34.29100 2.03300 34.66200
H  32.79900 2.76200 34.37200
H  33.71700 2.22800 36.71400
H  32.70800 3.57700 36.47000
H  40.51300 2.79500 32.78100
H  41.50600 1.61300 31.91700
H  39.93800 1.30300 32.79200
H  42.64800 0.05400 28.90000
H  41.72100 -0.10000 30.46500
H  42.52800 1.36200 30.12700
H  36.80000 1.20000 25.19800
H  34.62100 2.98700 24.44600
H  36.75900 3.88900 23.77300
H  37.99300 2.69300 23.82900
H  37.68900 3.83200 25.19300
H  33.23700 0.82900 25.37100
H  34.80200 0.01300 25.24800
H  34.27300 1.45200 22.70100
H  32.80600 0.88400 23.33300
H  34.09300 -0.29400 23.01500
H  29.77600 5.33000 27.88800
H  29.73500 3.44200 28.01900
H  30.33000 4.19200 26.57900
H  31.13000 3.69500 32.75600
H  29.91300 5.74000 36.14300
H  30.87400 7.04400 35.47300
H  31.70700 5.65800 36.10000
Mg -12.68900 15.80400 42.47400
C  -9.66100 14.08800 42.15400
C  -11.08300 18.47000 41.05000
C  -15.81100 17.15100 41.64500
C  -14.25500 12.92100 43.39600
N  -10.54400 16.20700 41.76000
C  -9.50600 15.33000 41.62500
C  -8.23300 16.06100 41.07300
C  -8.65700 17.56300 41.12000
C  -10.18100 17.44300 41.30900
C  -7.96500 18.50800 42.14400
C  -7.78000 15.47200 39.69700
C  -6.39400 15.50300 39.32000
H  -6.14100 16.32100 38.11300
N  -13.34000 17.68800 41.47400
C  -12.45800 18.65600 41.02900
C  -13.26400 19.76100 40.61800
C  -14.66700 19.48900 40.97000
C  -14.66800 18.05900 41.35800
C  -12.65000 21.04900 40.03100
C  -15.84600 20.36700 40.82100
O  -15.72100 21.54000 40.35600
C  -17.20800 20.09900 41.26300
N  -14.72500 15.10600 42.34000
C  -15.85100 15.83000 42.16700
C  -17.16800 15.08500 42.44300
C  -16.56600 13.81600 43.21700
C  -15.09000 13.95800 42.94100
C  -18.34600 15.88900 43.11200
C  -17.17600 12.38100 42.63200
C  -17.94700 11.50100 43.68800
N  -12.05700 13.85800 42.87600
C  -12.81900 12.81600 43.32600
C  -11.98400 11.76600 43.64600
C  -10.69200 12.20200 43.20400
C  -10.79100 13.51700 42.74300
C  -12.28000 10.42600 44.24600
C  -9.28800 11.77900 43.05600
O  -8.62800 10.80300 43.45100
C  -8.58600 12.97400 42.31900
C  -7.38600 13.38900 43.01400
O  -7.35900 14.11500 44.05300
O  -6.31300 12.96900 42.30900
C  -4.99900 13.69500 42.68600
H  -10.44300 19.29300 40.72500
H  -16.79100 17.54800 41.37000
H  -14.73900 12.19600 44.05200
H  -7.49200 15.90000 41.85600
H  -8.43100 18.08900 40.19300
H  -7.81300 17.94900 43.06700
H  -8.65500 19.32600 42.35100
H  -7.01200 18.95000 41.85200
H  -8.37500 16.06500 39.00300
H  -8.16100 14.45100 39.73100
H  -5.98800 14.49600 39.22200
H  -5.73400 15.92300 40.07900
H  -12.56200 21.85800 40.75600
H  -13.21400 21.41700 39.17400
H  -11.62800 20.77000 39.77300
H  -17.75600 19.53000 40.51200
H  -17.69100 21.06000 41.44000
H  -17.14000 19.52300 42.18600
H  -17.51300 14.72500 41.47400
H  -16.87700 13.91800 44.25600
H  -18.11800 16.95200 43.02800
H  -18.53200 15.68500 44.16700
H  -19.32300 15.71000 42.66300
H  -16.38000 11.80200 42.16300
H  -17.79700 12.43700 41.73800
H  -17.44500 10.54300 43.82300
H  -18.98300 11.42800 43.35500
H  -17.96800 11.99900 44.65700
H  -13.03200 10.50300 45.03100
H  -11.40500 10.00600 44.74200
H  -12.49500 9.59200 43.57800
H  -8.35400 12.65000 41.30400
H  -4.30300 13.35800 41.91700
H  -4.63700 13.56400 43.70500
H  -5.14800 14.77300 42.62600

