158

Mg 1.36700 -1.90100 45.19500
C  4.81900 -0.53800 44.45800
C  0.18800 0.80600 43.39000
C  -1.61600 -3.28400 45.37200
C  3.08100 -4.80800 46.17800
N  2.38900 -0.12300 43.93800
C  3.74400 0.29000 43.92000
C  3.81700 1.62300 43.20800
C  2.38600 2.19200 43.23900
C  1.56500 0.92600 43.54300
C  2.23500 3.39600 44.15800
C  4.41300 1.59300 41.75800
C  5.56200 2.58000 41.50100
H  6.91100 2.03300 40.95100
N  -0.42600 -1.31700 44.54300
C  -0.71200 -0.23400 43.78100
C  -2.17700 -0.04200 43.67200
C  -2.70200 -1.15500 44.31900
C  -1.55700 -2.01000 44.76600
C  -2.83800 1.19400 42.90500
C  -4.21700 -1.42400 44.55800
O  -5.07000 -0.76000 44.07200
C  -4.77300 -2.54900 45.47200
N  0.79900 -3.78400 45.55100
C  -0.49300 -4.18600 45.61900
C  -0.65500 -5.60400 46.27900
C  0.83200 -6.03700 46.32800
C  1.61900 -4.79800 46.00400
C  -1.40900 -5.78100 47.62200
C  1.15100 -7.18700 45.37400
C  1.38200 -8.60600 45.98000
N  3.38900 -2.46700 45.49000
C  3.91100 -3.72700 45.90200
C  5.37400 -3.63500 46.01100
C  5.67700 -2.33800 45.41600
C  4.49500 -1.71500 45.10600
C  6.24700 -4.83500 46.38200
C  6.88000 -1.59800 45.04000
O  8.09000 -1.74200 45.09200
C  6.33700 -0.26500 44.45600
C  6.80100 0.96400 45.25000
O  6.98100 1.06500 46.45900
O  6.91200 2.01700 44.41200
C  7.45100 3.23600 45.07000
H  -0.25000 1.61800 42.80600
H  -2.60000 -3.72300 45.55400
H  3.62800 -5.55200 46.76000
H  4.34400 2.38500 43.78300
H  2.05300 2.49600 42.24700
H  1.72400 4.19600 43.62400
H  3.17300 3.81900 44.51700
H  1.78600 3.08100 45.10100
H  3.68200 1.94500 41.02900
H  4.75000 0.58700 41.51000
H  5.92700 2.99300 42.44200
H  5.22400 3.48200 40.99000
H  -2.63500 2.03700 43.56600
H  -3.92300 1.09700 42.94100
H  -2.48100 1.45100 41.90800
H  -4.21500 -2.60400 46.40700
H  -4.76900 -3.43400 44.83600
H  -5.81900 -2.31000 45.66100
H  -1.15300 -6.26800 45.57300
H  1.10100 -6.41600 47.31400
H  -0.71200 -6.21600 48.33900
H  -2.31000 -6.34100 47.37200
H  -1.67000 -4.77500 47.95000
H  2.01100 -6.95000 44.74700
H  0.36700 -7.38400 44.64200
H  0.89600 -9.39800 45.41000
H  1.01700 -8.69000 47.00400
H  2.46200 -8.74100 45.92700
H  6.47600 -5.43000 45.49800
H  5.80700 -5.47600 47.14600
H  7.16000 -4.33200 46.70100
H  6.72300 -0.20900 43.43900
H  8.53700 3.14400 45.07100
H  7.13700 3.46900 46.08800
H  7.35200 4.12200 44.44300
Mg 48.71400 35.49100 26.66400
C  46.95200 33.89400 29.18600
C  49.07700 38.22400 28.65200
C  49.94700 37.18500 23.97900
C  47.94400 32.80700 24.63400
N  48.01400 35.93100 28.72900
C  47.51300 35.10000 29.62500
C  47.57900 35.65600 31.04600
C  47.96600 37.11600 30.73300
C  48.43200 37.12700 29.25200
C  46.77800 38.10500 31.12800
C  48.71900 34.88000 31.82800
C  48.77400 34.92100 33.31700
H  47.65700 35.78600 34.01900
N  49.36500 37.42900 26.36100
C  49.54600 38.41600 27.33400
C  50.19300 39.61700 26.78000
C  50.35300 39.41600 25.41400
C  49.81100 37.98700 25.14400
C  50.46900 40.81500 27.67000
C  50.91700 40.30800 24.36600
O  50.95000 39.95500 23.19700
C  51.26300 41.65800 24.69100
N  49.08700 34.99400 24.67500
C  49.64300 35.86300 23.75200
C  49.93900 35.10100 22.47400
C  49.12000 33.75600 22.66200
C  48.74000 33.78900 24.09200
C  49.43500 35.82800 21.09500
C  49.88000 32.39400 22.23100
C  49.52900 31.71200 20.92300
N  47.78300 33.61200 26.85100
C  47.47300 32.66300 25.94000
C  46.69000 31.59000 26.49000
C  46.47000 32.02300 27.87000
C  47.11400 33.31100 27.94500
C  46.03400 30.40400 25.85700
C  45.76600 31.75800 29.08000
O  45.13100 30.77300 29.39700
C  46.01800 32.95200 30.01500
C  46.41700 32.39300 31.33600
O  47.30400 31.59200 31.50100
O  45.55000 32.75500 32.32900
C  45.73500 31.95100 33.52900
H  49.42800 38.93000 29.40800
H  50.31500 37.64000 23.05700
H  47.67600 32.03900 23.90500
H  46.59600 35.62100 31.51600
H  48.90900 37.43800 31.17500
H  45.98400 37.57900 31.65700
H  46.43700 38.61400 30.22600
H  47.34200 38.70000 31.84600
H  49.69400 35.26700 31.53200
H  48.60000 33.84400 31.51000
H  49.79000 35.09000 33.67500
H  48.60400 33.86800 33.54300
H  50.61900 40.52300 28.70900
H  49.61000 41.48500 27.69800
H  51.37800 41.38900 27.48700
H  51.49400 42.14400 23.74300
H  52.06100 41.48900 25.41500
H  50.33700 42.03300 25.12700
H  51.02300 34.98900 22.45900
H  48.14900 33.93200 22.20000
H  48.86800 35.12600 20.48500
H  50.40300 35.96800 20.61300
H  48.88800 36.76200 21.23100
H  49.79400 31.59500 22.96700
H  50.93700 32.64700 22.31000
H  50.27300 32.06900 20.21200
H  48.61800 32.14300 20.50700
H  49.22100 30.66800 20.97300
H  45.21200 30.73800 25.22300
H  45.72200 29.72300 26.64900
H  46.64300 29.84600 25.14600
H  45.08000 33.48100 30.18500
H  46.78500 31.91600 33.81800
H  45.33800 30.95600 33.32800
H  45.12100 32.29000 34.36400

