158

Mg 55.32500 22.09500 44.39900
C  53.02500 24.88500 43.70900
C  53.09300 19.97700 43.09700
C  57.81300 19.79200 43.95700
C  57.72700 24.57300 45.18900
N  53.30700 22.47600 43.39400
C  52.50000 23.55700 43.29500
C  51.12100 23.17000 42.75700
C  51.14600 21.61600 42.90900
C  52.59400 21.31900 43.16100
C  50.22100 21.13400 44.06400
C  50.92100 23.65300 41.26200
C  52.10600 23.86400 40.34800
H  51.92400 24.85700 39.20700
N  55.46700 20.15900 43.63300
C  54.35600 19.43200 43.25000
C  54.74100 17.99900 43.14200
C  56.08700 17.94800 43.54100
C  56.57000 19.28100 43.67200
C  53.70800 16.89700 42.88000
C  56.85700 16.64100 43.62500
O  56.21900 15.62400 43.54900
C  58.33400 16.43700 43.84400
N  57.49300 22.20000 44.38500
C  58.24200 21.09000 44.20800
C  59.70700 21.42600 44.57400
C  59.68500 22.95200 44.89700
C  58.19400 23.29500 44.80800
C  60.31800 20.56700 45.70200
C  60.47200 23.91600 43.91400
C  61.82200 24.29400 44.39200
N  55.37900 24.25200 44.59300
C  56.45100 25.06300 45.03300
C  55.94100 26.43300 45.17200
C  54.62200 26.44600 44.55900
C  54.33000 25.08300 44.26600
C  56.81700 27.61600 45.49700
C  53.49900 27.27000 44.20100
O  53.29700 28.46000 44.39000
C  52.40900 26.28000 43.64600
C  51.84900 26.76900 42.28600
O  52.47600 27.03100 41.28700
O  50.51100 27.00900 42.39200
C  49.81900 27.68400 41.24000
H  52.35600 19.20400 42.86900
H  58.61500 19.05200 44.00300
H  58.50200 25.23700 45.57800
H  50.45200 23.71200 43.42600
H  50.69400 21.09300 42.06500
H  49.46200 20.48600 43.62700
H  49.67000 21.95900 44.51500
H  50.87400 20.70500 44.82400
H  50.24900 24.51100 41.29500
H  50.40900 22.80300 40.81100
H  52.36900 22.86300 40.00800
H  52.97200 24.20900 40.91500
H  53.53700 16.78300 41.81000
H  52.74300 17.28500 43.20800
H  53.75400 15.92300 43.36700
H  58.62800 16.85500 44.80700
H  58.82100 16.98700 43.03900
H  58.48900 15.36200 43.74400
H  60.36000 21.32100 43.70800
H  59.96200 23.09600 45.94100
H  61.38600 20.42000 45.54200
H  59.74000 19.66600 45.90900
H  60.37700 21.17900 46.60200
H  59.87600 24.75200 43.55000
H  60.52500 23.32900 42.99700
H  62.58700 23.87100 43.74100
H  62.04300 23.89300 45.38100
H  62.00400 25.36800 44.35300
H  57.51300 27.55300 46.33400
H  56.27800 28.56300 45.53600
H  57.42500 27.68700 44.59500
H  51.55000 26.24100 44.31700
H  49.96100 28.73400 41.49600
H  48.77700 27.36900 41.18800
H  50.30300 27.46800 40.28800
Mg -10.02600 40.48400 40.95000
C  -9.32800 37.09300 40.06100
C  -7.03900 41.27800 39.66200
C  -11.16200 43.57500 41.07900
C  -13.24200 39.36800 42.00400
N  -8.44700 39.31600 39.92200
C  -8.28300 37.97100 39.72100
C  -6.88800 37.52900 39.27800
C  -6.07900 38.88400 39.35200
C  -7.25400 39.90900 39.63300
C  -4.99300 39.08500 40.47500
C  -6.92300 36.83900 37.85600
C  -5.86000 35.76300 37.65000
H  -4.83900 35.92000 36.54100
N  -9.15100 42.20500 40.51700
C  -7.92000 42.38500 39.90800
C  -7.77000 43.77900 39.60400
C  -8.92300 44.49000 40.04900
C  -9.80500 43.43900 40.62300
C  -6.50100 44.31700 38.87900
C  -9.09800 46.03600 39.97400
O  -8.18000 46.79400 39.49800
C  -10.27900 46.60900 40.66800
N  -11.93100 41.32200 41.62200
C  -12.10300 42.68500 41.59800
C  -13.53700 43.10500 41.85300
C  -14.15000 41.73600 42.35100
C  -13.04300 40.73300 41.96500
C  -13.80800 44.36000 42.73900
C  -15.50900 41.35600 41.57300
C  -16.49900 40.49900 42.45700
N  -11.10600 38.60400 40.99700
C  -12.39200 38.36200 41.50300
C  -12.67100 36.85500 41.48000
C  -11.47500 36.33600 40.91800
C  -10.62100 37.42800 40.57200
C  -13.85400 36.05100 41.83600
C  -10.74400 35.09400 40.60200
O  -10.95500 33.89200 40.79800
C  -9.44500 35.57400 39.90200
C  -8.39500 34.82400 40.62900
O  -8.08500 34.90000 41.78700
O  -7.95200 33.95000 39.68100
C  -7.06500 32.96700 40.23800
H  -6.06200 41.63700 39.33000
H  -11.62300 44.55500 40.94300
H  -14.21000 38.92400 42.24900
H  -6.47000 36.84300 40.01500
H  -5.57900 39.16400 38.42500
H  -5.38900 39.80800 41.18800
H  -4.00500 39.31600 40.07800
H  -4.80200 38.16200 41.02300
H  -6.84400 37.68300 37.17000
H  -7.84400 36.38600 37.48800
H  -6.38200 34.82000 37.48500
H  -5.29500 35.70900 38.58000
H  -5.94100 44.92000 39.59300
H  -6.83300 44.93300 38.04300
H  -5.84800 43.51200 38.54100
H  -10.38500 46.11400 41.63300
H  -11.17900 46.59400 40.05400
H  -10.02400 47.64900 40.87300
H  -13.88000 43.36100 40.85100
H  -14.18000 41.68900 43.44000
H  -12.85400 44.70200 43.14200
H  -14.46300 44.06200 43.55700
H  -14.16000 45.27000 42.25200
H  -15.33000 40.78100 40.66400
H  -16.02700 42.29400 41.37100
H  -17.43100 41.02600 42.66200
H  -16.06900 40.40400 43.45400
H  -16.64900 39.46800 42.13600
H  -13.59400 35.00000 41.71100
H  -14.58000 36.37000 41.08800
H  -14.40400 36.18800 42.76700
H  -9.42900 35.34800 38.83600
H  -6.08200 33.41300 40.39000
H  -6.90800 32.22400 39.45700
H  -7.55500 32.35200 40.99300

