158

Mg 48.05600 44.67900 42.42800
C  44.53800 44.07300 42.28500
C  48.43800 41.20800 42.40600
C  51.32400 45.21100 42.04700
C  47.27500 48.16100 42.07700
N  46.67000 42.85600 42.35500
C  45.29300 42.90700 42.35500
C  44.65100 41.50900 42.22200
C  45.87900 40.52500 42.42400
C  47.05300 41.54000 42.41100
C  45.73000 39.64500 43.65400
C  43.83500 41.14300 40.88300
C  43.98200 42.06100 39.58000
H  43.58500 41.54700 38.18000
N  49.64900 43.43000 42.19800
C  49.55900 42.04600 42.27300
C  50.86900 41.57100 42.28200
C  51.78300 42.67000 42.26300
C  50.93000 43.86000 42.12600
C  51.19500 40.07500 42.19100
C  53.21900 42.50900 42.33500
O  53.65900 41.40000 42.59300
C  54.21100 43.60800 42.21700
N  49.10000 46.47600 41.93700
C  50.47800 46.40000 41.97400
C  51.03600 47.77400 41.62100
C  49.78900 48.70300 41.83000
C  48.61600 47.76400 41.98500
C  52.21400 48.25800 42.49500
C  49.64700 49.94100 40.78900
C  49.27600 51.24100 41.53100
N  46.30600 45.90100 42.24500
C  46.15900 47.25000 42.14400
C  44.71400 47.65200 42.15600
C  44.01000 46.45600 42.19400
C  45.03400 45.38900 42.20300
C  44.16900 48.97300 42.10500
C  42.69700 45.85700 42.25400
O  41.54500 46.29200 42.29300
C  43.04100 44.29200 42.43100
C  42.52100 43.84600 43.75600
O  41.57300 43.10300 43.88800
O  43.19500 44.36800 44.80600
C  42.61000 44.18200 46.12700
H  48.65100 40.13800 42.38500
H  52.39400 45.35200 41.88300
H  46.99800 49.21700 42.07900
H  43.86900 41.40900 42.97500
H  45.95700 39.88500 41.54500
H  46.34600 40.04700 44.45800
H  45.99400 38.63300 43.34800
H  44.70100 39.54000 43.99800
H  42.77000 41.23600 41.09200
H  43.95700 40.11000 40.55500
H  45.02300 42.38400 39.56400
H  43.48900 43.01500 39.76600
H  52.12300 39.90500 41.64500
H  50.44700 39.61500 41.54600
H  51.07200 39.62100 43.17400
H  54.12800 44.14700 41.27300
H  55.19500 43.30700 42.57600
H  53.91400 44.39700 42.90800
H  51.25900 47.83000 40.55500
H  49.95200 49.17700 42.79800
H  53.09800 47.94600 41.93900
H  52.18700 47.69900 43.43000
H  52.08800 49.33900 42.56500
H  48.85100 49.59000 40.13300
H  50.57800 50.11900 40.25000
H  50.15200 51.88100 41.42200
H  49.16400 51.18700 42.61400
H  48.33800 51.59300 41.10000
H  43.10900 48.79600 41.91900
H  44.53200 49.49500 41.21900
H  44.24800 49.65200 42.95400
H  42.48600 43.78300 41.64300
H  41.62300 44.58200 46.35900
H  43.44300 44.35600 46.80800
H  42.52500 43.10200 46.24200
Mg -9.71800 40.17200 42.54100
C  -8.48400 37.11500 41.37700
C  -7.02500 41.66100 41.03300
C  -11.24700 43.03300 42.91800
C  -12.76500 38.44100 43.10900
N  -7.89900 39.49400 41.30100
C  -7.65700 38.20400 41.05300
C  -6.25600 38.02700 40.34600
C  -5.62700 39.53700 40.37000
C  -6.91700 40.27000 40.87700
C  -4.53700 39.69000 41.44300
C  -6.39100 37.49600 38.91300
C  -5.66200 36.21100 38.57900
H  -4.77000 36.04800 37.36200
N  -9.10100 42.03100 42.29600
C  -7.95900 42.49500 41.67700
C  -7.99300 43.94800 41.57200
C  -9.19700 44.39800 42.23700
C  -9.95600 43.15700 42.49100
C  -7.01000 44.87200 40.87200
C  -9.56400 45.81200 42.49700
O  -8.77600 46.68700 42.10000
C  -10.90900 46.27200 43.13300
N  -11.69500 40.67400 42.91000
C  -12.08000 41.94100 43.04000
C  -13.59200 42.07700 43.12100
C  -14.09100 40.60900 43.31500
C  -12.78400 39.82100 43.10400
C  -14.05500 43.03800 44.30600
C  -15.16500 40.19000 42.19900
C  -16.40400 41.12100 42.13100
N  -10.50800 38.18200 42.42700
C  -11.73400 37.63700 42.73600
C  -11.64200 36.18100 42.63200
C  -10.44100 36.00000 42.11600
C  -9.74800 37.16200 41.97400
C  -12.61700 35.24400 43.15200
C  -9.47300 34.95700 41.72000
O  -9.57000 33.77800 41.78000
C  -8.21600 35.65800 41.19500
C  -7.11200 35.10200 41.91700
O  -6.77200 35.52200 43.01300
O  -6.33300 34.25700 41.17700
C  -5.04700 33.83300 41.70600
H  -6.10700 42.13100 40.67300
H  -11.78400 43.98100 42.84300
H  -13.68200 37.86600 43.25200
H  -5.78000 37.30000 41.00300
H  -5.39400 40.00100 39.41100
H  -3.61100 39.81600 40.88200
H  -4.59500 38.75700 42.00500
H  -4.55900 40.53500 42.13100
H  -6.04100 38.21900 38.17600
H  -7.44900 37.29800 38.74100
H  -6.40100 35.41500 38.48900
H  -4.95700 36.15000 39.40900
H  -7.52100 45.18800 39.96200
H  -6.20600 44.18500 40.60700
H  -6.48100 45.66400 41.40200
H  -11.05200 47.28600 43.50600
H  -11.23500 45.72100 44.01500
H  -11.67900 46.14500 42.37200
H  -13.86500 42.45600 42.13700
H  -14.50500 40.53400 44.32100
H  -13.25400 43.64800 44.72300
H  -14.50500 42.49600 45.13800
H  -14.81500 43.62900 43.79500
H  -15.42300 39.13800 42.32800
H  -14.51600 40.37900 41.34500
H  -16.48000 41.51200 41.11700
H  -16.40200 41.99600 42.78100
H  -17.24500 40.45100 42.30800
H  -13.64800 35.50200 42.91200
H  -12.54800 35.27400 44.24000
H  -12.49200 34.22700 42.78000
H  -7.98900 35.42400 40.15500
H  -4.51300 33.33900 40.89400
H  -5.25500 33.07000 42.45600
H  -4.44100 34.65800 42.08000

