158

Mg 2.74800 -2.44700 43.68600
C  6.04300 -1.48800 43.11000
C  1.58600 0.03800 41.51900
C  -0.24400 -3.95500 43.58900
C  4.04300 -5.35400 45.17700
N  3.73300 -0.94200 42.48000
C  5.15000 -0.68000 42.37700
C  5.44000 0.49100 41.40800
C  3.95100 0.97000 41.08300
C  2.99600 -0.06000 41.69400
C  3.60400 2.34500 41.62100
C  6.40700 -0.03400 40.23200
C  7.71600 0.78800 40.06600
H  8.30400 0.97200 38.66100
N  0.84600 -1.79000 42.96500
C  0.59200 -0.76600 42.08700
C  -0.80600 -0.67700 41.83200
C  -1.35700 -1.88000 42.34300
C  -0.30400 -2.60400 43.01800
C  -1.39000 0.59500 41.07700
C  -2.82700 -2.27500 42.16300
O  -3.57800 -1.47900 41.52000
C  -3.49700 -3.54600 42.54700
N  2.06500 -4.44600 44.17000
C  0.72500 -4.74800 44.16100
C  0.43200 -6.23600 44.58800
C  1.74600 -6.51800 45.34700
C  2.72000 -5.43100 44.81600
C  -0.88300 -6.37500 45.44200
C  2.34200 -7.95900 45.12600
C  2.94200 -8.79300 46.27700
N  4.59800 -3.22500 44.25400
C  4.97800 -4.40400 44.82100
C  6.41500 -4.40300 45.11700
C  6.80500 -3.18800 44.49900
C  5.69000 -2.62600 43.88900
C  7.18800 -5.45100 45.88000
C  7.96000 -2.40600 44.21100
O  9.10900 -2.62600 44.51900
C  7.48500 -1.23900 43.35500
C  7.72200 0.02700 44.13800
O  7.26000 0.25300 45.24500
O  8.46800 0.86800 43.32400
C  8.63400 2.17200 43.84400
H  1.18500 0.84100 40.89600
H  -1.21900 -4.44300 43.52900
H  4.37300 -6.19500 45.79000
H  6.00300 1.24600 41.95700
H  3.81400 1.08800 40.00800
H  4.53000 2.90300 41.76200
H  3.03200 2.24000 42.54300
H  3.01900 2.88500 40.87700
H  5.90900 0.18300 39.28700
H  6.63500 -1.09600 40.31800
H  8.41700 0.24300 40.69800
H  7.53300 1.79100 40.44900
H  -2.40900 0.76900 41.42300
H  -1.34200 0.45700 39.99600
H  -0.81400 1.51500 41.17300
H  -3.43100 -3.92500 43.56600
H  -3.02400 -4.28300 41.89900
H  -4.57700 -3.43000 42.45800
H  0.31300 -6.77200 43.64700
H  1.64400 -6.29800 46.41000
H  -1.21900 -5.34100 45.51200
H  -0.71900 -6.95900 46.34800
H  -1.72900 -6.82500 44.92300
H  3.04200 -7.91000 44.29200
H  1.48900 -8.56600 44.82500
H  3.04200 -8.17100 47.16600
H  3.98300 -8.96900 46.00600
H  2.31300 -9.64800 46.52200
H  8.20200 -5.05800 45.79600
H  7.02100 -6.39900 45.36900
H  6.87900 -5.47900 46.92500
H  7.99400 -1.28700 42.39200
H  8.66300 2.79300 42.94900
H  9.43900 2.21600 44.57800
H  7.87900 2.60700 44.49900
Mg 36.90000 48.87600 24.13200
C  37.22900 47.18700 27.26300
C  35.57600 51.48600 25.61300
C  36.13100 49.88300 21.06100
C  38.23400 45.90500 22.61000
N  36.43100 49.23100 26.20800
C  36.71000 48.45000 27.34600
C  36.36900 49.30300 28.61200
C  35.75000 50.67200 28.07500
C  35.90500 50.47600 26.57600
C  34.28200 50.91500 28.57400
C  37.57200 49.47800 29.55400
C  37.36000 49.20100 31.06000
H  35.92200 49.05400 31.68900
N  35.93900 50.41100 23.47200
C  35.54000 51.43000 24.19500
C  35.10000 52.49300 23.27200
C  35.24600 52.10300 21.93800
C  35.77700 50.76800 22.13100
C  34.66500 53.87100 23.71500
C  34.80300 52.73000 20.62100
O  34.74900 52.13900 19.59000
C  34.33400 54.24300 20.56400
N  36.82000 47.86700 22.04900
C  36.66000 48.62400 21.02400
C  36.87700 47.77800 19.70200
C  37.89000 46.70500 20.22600
C  37.61100 46.76200 21.69800
C  35.54200 47.13800 19.17200
C  39.36700 47.01300 19.84700
C  40.13500 45.83000 19.24400
N  37.63300 46.96100 24.77600
C  38.02800 45.83500 24.02400
C  38.39900 44.71300 24.95100
C  38.08200 45.24800 26.18600
C  37.64400 46.58200 26.06500
C  39.04900 43.37700 24.48700
C  38.06800 44.86000 27.56200
O  38.42000 43.80700 28.01300
C  37.48800 46.13900 28.35200
C  36.24800 45.71500 29.05500
O  35.09100 45.88600 28.64400
O  36.55700 44.97800 30.15000
C  35.46000 44.46000 30.93300
H  35.35400 52.44300 26.08900
H  35.84600 50.20600 20.05800
H  38.62600 44.98000 22.18300
H  35.55900 48.77000 29.11000
H  36.35600 51.45800 28.52500
H  33.58400 50.82000 27.74200
H  34.34000 51.90800 29.01900
H  34.02100 50.29500 29.43200
H  37.95200 50.49900 29.52800
H  38.33800 48.74600 29.29500
H  37.89500 50.04500 31.49500
H  37.81200 48.26500 31.38700
H  34.99000 54.61300 22.98700
H  35.18700 54.23000 24.60200
H  33.57600 53.89300 23.76500
H  33.63900 54.46500 21.37400
H  33.80800 54.37200 19.61800
H  35.22000 54.87500 20.61900
H  37.11400 48.46700 18.89200
H  37.60000 45.76100 19.76400
H  35.32600 46.20100 19.68500
H  35.80700 46.86800 18.15000
H  34.67500 47.79300 19.08300
H  39.76300 47.39100 20.79000
H  39.35200 47.86400 19.16600
H  41.11100 45.69700 19.71000
H  40.40200 46.01700 18.20400
H  39.63700 44.87200 19.39300
H  39.55900 43.48900 23.53000
H  38.34500 42.55400 24.36300
H  39.75600 43.14100 25.28300
H  38.17800 46.52300 29.10400
H  35.06600 45.30900 31.49200
H  35.84800 43.64100 31.53900
H  34.61400 44.04300 30.38800

