158

Mg -0.77300 17.82800 27.07900
C  -1.48700 15.81300 30.02600
C  -1.28900 20.59300 29.21300
C  -0.65200 19.69700 24.39100
C  -1.03800 14.95400 25.14000
N  -1.20200 18.17300 29.43500
C  -1.44400 17.22500 30.35900
C  -1.65400 17.85400 31.76000
C  -2.02000 19.32400 31.38800
C  -1.52700 19.39400 29.92700
C  -3.61000 19.54500 31.61600
C  -0.50000 17.68600 32.76200
C  -0.91000 16.98900 33.99800
H  0.11400 16.38100 35.05700
N  -0.75700 19.94000 26.81300
C  -0.91700 20.87700 27.81900
C  -0.77600 22.17300 27.15600
C  -0.56300 21.93200 25.73600
C  -0.65200 20.44700 25.57700
C  -1.00800 23.54000 27.79400
C  -0.32000 22.91200 24.57900
O  -0.11900 22.54900 23.40300
C  -0.23900 24.42300 24.91800
N  -0.62700 17.39200 25.07900
C  -0.67100 18.34000 24.15200
C  -0.59600 17.67800 22.75900
C  -0.63000 16.18100 23.05700
C  -0.68700 16.13800 24.54600
C  -1.55200 18.20300 21.75600
C  0.53500 15.41400 22.38500
C  1.92900 15.54200 22.99700
N  -1.16500 15.77600 27.48000
C  -1.23300 14.76000 26.51100
C  -1.49300 13.57200 27.20500
C  -1.61600 13.87500 28.58100
C  -1.47500 15.31700 28.68200
C  -1.77500 12.21500 26.64600
C  -1.91500 13.36900 29.89200
O  -2.09100 12.15900 30.18100
C  -1.75000 14.56000 30.92500
C  -0.77100 14.23400 31.90800
O  0.33900 14.67400 31.92000
O  -1.30600 13.45600 32.90700
C  -0.26700 13.12100 33.90600
H  -1.41100 21.52700 29.76500
H  -0.73400 20.18400 23.41700
H  -1.05900 14.05100 24.52700
H  -2.58300 17.35700 32.04000
H  -1.54000 20.05800 32.03600
H  -4.04300 19.62700 30.61900
H  -3.83200 20.44700 32.18500
H  -4.20800 18.74000 32.04200
H  -0.12800 18.64700 33.11700
H  0.43300 17.21900 32.44400
H  -1.82000 16.45000 33.73300
H  -1.32900 17.78300 34.61500
H  -1.72200 24.22600 27.33700
H  -0.10500 24.13000 27.95100
H  -1.35800 23.39000 28.81500
H  -1.20200 24.82000 25.23900
H  0.07300 24.88800 23.98300
H  0.57400 24.66400 25.60200
H  0.40600 17.91300 22.40200
H  -1.61200 15.82300 22.74900
H  -2.23400 18.95700 22.14800
H  -2.19700 17.45900 21.28700
H  -1.05500 18.75200 20.95600
H  0.59700 15.80600 21.36900
H  0.27900 14.36600 22.22900
H  1.96200 16.14300 23.90600
H  2.54800 15.99000 22.22000
H  2.24400 14.54100 23.29400
H  -1.53100 11.52500 27.45400
H  -1.03300 11.97100 25.88500
H  -2.80000 12.05700 26.31100
H  -2.71200 14.51100 31.43500
H  -0.19900 12.03300 33.87800
H  -0.70100 13.47200 34.84200
H  0.76200 13.47100 33.83100
Mg 47.64900 24.59500 28.14400
C  48.77500 26.63300 30.83900
C  46.97400 22.21100 30.67300
C  46.60100 22.67100 25.75800
C  48.76500 26.93500 25.95200
N  47.89000 24.41000 30.54100
C  48.20000 25.42000 31.37700
C  48.04700 25.02700 32.83200
C  47.70900 23.54200 32.69400
C  47.46800 23.37600 31.22300
C  48.88200 22.56800 33.14300
C  46.94700 25.95600 33.56100
C  47.25600 26.90700 34.70700
H  46.37000 26.83400 35.89400
N  46.68500 22.74700 28.20800
C  46.61200 21.89800 29.29200
C  45.92900 20.67400 28.82500
C  45.73000 20.80700 27.40100
C  46.35100 22.12300 27.05000
C  45.56200 19.59300 29.90600
C  45.06900 19.87900 26.37200
O  44.90900 20.23800 25.21800
C  44.38800 18.68000 26.90300
N  47.63200 24.78300 26.09600
C  47.16600 23.84700 25.31200
C  47.33200 24.22800 23.80600
C  47.96500 25.63600 23.90800
C  48.13100 25.85000 25.42600
C  48.14200 23.19500 22.99100
C  47.30800 26.87400 23.20100
C  48.17900 27.88700 22.57000
N  48.64200 26.31200 28.32200
C  49.00200 27.24300 27.35300
C  49.52600 28.43300 27.84100
C  49.46800 28.17500 29.26400
C  48.87700 26.89800 29.47000
C  50.08500 29.62500 27.13600
C  49.83800 28.81400 30.44500
O  50.53300 29.78100 30.65900
C  49.28300 27.86100 31.58500
C  50.35500 27.66200 32.64900
O  51.04900 26.64800 32.68900
O  50.44200 28.76000 33.47700
C  51.22000 28.58900 34.71400
H  46.68600 21.60100 31.53200
H  46.19900 22.05400 24.95200
H  49.34800 27.57100 25.28200
H  49.01900 25.19900 33.29500
H  46.79600 23.22400 33.19600
H  48.48700 21.61400 33.49400
H  49.46300 23.10300 33.89300
H  49.66800 22.37600 32.41200
H  46.22900 25.24300 33.96600
H  46.52000 26.52600 32.73600
H  47.08700 27.94100 34.40900
H  48.26400 26.81800 35.11300
H  45.15600 18.66000 29.51700
H  44.84100 19.95600 30.63900
H  46.48400 19.41200 30.45800
H  45.18900 18.07300 27.32500
H  43.92400 18.22000 26.03000
H  43.63600 18.91600 27.65600
H  46.35000 24.32600 23.34400
H  49.01600 25.61200 23.61900
H  48.31100 22.32000 23.61900
H  49.12900 23.40400 22.58000
H  47.58500 22.95800 22.08400
H  46.63300 27.37500 23.89500
H  46.65300 26.34600 22.50800
H  47.68900 28.06700 21.61300
H  49.13200 27.45300 22.26800
H  48.39600 28.79900 23.12600
H  50.37600 30.33100 27.91400
H  49.24400 29.94900 26.52200
H  50.89100 29.32900 26.46400
H  48.43500 28.41300 31.99300
H  51.22300 29.54000 35.24700
H  52.23500 28.19200 34.69200
H  50.52900 28.01600 35.33300

