158

Mg 45.32100 4.60200 48.69000
C  43.31400 7.35500 48.18400
C  42.53500 2.69900 48.34900
C  47.27700 1.81800 48.73800
C  48.18500 6.61100 48.46800
N  43.17100 4.97600 48.28400
C  42.58800 6.19600 48.17200
C  41.10200 6.06000 47.72800
C  40.78900 4.60500 48.21000
C  42.23200 4.05800 48.47300
C  39.82800 4.49800 49.35200
C  40.91600 6.36600 46.25500
C  39.81100 7.41000 45.91800
H  39.06900 7.28800 44.62600
N  44.95800 2.57800 48.45500
C  43.75700 2.00700 48.22000
C  43.97000 0.64100 47.90700
C  45.36400 0.28200 47.99700
C  45.92300 1.53700 48.50500
C  42.86800 -0.32700 47.52400
C  45.94600 -1.04000 47.78000
O  45.29000 -1.99700 47.43900
C  47.43500 -1.28400 47.93800
N  47.47300 4.27900 48.46200
C  47.98500 3.00200 48.65100
C  49.50300 3.16500 48.90500
C  49.72300 4.68800 48.86800
C  48.40600 5.25500 48.54500
C  50.17600 2.38300 50.12100
C  50.76100 5.23300 47.72900
C  51.77500 6.19000 48.40100
N  45.69000 6.52300 48.50800
C  46.89200 7.22300 48.51600
C  46.63900 8.67700 48.41800
C  45.22500 8.69500 48.19700
C  44.70800 7.41500 48.33600
C  47.67400 9.83300 48.35700
C  44.16500 9.61900 47.85700
O  44.32100 10.80800 47.62800
C  42.84900 8.80700 47.96100
C  42.18900 9.41700 49.09400
O  42.24600 8.98400 50.18500
O  41.28800 10.44900 48.80500
C  40.18500 10.58400 49.74600
H  41.69000 2.02900 48.17900
H  48.00800 1.03000 48.93000
H  49.10700 7.13300 48.73200
H  40.47200 6.64200 48.40000
H  40.45100 3.88600 47.46300
H  39.49000 5.49200 49.64500
H  40.11600 4.02600 50.29100
H  38.95200 3.91400 49.07100
H  40.64600 5.46900 45.69800
H  41.86700 6.79200 45.93700
H  40.38100 8.33700 45.85600
H  39.14100 7.54400 46.76700
H  43.22300 -0.85900 46.64100
H  41.94500 0.14700 47.19200
H  42.59000 -0.92300 48.39300
H  47.71800 -1.27000 48.99000
H  47.95800 -0.50600 47.38000
H  47.67700 -2.25500 47.50600
H  49.83300 2.57200 48.05200
H  49.97500 4.98500 49.88700
H  50.72600 1.49300 49.81800
H  49.42500 1.98800 50.80500
H  50.67600 3.21300 50.62000
H  50.29400 5.71000 46.86700
H  51.24800 4.35200 47.31200
H  52.79200 5.80700 48.48500
H  51.54300 6.41000 49.44300
H  51.81800 7.12900 47.84900
H  47.23900 10.72100 47.90000
H  48.43100 9.54800 47.62600
H  48.08300 10.03700 49.34700
H  42.32100 8.85600 47.00900
H  39.62600 11.51900 49.70700
H  40.57800 10.43700 50.75200
H  39.55000 9.72300 49.53900
Mg 47.78700 15.58100 28.77800
C  45.77000 15.52300 31.65300
C  50.03700 17.44100 30.49600
C  49.54300 15.93700 25.93900
C  45.18900 14.02400 27.04600
N  47.78200 16.52500 30.82300
C  46.93500 16.20800 31.87700
C  47.58300 16.70200 33.23600
C  48.83000 17.50900 32.82200
C  48.91800 17.14200 31.27800
C  48.82500 19.09400 33.18900
C  47.94100 15.52100 34.30600
C  48.06700 15.84600 35.79000
H  47.73000 17.23800 36.23100
N  49.57900 16.50500 28.25900
C  50.35300 17.22900 29.12200
C  51.61100 17.49900 28.48500
C  51.59000 17.05300 27.17300
C  50.19800 16.46400 27.05500
C  52.64000 18.25700 29.29500
C  52.69500 17.00700 26.03900
O  52.57500 16.34300 25.00000
C  53.95700 17.71000 26.30700
N  47.50400 15.01600 26.77200
C  48.28700 15.35200 25.74600
C  47.74300 14.96400 24.33900
C  46.35900 14.32200 24.72800
C  46.32600 14.42600 26.29400
C  47.62700 16.22700 23.35300
C  46.13400 12.80200 24.37800
C  45.31300 12.50300 23.17500
N  45.85800 14.88000 29.20100
C  44.98600 14.23700 28.42100
C  43.79700 13.96200 29.18300
C  44.04600 14.33400 30.49800
C  45.31500 14.96400 30.44200
C  42.62500 13.22600 28.60300
C  43.62200 14.31700 31.94000
O  42.58900 13.81500 32.44100
C  44.71400 15.12400 32.73400
C  44.00500 16.23600 33.39800
O  43.71700 17.26700 32.87200
O  43.61200 15.83000 34.61900
C  42.85400 16.84700 35.34000
H  50.72600 18.11900 31.00400
H  50.07300 16.21900 25.02700
H  44.33300 13.65500 26.47700
H  46.87300 17.42300 33.64100
H  49.71500 17.08300 33.29500
H  49.62500 19.51100 33.80100
H  47.94200 19.33500 33.78000
H  48.86200 19.55800 32.20400
H  48.82000 15.02100 33.90000
H  47.19300 14.74600 34.13800
H  49.06200 15.44000 35.97600
H  47.26000 15.25400 36.22200
H  53.00500 17.66200 30.13300
H  52.14600 19.16600 29.63800
H  53.54600 18.51200 28.74500
H  53.88200 18.79600 26.36800
H  54.62200 17.47400 25.47600
H  54.41300 17.26300 27.19000
H  48.46100 14.27500 23.89500
H  45.53900 14.84900 24.24000
H  48.50500 16.37400 22.72300
H  47.53600 17.19200 23.85000
H  46.66300 16.18800 22.84600
H  45.81200 12.21200 25.23600
H  47.11400 12.41100 24.10400
H  45.76500 11.89700 22.39100
H  44.95800 13.43400 22.73200
H  44.44600 11.96900 23.56500
H  42.47700 13.20100 27.52400
H  41.66300 13.53800 29.01100
H  42.81400 12.19300 28.89400
H  45.10700 14.35000 33.39300
H  42.07400 17.26500 34.70300
H  43.57100 17.63300 35.57700
H  42.38100 16.29200 36.15100

