158

Mg 53.69500 23.91800 44.65500
C  51.40200 26.46000 43.54800
C  51.50300 21.58900 43.36400
C  56.15800 21.59000 44.96700
C  55.89800 26.41100 45.64500
N  51.79700 24.07100 43.37700
C  51.01600 25.16700 43.15200
C  49.63700 24.73900 42.54300
C  49.52700 23.28200 43.20100
C  51.01200 22.89800 43.26700
C  48.76900 23.33800 44.62700
C  49.66900 24.70900 41.01200
C  50.92000 25.03100 40.21100
H  50.79900 25.59500 38.81500
N  53.84900 21.85600 44.10900
C  52.83300 21.06200 43.61400
C  53.25500 19.64300 43.47900
C  54.67800 19.64900 43.80200
C  54.99500 21.08500 44.35300
C  52.31900 18.53100 43.03700
C  55.59600 18.47300 43.63200
O  55.21400 17.38900 43.17300
C  57.07700 18.62800 43.86900
N  55.73100 23.92800 45.27300
C  56.50300 22.83300 45.36100
C  58.00400 23.20000 45.67100
C  57.88300 24.78300 45.94100
C  56.38500 25.09900 45.61800
C  58.62500 22.32700 46.73900
C  58.94200 25.65600 45.18200
C  59.63600 26.71100 46.03500
N  53.69600 26.01500 44.74600
C  54.63000 26.86600 45.26200
C  54.12900 28.19000 45.13600
C  52.90700 28.08100 44.54400
C  52.64700 26.69700 44.26200
C  54.59900 29.30500 45.87300
C  51.69000 28.80400 44.17600
O  51.40700 30.00400 44.22600
C  50.63600 27.73800 43.55200
C  50.13900 28.25000 42.28500
O  50.75300 28.55100 41.29100
O  48.78800 28.31500 42.35000
C  48.16300 28.70900 41.08900
H  50.68300 20.93900 43.05000
H  56.94300 20.83700 45.06200
H  56.50500 27.21800 46.06000
H  48.87300 25.42400 42.91100
H  49.06300 22.64700 42.44600
H  47.92400 22.66100 44.75400
H  48.29100 24.30200 44.80200
H  49.60800 23.23300 45.31500
H  48.90700 25.45900 40.80000
H  49.18300 23.83800 40.57300
H  51.54700 24.14000 40.23500
H  51.46900 25.77300 40.79100
H  51.32000 18.93200 42.86500
H  52.37100 17.80000 43.84300
H  52.60500 18.25600 42.02200
H  57.26000 18.67500 44.94200
H  57.51100 19.46900 43.32900
H  57.61900 17.90400 43.26000
H  58.60000 23.02000 44.77600
H  58.14600 24.84800 46.99700
H  58.11600 21.36500 46.78800
H  58.77500 22.82200 47.69900
H  59.63700 22.17800 46.36100
H  58.46400 26.06300 44.29100
H  59.75600 25.04200 44.79700
H  59.21800 26.79600 47.03800
H  59.53000 27.65100 45.49300
H  60.68400 26.41300 46.05700
H  55.35600 29.91300 45.37600
H  54.98600 28.97000 46.83500
H  53.73600 29.94200 46.06500
H  49.87800 27.68500 44.33300
H  48.35000 29.73400 40.77100
H  47.08200 28.61500 41.18900
H  48.42200 28.09300 40.22800
Mg 0.83200 42.64900 25.38600
C  2.90200 42.09800 28.12100
C  -1.88700 41.70400 27.23300
C  -1.14600 42.93300 22.52900
C  3.61000 43.27200 23.29600
N  0.58200 41.81700 27.43700
C  1.50300 41.92200 28.37200
C  0.82700 41.83800 29.77000
C  -0.63400 41.33600 29.44000
C  -0.68400 41.69100 27.97000
C  -1.04600 39.90700 30.02500
C  0.89900 43.15400 30.45200
C  1.59800 43.11800 31.78500
H  1.34300 41.99600 32.74500
N  -1.18700 42.36800 24.97500
C  -2.19500 42.07600 25.88700
C  -3.48700 42.04900 25.24500
C  -3.27100 42.55400 23.91700
C  -1.81400 42.68300 23.74200
C  -4.70500 41.48600 25.91400
C  -4.36700 42.88100 22.80600
O  -4.20000 43.48300 21.75300
C  -5.86600 42.64100 23.05900
N  1.25000 42.79700 23.09200
C  0.19000 42.99100 22.29300
C  0.72600 43.38000 20.94800
C  2.21200 43.80000 21.21700
C  2.41300 43.23000 22.65300
C  0.42500 42.19400 19.98500
C  2.54700 45.27500 21.03400
C  2.97800 45.64400 19.55900
N  2.91100 42.73600 25.57600
C  3.90500 42.95800 24.65500
C  5.21800 42.82700 25.34100
C  4.87400 42.57500 26.70900
C  3.43700 42.43200 26.78600
C  6.67200 43.25600 24.84800
C  5.38200 42.42500 28.03600
O  6.59300 42.41200 28.35900
C  4.09200 42.27200 29.05000
C  4.38700 41.06100 29.91500
O  4.36700 39.86400 29.56700
O  4.73300 41.48000 31.18600
C  4.95600 40.33000 32.15300
H  -2.76700 41.58500 27.86800
H  -1.86700 43.15600 21.74000
H  4.39800 43.81200 22.76600
H  1.38500 41.09500 30.33900
H  -1.43700 41.90800 29.90500
H  -1.47000 39.32600 29.20600
H  -1.83200 40.21200 30.71500
H  -0.29300 39.35000 30.58200
H  -0.10100 43.56600 30.58700
H  1.52900 43.89600 29.96100
H  1.19800 43.92700 32.39600
H  2.63500 43.38900 31.59100
H  -4.39000 41.12500 26.89300
H  -5.05600 40.69500 25.25100
H  -5.51400 42.21600 25.94900
H  -6.44300 42.91200 22.17400
H  -6.21900 43.34100 23.81600
H  -5.89000 41.57200 23.26800
H  0.14000 44.20200 20.53900
H  2.90900 43.17400 20.65900
H  1.39700 41.74700 19.77700
H  0.01600 42.72200 19.12400
H  -0.28700 41.46300 20.37000
H  3.39100 45.52900 21.67600
H  1.72000 45.95000 21.25300
H  3.97500 46.08300 19.54200
H  2.28500 46.28700 19.01500
H  3.06400 44.74100 18.95500
H  7.39300 43.74200 25.50500
H  6.52200 43.85900 23.95300
H  7.08300 42.31100 24.49200
H  3.99900 43.15500 29.68200
H  5.39100 40.61700 33.11000
H  5.68600 39.70000 31.64400
H  4.07800 39.73300 32.40000

