158

Mg 48.29000 34.48500 26.41700
C  46.80600 33.07600 29.37300
C  48.51700 37.49600 27.98300
C  49.30800 35.73300 23.53200
C  47.45100 31.33900 24.73000
N  47.83200 35.16800 28.48700
C  47.39500 34.36700 29.49600
C  47.43500 35.18900 30.81500
C  47.65400 36.69500 30.25400
C  48.01400 36.46300 28.83900
C  46.50600 37.71900 30.54200
C  48.62500 34.72800 31.71000
C  48.33700 34.60800 33.24900
H  47.08800 35.36700 33.77700
N  48.88100 36.28800 25.89900
C  48.90800 37.43100 26.66300
C  49.59200 38.48100 25.96400
C  49.91900 38.02700 24.65100
C  49.31600 36.67400 24.65300
C  49.85800 39.83100 26.59300
C  50.70300 38.69800 23.54200
O  50.85300 38.29700 22.40500
C  51.39600 40.03600 23.76300
N  48.27200 33.63200 24.42200
C  48.81000 34.43800 23.41500
C  48.81800 33.64700 22.07300
C  48.58600 32.20600 22.57700
C  48.07200 32.37500 23.99600
C  47.80500 34.15600 21.04000
C  49.81000 31.17600 22.44000
C  50.62500 30.76600 23.65700
N  47.33100 32.64000 26.88400
C  47.12600 31.47200 26.09000
C  46.46100 30.48300 26.93300
C  46.22800 31.07400 28.18200
C  46.82500 32.42000 28.14400
C  46.23600 29.07000 26.45100
C  45.69100 30.90700 29.51700
O  45.23300 29.86000 29.97700
C  46.04200 32.21700 30.36300
C  46.80500 31.69100 31.55100
O  48.04000 31.45700 31.45300
O  46.01900 31.57800 32.67800
C  46.64400 30.98500 33.87400
H  48.63300 38.48000 28.44300
H  49.59000 36.19800 22.58500
H  47.26300 30.37700 24.24900
H  46.53200 35.02500 31.40300
H  48.53400 37.17400 30.68200
H  46.14300 38.36200 29.74000
H  47.02600 38.26600 31.32800
H  45.71000 37.20000 31.07600
H  49.42400 35.46400 31.62800
H  48.94100 33.79800 31.23700
H  49.16600 35.04100 33.80900
H  48.25300 33.54000 33.44900
H  48.83100 40.16900 26.73100
H  50.25200 40.62200 25.95500
H  50.55800 39.86000 27.42800
H  51.81200 40.24100 22.77700
H  52.09400 39.83900 24.57600
H  50.71600 40.86300 23.97000
H  49.78600 33.82300 21.60600
H  47.81300 31.68300 22.01300
H  47.07200 33.38800 20.79600
H  48.26100 34.36600 20.07300
H  47.14100 34.90700 21.46600
H  50.52300 31.75600 21.85500
H  49.52500 30.31100 21.84100
H  50.24700 31.37800 24.47600
H  51.66800 31.08200 23.61200
H  50.53100 29.69700 23.84600
H  46.06200 28.50000 27.36300
H  47.18000 28.73500 26.02200
H  45.35800 28.83500 25.84800
H  45.14700 32.72900 30.71700
H  46.66200 29.93200 33.59500
H  45.96400 31.11600 34.71600
H  47.63800 31.38000 34.08200
Mg -2.93400 35.10700 26.22200
C  -4.39400 33.46000 28.80200
C  -1.30700 37.22200 28.44300
C  -1.34900 36.45400 23.60600
C  -4.98700 33.17000 23.97100
N  -2.91700 35.33600 28.27500
C  -3.55900 34.51600 29.18200
C  -3.13400 34.84400 30.61700
C  -2.19300 36.02500 30.50000
C  -2.21200 36.28300 28.98600
C  -2.50200 37.32700 31.33000
C  -2.66500 33.74100 31.51700
C  -3.43500 33.40100 32.75900
H  -2.58300 33.20100 34.06000
N  -1.58100 36.72000 26.07100
C  -1.02000 37.43700 27.08700
C  -0.03100 38.36100 26.46600
C  -0.03800 38.14700 25.09000
C  -1.01800 37.07300 24.84400
C  0.66700 39.44900 27.32700
C  0.85000 38.85300 24.03400
O  0.88500 38.50300 22.87700
C  1.79500 40.01100 24.43200
N  -3.31800 35.03600 24.13800
C  -2.43100 35.63500 23.31800
C  -2.68900 35.17800 21.88100
C  -3.68700 34.01500 22.07900
C  -4.13700 34.16800 23.50500
C  -3.24000 36.39400 20.96300
C  -3.03000 32.58100 21.77400
C  -1.72100 32.25400 22.53800
N  -4.44600 33.58400 26.25300
C  -5.17800 32.93900 25.35900
C  -5.99300 31.98100 25.97700
C  -5.72300 32.10300 27.35600
C  -4.84400 33.15700 27.47000
C  -6.77900 30.95600 25.20100
C  -6.04000 31.62400 28.74000
O  -6.89200 30.76600 29.13000
C  -5.17800 32.53100 29.77400
C  -6.39100 33.11600 30.59700
O  -7.32900 33.78800 30.11500
O  -6.36000 32.51500 31.80800
C  -7.52500 32.56200 32.65100
H  -0.71400 37.73900 29.20100
H  -0.77800 36.86000 22.76900
H  -5.50300 32.58800 23.20400
H  -4.08800 35.16600 31.03500
H  -1.22900 35.70800 30.89800
H  -2.67000 38.27600 30.82000
H  -1.74700 37.52600 32.09100
H  -3.39100 37.19500 31.94600
H  -1.63000 33.89000 31.82500
H  -2.70100 32.83900 30.90700
H  -3.98100 32.48900 32.51600
H  -4.08700 34.20800 33.09200
H  1.72800 39.27400 27.50800
H  0.25400 39.48200 28.33600
H  0.51100 40.49300 27.05700
H  2.35200 39.61100 25.27900
H  1.16600 40.84800 24.73400
H  2.49900 40.25600 23.63600
H  -1.73700 34.87100 21.44800
H  -4.60300 34.07900 21.49100
H  -2.44800 36.89200 20.40400
H  -3.83200 37.22800 21.34000
H  -3.72000 35.85000 20.15000
H  -2.78300 32.65200 20.71500
H  -3.78700 31.81300 21.93400
H  -1.69200 32.81000 23.47500
H  -0.80100 32.52200 22.01900
H  -1.61100 31.19200 22.75600
H  -6.84400 31.18000 24.13600
H  -7.74900 30.74000 25.64700
H  -6.20200 30.03700 25.30900
H  -4.55500 31.93000 30.43600
H  -7.09800 33.08000 33.51000
H  -7.76900 31.55500 32.98900
H  -8.42400 33.03600 32.25700

