158

Mg 26.26400 1.18600 28.16600
C  27.85800 0.89100 31.24900
C  23.27900 1.69800 29.93300
C  24.66000 1.15800 25.28500
C  29.18500 0.24300 26.57700
N  25.67800 1.34400 30.39700
C  26.52300 1.35200 31.42400
C  25.79300 1.57100 32.74500
C  24.30600 1.73700 32.29300
C  24.43900 1.68300 30.78400
C  23.34100 0.70800 32.88500
C  26.32200 2.69800 33.78700
C  26.68900 2.36000 35.21500
H  26.56500 3.41200 36.33800
N  24.25200 1.34500 27.66500
C  23.17900 1.58600 28.54200
C  21.99200 1.74300 27.79300
C  22.30000 1.55000 26.40400
C  23.77800 1.28300 26.37700
C  20.57800 1.95500 28.35700
C  21.38100 1.45900 25.14400
O  21.76000 1.19900 24.02300
C  19.92500 1.82900 25.30100
N  26.85200 0.77000 26.18800
C  26.00500 1.04000 25.16000
C  26.81000 0.93300 23.79000
C  28.25300 0.53000 24.17900
C  28.14000 0.55200 25.71500
C  26.13900 0.01900 22.73100
C  29.38600 1.58100 23.77900
C  29.65300 1.71100 22.27600
N  28.09500 0.67000 28.76000
C  29.16500 0.24700 28.00400
C  30.23900 -0.20300 28.86600
C  29.81500 0.15600 30.15400
C  28.48300 0.68500 30.01100
C  31.59900 -0.70500 28.40800
C  30.16800 0.09900 31.56800
O  31.20800 -0.19800 32.13600
C  28.91400 0.63500 32.28500
C  28.56700 -0.29000 33.35000
O  27.64600 -1.08000 33.35200
O  29.37100 -0.11400 34.47800
C  29.05300 -0.85200 35.61800
H  22.32300 1.81500 30.44900
H  24.16900 1.16100 24.31000
H  30.09900 -0.10700 26.09300
H  25.87300 0.56000 33.14300
H  23.91000 2.73600 32.47500
H  23.84400 0.12600 33.65600
H  22.94400 0.12300 32.05500
H  22.64700 1.33100 33.44900
H  25.54500 3.46200 33.80000
H  27.15400 3.18900 33.28200
H  27.71300 2.04200 35.41100
H  26.08400 1.48400 35.44900
H  19.96100 2.56600 27.69800
H  20.59400 2.49400 29.30400
H  20.14600 0.95600 28.41800
H  19.49800 1.90200 24.30100
H  19.92500 2.87400 25.61200
H  19.36100 1.23700 26.02200
H  26.84800 1.95600 23.41400
H  28.64200 -0.42900 23.83700
H  25.25800 -0.45900 23.16000
H  26.78100 -0.72900 22.26600
H  25.80100 0.64200 21.90400
H  30.37600 1.22300 24.06200
H  29.23000 2.51000 24.32700
H  29.04000 0.96700 21.76800
H  30.66500 1.48800 21.93800
H  29.36100 2.70700 21.94200
H  32.21600 -0.59000 29.29900
H  31.85000 -0.06800 27.56000
H  31.54700 -1.76200 28.14700
H  29.13100 1.59400 32.75500
H  29.26300 -1.88700 35.34700
H  28.04800 -0.75200 36.02800
H  29.69800 -0.49600 36.42100
Mg 44.65100 3.05100 47.20600
C  42.26800 5.60400 46.80400
C  41.95300 0.84000 47.21400
C  46.72100 0.42000 46.76500
C  47.19700 5.23600 46.71200
N  42.30400 3.24200 46.79900
C  41.57800 4.41100 46.82500
C  40.10500 4.20100 46.77200
C  40.03900 2.65400 47.06900
C  41.48800 2.17900 47.09700
C  39.24700 2.30600 48.34500
C  39.62700 4.47600 45.33600
C  38.37100 5.43200 45.27200
H  37.83900 5.59700 43.76300
N  44.39000 0.87600 46.94100
C  43.22500 0.21500 47.04500
C  43.48400 -1.21600 46.92200
C  44.89300 -1.37000 46.65000
C  45.40700 0.03800 46.78600
C  42.36200 -2.26600 47.02000
C  45.60100 -2.68400 46.30700
O  45.03600 -3.76100 46.39300
C  47.01100 -2.73000 45.78100
N  46.68000 2.85700 46.67000
C  47.36900 1.68700 46.69700
C  48.87800 1.83100 46.66400
C  49.00100 3.37800 46.32600
C  47.52800 3.89900 46.54800
C  49.66100 1.25200 47.85500
C  49.56800 3.80000 44.95400
C  51.05700 3.55000 44.69200
N  44.81600 5.03200 46.79400
C  45.88900 5.79700 46.61600
C  45.50400 7.18500 46.50000
C  44.08100 7.10100 46.53200
C  43.69200 5.78900 46.68700
C  46.39300 8.40000 46.42100
C  42.91700 7.89300 46.58900
O  42.92900 9.07600 46.59600
C  41.71800 6.99600 46.68800
C  40.88700 7.30700 47.89100
O  40.90800 6.71700 49.00800
O  39.93800 8.40100 47.57600
C  38.91800 8.66800 48.62000
H  41.15100 0.11900 47.38900
H  47.52000 -0.32500 46.77200
H  48.02900 5.94000 46.63900
H  39.58000 4.78500 47.52800
H  39.51100 2.20400 46.22800
H  38.90700 3.21700 48.83900
H  39.82800 1.72800 49.06300
H  38.37900 1.80100 47.92200
H  39.48000 3.58300 44.72900
H  40.25000 5.08900 44.68500
H  38.70200 6.33600 45.78400
H  37.60200 4.89700 45.82900
H  42.68000 -3.14800 46.46400
H  41.53800 -1.67400 46.62100
H  42.08400 -2.39000 48.06700
H  47.80800 -2.55500 46.50300
H  47.10000 -1.89900 45.08100
H  47.20400 -3.68100 45.28400
H  49.17800 1.28000 45.77300
H  49.69500 3.77100 47.06900
H  49.03000 0.93100 48.68400
H  50.39700 1.91600 48.30900
H  50.12900 0.37900 47.39800
H  49.17700 4.79900 44.76200
H  48.93900 3.25800 44.24800
H  51.41800 4.41500 44.13500
H  51.18800 2.61100 44.15400
H  51.53100 3.42600 45.66600
H  47.32400 8.37800 46.98700
H  45.80700 9.25500 46.75800
H  46.65800 8.51500 45.36900
H  40.98000 7.12500 45.89600
H  37.99100 8.40800 48.10900
H  39.00100 9.70300 48.95300
H  38.99100 8.04600 49.51300

