158

Mg 35.52000 3.21200 30.62000
C  32.93900 4.14300 32.87700
C  37.79800 3.86700 33.16700
C  37.98100 3.04400 28.38400
C  33.19000 3.09700 28.11100
N  35.33500 3.88800 32.73700
C  34.23000 4.15800 33.47600
C  34.53300 4.24800 34.99600
C  36.12300 4.44900 34.92500
C  36.47900 4.03900 33.52500
C  36.87500 5.71300 35.45900
C  33.76400 3.10900 35.80600
C  34.51900 2.58800 37.02900
H  34.95100 3.55200 38.14900
N  37.62200 3.17300 30.78500
C  38.42200 3.30700 31.95800
C  39.80800 3.00300 31.59900
C  39.88700 2.82200 30.21000
C  38.45000 3.06200 29.71800
C  40.81500 2.82700 32.72300
C  41.08900 2.35300 29.34500
O  40.99600 2.18400 28.10500
C  42.35000 2.08400 29.95600
N  35.53800 3.14200 28.54800
C  36.67000 3.04400 27.83800
C  36.47200 2.73000 26.41100
C  34.84800 2.66700 26.30600
C  34.45400 2.95300 27.71000
C  37.20300 3.51500 25.23900
C  34.26900 1.28300 25.77600
C  33.10300 1.28700 24.82800
N  33.49500 3.58800 30.41600
C  32.64900 3.53800 29.36400
C  31.23700 3.85000 29.71900
C  31.31500 4.00100 31.08200
C  32.67200 3.90300 31.45100
C  30.01200 3.99600 28.83900
C  30.59300 4.34700 32.22200
O  29.41300 4.59300 32.29400
C  31.55500 4.27300 33.47000
C  31.41500 5.52700 34.30300
O  31.59600 6.66400 33.88100
O  31.13900 5.18400 35.63800
C  31.25400 6.30700 36.59200
H  38.56800 4.05800 33.91700
H  38.76900 3.06000 27.62800
H  32.54900 2.82000 27.27100
H  34.16100 5.22200 35.31500
H  36.50700 3.57200 35.44400
H  37.53700 5.31700 36.22900
H  36.11600 6.32900 35.94100
H  37.50800 6.27000 34.76800
H  33.59400 2.23800 35.17300
H  32.74900 3.44200 36.02100
H  35.39400 2.04100 36.67800
H  34.02700 1.76800 37.55100
H  41.53800 3.64300 32.69700
H  41.26600 1.85100 32.54300
H  40.36100 2.82400 33.71400
H  43.05100 1.93700 29.13400
H  42.24300 1.17100 30.54100
H  42.53800 2.96100 30.57500
H  36.79200 1.68900 26.36300
H  34.42100 3.45000 25.67800
H  37.01600 2.93900 24.33200
H  38.28100 3.43300 25.37000
H  36.87900 4.55100 25.13800
H  33.78000 0.89400 26.66900
H  35.05500 0.53800 25.65500
H  32.15800 0.86400 25.16700
H  33.31600 0.84400 23.85500
H  32.92700 2.32500 24.54600
H  30.33000 4.77000 28.14100
H  29.19900 4.35400 29.47000
H  29.60700 3.12500 28.32400
H  31.41100 3.48600 34.21000
H  30.85000 7.21800 36.15000
H  32.25800 6.39100 37.00800
H  30.62100 6.09600 37.45400
Mg -10.40400 39.57500 39.70800
C  -9.82500 36.20000 39.05500
C  -6.99900 40.21000 38.82100
C  -11.15900 42.70500 39.12700
C  -13.76600 38.75200 40.36100
N  -8.69700 38.34600 38.72600
C  -8.71900 36.94400 38.66300
C  -7.33100 36.45700 38.24700
C  -6.45600 37.70600 38.59600
C  -7.41700 38.84300 38.67400
C  -5.76300 37.56600 39.95900
C  -7.29300 35.99300 36.76500
C  -7.70100 36.97300 35.59800
H  -8.91000 36.69400 34.83300
N  -9.30800 41.24800 39.17000
C  -7.91800 41.32900 38.87800
C  -7.54000 42.68600 38.65700
C  -8.68300 43.44100 38.78000
C  -9.78300 42.45900 39.04100
C  -6.22900 43.13100 38.28700
C  -8.67400 44.94900 38.60900
O  -7.71800 45.60200 38.14400
C  -9.76300 45.70800 39.07200
N  -12.22700 40.59700 39.72000
C  -12.26300 41.91700 39.50300
C  -13.71200 42.34800 39.50300
C  -14.47300 41.10700 40.01300
C  -13.45700 40.05500 40.07000
C  -14.05500 43.65400 40.26700
C  -15.69500 40.77800 39.08200
C  -16.98700 41.47200 39.47500
N  -11.59400 37.83800 39.76800
C  -12.94500 37.64600 40.08600
C  -13.19900 36.22300 40.09000
C  -11.97400 35.61200 39.72300
C  -11.07500 36.66700 39.58000
C  -14.57800 35.54500 40.40900
C  -11.38800 34.36400 39.44300
O  -11.87100 33.24600 39.35500
C  -9.97400 34.71800 38.94000
C  -8.97900 33.94200 39.78800
O  -8.95600 33.93900 40.99800
O  -8.12500 33.27500 38.97700
C  -7.21000 32.32000 39.73200
H  -5.93800 40.43000 38.68400
H  -11.54600 43.70100 38.90000
H  -14.79900 38.48900 40.59900
H  -7.01700 35.62700 38.88000
H  -5.70800 38.03400 37.87500
H  -6.06400 36.66000 40.48500
H  -5.96900 38.45000 40.56200
H  -4.70100 37.52300 39.71700
H  -7.95300 35.12600 36.73800
H  -6.23300 35.77300 36.63600
H  -6.85200 37.15800 34.94000
H  -7.88200 37.95100 36.04400
H  -6.01100 44.09800 38.74100
H  -6.12200 43.17700 37.20300
H  -5.44700 42.44200 38.60500
H  -10.21000 45.18500 39.91800
H  -10.51800 45.86800 38.30200
H  -9.40200 46.65100 39.48100
H  -14.01600 42.57200 38.48100
H  -14.85200 41.34200 41.00700
H  -13.10100 44.10400 40.54000
H  -14.63900 43.39800 41.15200
H  -14.62900 44.24900 39.55600
H  -15.88800 39.71400 38.94100
H  -15.37600 41.08700 38.08700
H  -17.54500 40.72200 40.03500
H  -17.62000 41.77700 38.64100
H  -16.85700 42.40400 40.02600
H  -15.10200 36.19900 41.10500
H  -14.49700 34.58500 40.92000
H  -15.16400 35.41900 39.49800
H  -9.92400 34.40200 37.89900
H  -7.48500 31.31100 39.42500
H  -7.18100 32.40500 40.81800
H  -6.15000 32.45300 39.51600

