158

Mg 24.68900 -7.87000 45.87700
C  27.12600 -5.52000 45.00700
C  22.39600 -6.38600 43.96100
C  22.61400 -10.45000 46.64800
C  27.30500 -9.59300 47.73500
N  24.76900 -6.18100 44.62900
C  25.92000 -5.35800 44.40000
C  25.52900 -4.21400 43.32400
C  23.93500 -4.35000 43.20800
C  23.68900 -5.72200 43.92600
C  23.20200 -3.16300 43.84200
C  26.29600 -4.45500 42.00200
C  25.68600 -3.61000 40.85000
H  24.90200 -4.22700 39.69600
N  22.81300 -8.37900 45.33900
C  21.97300 -7.55500 44.65400
C  20.65300 -8.19700 44.55000
C  20.68100 -9.34600 45.33600
C  22.11300 -9.46500 45.81300
C  19.47100 -7.61500 43.67300
C  19.39600 -10.22600 45.68500
O  18.30400 -9.97500 45.16200
C  19.48400 -11.50000 46.41200
N  24.94300 -9.72800 46.92700
C  23.92600 -10.52500 47.14000
C  24.25100 -11.75600 48.05100
C  25.83900 -11.66800 48.19200
C  26.07500 -10.25600 47.53200
C  23.58800 -11.70200 49.45000
C  26.72900 -12.72800 47.45500
C  28.00000 -13.25900 48.25400
N  26.82800 -7.57900 46.36600
C  27.66900 -8.30800 47.14200
C  28.91400 -7.61600 47.24700
C  28.74500 -6.50300 46.42100
C  27.47300 -6.52100 45.86600
C  30.13600 -8.10000 48.05100
C  29.38100 -5.37500 45.85300
O  30.54200 -4.97400 46.06600
C  28.42300 -4.67100 44.81500
C  28.30200 -3.25200 45.09600
O  28.82800 -2.44900 44.32000
O  27.44800 -2.92600 46.13600
C  27.00500 -1.50400 46.17100
H  21.64600 -5.86900 43.35900
H  21.88900 -11.23300 46.88000
H  28.05600 -10.18500 48.26200
H  25.94900 -3.33900 43.82100
H  23.64300 -4.49900 42.16800
H  22.74200 -2.66000 42.99200
H  23.66600 -2.47900 44.55100
H  22.36300 -3.51900 44.44000
H  26.11400 -5.51100 41.80300
H  27.28900 -4.04100 42.17500
H  26.54500 -3.00200 40.56600
H  24.92500 -2.93000 41.23400
H  19.56400 -6.53700 43.53800
H  18.50000 -7.75400 44.14800
H  19.51700 -8.22300 42.76900
H  19.95100 -11.23700 47.36100
H  20.15600 -12.14800 45.84900
H  18.52300 -11.99900 46.53300
H  24.06400 -12.64400 47.44800
H  26.16800 -11.71500 49.23100
H  23.14900 -12.69800 49.52100
H  22.80700 -10.95100 49.57300
H  24.19600 -11.75600 50.35300
H  26.94800 -12.31600 46.47000
H  26.10500 -13.59500 47.23400
H  28.23900 -12.71500 49.16800
H  28.86600 -13.18400 47.59600
H  27.80400 -14.32600 48.36600
H  30.50700 -9.00900 47.57700
H  29.88500 -8.20000 49.10700
H  30.85500 -7.28700 47.94800
H  28.90100 -4.74500 43.83900
H  26.45000 -1.28500 45.25900
H  27.81200 -0.79400 45.99100
H  26.36200 -1.29800 47.02700
Mg 53.07100 23.28700 45.13400
C  50.42700 25.53200 44.10900
C  51.11200 20.68100 43.88800
C  55.91800 21.48700 44.88900
C  54.86500 26.10200 46.30700
N  51.01500 23.23300 44.03100
C  50.13600 24.23700 43.72000
C  48.90400 23.64100 43.01200
C  48.99200 22.14200 43.44400
C  50.43700 21.97000 43.76800
C  48.04100 21.85800 44.62800
C  48.93900 23.67400 41.41100
C  47.61000 23.62800 40.70000
H  47.48100 22.91700 39.30900
N  53.46300 21.34400 44.61300
C  52.53500 20.40400 44.11800
C  53.23400 19.13000 43.93500
C  54.60200 19.28700 44.29500
C  54.72500 20.77100 44.67200
C  52.62300 17.93100 43.28700
C  55.69700 18.25000 44.18000
O  55.46000 17.08100 43.96000
C  57.11200 18.50100 44.63300
N  55.14500 23.75900 45.50500
C  56.08800 22.79100 45.48700
C  57.40000 23.25300 46.12400
C  57.12100 24.71100 46.60700
C  55.68800 24.91900 45.98100
C  57.79800 22.31700 47.29000
C  58.27400 25.74900 46.10600
C  59.13100 26.42100 47.19700
N  52.72600 25.39000 45.31800
C  53.50100 26.35300 45.91200
C  52.76700 27.62100 45.85600
C  51.52700 27.32400 45.17900
C  51.56600 25.97800 44.87200
C  53.23500 29.01600 46.29500
C  50.30800 27.93400 44.75100
O  49.83700 29.05200 44.98600
C  49.47500 26.75600 44.11200
C  48.89000 27.07700 42.76000
O  49.54700 27.36600 41.72500
O  47.55800 27.13200 42.88600
C  46.86300 27.44400 41.64100
H  50.49100 19.85000 43.54700
H  56.84300 20.95200 44.66200
H  55.53700 26.87400 46.68700
H  48.07700 24.23300 43.40300
H  48.71000 21.44000 42.65800
H  47.41300 22.73600 44.77900
H  48.62200 21.72000 45.54000
H  47.41700 21.02000 44.31700
H  49.47500 22.80400 41.03100
H  49.48800 24.56400 41.10400
H  47.34900 24.65200 40.43300
H  46.83600 23.27500 41.38100
H  53.09800 17.61300 42.35900
H  51.63600 18.16100 42.88700
H  52.54900 17.18000 44.07400
H  57.51200 19.03800 43.77300
H  57.58800 17.54300 44.84200
H  57.17300 19.10900 45.53500
H  58.15200 23.09400 45.35100
H  57.08800 24.82500 47.69100
H  58.85600 22.07000 47.20000
H  57.24300 21.38300 47.19900
H  57.61300 22.79400 48.25200
H  57.75500 26.51300 45.52800
H  59.01100 25.24200 45.48300
H  58.95800 25.85400 48.11100
H  58.84100 27.46700 47.29800
H  60.17900 26.37300 46.90300
H  54.10800 28.97600 46.94600
H  52.37900 29.53200 46.73000
H  53.42700 29.69300 45.46300
H  48.66900 26.62200 44.83400
H  46.12300 28.23100 41.78500
H  46.25200 26.62200 41.27000
H  47.45200 27.75500 40.77800

