158

Mg 48.73700 34.92500 27.06200
C  46.62600 33.87100 29.77400
C  49.15700 37.92500 28.85400
C  50.05600 36.27100 24.33600
C  47.79100 32.09600 25.22300
N  48.02400 35.72800 29.12600
C  47.36300 35.05400 30.06600
C  47.55700 35.72200 31.47200
C  47.90600 37.17500 31.02300
C  48.41800 36.98400 29.59000
C  46.78400 38.25900 31.25500
C  48.76700 35.03600 32.18800
C  48.63400 34.92100 33.73000
H  47.72100 35.93000 34.52200
N  49.37600 36.85600 26.62600
C  49.63700 37.90000 27.49700
C  50.19800 39.05700 26.79500
C  50.40500 38.61000 25.47300
C  49.95600 37.18400 25.47100
C  50.44200 40.41000 27.45500
C  51.00000 39.24800 24.23200
O  50.88600 38.79000 23.10000
C  51.70300 40.64900 24.34400
N  48.75900 34.27400 25.10300
C  49.46800 34.96700 24.16800
C  49.66300 34.22600 22.87900
C  49.22400 32.75500 23.22600
C  48.60300 33.03000 24.62100
C  48.93600 34.83800 21.59900
C  50.41500 31.69400 23.14700
C  51.53500 31.76000 22.06800
N  47.60800 33.32100 27.41200
C  47.24800 32.25900 26.56700
C  46.43700 31.29600 27.30400
C  46.17700 31.94400 28.48900
C  46.83000 33.16100 28.53300
C  45.89900 29.94500 26.86100
C  45.45400 31.79200 29.72800
O  44.87100 30.79900 30.14400
C  45.62200 33.08300 30.62900
C  45.98000 32.69100 31.96300
O  46.83000 31.86100 32.30900
O  45.07400 33.20600 32.87900
C  45.05900 32.82800 34.31300
H  49.38800 38.88000 29.33100
H  50.59800 36.50700 23.41800
H  47.63600 31.14700 24.70400
H  46.65600 35.64300 32.08100
H  48.65300 37.43600 31.77300
H  46.89200 38.97400 32.07100
H  45.78600 37.84100 31.38900
H  46.71700 38.89400 30.37200
H  49.76500 35.40900 31.96000
H  48.96900 34.01500 31.86500
H  49.62300 35.01200 34.18100
H  48.31500 33.91500 34.00000
H  51.38000 40.53000 27.99700
H  49.57000 40.64500 28.06400
H  50.35600 41.17800 26.68600
H  51.04000 41.51400 24.35500
H  52.40400 40.81100 23.52600
H  52.25100 40.66100 25.28600
H  50.72500 34.23000 22.63200
H  48.40500 32.38500 22.61000
H  49.02300 35.91300 21.75800
H  47.89700 34.51000 21.59200
H  49.45600 34.41500 20.73900
H  50.09400 30.66700 22.97100
H  50.93700 31.87100 24.08700
H  51.16200 32.39500 21.26500
H  51.68400 30.74000 21.71200
H  52.54000 32.03500 22.38800
H  45.73500 29.90000 25.78400
H  44.94700 29.83400 27.38000
H  46.55900 29.15900 27.22700
H  44.72300 33.69700 30.57600
H  44.43400 33.56100 34.82300
H  46.04000 32.70300 34.77300
H  44.59800 31.85100 34.45700
Mg -0.76500 34.06600 26.86900
C  -2.58100 32.35700 29.30500
C  0.78500 35.80600 29.25400
C  0.60100 35.86800 24.35600
C  -2.55100 32.22400 24.35000
N  -1.04800 34.23600 29.09200
C  -1.72100 33.31600 29.88800
C  -1.41600 33.63200 31.41500
C  -0.48800 34.83800 31.34300
C  -0.18200 34.99000 29.83600
C  -1.16900 36.10200 31.96300
C  -0.68400 32.38300 32.03400
C  -1.52200 31.65500 33.09600
H  -0.94200 31.42300 34.51900
N  0.49100 35.55100 26.79700
C  1.12500 36.07800 27.87800
C  2.00100 37.12100 27.48200
C  1.88900 37.24000 26.05000
C  0.93400 36.19600 25.66600
C  2.91500 37.85600 28.45900
C  2.68400 38.16100 25.09900
O  2.72900 38.15500 23.82700
C  3.62600 39.14500 25.73400
N  -1.06100 34.18700 24.55900
C  -0.32400 35.03300 23.80800
C  -0.74200 34.84400 22.29800
C  -1.65900 33.58600 22.39900
C  -1.78900 33.28500 23.86700
C  -1.43800 36.03400 21.69200
C  -0.97300 32.38200 21.67300
C  -0.11200 31.29500 22.36500
N  -2.15900 32.56300 26.76000
C  -2.78000 31.92300 25.65700
C  -3.69500 30.96800 26.18000
C  -3.64300 31.09400 27.58900
C  -2.69100 32.06800 27.89500
C  -4.46000 29.95000 25.44600
C  -4.13600 30.52000 28.78400
O  -4.88500 29.56900 28.93700
C  -3.43700 31.30000 30.00800
C  -4.55100 31.81100 30.86000
O  -5.43300 32.58200 30.51100
O  -4.61500 31.12000 32.04200
C  -5.61700 31.42800 33.02200
H  1.40400 36.21900 30.05300
H  1.04400 36.50300 23.58600
H  -2.98600 31.50300 23.65500
H  -2.44400 33.71100 31.76700
H  0.40100 34.74000 31.96600
H  -2.02300 35.70700 32.51400
H  -1.51300 36.79300 31.19400
H  -0.54500 36.62900 32.68400
H  0.31700 32.59700 32.40900
H  -0.54100 31.63300 31.25600
H  -1.63800 30.67900 32.62300
H  -2.50800 32.11400 33.17200
H  3.93200 37.64400 28.12900
H  2.92900 37.56800 29.51000
H  2.65600 38.91200 28.37700
H  2.98100 39.59900 26.48600
H  3.92600 39.83900 24.94900
H  4.58000 38.74400 26.07600
H  0.15100 34.79900 21.67600
H  -2.67000 33.81100 22.05900
H  -1.24600 35.95600 20.62100
H  -1.10600 37.01500 22.03200
H  -2.51200 35.95700 21.85900
H  -0.33700 32.78700 20.88600
H  -1.77800 31.76100 21.28000
H  0.15500 31.45600 23.40900
H  0.89600 31.43100 21.97300
H  -0.51200 30.29000 22.23000
H  -3.81900 29.59700 24.63800
H  -5.39300 30.39800 25.10500
H  -4.76300 29.10300 26.06100
H  -2.87700 30.52900 30.53900
H  -5.08800 31.59000 33.96100
H  -6.25400 30.54700 33.10600
H  -6.26500 32.28300 32.82900

