158

Mg -2.15500 16.90900 25.68800
C  -2.60600 14.84300 28.15900
C  -2.68500 19.63200 27.71400
C  -1.63300 18.98500 23.00400
C  -2.00000 14.21100 23.32900
N  -2.58100 17.23500 27.71300
C  -2.64100 16.16500 28.57700
C  -2.95400 16.67300 30.01800
C  -3.07100 18.24700 29.80200
C  -2.72900 18.38600 28.32500
C  -4.34900 18.87500 30.33300
C  -1.82600 16.39000 31.06900
C  -1.82800 17.27200 32.34800
H  -1.48400 16.45900 33.65800
N  -2.11500 18.98200 25.39100
C  -2.35800 19.97800 26.38300
C  -2.35200 21.25500 25.77900
C  -1.80600 21.08300 24.42000
C  -1.88700 19.65100 24.16200
C  -2.78900 22.47400 26.48700
C  -1.49000 22.14900 23.46400
O  -1.36100 21.97700 22.23300
C  -1.16400 23.54900 24.02100
N  -1.98100 16.62000 23.49300
C  -1.74500 17.65600 22.67100
C  -1.72300 17.16700 21.22400
C  -1.99700 15.67100 21.31100
C  -1.84500 15.47700 22.82100
C  -2.73400 17.87600 20.22900
C  -1.06300 14.78300 20.43400
C  -1.72400 13.74500 19.45900
N  -2.20600 14.86800 25.64600
C  -2.09000 13.86600 24.68100
C  -2.14000 12.60000 25.39400
C  -2.45900 12.95900 26.74000
C  -2.39900 14.31500 26.84900
C  -1.90900 11.28800 24.67900
C  -2.79300 12.35800 28.08200
O  -2.97400 11.24300 28.46600
C  -2.71300 13.59600 29.06500
C  -1.51100 13.37800 29.89400
O  -0.34700 13.72300 29.69700
O  -1.94300 12.74800 31.05100
C  -0.97600 12.08600 31.91300
H  -2.76400 20.46000 28.42100
H  -1.33600 19.67600 22.21300
H  -2.08200 13.33600 22.68000
H  -3.87600 16.19900 30.35400
H  -2.27100 18.77400 30.32200
H  -4.90300 19.25300 29.47300
H  -4.11200 19.69700 31.00800
H  -4.91600 18.07900 30.81600
H  -0.85400 16.46700 30.58200
H  -2.00100 15.39500 31.47800
H  -2.69600 17.86300 32.64300
H  -0.93800 17.87200 32.15600
H  -3.20000 23.25500 25.84700
H  -2.17600 22.97200 27.23800
H  -3.64900 22.17800 27.08800
H  -0.48100 24.09700 23.37100
H  -0.57000 23.24300 24.88100
H  -2.04200 24.16800 24.20500
H  -0.67700 17.25800 20.93200
H  -3.00200 15.42300 20.97000
H  -3.14300 18.78700 20.66700
H  -3.60500 17.25600 20.02000
H  -2.25100 18.05200 19.26800
H  -0.40700 14.16800 21.04900
H  -0.51500 15.42300 19.74300
H  -2.78700 13.98700 19.46800
H  -1.65200 12.72800 19.84400
H  -1.34000 13.75900 18.43900
H  -1.84700 10.45000 25.37300
H  -1.00300 11.36100 24.07600
H  -2.72000 11.09100 23.97800
H  -3.63400 13.54500 29.64600
H  -1.54100 11.75000 32.78300
H  -0.14500 12.73500 32.18600
H  -0.53800 11.22300 31.41100
Mg 0.46400 7.36700 25.30300
C  0.99500 9.44200 27.95200
C  0.16600 4.57100 27.44700
C  -0.39400 5.37600 22.59700
C  1.15000 10.00500 23.02900
N  0.71500 7.07200 27.40500
C  0.78400 8.06500 28.32800
C  0.64600 7.50800 29.79400
C  0.75200 5.92800 29.48000
C  0.56100 5.82300 27.98600
C  2.12700 5.38000 29.95700
C  -0.62200 8.03700 30.53900
C  -0.46100 8.33700 32.04400
H  1.01100 8.25800 32.71200
N  0.07800 5.27600 25.06700
C  -0.08000 4.29300 26.05600
C  -0.54000 3.05600 25.49800
C  -0.64100 3.26400 24.09800
C  -0.35400 4.70600 23.85900
C  -0.63900 1.73200 26.32800
C  -0.86600 2.24300 22.98400
O  -0.93400 2.48000 21.81900
C  -1.17500 0.83600 23.41500
N  0.36500 7.64500 23.18900
C  -0.09400 6.72600 22.29300
C  -0.33000 7.34400 20.96400
C  0.32500 8.68700 21.06600
C  0.62400 8.81000 22.50400
C  0.13400 6.52900 19.76700
C  -0.46600 9.83100 20.32100
C  0.09100 10.21800 18.90300
N  1.07700 9.30900 25.41900
C  1.30000 10.29400 24.45900
C  1.58700 11.51400 25.14300
C  1.46500 11.20600 26.49700
C  1.16700 9.83000 26.61400
C  1.95900 12.69000 24.46600
C  1.50200 11.83100 27.82900
O  1.79200 12.93500 28.20500
C  1.17300 10.67500 28.80900
C  2.37200 10.55700 29.71000
O  3.44000 10.03100 29.42300
O  2.19300 11.33700 30.84300
C  3.28200 11.67400 31.77100
H  0.12300 3.75100 28.16700
H  -0.75100 4.91000 21.67600
H  1.46000 10.81800 22.37000
H  1.57200 7.88700 30.22500
H  -0.04200 5.40700 30.01400
H  2.54700 5.89700 30.82000
H  2.90300 5.45700 29.19500
H  2.07500 4.35200 30.31500
H  -1.32700 7.20700 30.49300
H  -1.09300 8.88000 30.03400
H  -1.03800 7.67600 32.69200
H  -0.80600 9.36100 32.18500
H  -0.14500 0.95700 25.74300
H  -1.64300 1.50500 26.68800
H  -0.07400 1.72100 27.26000
H  -0.23000 0.32700 23.60500
H  -1.60400 0.53300 22.46000
H  -1.91100 0.71100 24.21000
H  -1.41100 7.43500 20.85400
H  1.33800 8.65000 20.66400
H  1.09300 6.09400 20.05100
H  0.38500 7.11500 18.88300
H  -0.60900 5.78500 19.47900
H  -0.29500 10.72800 20.91700
H  -1.52500 9.63800 20.15400
H  -0.77800 10.32200 18.25400
H  0.64300 9.34000 18.56800
H  0.65600 11.14900 18.85700
H  2.44700 12.63200 23.49300
H  2.72300 13.11300 25.11800
H  1.13000 13.35800 24.23200
H  0.27300 10.93400 29.36700
H  3.51400 12.68200 31.42800
H  4.15600 11.03300 31.65900
H  3.00600 11.80600 32.81700

