158

Mg 45.56400 24.71400 29.04400
C  46.24100 27.16600 31.36000
C  44.62700 22.51900 31.39900
C  45.34300 22.32500 26.62700
C  46.75300 26.89200 26.48700
N  45.30700 24.85400 31.15400
C  45.78700 25.91400 31.91000
C  45.50300 25.63300 33.36500
C  45.07800 24.12300 33.36500
C  44.92500 23.81000 31.90600
C  46.13500 23.24500 34.03600
C  44.36700 26.52900 33.94700
C  44.77700 27.32200 35.25300
H  43.73100 27.42700 36.36200
N  44.80700 22.70600 29.03000
C  44.47200 22.00300 30.14200
C  43.98900 20.78900 29.67800
C  44.33800 20.60900 28.28800
C  44.83200 21.91600 27.87900
C  43.30500 19.86000 30.64700
C  44.22700 19.32100 27.33800
O  44.64300 19.27600 26.17100
C  43.71600 18.04500 27.90100
N  46.17600 24.56200 26.88400
C  45.91100 23.42700 26.12600
C  46.36600 23.63800 24.66600
C  46.49700 25.16000 24.57100
C  46.50200 25.60100 26.04800
C  47.69800 22.89600 24.34000
C  45.30400 25.72900 23.83600
C  43.93500 25.88800 24.55600
N  46.27700 26.60000 28.95700
C  46.73900 27.35500 27.85100
C  47.16200 28.67900 28.31000
C  46.97100 28.66500 29.68800
C  46.49900 27.37400 29.99200
C  47.66200 29.75200 27.43500
C  47.07000 29.40700 30.91600
O  47.50700 30.56900 31.03300
C  46.80700 28.44000 32.08800
C  48.01300 28.14500 32.90200
O  48.96700 27.47200 32.52100
O  47.85500 28.62600 34.16200
C  48.78800 28.20900 35.20200
H  44.36400 21.89300 32.25500
H  45.36800 21.53300 25.87500
H  46.76100 27.80000 25.88000
H  46.43400 25.80500 33.90600
H  44.07600 23.93900 33.75300
H  45.83400 22.19800 34.08100
H  46.14700 23.65400 35.04600
H  47.13500 23.10700 33.62400
H  43.40500 26.05600 34.14300
H  44.12700 27.28100 33.19500
H  45.13100 28.33100 35.03900
H  45.66700 26.85400 35.67500
H  42.36600 19.47700 30.24700
H  43.37400 20.12700 31.70100
H  43.90200 18.94900 30.68300
H  42.63600 18.17000 27.97500
H  44.23500 18.07400 28.85900
H  44.02100 17.20300 27.28000
H  45.66200 23.26300 23.92200
H  47.43500 25.46800 24.10900
H  47.59600 22.35400 23.40000
H  47.97600 22.20900 25.13900
H  48.54200 23.55400 24.13200
H  45.10100 25.25900 22.87400
H  45.48100 26.76200 23.54000
H  44.01600 26.90100 24.95000
H  43.73200 25.07300 25.25200
H  43.17000 25.94400 23.78300
H  48.00100 29.33700 26.48500
H  48.51900 30.18600 27.95000
H  46.93300 30.54800 27.28700
H  46.00900 28.77500 32.75100
H  49.72800 27.83700 34.79400
H  48.52800 27.37400 35.85300
H  49.06400 29.11000 35.75000
Mg 35.72000 49.59700 25.75800
C  35.30700 47.81100 28.73100
C  34.91800 52.41800 27.54500
C  35.90000 51.19300 22.85900
C  36.27500 46.52600 24.13900
N  35.01600 50.01000 27.88400
C  35.06900 49.15700 28.91800
C  34.90500 49.88800 30.28200
C  34.58900 51.31000 29.80700
C  34.88100 51.29000 28.32300
C  33.14000 51.98800 30.06100
C  36.26800 49.72300 31.00500
C  36.30800 49.58000 32.49400
H  35.07200 49.85100 33.36900
N  35.46300 51.51000 25.29300
C  35.16800 52.53400 26.12500
C  34.91700 53.75500 25.45600
C  35.21700 53.48500 24.09000
C  35.50500 51.96600 23.98800
C  34.75600 55.09700 26.21100
C  35.23000 54.55400 22.99500
O  35.64300 54.28300 21.84000
C  34.94100 56.07900 23.31200
N  35.88200 48.86400 23.69700
C  36.17000 49.80200 22.78300
C  36.55000 49.17100 21.45200
C  36.90500 47.71100 21.94700
C  36.36000 47.67600 23.35900
C  35.42300 49.27200 20.37200
C  38.41900 47.28700 21.80800
C  38.55100 45.87600 21.20200
N  35.72600 47.55000 26.26000
C  35.93000 46.46100 25.51900
C  35.99400 45.26200 26.35500
C  35.74800 45.75700 27.67100
C  35.59900 47.16900 27.56000
C  36.19600 43.81300 25.90000
C  35.59400 45.37000 29.00500
O  35.46500 44.23000 29.48800
C  35.42200 46.71600 29.79200
C  34.21100 46.47700 30.61100
O  33.07200 46.69600 30.25700
O  34.42000 45.83500 31.82600
C  33.40300 45.83700 32.86200
H  34.60500 53.30600 28.09800
H  35.99500 51.76700 21.93400
H  36.69000 45.60700 23.72200
H  34.11000 49.45000 30.88600
H  35.33600 51.97500 30.24200
H  33.24900 52.78200 30.80000
H  32.63200 51.17200 30.57400
H  32.68300 52.37200 29.14900
H  36.86300 50.59700 30.74000
H  36.76800 48.86700 30.55100
H  37.16300 50.18500 32.79500
H  36.48300 48.52000 32.67900
H  33.88200 55.74000 26.10800
H  35.65100 55.70900 26.10900
H  34.73400 54.97700 27.29400
H  35.17300 56.64000 22.40600
H  35.71200 56.31300 24.04600
H  33.94300 56.29700 23.69100
H  37.49100 49.58500 21.09000
H  36.16400 47.05300 21.49200
H  35.65500 48.84900 19.39400
H  35.25900 50.34000 20.23000
H  34.54800 48.66200 20.59500
H  39.00400 47.28900 22.72800
H  38.85600 48.00900 21.11900
H  38.63300 45.90700 20.11500
H  37.68000 45.25100 21.39900
H  39.26800 45.28000 21.76600
H  35.67800 43.51000 24.99000
H  35.78500 43.08300 26.59700
H  37.27800 43.69300 25.83900
H  36.34900 46.84000 30.35200
H  33.84000 46.28400 33.75500
H  33.06700 44.81400 33.03000
H  32.56800 46.50400 32.64600

