158

Mg 29.42600 58.22500 40.46800
C  26.42000 56.58400 39.84100
C  31.08400 55.38400 39.98500
C  32.19900 60.02100 40.68300
C  27.50900 61.17100 41.09400
N  28.79000 56.30200 39.84900
C  27.54500 55.82800 39.54300
C  27.68900 54.45900 38.92400
C  29.06100 53.99300 39.44600
C  29.73000 55.29600 39.84900
C  29.10600 52.95000 40.62500
C  27.41600 54.45200 37.38400
C  26.14800 53.74600 36.85900
H  25.62100 54.11200 35.45200
N  31.44200 57.70900 40.29300
C  31.91100 56.47600 40.10800
C  33.41700 56.53800 40.02900
C  33.73600 57.88400 40.23100
C  32.44500 58.64200 40.40000
C  34.31200 55.35500 39.57600
C  35.19000 58.40000 40.14700
O  36.11700 57.56000 40.01200
C  35.41100 59.80600 40.23500
N  29.83300 60.34300 40.72900
C  31.08100 60.79100 40.84600
C  31.09200 62.33300 41.01600
C  29.58900 62.64600 41.18800
C  28.88300 61.32100 40.97600
C  32.01600 62.83700 42.27200
C  28.92400 63.85800 40.50500
C  28.17900 64.86300 41.33900
N  27.36000 58.79400 40.70600
C  26.75000 60.00100 40.97400
C  25.26700 59.83900 41.05500
C  25.12900 58.52300 40.59800
C  26.37100 57.95500 40.35800
C  24.25600 60.85000 41.44900
C  24.14600 57.52400 40.25300
O  22.93500 57.51200 40.32600
C  24.92700 56.26300 39.72900
C  24.41000 55.14500 40.49500
O  24.56500 54.99300 41.69200
O  23.78400 54.25200 39.69600
C  23.81700 52.84700 40.06900
H  31.57700 54.44800 39.71500
H  33.00400 60.75100 40.79300
H  26.90700 62.06900 41.24700
H  27.03400 53.71800 39.38200
H  29.68600 53.70700 38.60100
H  28.37400 52.14500 40.57400
H  29.13700 53.57600 41.51700
H  30.06600 52.43500 40.57800
H  28.23700 53.87400 36.96200
H  27.38800 55.43500 36.91200
H  25.37400 53.86000 37.61700
H  26.38000 52.68100 36.84100
H  35.09300 55.67000 38.88400
H  33.67000 54.56400 39.18800
H  34.75700 54.85100 40.43400
H  34.75800 60.31300 39.52500
H  36.44800 59.92900 39.92200
H  35.33100 60.06500 41.29100
H  31.48400 62.68000 40.05900
H  29.50200 62.77300 42.26700
H  32.70400 62.00500 42.42800
H  31.44800 63.15500 43.14600
H  32.65300 63.64700 41.91800
H  28.31200 63.35800 39.75400
H  29.66700 64.40900 39.92900
H  28.34400 64.77200 42.41200
H  27.14300 64.57200 41.16300
H  28.40700 65.87600 41.00900
H  24.57300 61.47200 42.28600
H  23.22100 60.51100 41.49700
H  24.36900 61.65100 40.71900
H  24.58200 56.06600 38.71400
H  24.46500 52.70600 40.93400
H  24.15500 52.17400 39.28100
H  22.82100 52.63400 40.45600
Mg -3.27600 34.10200 26.55000
C  -4.33600 32.29800 29.38000
C  -1.97600 36.40400 28.67700
C  -3.00700 36.29100 23.89600
C  -5.07200 31.94000 24.44400
N  -3.20200 34.25300 28.77500
C  -3.46300 33.32600 29.75600
C  -3.01000 33.76400 31.13300
C  -2.26900 35.14500 30.84200
C  -2.48800 35.29500 29.32900
C  -2.50600 36.24500 31.86400
C  -2.19800 32.64600 31.86100
C  -2.72900 32.13600 33.22200
H  -1.80000 32.23500 34.40400
N  -2.40900 35.94800 26.34700
C  -1.81000 36.70700 27.32500
C  -1.11100 37.85200 26.72500
C  -1.43300 37.78200 25.32600
C  -2.35700 36.65200 25.11600
C  -0.26700 38.85200 27.54900
C  -0.86200 38.60800 24.20900
O  -1.05200 38.23700 23.05000
C  -0.09100 39.86700 24.48900
N  -4.00200 34.18100 24.43500
C  -3.77200 35.19800 23.62800
C  -4.11000 34.81100 22.16400
C  -4.63700 33.33100 22.32700
C  -4.52600 33.08000 23.80400
C  -5.21500 35.75900 21.74500
C  -3.74500 32.33500 21.53400
C  -2.35700 32.01500 22.09600
N  -4.40500 32.44100 26.79700
C  -5.06300 31.66900 25.84100
C  -5.92300 30.73500 26.54100
C  -5.58700 30.93300 27.89800
C  -4.68600 31.96700 27.99900
C  -6.97000 29.76000 25.97800
C  -5.95500 30.45500 29.23300
O  -6.67600 29.56800 29.62000
C  -4.98300 31.31000 30.22600
C  -5.93900 31.94900 31.10300
O  -6.53500 33.02100 30.89000
O  -5.99200 31.29100 32.27600
C  -6.52000 32.02900 33.43800
H  -1.46700 37.07500 29.37200
H  -2.88900 36.95600 23.03800
H  -5.77300 31.40300 23.80100
H  -3.90900 33.96300 31.71700
H  -1.21800 34.87000 30.94000
H  -1.53300 36.47700 32.29900
H  -3.24000 35.98400 32.62600
H  -2.88900 37.20200 31.50700
H  -1.16900 32.98900 31.96900
H  -2.13000 31.70700 31.31100
H  -2.81300 31.08700 32.93700
H  -3.65200 32.63800 33.51200
H  -0.30200 38.52900 28.58900
H  -0.81000 39.79600 27.52300
H  0.77000 38.87900 27.21200
H  -0.69200 40.49800 25.14300
H  0.10100 40.34000 23.52600
H  0.88500 39.61400 24.90500
H  -3.14200 34.91900 21.67300
H  -5.67400 33.20600 22.01500
H  -4.89700 36.28200 20.84300
H  -5.46400 36.42800 22.56800
H  -6.09400 35.12500 21.62300
H  -3.63100 32.84200 20.57600
H  -4.24100 31.40400 21.25900
H  -2.03500 32.67400 22.90300
H  -1.65900 32.05100 21.26000
H  -2.32700 30.96700 22.39500
H  -7.65700 29.26400 26.66400
H  -6.38300 29.08600 25.35400
H  -7.55000 30.27300 25.21100
H  -4.25900 30.78800 30.85200
H  -6.00800 32.97700 33.59800
H  -6.45400 31.39300 34.32100
H  -7.58000 32.16600 33.22300

