158

Mg 34.83300 2.14100 29.30400
C  32.62900 3.13100 31.82100
C  37.35900 2.14800 31.56600
C  36.92100 1.77300 26.80900
C  32.18000 2.67100 26.93900
N  34.98200 2.81200 31.40800
C  33.94500 3.05700 32.26400
C  34.45100 3.26100 33.72700
C  36.01600 3.07700 33.59700
C  36.16500 2.60800 32.09100
C  36.84800 4.34300 33.93700
C  33.76300 2.29900 34.76200
C  33.78100 2.68500 36.26800
H  34.49100 3.98600 36.74700
N  36.82500 1.84400 29.21300
C  37.71800 1.84800 30.23100
C  39.06400 1.45900 29.81200
C  38.95200 1.21200 28.42100
C  37.55600 1.59800 28.07100
C  40.17600 1.25400 30.78700
C  39.91000 0.60300 27.47300
O  39.70600 0.55600 26.24900
C  41.17900 0.00000 27.90700
N  34.62200 2.26800 27.20900
C  35.66900 1.93800 26.39100
C  35.22900 1.79000 24.88600
C  33.71400 1.76200 24.96600
C  33.45700 2.27200 26.49500
C  35.92500 2.77600 23.89400
C  32.96300 0.43600 24.82700
C  31.51000 0.60100 24.29400
N  32.76900 2.72200 29.27900
C  31.80200 2.90800 28.28300
C  30.55900 3.21400 28.88100
C  30.82900 3.22000 30.26300
C  32.18400 2.99000 30.43700
C  29.28100 3.55500 28.21400
C  30.15700 3.48400 31.60400
O  28.96800 3.69100 31.86600
C  31.34600 3.40300 32.70700
C  31.46600 4.75600 33.26300
O  32.03000 5.73600 32.75900
O  30.78000 4.85200 34.50400
C  30.94300 6.02800 35.25900
H  38.14900 1.98200 32.30100
H  37.51700 1.57000 25.91700
H  31.35700 2.58800 26.22600
H  34.21400 4.29400 33.98200
H  36.36000 2.27900 34.25400
H  37.80300 4.21600 34.44700
H  36.20800 5.13400 34.32800
H  37.17400 4.77300 32.99100
H  34.29300 1.34700 34.71900
H  32.72300 2.08600 34.51400
H  34.06100 1.83800 36.89400
H  32.74400 2.75700 36.59600
H  41.12200 1.44900 30.28200
H  40.09100 0.30800 31.32100
H  40.09000 1.94300 31.62700
H  41.93700 0.76000 28.09500
H  41.44900 -0.69300 27.11100
H  40.97500 -0.38800 28.90500
H  35.50800 0.78500 24.57100
H  33.36100 2.58100 24.33900
H  36.54700 2.15500 23.24900
H  36.55800 3.42300 24.50000
H  35.20000 3.24000 23.22500
H  32.89700 0.00100 25.82400
H  33.64100 -0.13400 24.19100
H  31.22400 -0.10700 23.51600
H  31.42200 1.60100 23.86900
H  30.88300 0.50600 25.18100
H  29.24100 2.84200 27.39100
H  29.25300 4.51800 27.70500
H  28.37600 3.41800 28.80500
H  31.03500 2.62900 33.40900
H  31.90300 6.52100 35.10400
H  30.71400 5.78800 36.29700
H  30.16800 6.66400 34.83100
Mg 9.79300 47.61600 26.29600
C  7.89600 47.79700 29.21700
C  12.39400 49.18200 27.88000
C  11.61800 47.45700 23.58200
C  6.95500 46.44800 24.58500
N  10.00300 48.49200 28.28500
C  9.18300 48.34800 29.38100
C  9.86800 48.97700 30.66200
C  11.03800 49.80700 29.98300
C  11.20900 49.08400 28.65800
C  10.74500 51.32500 29.76800
C  10.30300 47.91100 31.66600
C  9.54700 47.97900 32.98900
H  9.82000 46.72200 33.86200
N  11.81500 48.19600 25.81100
C  12.68900 48.78600 26.59000
C  13.94500 48.83500 25.93500
C  13.76000 48.31600 24.61500
C  12.36200 47.95800 24.65700
C  15.29200 49.31500 26.65700
C  14.72200 48.20700 23.46300
O  14.52200 47.57800 22.41600
C  16.07200 48.84700 23.67800
N  9.35000 47.17800 24.38500
C  10.31200 47.07700 23.39700
C  9.75300 46.68700 22.02600
C  8.36600 46.14100 22.49100
C  8.21100 46.67500 23.89700
C  9.80700 47.82700 21.00600
C  8.06300 44.66400 22.31300
C  9.02800 43.55400 22.92700
N  7.78600 47.28700 26.79000
C  6.74900 46.85500 25.93600
C  5.55100 46.98000 26.74200
C  5.98900 47.24800 28.05100
C  7.33100 47.37400 28.00300
C  4.22100 46.82100 26.11800
C  5.57700 47.41400 29.42300
O  4.43700 47.34200 29.94400
C  6.81600 47.68100 30.22600
C  6.91400 46.40800 31.06500
O  7.37000 45.39800 30.65800
O  6.37200 46.61500 32.28000
C  6.61600 45.54200 33.27800
H  13.14100 49.79700 28.38600
H  12.17900 47.40900 22.64700
H  6.01200 46.13700 24.13100
H  9.23900 49.77500 31.05900
H  11.79000 49.75900 30.77000
H  11.59100 51.76700 29.24200
H  10.67100 51.67300 30.79800
H  9.75600 51.51700 29.35100
H  11.33400 48.13200 31.94400
H  10.31000 46.91700 31.22000
H  8.47600 48.18100 32.96300
H  10.05200 48.79900 33.49700
H  15.11700 49.19600 27.72600
H  15.38000 50.36300 26.37000
H  16.17400 48.73100 26.39500
H  16.63800 48.11100 24.24900
H  15.92300 49.84200 24.09800
H  16.42200 49.07600 22.67200
H  10.29200 45.82000 21.64300
H  7.66400 46.72300 21.89500
H  10.37700 48.65600 21.42500
H  8.80100 48.18200 20.78200
H  10.25600 47.47100 20.07800
H  8.08800 44.50000 21.23600
H  7.08400 44.33600 22.66100
H  10.08700 43.70400 22.71700
H  8.74900 42.60800 22.46200
H  8.86200 43.53200 24.00400
H  3.56700 46.73000 26.98500
H  4.01500 45.90100 25.57100
H  4.03800 47.73400 25.55000
H  6.74500 48.52600 30.91100
H  7.25000 45.84300 34.11100
H  6.91500 44.54700 32.94800
H  5.70300 45.34000 33.83900

