158

Mg 0.21800 44.11000 26.08200
C  2.24300 44.30700 28.91900
C  -2.55400 43.60200 28.35200
C  -1.76200 43.26100 23.44800
C  2.90500 44.08000 24.10200
N  -0.05400 44.05000 28.33100
C  0.90000 44.12400 29.25600
C  0.32700 44.03700 30.63600
C  -1.13900 43.64600 30.50400
C  -1.30200 43.83700 28.98700
C  -1.47200 42.18600 31.00200
C  0.59100 45.28700 31.55600
C  0.83200 45.11500 33.08900
H  0.46500 43.83100 33.84300
N  -1.83100 43.68800 25.90600
C  -2.83400 43.59200 26.95300
C  -4.15700 43.48200 26.39100
C  -3.90900 43.37200 24.95200
C  -2.47100 43.42000 24.68300
C  -5.45300 43.40700 27.26100
C  -5.02800 43.31900 23.89400
O  -4.75900 43.46600 22.69200
C  -6.46100 43.07000 24.34200
N  0.54800 43.50700 24.10100
C  -0.43300 43.35600 23.12200
C  0.14600 43.31700 21.75800
C  1.49000 44.01600 21.99300
C  1.69600 43.84100 23.51600
C  0.15300 41.90600 21.26800
C  1.52000 45.51900 21.53200
C  2.51600 45.88000 20.47100
N  2.27700 44.19600 26.37800
C  3.24300 44.17400 25.45600
C  4.52000 44.39400 26.13700
C  4.20300 44.50500 27.49900
C  2.80200 44.22900 27.63300
C  5.85900 44.54300 25.42000
C  4.71300 44.64500 28.86600
O  5.86200 44.77300 29.25100
C  3.43200 44.48600 29.87000
C  3.72500 43.26700 30.68300
O  3.81300 42.13600 30.18100
O  4.10000 43.64500 31.95400
C  4.82800 42.52000 32.63900
H  -3.37700 43.41900 29.04600
H  -2.43500 42.99200 22.63100
H  3.73500 44.32000 23.43400
H  0.77600 43.18000 31.13900
H  -1.77500 44.40300 30.96200
H  -2.32000 42.33200 31.67100
H  -0.65900 41.76400 31.59300
H  -1.62800 41.54000 30.13900
H  -0.34000 45.85200 31.50700
H  1.32400 45.99000 31.15900
H  0.27000 45.82300 33.69800
H  1.89400 45.17000 33.32700
H  -6.05300 44.30000 27.08900
H  -5.29000 43.33400 28.33700
H  -5.97400 42.47600 27.03700
H  -6.70600 42.04800 24.63100
H  -7.10800 43.16300 23.47000
H  -6.88500 43.68300 25.13800
H  -0.48800 43.83500 21.03900
H  2.32500 43.54800 21.47100
H  -0.10600 41.11300 21.97000
H  1.18600 41.63100 21.05400
H  -0.41600 41.87400 20.33900
H  1.87500 46.14400 22.35200
H  0.55000 45.99600 21.39200
H  2.02800 46.51600 19.73300
H  2.82700 45.03800 19.85200
H  3.31800 46.48700 20.89100
H  6.57700 45.22300 25.87900
H  5.65600 44.94800 24.42900
H  6.26400 43.53400 25.35100
H  3.32400 45.39200 30.46700
H  5.78500 42.26400 32.18500
H  4.18100 41.64600 32.71600
H  5.05600 42.80200 33.66700
Mg -1.99200 34.99300 26.73400
C  -3.99200 33.57400 29.03600
C  -1.07800 37.39200 28.96700
C  -0.23000 36.49400 24.30500
C  -3.16100 32.67800 24.41700
N  -2.47700 35.39400 28.75800
C  -3.23400 34.63600 29.54600
C  -3.30700 35.07900 31.04600
C  -2.52300 36.43800 30.91400
C  -2.01900 36.47400 29.43700
C  -3.36000 37.71800 31.45600
C  -2.60100 33.98300 31.92800
C  -3.35200 33.16000 32.92500
H  -2.82300 32.93400 34.34200
N  -0.77700 36.79000 26.62300
C  -0.53100 37.59400 27.71400
C  0.35600 38.57200 27.23200
C  0.63500 38.35900 25.84600
C  -0.13000 37.17600 25.58400
C  0.90600 39.77800 28.07400
C  1.38800 39.07200 24.74000
O  1.39700 38.74200 23.54600
C  2.18500 40.19800 25.12500
N  -1.85400 34.75000 24.56300
C  -0.91800 35.31800 23.91000
C  -0.66500 34.64900 22.57400
C  -1.59100 33.41300 22.60800
C  -2.23200 33.57100 23.98100
C  -0.94600 35.55400 21.33600
C  -0.79300 32.08600 22.50400
C  0.59300 31.94000 23.22500
N  -3.38500 33.49800 26.60000
C  -3.72500 32.59300 25.68200
C  -4.62700 31.61900 26.17100
C  -4.78700 31.95000 27.53200
C  -4.04300 33.12800 27.72700
C  -5.24300 30.54200 25.36600
C  -5.40700 31.53500 28.78400
O  -6.17200 30.62700 29.12900
C  -4.92200 32.60700 29.80600
C  -6.10200 33.35900 30.36900
O  -6.74000 34.31900 29.85400
O  -6.36200 32.89500 31.60500
C  -7.23600 33.67000 32.45200
H  -0.80900 38.17900 29.67500
H  0.27000 36.80900 23.38700
H  -3.35400 31.87900 23.69800
H  -4.33600 35.20800 31.38000
H  -1.60000 36.52200 31.48800
H  -4.39500 37.46600 31.68300
H  -3.39400 38.49600 30.69400
H  -2.81700 38.08600 32.32700
H  -1.80800 34.53000 32.43900
H  -2.06800 33.29900 31.26800
H  -3.52200 32.16400 32.51700
H  -4.32300 33.63100 33.08100
H  1.99300 39.75300 28.15700
H  0.41700 39.97400 29.02900
H  0.76500 40.70000 27.51000
H  2.98900 40.23300 24.39000
H  2.74200 40.03000 26.04700
H  1.58500 41.10700 25.16500
H  0.38200 34.35800 22.49100
H  -2.32300 33.55600 21.81300
H  -1.42000 35.00200 20.52400
H  -0.00200 35.76600 20.83400
H  -1.37300 36.51100 21.63600
H  -0.67400 31.91400 21.43400
H  -1.47000 31.28800 22.80700
H  0.55800 32.57400 24.11100
H  1.44600 32.12500 22.57200
H  0.57200 30.89700 23.54300
H  -4.44300 29.84800 25.10900
H  -5.75300 30.92800 24.48300
H  -6.00500 30.22000 26.07600
H  -4.44800 31.99200 30.57100
H  -8.27900 33.85500 32.19300
H  -6.81200 34.66800 32.55700
H  -7.09600 33.21000 33.43000

