158

Mg 35.28000 3.17800 29.43900
C  33.16100 4.13900 32.14000
C  37.85300 2.73900 31.64000
C  37.15200 2.00200 26.89700
C  32.68000 3.92200 27.18800
N  35.49900 3.51600 31.61100
C  34.52000 3.88800 32.54200
C  35.07500 3.85800 33.94400
C  36.64900 3.75800 33.67900
C  36.68200 3.30100 32.18200
C  37.47500 5.05100 33.91500
C  34.46100 2.81500 34.91100
C  34.17600 3.29600 36.30400
H  35.05700 4.39100 36.87100
N  37.22700 2.35700 29.29100
C  38.09900 2.23900 30.31700
C  39.34500 1.59400 29.83400
C  39.09100 1.26000 28.44500
C  37.70400 1.80900 28.15600
C  40.51100 1.16800 30.66200
C  39.96000 0.41300 27.47700
O  39.61100 0.22400 26.35600
C  41.35700 -0.23700 27.88400
N  35.02000 3.06500 27.45400
C  35.94500 2.64000 26.58300
C  35.46200 2.61600 25.13800
C  33.94000 2.88300 25.29300
C  33.86000 3.38800 26.67600
C  36.24800 3.68900 24.37300
C  32.84400 1.84600 24.97500
C  31.64500 2.39100 24.23700
N  33.37600 3.89700 29.57700
C  32.37600 4.03300 28.55300
C  31.15900 4.43000 29.13000
C  31.43600 4.46300 30.52900
C  32.80800 4.13400 30.73700
C  29.87500 4.66300 28.41400
C  30.83600 4.75800 31.79700
O  29.68200 5.11700 32.12000
C  31.92600 4.39000 32.94200
C  31.97100 5.62700 33.88000
O  32.46800 6.71700 33.68600
O  31.31200 5.40300 35.04500
C  31.23000 6.57400 35.98800
H  38.63500 2.54900 32.37700
H  37.62500 1.62400 25.98900
H  31.86400 4.00000 26.46700
H  34.77200 4.85000 34.28100
H  37.07800 3.03500 34.37300
H  36.80700 5.90400 34.03500
H  38.01000 5.25800 32.98800
H  38.14500 4.97600 34.77100
H  35.09800 1.93300 34.84500
H  33.51500 2.53000 34.45100
H  34.11100 2.51000 37.05800
H  33.18000 3.73000 36.39600
H  40.59200 0.08300 30.72200
H  40.37000 1.66500 31.62200
H  41.42100 1.45700 30.13700
H  42.08800 0.56000 28.01800
H  41.47400 -0.84400 26.98600
H  41.09500 -0.77100 28.79700
H  35.61200 1.64200 24.67300
H  33.73400 3.71400 24.61900
H  37.15600 3.96600 24.90900
H  35.73500 4.65100 24.36100
H  36.45300 3.21800 23.41200
H  32.57400 1.36900 25.91700
H  33.25700 1.07100 24.32900
H  30.76600 1.99900 24.75000
H  31.67100 1.94400 23.24300
H  31.58000 3.46800 24.08200
H  29.75800 4.01500 27.54500
H  29.73600 5.68100 28.05200
H  29.01100 4.34100 28.99500
H  31.52200 3.49300 33.41300
H  30.64600 7.34000 35.47700
H  32.17800 6.77100 36.48800
H  30.47000 6.31800 36.72600
Mg 47.76600 25.04300 28.44100
C  49.01300 27.21300 30.99200
C  46.96500 22.83500 30.81600
C  47.65400 22.86000 26.09500
C  49.04700 27.51900 26.12800
N  47.88200 25.16200 30.63100
C  48.21400 26.19000 31.47300
C  47.90000 25.88700 32.89800
C  47.44500 24.37700 32.79000
C  47.39400 24.06500 31.33300
C  48.21400 23.45300 33.73800
C  46.99800 27.02400 33.55000
C  46.09500 26.72100 34.74700
H  46.04500 27.74800 35.90900
N  47.32100 23.07800 28.44000
C  46.95900 22.31300 29.53600
C  46.54800 20.97600 29.19900
C  46.86200 20.93400 27.80000
C  47.28600 22.28600 27.37300
C  45.98000 19.87800 30.12200
C  46.77100 19.73000 26.81900
O  47.17100 19.87100 25.65300
C  46.20200 18.33300 27.35100
N  48.24700 25.13200 26.38900
C  48.08700 24.09300 25.62000
C  48.31900 24.47200 24.13500
C  48.49800 25.98500 24.15300
C  48.55500 26.26900 25.63000
C  49.66500 23.78400 23.57500
C  47.33900 26.76600 23.30700
C  47.74200 27.35100 22.00200
N  48.81500 26.98300 28.49000
C  49.19700 27.85800 27.50600
C  49.96300 28.96700 28.05200
C  49.86600 28.85900 29.41700
C  49.23600 27.54300 29.61700
C  50.43400 30.12100 27.22600
C  50.07100 29.47700 30.77400
O  50.68500 30.47800 31.14300
C  49.47400 28.42700 31.78900
C  50.54400 28.17100 32.75100
O  51.42600 27.38500 32.48000
O  50.30600 28.72700 34.00400
C  51.27700 28.33000 35.05400
H  46.63800 22.12500 31.57900
H  47.56500 22.17500 25.24900
H  49.33800 28.30200 25.42600
H  48.86100 26.05700 33.38300
H  46.39300 24.42500 33.07000
H  48.93500 23.98700 34.35600
H  48.76700 22.69200 33.18700
H  47.47600 22.94100 34.35600
H  46.27200 27.16200 32.74800
H  47.66500 27.84900 33.80100
H  46.43500 25.73600 35.06900
H  45.08100 26.50200 34.41000
H  44.98400 19.67800 29.72700
H  45.83200 20.34200 31.09700
H  46.58600 18.97500 30.19300
H  45.26500 18.42700 27.89900
H  46.97600 18.03700 28.05900
H  46.13300 17.62100 26.52900
H  47.52100 24.04700 23.52600
H  49.48100 26.25400 23.76500
H  50.53200 24.44200 23.63200
H  49.64400 23.46500 22.53300
H  49.85900 22.91800 24.20700
H  47.11900 27.62600 23.93900
H  46.44800 26.13900 23.31900
H  47.13100 26.95600 21.19100
H  48.75200 27.05700 21.71600
H  47.69400 28.43900 21.97100
H  50.83600 29.77000 26.27500
H  51.09500 30.77400 27.79500
H  49.62900 30.83300 27.04600
H  48.65000 28.95300 32.27100
H  52.26100 28.79800 35.07100
H  51.37400 27.24900 34.95800
H  50.88700 28.73400 35.98900

