158

Mg 40.43200 8.53900 30.20400
C  42.21500 9.87700 32.89200
C  37.93600 7.54500 32.48400
C  38.70600 7.28300 27.61500
C  43.01500 9.18600 28.10900
N  40.17400 8.70200 32.40800
C  40.96200 9.34000 33.26400
C  40.22400 9.43600 34.63600
C  38.93500 8.59900 34.50500
C  38.97300 8.31200 33.03100
C  38.84400 7.43100 35.46800
C  40.02900 10.89900 35.14700
C  39.55400 11.08300 36.59100
H  40.26600 11.84800 37.64000
N  38.61700 7.46900 30.07900
C  37.72800 7.22500 31.07100
C  36.55300 6.50000 30.56700
C  36.84100 6.39700 29.10800
C  38.11900 7.07400 28.87300
C  35.40400 6.00100 31.41500
C  35.93900 5.72900 28.03300
O  36.27100 5.67300 26.82700
C  34.69800 4.99900 28.37300
N  40.84600 8.11800 28.18700
C  39.91500 7.74800 27.32600
C  40.50100 7.74000 25.92000
C  41.72300 8.71600 25.97300
C  41.84100 8.74200 27.50300
C  40.91200 6.32500 25.41000
C  41.60600 10.04000 25.22600
C  41.00300 11.27700 25.98000
N  42.35400 9.18900 30.42300
C  43.30400 9.46000 29.47300
C  44.49400 10.03600 30.18800
C  44.05600 10.29800 31.51400
C  42.75900 9.74600 31.61500
C  45.80400 10.34800 29.49600
C  44.47400 10.95300 32.70600
O  45.53400 11.55000 32.91700
C  43.30400 10.66400 33.69600
C  43.90800 10.01000 34.88900
O  44.54600 8.96000 34.85900
O  43.75200 10.79600 35.99500
C  44.48600 10.37400 37.19500
H  37.05800 7.35200 33.10400
H  38.10800 7.00300 26.74600
H  43.77800 9.53900 27.41200
H  40.89500 9.01200 35.38300
H  38.20000 9.32400 34.85700
H  38.65300 6.47600 34.97800
H  38.02900 7.71400 36.13500
H  39.69500 7.42500 36.14900
H  39.27300 11.25300 34.44600
H  40.94100 11.49000 35.06400
H  39.34100 10.07100 36.93700
H  38.56300 11.53000 36.66900
H  34.46500 6.55100 31.46500
H  35.65700 5.76700 32.44900
H  35.12500 5.02200 31.02400
H  34.25700 4.70700 27.42000
H  33.87100 5.63200 28.69700
H  34.87200 4.16500 29.05200
H  39.74100 8.10700 25.22900
H  42.65600 8.29600 25.59800
H  40.14100 5.62900 25.74200
H  41.92000 6.07800 25.74200
H  41.01000 6.30200 24.32500
H  40.99100 9.86500 24.34300
H  42.61100 10.38900 24.98900
H  40.07800 11.38400 25.41400
H  41.65800 12.14400 25.89700
H  40.83300 10.96300 27.00900
H  45.71100 11.36000 29.10200
H  45.92900 9.62400 28.69100
H  46.53000 10.23000 30.30100
H  42.88800 11.64300 33.93300
H  44.16200 9.38100 37.50700
H  44.31400 11.02100 38.05500
H  45.54800 10.21500 37.01000
Mg -10.92100 16.19100 42.80600
C  -7.37600 16.88900 42.50100
C  -11.24800 19.60100 42.53800
C  -14.01800 15.60600 42.49900
C  -10.11200 12.78700 42.78100
N  -9.40400 18.01300 42.46300
C  -8.10300 18.03500 42.37900
C  -7.49400 19.42100 42.25100
C  -8.74900 20.22200 42.37300
C  -9.84800 19.22600 42.53500
C  -8.92000 21.30100 43.53300
C  -6.73300 19.50900 40.85600
C  -5.19100 19.93200 40.84800
H  -4.32500 19.08800 39.94200
N  -12.53200 17.40100 42.51600
C  -12.40500 18.78300 42.47600
C  -13.74300 19.26500 42.25100
C  -14.69900 18.27900 42.13100
C  -13.80300 17.03000 42.41400
C  -14.04400 20.76300 41.94700
C  -16.12400 18.35800 41.94500
O  -16.73500 19.40100 41.77200
C  -16.95000 17.09000 42.00300
N  -11.85800 14.47800 42.46200
C  -13.23100 14.49500 42.52800
C  -13.81800 13.09100 42.90700
C  -12.62600 12.21300 42.56400
C  -11.43600 13.19700 42.60300
C  -14.46800 12.73800 44.26900
C  -12.76300 11.30600 41.27200
C  -12.84200 9.75900 41.48000
N  -9.09200 14.94100 42.74300
C  -8.91800 13.57000 42.89700
C  -7.55200 13.24100 43.17400
C  -6.87400 14.55100 42.94000
C  -7.88500 15.53900 42.73300
C  -6.89500 11.90100 43.36400
C  -5.59600 15.19300 42.99000
O  -4.49000 14.72700 43.10900
C  -5.83400 16.74300 42.78400
C  -5.50900 17.26500 44.11600
O  -5.70000 16.78100 45.21200
O  -4.65200 18.36500 43.97400
C  -4.18400 19.18100 45.14200
H  -11.33600 20.68900 42.50000
H  -15.06700 15.33300 42.36600
H  -9.96700 11.71300 42.91300
H  -6.84500 19.63300 43.10100
H  -9.03500 20.67500 41.42400
H  -9.56100 20.97800 44.35300
H  -9.27300 22.25200 43.13500
H  -7.90500 21.43700 43.90600
H  -7.28900 20.19700 40.22000
H  -6.95100 18.54800 40.38900
H  -4.79000 19.80500 41.85400
H  -5.14200 20.98900 40.58500
H  -14.75700 21.08500 42.70600
H  -14.38900 20.99500 40.93900
H  -13.22200 21.47000 42.06000
H  -17.95000 17.30200 41.62400
H  -17.03800 16.79300 43.04800
H  -16.39600 16.42900 41.33600
H  -14.62600 12.90700 42.19900
H  -12.29400 11.60500 43.40600
H  -15.54900 12.65700 44.15200
H  -14.49000 13.63300 44.89000
H  -14.03600 11.88800 44.79900
H  -11.95900 11.45500 40.55200
H  -13.66000 11.52900 40.69300
H  -13.68600 9.34500 40.92900
H  -12.84400 9.49000 42.53600
H  -12.01100 9.22100 41.02400
H  -5.96400 11.85200 42.80000
H  -7.44400 11.02200 43.02500
H  -6.85300 11.76400 44.44500
H  -5.19800 17.12300 41.98400
H  -3.42300 18.70600 45.75900
H  -5.00200 19.48300 45.79600
H  -3.84900 20.09800 44.65600

