158

Mg 42.03100 40.92100 26.76100
C  40.85600 43.10700 29.14200
C  43.33400 38.97500 29.26600
C  42.85600 38.59100 24.43800
C  41.37300 43.25900 24.36500
N  41.84400 40.95300 28.95400
C  41.36000 41.89600 29.71700
C  41.56900 41.60400 31.22500
C  42.57100 40.38600 31.25500
C  42.56700 40.10600 29.70300
C  43.99100 40.70400 31.80900
C  40.27100 41.26800 31.93000
C  39.80000 42.22700 33.00600
H  39.43200 41.69600 34.38600
N  42.91200 38.99300 26.91700
C  43.33500 38.40000 28.03300
C  43.86400 37.08800 27.67700
C  43.65600 36.84500 26.26500
C  43.11200 38.16300 25.73700
C  44.49000 36.21400 28.70000
C  43.86900 35.62900 25.46500
O  43.61300 35.58200 24.29000
C  44.34400 34.36600 26.17500
N  42.27000 40.99700 24.74900
C  42.50500 39.86300 24.00900
C  42.48300 40.18700 22.52500
C  41.89500 41.62700 22.41500
C  41.75100 42.02900 23.92200
C  43.84900 39.99800 21.86400
C  40.53400 41.82800 21.71900
C  40.50300 43.05100 20.78100
N  41.23300 42.83200 26.67900
C  41.12100 43.67100 25.67800
C  40.51500 44.91100 26.14100
C  40.38000 44.75600 27.52000
C  40.82600 43.46400 27.75700
C  40.13900 46.06300 25.29800
C  40.01700 45.33000 28.74300
O  39.37600 46.32800 28.98800
C  40.30800 44.32500 29.87200
C  41.27000 45.06400 30.73000
O  42.46400 45.31800 30.44000
O  40.63100 45.46000 31.84100
C  41.48200 46.16400 32.82200
H  43.84000 38.43000 30.06600
H  43.10100 37.92700 23.60700
H  41.09900 44.10000 23.72500
H  41.99200 42.47100 31.73200
H  42.22200 39.48600 31.76200
H  44.68800 40.48800 31.00000
H  44.15500 40.01300 32.63500
H  44.02000 41.74500 32.13200
H  40.34600 40.25600 32.32600
H  39.46900 41.32200 31.19400
H  38.82700 42.54900 32.63400
H  40.39400 43.13200 33.12700
H  44.02600 35.23100 28.77600
H  44.45700 36.56100 29.73300
H  45.54200 36.06800 28.45200
H  44.40600 33.52600 25.48300
H  43.63200 34.08100 26.95000
H  45.33000 34.52000 26.61300
H  41.79100 39.53800 21.98800
H  42.67600 42.19100 21.90400
H  44.15300 40.79200 21.18200
H  43.64600 39.08800 21.30000
H  44.58700 39.69700 22.60800
H  39.74500 41.83500 22.47100
H  40.28300 40.95700 21.11500
H  41.43400 43.13700 20.22200
H  40.28200 44.03700 21.19200
H  39.70600 42.82400 20.07300
H  39.08300 45.95500 25.05100
H  40.86500 46.13400 24.48700
H  40.37400 46.90400 25.95100
H  39.38900 44.13500 30.42600
H  41.75800 45.39700 33.54500
H  40.83800 46.90800 33.29200
H  42.40900 46.53200 32.38400
Mg 16.52900 51.18000 25.92100
C  18.55000 49.63000 28.47000
C  14.20300 51.80400 28.14800
C  14.56500 52.39000 23.27100
C  18.78300 49.87500 23.56400
N  16.42300 50.63700 28.09100
C  17.37100 50.24900 28.94700
C  16.97600 50.53000 30.38600
C  15.46900 50.93800 30.27800
C  15.37900 51.18100 28.73900
C  14.37200 50.00800 30.82400
C  17.93100 51.59000 30.97100
C  17.71200 52.07000 32.42100
H  16.68900 51.32800 33.35000
N  14.70500 51.95800 25.72400
C  13.91300 52.17300 26.80600
C  12.76400 52.94200 26.38900
C  12.75800 53.04000 24.92300
C  14.05900 52.42500 24.59900
C  11.76100 53.38600 27.38300
C  11.78300 53.79000 24.06000
O  11.86300 53.74400 22.82500
C  10.61200 54.53400 24.61100
N  16.69900 51.12100 23.72200
C  15.87200 51.83000 22.92100
C  16.40600 51.77800 21.38500
C  17.76200 51.05100 21.48000
C  17.72800 50.62600 22.97400
C  15.41300 51.33700 20.23700
C  18.93800 51.97000 21.05800
C  19.42600 53.07700 21.99200
N  18.31700 50.05800 25.98800
C  19.15500 49.68200 24.90900
C  20.33300 49.11000 25.46000
C  20.18500 49.04000 26.85600
C  18.91700 49.57400 27.12900
C  21.47400 48.64100 24.67700
C  20.76600 48.59200 28.06800
O  21.75100 47.96600 28.29800
C  19.65600 48.94200 29.13400
C  19.16500 47.90100 30.05900
O  18.59300 46.84900 29.73700
O  19.54600 48.29100 31.35200
C  19.21000 47.47200 32.44400
H  13.52200 51.91500 28.99500
H  14.05200 52.74000 22.37300
H  19.52500 49.49500 22.85900
H  17.20400 49.64100 30.97400
H  15.28900 51.80700 30.91200
H  14.35200 49.10300 30.21700
H  13.40400 50.47900 30.65300
H  14.41500 49.76400 31.88500
H  17.80500 52.47200 30.34400
H  18.92800 51.14900 30.94800
H  17.49800 53.13500 32.32500
H  18.63500 51.96900 32.99200
H  11.89600 53.05400 28.41200
H  10.74400 53.15500 27.06500
H  11.75800 54.46900 27.50300
H  10.95600 55.13100 25.45500
H  10.08500 53.62100 24.88700
H  10.13400 55.14500 23.84400
H  16.58300 52.84500 21.24900
H  17.83700 50.10800 20.93700
H  15.11500 52.13200 19.55300
H  14.50600 50.97700 20.72200
H  15.71000 50.53200 19.56400
H  18.54800 52.59600 20.25500
H  19.74600 51.28700 20.79600
H  18.73500 53.14500 22.83200
H  19.66100 54.05300 21.56600
H  20.37600 52.75500 22.41800
H  21.85700 49.36000 23.95200
H  21.02100 47.79700 24.15600
H  22.24800 48.20400 25.30700
H  20.08400 49.80300 29.64700
H  19.14100 48.02700 33.38000
H  19.97200 46.72900 32.68100
H  18.31200 46.86900 32.30700

