158

Mg 25.05800 1.24200 30.13800
C  27.46900 1.14300 32.79200
C  22.63400 1.00000 32.49000
C  22.93600 1.15000 27.49500
C  27.78400 0.73100 27.91000
N  25.07100 1.10000 32.41300
C  26.19800 1.21300 33.29300
C  25.69000 1.40800 34.74700
C  24.12900 1.32900 34.66500
C  23.91500 1.09700 33.11100
C  23.40000 0.34100 35.59100
C  26.22000 2.64800 35.55700
C  26.39100 2.53200 37.11500
H  25.69000 3.62800 37.91300
N  23.13800 1.05500 30.03200
C  22.24500 1.01700 31.12300
C  20.85100 0.92600 30.61400
C  20.91300 0.98200 29.15800
C  22.37700 1.05500 28.82900
C  19.76100 0.80800 31.56500
C  19.78300 0.79900 28.26200
O  19.93600 0.68800 27.06900
C  18.35600 0.56000 28.77100
N  25.31200 0.75100 27.99300
C  24.27600 1.13100 27.11100
C  24.83600 1.36700 25.69900
C  26.34400 0.92800 25.85600
C  26.51300 0.84000 27.36800
C  24.12400 0.63000 24.57500
C  27.21400 2.06500 25.21400
C  27.38400 3.32900 26.06900
N  27.15700 1.08400 30.26600
C  28.10000 0.75300 29.29300
C  29.39200 0.50600 29.89200
C  29.20200 0.67400 31.26200
C  27.80500 0.94800 31.43200
C  30.63300 0.06900 29.19500
C  29.83900 0.56300 32.52700
O  30.90800 0.11200 32.84400
C  28.76900 0.95200 33.57600
C  28.77700 -0.00200 34.66100
O  28.55300 -1.18900 34.56400
O  29.06200 0.62100 35.86400
C  29.08700 -0.24300 37.03400
H  21.92000 1.05400 33.31400
H  22.29700 1.40500 26.64700
H  28.66100 0.74600 27.25900
H  26.06800 0.55800 35.31500
H  23.76500 2.34400 34.82900
H  23.01600 -0.57700 35.14600
H  22.58700 0.81900 36.13700
H  24.18500 0.08500 36.30300
H  25.45000 3.39600 35.37000
H  27.20900 3.03200 35.30600
H  27.38800 2.54700 37.55500
H  25.83000 1.63200 37.36800
H  19.92400 -0.15400 32.05000
H  18.72500 0.89300 31.23600
H  19.91900 1.65100 32.23800
H  17.65300 0.50100 27.93900
H  17.91200 1.32900 29.40300
H  18.25800 -0.29600 29.43800
H  24.76000 2.42800 25.45800
H  26.58300 -0.09200 25.55500
H  23.58000 -0.20000 25.02600
H  24.81700 0.10400 23.91900
H  23.50200 1.22400 23.90500
H  26.83100 2.35300 24.23500
H  28.16100 1.57700 24.98400
H  28.46900 3.39100 26.15300
H  26.89400 3.41100 27.03900
H  26.99300 4.12900 25.44100
H  31.32300 0.90100 29.05500
H  30.33800 -0.40700 28.25900
H  31.04400 -0.73500 29.80500
H  29.08800 1.88600 34.04000
H  29.10900 -1.31900 36.86600
H  28.21700 -0.07300 37.66900
H  29.92000 0.06500 37.66600
Mg 54.29800 24.84900 45.38100
C  51.56200 26.94200 44.36000
C  52.70200 22.24300 43.63500
C  57.05600 23.20200 45.65400
C  55.79100 27.84700 46.75300
N  52.39700 24.76200 43.92200
C  51.39100 25.69600 43.80400
C  50.31000 25.09700 42.83000
C  50.52600 23.55000 43.00600
C  51.99700 23.45300 43.57400
C  49.48000 22.89600 43.95800
C  50.13100 25.58600 41.32600
C  51.44800 26.09700 40.65500
H  52.24700 25.09100 39.74700
N  54.80000 22.90400 44.78900
C  54.01900 22.02300 44.14200
C  54.88700 20.72800 43.89900
C  56.15300 21.03700 44.47500
C  56.02600 22.42500 45.03000
C  54.39800 19.51800 43.20400
C  57.32000 19.95000 44.37600
O  57.22100 18.98700 43.57900
C  58.63600 20.12200 45.09800
N  56.14400 25.49700 45.94000
C  57.12200 24.54500 46.04000
C  58.32000 25.12400 46.91400
C  58.03800 26.59800 47.03900
C  56.55000 26.66800 46.60800
C  58.48600 24.44400 48.29300
C  58.86400 27.58400 46.12500
C  58.26400 28.10600 44.75600
N  53.76500 26.89800 45.69700
C  54.40300 27.98800 46.30200
C  53.53700 29.16200 46.31600
C  52.46600 28.79700 45.51800
C  52.61700 27.42900 45.15800
C  53.73900 30.44600 46.99900
C  51.26600 29.30400 44.96100
O  50.80200 30.40100 44.99400
C  50.68000 28.14400 44.08700
C  50.65800 28.57700 42.65900
O  51.65100 28.93000 42.06800
O  49.40400 28.72400 42.16700
C  49.25900 29.19300 40.74500
H  52.28000 21.35200 43.16600
H  57.97600 22.69100 45.94900
H  56.22800 28.74200 47.20000
H  49.33700 25.33600 43.26100
H  50.65200 22.99300 42.07800
H  48.74800 23.52500 44.46500
H  50.00900 22.30100 44.70100
H  49.03100 22.07400 43.40000
H  49.27300 26.24500 41.19200
H  49.78700 24.67700 40.83300
H  52.23300 26.24300 41.39800
H  51.38500 27.11200 40.26400
H  55.00800 19.45400 42.30300
H  53.35200 19.52900 42.89800
H  54.45200 18.57100 43.74200
H  59.28500 19.31000 44.76900
H  58.52700 20.12300 46.18200
H  59.03200 21.08100 44.76500
H  59.25600 24.94500 46.38600
H  58.13600 26.90500 48.08000
H  59.56200 24.26900 48.26100
H  58.09900 23.42700 48.35000
H  58.16000 25.05600 49.13400
H  59.83100 27.12200 45.92800
H  59.07100 28.44600 46.76000
H  57.60800 27.38300 44.27100
H  59.13200 28.29800 44.12500
H  57.78600 29.05800 44.98900
H  53.57200 31.25900 46.29300
H  54.65800 30.69500 47.52900
H  52.92800 30.53100 47.72200
H  49.66000 27.93900 44.41000
H  50.08700 29.87000 40.53600
H  48.30200 29.71500 40.74800
H  49.06900 28.35100 40.07900

