158

Mg -11.73800 37.90500 41.11100
C  -9.40600 35.22900 40.43200
C  -9.41500 40.10000 39.92700
C  -14.23700 40.19100 41.03800
C  -13.99700 35.41600 42.14200
N  -9.78500 37.60900 40.03300
C  -8.97900 36.47600 40.00300
C  -7.56300 36.77000 39.42700
C  -7.57700 38.36200 39.44300
C  -9.02200 38.69100 39.81200
C  -6.67100 39.03300 40.50400
C  -7.39100 36.18300 38.02100
C  -6.38900 35.04300 37.90500
H  -5.25600 35.25800 36.87800
N  -11.80500 39.86400 40.63200
C  -10.67800 40.64100 40.25000
C  -11.14500 41.97200 40.18300
C  -12.50400 42.03000 40.51000
C  -12.91500 40.65000 40.69600
C  -10.25800 43.14400 39.80800
C  -13.34800 43.26600 40.58800
O  -12.94800 44.37800 40.22300
C  -14.84300 43.21800 41.04700
N  -13.81800 37.77800 41.43400
C  -14.66300 38.88600 41.38300
C  -16.12300 38.44500 41.67700
C  -15.89200 36.98700 42.20800
C  -14.47500 36.70600 41.94400
C  -16.94500 39.45500 42.57900
C  -16.87500 35.85800 41.75700
C  -17.58400 35.00900 42.89400
N  -11.83100 35.80500 41.29200
C  -12.75400 34.95400 41.85200
C  -12.22200 33.63300 41.99800
C  -10.97900 33.67900 41.38700
C  -10.77200 34.99500 40.96900
C  -12.82200 32.40600 42.60200
C  -9.79600 32.87100 41.14000
O  -9.51700 31.73000 41.43800
C  -8.79300 33.88300 40.57300
C  -7.52700 33.74900 41.34400
O  -6.68600 32.83100 41.14900
O  -7.38900 34.73400 42.22400
C  -6.14000 34.84600 43.05300
H  -8.67300 40.88000 39.74500
H  -15.13100 40.81900 41.06400
H  -14.58000 34.66100 42.67500
H  -6.82400 36.41500 40.14500
H  -7.21700 38.81800 38.52100
H  -6.64500 40.05400 40.12200
H  -5.64500 38.66900 40.54300
H  -7.23500 38.97100 41.43500
H  -6.99600 36.88600 37.28800
H  -8.35500 35.84500 37.64100
H  -6.93400 34.15300 37.58900
H  -5.97500 34.92200 38.90600
H  -9.24400 42.78400 39.63500
H  -10.17900 43.96000 40.52600
H  -10.63800 43.50500 38.85200
H  -15.05000 44.28800 41.03900
H  -14.88400 42.80400 42.05400
H  -15.51300 42.70300 40.35900
H  -16.71000 38.39700 40.75900
H  -16.02200 37.00500 43.29000
H  -17.58800 38.95700 43.30500
H  -17.51700 40.03700 41.85600
H  -16.25300 40.09400 43.12800
H  -16.39200 35.24800 40.99300
H  -17.77400 36.27400 41.30000
H  -18.56400 35.46000 43.05500
H  -17.02700 35.10000 43.82600
H  -17.73700 33.97200 42.59400
H  -13.89900 32.49500 42.74700
H  -12.37200 32.08200 43.54000
H  -12.69800 31.51500 41.98700
H  -8.67600 33.48700 39.56500
H  -5.28100 34.53000 42.46100
H  -6.22300 34.26900 43.97400
H  -5.97000 35.91000 43.21700
Mg -1.62100 34.25500 27.00600
C  -3.38900 32.44000 29.51600
C  -0.57700 36.42400 29.33100
C  -0.25800 35.85000 24.50600
C  -3.11500 32.01600 24.69900
N  -1.97900 34.37900 29.16200
C  -2.64200 33.47000 29.99900
C  -2.31100 33.84700 31.49500
C  -1.51400 35.16500 31.37000
C  -1.39400 35.42200 29.87000
C  -2.10100 36.42700 32.12800
C  -1.61000 32.67200 32.34000
C  -2.48800 32.02600 33.36100
H  -1.83100 32.00100 34.73100
N  -0.46100 35.85600 26.90400
C  -0.19500 36.63800 27.95700
C  0.60600 37.69700 27.51900
C  0.78400 37.56700 26.12400
C  -0.05600 36.39600 25.78500
C  1.22800 38.68000 28.51400
C  1.63000 38.32100 25.19700
O  1.82500 37.87100 24.06700
C  2.38400 39.50000 25.71400
N  -1.66600 33.88200 24.86900
C  -0.96600 34.72200 24.10500
C  -1.25500 34.38800 22.62400
C  -2.12700 33.11800 22.73600
C  -2.27000 32.92200 24.18900
C  -1.87200 35.52100 21.71900
C  -1.65500 31.88600 21.89100
C  -2.69500 31.27700 20.97100
N  -3.06100 32.72600 27.03200
C  -3.53500 31.86800 26.04500
C  -4.35500 30.83200 26.55200
C  -4.35900 31.01700 27.92500
C  -3.60000 32.20200 28.19000
C  -4.86400 29.63900 25.83700
C  -4.77300 30.39600 29.14500
O  -5.37200 29.32100 29.31900
C  -4.09400 31.28300 30.27100
C  -5.23300 31.76500 31.18200
O  -6.13300 32.53600 30.81100
O  -5.15300 31.11300 32.31700
C  -6.29000 31.26700 33.30900
H  -0.16400 37.08100 30.09900
H  0.09000 36.42900 23.64800
H  -3.42300 31.34400 23.89500
H  -3.30500 34.02400 31.90800
H  -0.47800 34.97500 31.64700
H  -2.33800 37.12500 31.32600
H  -1.33200 36.85900 32.76800
H  -3.08900 36.20600 32.53300
H  -0.74800 33.10500 32.84800
H  -1.26400 31.84400 31.72000
H  -2.61200 31.03000 32.93700
H  -3.48900 32.45400 33.41500
H  0.34600 39.11400 28.98500
H  1.78900 39.50800 28.08300
H  1.88300 38.19000 29.23500
H  2.89700 40.01000 24.89900
H  3.14700 39.09000 26.37600
H  1.87200 40.31000 26.23300
H  -0.28800 34.14600 22.18300
H  -3.11900 33.39200 22.37600
H  -2.29100 36.20500 22.45700
H  -2.70900 35.22400 21.08800
H  -1.05500 35.95500 21.14400
H  -1.25400 31.15200 22.58900
H  -0.91900 32.14500 21.13000
H  -2.52800 31.37200 19.89800
H  -3.66000 31.66300 21.29900
H  -2.83100 30.22900 21.23500
H  -4.15600 28.81200 25.78900
H  -5.12500 29.95600 24.82800
H  -5.80000 29.39700 26.34100
H  -3.36400 30.73700 30.86800
H  -5.86100 31.77900 34.17000
H  -6.61100 30.23400 33.44400
H  -7.24700 31.72200 33.05100

