158

Mg 47.53500 15.18800 28.62100
C  45.33000 15.18500 31.33200
C  49.73100 17.03500 30.31200
C  49.26800 15.13500 25.84000
C  45.03400 13.25600 26.81500
N  47.42100 16.17400 30.55200
C  46.55700 15.91200 31.56500
C  46.99400 16.51800 32.87100
C  48.32200 17.22800 32.49700
C  48.50900 16.87800 31.03000
C  48.49200 18.77300 32.73600
C  47.20700 15.50700 33.95300
C  46.86500 16.05600 35.38800
H  46.99600 17.50200 35.69100
N  49.25900 16.00600 28.12600
C  50.05400 16.80400 28.94100
C  51.27700 17.20500 28.19500
C  51.11400 16.66700 26.87700
C  49.86000 15.87400 26.88800
C  52.40400 17.92000 28.90600
C  52.03400 16.94200 25.66700
O  51.80400 16.36300 24.58000
C  53.22400 17.86400 25.81300
N  47.11900 14.40500 26.53600
C  48.09900 14.43800 25.66800
C  47.75500 13.77400 24.33100
C  46.32700 13.17000 24.66800
C  46.11700 13.57800 26.09700
C  47.75400 14.62800 23.03300
C  46.30900 11.66300 24.38500
C  47.11700 10.79300 25.33400
N  45.67200 14.48300 28.91900
C  44.80200 13.81000 28.11500
C  43.61500 13.39400 28.81600
C  43.77200 13.95700 30.07300
C  45.01900 14.59100 30.11400
C  42.39000 12.76200 28.24500
C  43.12300 14.07300 31.35700
O  41.99200 13.68800 31.74000
C  44.16300 14.77200 32.22100
C  43.52600 15.93500 32.76900
O  43.23200 16.94000 32.10700
O  43.13200 15.70000 34.06100
C  42.26600 16.76000 34.61200
H  50.42600 17.68600 30.84700
H  49.89300 15.05000 24.94800
H  44.26100 12.68200 26.30100
H  46.18200 17.18500 33.16100
H  49.15400 16.84700 33.08900
H  48.61900 19.25300 31.76500
H  49.42400 19.10600 33.19200
H  47.64100 19.22600 33.24500
H  48.22800 15.12700 33.99100
H  46.61000 14.66600 33.60200
H  47.63200 15.59200 36.00800
H  45.88500 15.64200 35.62600
H  52.29900 17.82600 29.98700
H  52.40100 18.97700 28.64100
H  53.39500 17.53800 28.66000
H  53.69900 18.17700 24.88300
H  53.89900 17.24600 26.40400
H  52.96500 18.73600 26.41300
H  48.45900 12.94700 24.23900
H  45.55300 13.75300 24.16800
H  48.24800 15.57400 23.25700
H  46.73800 14.88700 22.73600
H  48.20200 13.98900 22.27200
H  46.61200 11.51200 23.34800
H  45.27600 11.33000 24.48900
H  46.32300 10.26100 25.85600
H  47.67200 11.26200 26.14600
H  47.84200 10.24600 24.73100
H  42.33200 13.15500 27.23000
H  41.51600 12.93300 28.87300
H  42.63600 11.70100 28.27900
H  44.48300 14.07000 32.99100
H  41.30900 16.88500 34.10500
H  42.81400 17.69200 34.74500
H  42.04200 16.50500 35.64800
Mg 0.19200 43.68000 25.60100
C  2.22900 43.31700 28.45300
C  -2.42200 42.69000 27.47000
C  -1.50600 43.91500 22.85500
C  3.16900 44.31800 23.62700
N  -0.03900 43.23100 27.73300
C  0.88900 43.12200 28.72400
C  0.32800 42.79100 30.09100
C  -1.20300 42.37800 29.70800
C  -1.26400 42.83800 28.24300
C  -1.54100 40.87700 29.85500
C  0.32900 44.10000 30.93000
C  -0.16400 44.00700 32.43400
H  -0.24700 42.63200 33.14100
N  -1.68400 43.29700 25.22000
C  -2.69500 42.87200 26.08800
C  -3.92000 42.82100 25.37700
C  -3.68400 43.24200 24.09000
C  -2.24100 43.49900 23.99800
C  -5.23500 42.39800 26.14500
C  -4.66500 43.59600 23.00900
O  -4.39300 44.27900 22.03100
C  -6.12400 43.15100 23.19400
N  0.77500 44.04000 23.44100
C  -0.18200 44.20500 22.55100
C  0.38000 44.65300 21.23300
C  1.84200 44.90700 21.52200
C  1.97800 44.32300 22.95500
C  0.19200 43.47300 20.14400
C  2.35600 46.37100 21.59700
C  1.37700 47.43100 22.19700
N  2.31400 43.89700 25.94800
C  3.40400 44.09900 25.02800
C  4.59600 43.97500 25.79100
C  4.18500 43.66600 27.06200
C  2.78600 43.54000 27.16800
C  5.98500 44.14000 25.26000
C  4.73300 43.37700 28.37200
O  5.89900 43.30300 28.74100
C  3.45900 43.20600 29.38000
C  3.63500 42.04000 30.21300
O  3.34800 40.89100 29.87900
O  4.29600 42.35700 31.33000
C  4.81900 41.20500 32.12600
H  -3.29600 42.25900 27.96200
H  -2.11400 43.91900 21.94800
H  4.06800 44.46900 23.02700
H  0.84000 41.95800 30.57400
H  -1.97200 42.86600 30.30600
H  -2.05300 40.55300 28.94900
H  -2.25200 40.72600 30.66700
H  -0.70000 40.22200 30.08500
H  -0.29800 44.86300 30.46800
H  1.35400 44.43800 30.78100
H  -1.15200 44.45600 32.53800
H  0.60000 44.55500 32.98500
H  -6.04500 43.11700 26.02000
H  -5.13500 42.19800 27.21200
H  -5.60200 41.42900 25.80700
H  -6.16000 42.08200 23.40100
H  -6.66400 43.17000 22.24700
H  -6.59000 43.71500 24.00200
H  -0.10400 45.57100 20.89900
H  2.47100 44.34300 20.83200
H  1.14600 43.06900 19.80500
H  -0.24900 43.89100 19.23900
H  -0.37800 42.67000 20.61200
H  2.64800 46.70300 20.60100
H  3.21700 46.40200 22.26500
H  1.80000 48.09200 22.95400
H  0.53400 46.94200 22.68400
H  1.04100 47.98400 21.31900
H  6.02400 45.10800 24.76000
H  6.23900 43.33000 24.57600
H  6.84400 44.15800 25.93100
H  3.56000 44.09900 29.99800
H  5.55600 41.51000 32.86900
H  5.33200 40.46500 31.51100
H  3.94000 40.84400 32.65800

