158

Mg 41.49900 7.35300 29.59100
C  43.38100 8.99000 31.96900
C  39.45600 6.22300 32.04500
C  39.71700 5.72100 27.28400
C  44.17800 7.66700 27.36100
N  41.55600 7.52500 31.78300
C  42.25700 8.39700 32.53600
C  41.80300 8.39800 33.97700
C  40.71300 7.29500 34.00000
C  40.56200 6.95200 32.56500
C  41.15200 6.04700 34.83400
C  41.41400 9.78200 34.52700
C  40.68800 9.81600 35.91300
H  41.25900 10.75600 36.92900
N  39.79400 6.20000 29.62000
C  39.03100 5.84500 30.72800
C  37.91700 5.14600 30.31900
C  37.86000 5.27500 28.93100
C  39.13000 5.75000 28.59000
C  37.03700 4.33000 31.26500
C  36.82100 4.84500 27.96800
O  36.96300 4.80200 26.75300
C  35.48500 4.31700 28.49300
N  41.95400 6.67600 27.61300
C  41.02500 6.11900 26.84700
C  41.53900 5.93900 25.39200
C  42.97700 6.62100 25.38700
C  43.06700 6.98100 26.89400
C  41.54900 4.52600 24.79000
C  43.17200 7.83200 24.42600
C  42.61500 9.16300 24.77900
N  43.39000 8.21700 29.60400
C  44.36500 8.28700 28.65100
C  45.45800 9.11200 29.09500
C  45.11300 9.44800 30.42500
C  43.88700 8.80700 30.71000
C  46.63200 9.45200 28.26200
C  45.60800 10.10200 31.58100
O  46.67900 10.72400 31.76800
C  44.47100 9.82500 32.66000
C  45.06600 9.11400 33.76200
O  45.03000 7.92200 33.96700
O  45.76800 10.00200 34.57100
C  46.25900 9.39100 35.79500
H  38.72300 5.92000 32.79600
H  39.20400 5.26900 26.43300
H  44.72100 7.99200 26.47100
H  42.73700 8.19600 34.50100
H  39.72000 7.64000 34.28600
H  41.28200 5.24600 34.10600
H  40.33500 5.75000 35.49100
H  42.09300 6.20200 35.36300
H  40.79800 10.30900 33.79900
H  42.32300 10.38200 34.57100
H  40.55700 8.83700 36.37300
H  39.64300 10.11200 35.82900
H  37.51700 4.38100 32.24200
H  37.00200 3.27200 31.00600
H  36.02100 4.71000 31.37300
H  35.59400 3.34600 28.97700
H  34.87700 4.09100 27.61700
H  34.86200 4.88700 29.18200
H  40.84400 6.48200 24.75100
H  43.74900 5.86200 25.25400
H  41.99100 4.54800 23.79400
H  40.63700 3.92800 24.80100
H  42.20400 3.94000 25.43600
H  42.92500 7.50900 23.41500
H  44.24700 8.00900 24.38900
H  41.83800 8.95000 25.51400
H  42.07700 9.61100 23.94400
H  43.35100 9.85700 25.18600
H  47.20200 8.52500 28.20200
H  47.28200 10.14800 28.79300
H  46.33000 9.89300 27.31200
H  44.05100 10.76400 33.01900
H  47.01700 8.66100 35.51200
H  45.53500 9.08700 36.55100
H  46.87400 10.13800 36.29600
Mg 47.66200 44.95400 42.94700
C  44.44300 43.98600 43.05300
C  48.48800 41.57100 42.21700
C  50.68000 45.83800 42.10900
C  46.66300 48.23600 42.96100
N  46.50600 43.09500 42.45600
C  45.22100 42.92600 42.72000
C  44.82800 41.46400 42.62300
C  46.14100 40.74600 42.37100
C  47.12800 41.85700 42.31500
C  46.49300 39.65800 43.44400
C  43.74900 41.18600 41.52100
C  43.50300 42.10900 40.31600
H  43.29500 41.56200 38.88800
N  49.37200 43.85700 42.39400
C  49.58300 42.49600 42.15900
C  50.94200 42.18700 41.86500
C  51.58800 43.41700 41.71700
C  50.56000 44.43700 42.10600
C  51.52700 40.77600 41.60700
C  53.03900 43.61900 41.17700
O  53.73600 42.69900 40.80500
C  53.58700 44.99800 40.96500
N  48.51800 46.70000 42.54700
C  49.83700 46.87700 42.37800
C  50.28400 48.30700 42.52200
C  48.94900 49.09500 42.52100
C  47.97500 47.90900 42.69500
C  51.13600 48.59600 43.75800
C  48.58400 49.84900 41.20900
C  48.71300 51.40100 41.20100
N  45.91800 45.97000 43.02300
C  45.64700 47.28500 43.07100
C  44.20700 47.48800 43.30000
C  43.76600 46.14400 43.39400
C  44.81800 45.30400 43.16900
C  43.41500 48.72700 43.49800
C  42.53900 45.39200 43.67900
O  41.42400 45.80600 44.05800
C  42.90000 43.92500 43.45300
C  42.69100 43.16400 44.72900
O  43.40800 43.24700 45.66100
O  41.58200 42.43800 44.68400
C  41.20900 41.77300 45.89700
H  48.59700 40.49000 42.11200
H  51.70600 46.19900 42.00900
H  46.50800 49.31600 42.94000
H  44.45700 41.12900 43.59100
H  46.30700 40.23300 41.42400
H  45.58500 39.07000 43.57500
H  46.69400 40.18400 44.37800
H  47.39000 39.05400 43.30700
H  42.80500 41.03800 42.04600
H  44.08000 40.23700 41.10100
H  44.11000 43.00400 40.18100
H  42.47400 42.41500 40.50600
H  52.06400 40.42700 42.49000
H  52.15900 40.69400 40.72300
H  50.73200 40.03200 41.57200
H  52.91400 45.57200 40.32700
H  54.61300 45.06300 40.60400
H  53.61900 45.46600 41.94900
H  50.89800 48.58400 41.66500
H  48.80900 49.75200 43.38000
H  51.31600 47.65000 44.26900
H  50.54700 49.09000 44.53000
H  52.10800 49.03300 43.53000
H  47.52000 49.72400 41.00700
H  49.04500 49.46900 40.29700
H  49.46300 51.73800 40.48400
H  48.96700 51.77900 42.19200
H  47.73500 51.82400 40.97000
H  43.33500 49.20900 42.52300
H  43.89500 49.35800 44.24600
H  42.41800 48.45700 43.84600
H  42.20200 43.43400 42.77600
H  40.53800 40.93600 45.70300
H  40.71500 42.49500 46.54700
H  42.07000 41.32500 46.39300

