158

Mg 25.74700 2.12800 29.15500
C  27.80300 1.45800 32.07200
C  23.00700 1.80700 31.20400
C  23.90200 2.19900 26.37800
C  28.57700 1.28500 27.28400
N  25.52800 1.81800 31.42000
C  26.42800 1.60300 32.41200
C  25.80500 1.79700 33.78400
C  24.30400 1.76700 33.48200
C  24.26900 1.79100 31.93500
C  23.53800 0.53400 33.98700
C  26.22400 3.06900 34.63900
C  26.70900 2.65100 36.05600
H  26.22400 3.61700 37.23100
N  23.73900 2.05600 28.82900
C  22.74000 1.92100 29.80100
C  21.42200 1.94100 29.16200
C  21.65800 2.18200 27.75400
C  23.16600 2.19200 27.61500
C  20.17600 1.79400 29.95200
C  20.65400 2.35200 26.67700
O  20.88900 2.70200 25.54900
C  19.19400 2.15400 27.08600
N  26.13400 1.56900 27.08700
C  25.25400 1.96200 26.14400
C  25.82300 1.99000 24.73000
C  27.24800 1.39700 25.02000
C  27.38800 1.46600 26.53500
C  25.02500 1.20300 23.67400
C  28.36400 2.20200 24.26500
C  29.56400 1.40100 23.62600
N  27.85900 1.57600 29.51400
C  28.77200 1.19600 28.63800
C  29.99900 0.91400 29.33400
C  29.68100 1.02600 30.70500
C  28.35400 1.39300 30.74300
C  31.29800 0.51700 28.74900
C  30.17100 0.89400 31.99700
O  31.30000 0.60000 32.34800
C  28.94700 1.12700 32.97300
C  28.70100 -0.02700 33.87800
O  27.97200 -0.98700 33.62600
O  29.24000 0.29700 35.05400
C  28.86200 -0.47400 36.23600
H  22.18100 1.83000 31.91800
H  23.24900 2.43900 25.53700
H  29.48300 1.20800 26.67900
H  26.07700 0.90000 34.33900
H  23.73900 2.65200 33.77600
H  23.29600 -0.11700 33.14700
H  22.64000 0.90200 34.48200
H  24.12600 -0.04700 34.69900
H  25.42800 3.81300 34.68700
H  27.07400 3.46600 34.08500
H  27.79400 2.60400 35.96600
H  26.33200 1.65600 36.29400
H  20.41900 1.45500 30.95900
H  19.54200 1.03600 29.49100
H  19.62400 2.73400 29.96100
H  18.47300 2.31600 26.28500
H  18.90000 2.81100 27.90400
H  19.13200 1.11900 27.42200
H  25.93000 3.04700 24.48700
H  27.33100 0.33700 24.77900
H  24.65300 1.89500 22.91800
H  24.14000 0.71300 24.08100
H  25.66200 0.47600 23.17100
H  28.90200 2.84400 24.96200
H  27.91000 2.87800 23.54000
H  29.38200 1.54600 22.56100
H  29.44800 0.37700 23.98400
H  30.54200 1.76200 23.94400
H  31.38800 0.99400 27.77300
H  31.52600 -0.51100 28.46700
H  32.08300 0.89100 29.40500
H  29.25300 2.00000 33.54900
H  27.93800 -0.07700 36.65600
H  29.67300 -0.47700 36.96400
H  28.76500 -1.51400 35.92600
Mg 49.53700 45.62000 41.45800
C  46.17900 45.72200 40.32600
C  49.55900 42.17500 40.57000
C  52.89000 45.61600 41.47300
C  49.44600 49.17200 41.60100
N  48.04900 44.18200 40.50200
C  46.82200 44.49200 40.15000
C  46.19900 43.30100 39.47700
C  46.91200 42.12900 40.14100
C  48.29600 42.87400 40.40900
C  46.23500 41.42500 41.31100
C  46.23800 43.36500 37.83800
C  44.88600 43.24300 37.16900
H  44.68800 44.26200 36.02100
N  51.00900 44.09000 41.07000
C  50.86300 42.72100 40.81200
C  52.11900 42.06700 40.79000
C  53.06500 43.05200 41.08600
C  52.33100 44.37600 41.17800
C  52.24700 40.62100 40.49200
C  54.53100 42.74500 41.12700
O  54.95600 41.61800 40.82800
C  55.51500 43.78100 41.52100
N  50.99600 47.22300 41.49600
C  52.32400 46.90600 41.64600
C  53.17400 48.15500 41.71400
C  52.06500 49.30800 41.81500
C  50.75000 48.59500 41.62800
C  54.17000 48.05400 42.87800
C  52.27300 50.52900 40.90000
C  52.13900 51.93500 41.56500
N  48.09800 47.13900 41.37700
C  48.19900 48.56900 41.51000
C  46.87900 49.15900 41.40500
C  46.09400 48.04800 40.89800
C  46.82500 46.84900 40.97500
C  46.65700 50.68000 41.45500
C  44.75500 47.69200 40.39300
O  43.75900 48.40700 40.13200
C  44.78300 46.17500 40.02200
C  43.71200 45.61600 40.84400
O  43.61700 45.52000 42.06000
O  42.68000 45.32000 39.93400
C  41.38200 45.16800 40.52300
H  49.38200 41.10800 40.42100
H  53.98000 45.60800 41.41900
H  49.50800 50.24700 41.78400
H  45.19600 43.36800 39.89800
H  47.13600 41.30700 39.46200
H  45.19000 41.71800 41.21600
H  46.62300 41.70100 42.29100
H  46.16400 40.35400 41.11800
H  46.78600 42.50400 37.45500
H  46.80200 44.24700 37.53500
H  44.13500 43.54000 37.90000
H  44.60400 42.23900 36.85200
H  52.73500 40.60200 39.51800
H  51.31500 40.06100 40.42500
H  52.92800 40.05800 41.13200
H  55.15200 44.20800 42.45600
H  55.64900 44.57900 40.79100
H  56.51000 43.33800 41.56400
H  53.74700 48.32900 40.80300
H  52.09000 49.72200 42.82300
H  54.02100 47.07700 43.33800
H  54.24200 48.92900 43.52300
H  55.11500 48.22500 42.36200
H  51.53200 50.60400 40.10500
H  53.23700 50.43100 40.40100
H  53.14000 52.12800 41.95000
H  51.49200 51.85600 42.43900
H  51.86100 52.72500 40.86800
H  46.54800 51.08900 42.45900
H  45.67500 50.72100 40.98500
H  47.45600 51.13900 40.87300
H  44.77200 46.07100 38.93700
H  41.31000 44.27800 41.14900
H  40.65300 45.04200 39.72200
H  41.18100 46.03600 41.15000

