158

Mg 35.60000 48.90700 25.14800
C  35.86500 47.15300 28.35200
C  34.31400 51.48300 26.80500
C  34.80500 50.28000 22.15100
C  36.70500 45.95800 23.71200
N  35.06700 49.22200 27.31600
C  35.40500 48.50200 28.48700
C  35.09900 49.22200 29.83300
C  34.48900 50.52800 29.24800
C  34.65500 50.47500 27.68800
C  33.03400 50.98900 29.55600
C  36.33300 49.54600 30.79300
C  36.27600 49.05100 32.33500
H  34.87900 48.89000 32.98800
N  34.88200 50.67400 24.51600
C  34.40500 51.65100 25.40300
C  34.05800 52.86700 24.68700
C  34.04100 52.48800 23.25700
C  34.60200 51.08600 23.23500
C  33.62500 54.16600 25.28300
C  33.57100 53.25700 22.05200
O  33.63100 52.88800 20.86700
C  33.01500 54.69000 22.27800
N  35.67600 48.18400 23.18300
C  35.36500 48.90400 22.08900
C  35.81100 48.16300 20.79800
C  36.71500 47.00200 21.34200
C  36.30800 47.00800 22.83200
C  34.65000 47.70000 19.89700
C  38.21800 47.31300 21.13700
C  39.22400 46.19100 21.57700
N  35.99100 46.90800 25.83400
C  36.37300 45.80000 25.09400
C  36.63300 44.68800 25.99000
C  36.46000 45.17700 27.24700
C  36.03600 46.53500 27.08900
C  37.11100 43.34600 25.58200
C  36.48800 44.80100 28.65600
O  36.82300 43.71800 29.21700
C  36.03300 46.09900 29.37700
C  34.80100 45.76900 30.03800
O  33.74300 46.27800 29.84000
O  35.09200 44.98400 31.13300
C  34.00300 44.72100 32.11000
H  34.08700 52.46900 27.21500
H  34.66400 50.69700 21.15100
H  37.11300 45.13400 23.12300
H  34.27600 48.67800 30.29700
H  35.19000 51.31000 29.54000
H  33.02900 52.00700 29.94600
H  32.73500 50.38300 30.41100
H  32.32900 50.80600 28.74500
H  36.58800 50.59500 30.94300
H  37.27100 49.17600 30.37700
H  37.03100 49.56100 32.93300
H  36.62200 48.01800 32.33200
H  32.58200 54.14500 25.59700
H  33.83800 55.14200 24.84700
H  34.07400 54.28500 26.26900
H  33.65100 55.50400 22.62700
H  32.22300 54.83400 23.01300
H  32.52600 55.06100 21.37700
H  36.32300 48.93800 20.22600
H  36.50800 45.99500 20.98100
H  33.66500 47.75200 20.36000
H  34.83600 46.67200 19.58400
H  34.72700 48.31700 19.00300
H  38.43200 48.29000 21.57000
H  38.33100 47.35600 20.05400
H  39.83100 46.41100 22.45600
H  39.88300 45.91900 20.75200
H  38.71600 45.27200 21.86900
H  36.33400 42.58900 25.68800
H  38.04700 42.99000 26.01100
H  37.19300 43.30600 24.49500
H  36.82500 46.42900 30.04900
H  33.17000 44.41600 31.47700
H  33.83200 45.56000 32.78500
H  34.16000 43.81600 32.69600
Mg -10.86500 16.05200 42.49100
C  -7.43300 15.73500 42.06000
C  -10.59000 19.45100 41.49000
C  -14.15500 16.22700 42.13500
C  -11.05000 12.62500 43.25600
N  -9.26000 17.36500 41.69500
C  -7.91400 17.02400 41.70600
C  -7.02500 18.20300 41.26700
C  -8.04900 19.38900 41.45400
C  -9.39800 18.74600 41.54500
C  -7.64500 20.27800 42.75100
C  -6.55200 17.94600 39.79000
C  -5.19900 18.51100 39.29700
H  -4.89100 18.79100 37.86700
N  -12.19700 17.62700 41.90600
C  -11.88900 18.91600 41.55700
C  -13.08000 19.61800 41.25800
C  -14.16300 18.70200 41.41800
C  -13.54200 17.41600 41.79100
C  -13.11600 21.04700 40.76400
C  -15.66800 19.04900 41.23600
O  -16.04100 20.20400 41.02000
C  -16.81700 18.06800 41.22800
N  -12.36100 14.62800 42.57300
C  -13.61000 14.96600 42.56200
C  -14.56800 13.76500 42.72300
C  -13.66300 12.81000 43.48500
C  -12.26300 13.38600 43.17800
C  -15.98300 13.98700 43.52600
C  -13.83400 11.30100 43.44100
C  -14.21900 10.61800 44.88700
N  -9.56700 14.37800 42.54500
C  -9.71600 13.04600 42.94300
C  -8.35700 12.33700 42.92200
C  -7.46000 13.41800 42.59800
C  -8.20000 14.58500 42.36800
C  -8.04000 11.01000 43.54700
C  -6.10500 13.76700 42.61100
O  -5.09000 13.16000 42.92700
C  -6.06000 15.29200 42.17000
C  -5.40300 16.18300 43.15600
O  -5.85100 16.47100 44.23600
O  -4.19100 16.53200 42.73800
C  -3.32500 17.13100 43.73200
H  -10.61200 20.53700 41.37500
H  -15.24300 16.28900 42.06300
H  -11.10600 11.64700 43.73700
H  -6.15200 18.29100 41.91300
H  -7.95000 20.11800 40.65000
H  -7.45700 21.27500 42.35400
H  -6.74400 19.88600 43.22300
H  -8.46700 20.20500 43.46300
H  -7.24500 18.46100 39.12500
H  -6.73900 16.89500 39.57000
H  -4.39100 17.87800 39.66400
H  -5.16800 19.48800 39.77900
H  -13.93900 21.03900 40.04900
H  -12.17700 21.18800 40.23000
H  -13.22200 21.71200 41.62200
H  -17.74600 18.51800 40.87700
H  -16.96600 17.58600 42.19400
H  -16.64400 17.29800 40.47600
H  -14.71500 13.30300 41.74700
H  -13.68700 13.12500 44.52800
H  -15.91900 14.94000 44.05200
H  -16.24100 13.25500 44.29100
H  -16.87900 14.14600 42.92600
H  -12.92600 10.77200 43.15300
H  -14.66300 11.06300 42.77500
H  -13.31900 10.50800 45.49200
H  -14.76500 9.68900 44.72100
H  -14.91600 11.31900 45.34600
H  -7.66500 11.21500 44.55000
H  -7.45300 10.44400 42.82400
H  -8.92600 10.39400 43.70200
H  -5.63900 15.55300 41.19900
H  -3.69700 18.14300 43.89000
H  -2.36600 17.16600 43.21500
H  -3.35500 16.55800 44.65800

