158

Mg 2.49400 -0.36100 43.43800
C  5.93700 -0.00000 43.45400
C  2.14600 2.62900 41.78400
C  -0.86800 -1.21400 42.91200
C  3.02900 -3.64500 44.60800
N  3.89600 1.15100 42.75500
C  5.27000 1.03800 42.76400
C  5.92000 2.27600 42.07200
C  4.60000 3.18100 41.81900
C  3.45800 2.27000 42.09000
C  4.51100 4.51000 42.59800
C  6.73300 1.99200 40.75600
C  6.04500 1.08500 39.68700
H  5.74200 1.62400 38.28500
N  0.84300 0.68100 42.57700
C  0.93000 1.90800 42.01700
C  -0.41200 2.27500 41.67500
C  -1.31200 1.14700 41.93900
C  -0.46500 0.07900 42.44000
C  -0.77100 3.65100 41.23200
C  -2.80300 1.18400 41.53200
O  -3.39300 2.16900 41.04900
C  -3.62800 -0.07600 41.71500
N  1.27500 -2.14100 43.55800
C  -0.08000 -2.24700 43.39800
C  -0.58500 -3.58700 43.83800
C  0.71400 -4.45800 43.89100
C  1.72200 -3.34100 44.01700
C  -1.36200 -3.55400 45.19900
C  1.01200 -5.31900 42.67300
C  1.54200 -6.72900 43.01100
N  4.16600 -1.58600 44.06300
C  4.17000 -2.84800 44.59300
C  5.48700 -3.15600 45.09300
C  6.25800 -2.08600 44.60100
C  5.37500 -1.16000 44.04400
C  6.03100 -4.38900 45.85200
C  7.63900 -1.55100 44.40700
O  8.75900 -2.03200 44.74500
C  7.50000 -0.23100 43.68800
C  8.24900 0.86700 44.33500
O  9.14600 1.56700 43.85900
O  7.79100 1.03100 45.62000
C  8.54800 2.09500 46.34700
H  2.00200 3.55600 41.22500
H  -1.93600 -1.44100 42.92600
H  3.13400 -4.68600 44.92100
H  6.54900 2.74700 42.82700
H  4.65300 3.46700 40.76800
H  3.45800 4.73400 42.76900
H  4.96800 5.33700 42.05300
H  4.96900 4.35000 43.57400
H  7.58900 1.43900 41.14400
H  7.09500 2.94000 40.35700
H  5.11300 0.63100 40.02500
H  6.85100 0.35700 39.59300
H  -0.77300 3.80400 40.15200
H  -0.04900 4.27800 41.75500
H  -1.74700 3.97400 41.59400
H  -3.68400 -0.34000 42.77200
H  -3.36800 -0.92200 41.07800
H  -4.58700 0.14800 41.25000
H  -1.24700 -3.97200 43.06200
H  0.82700 -5.09100 44.77100
H  -0.96600 -4.13900 46.02900
H  -2.31700 -3.98000 44.89400
H  -1.46900 -2.56300 45.64200
H  1.56000 -4.78000 41.90000
H  0.10300 -5.58600 42.13300
H  2.37400 -6.83000 42.31500
H  0.93100 -7.62100 42.87100
H  1.97200 -6.68400 44.01100
H  5.71500 -4.23400 46.88400
H  7.11200 -4.48800 45.75000
H  5.54000 -5.23000 45.36200
H  7.85200 -0.29900 42.65800
H  9.55500 1.73700 46.56200
H  8.13200 2.14600 47.35400
H  8.37000 3.01800 45.79500
Mg 53.66400 23.83400 44.41900
C  50.87600 25.86000 43.86400
C  51.54000 21.11300 44.52200
C  56.28500 21.78300 44.00400
C  55.72000 26.59000 43.71600
N  51.52100 23.55900 44.07900
C  50.53800 24.45900 43.94400
C  49.16500 23.85600 43.92200
C  49.36900 22.43600 44.29900
C  50.90600 22.37100 44.35200
C  48.71000 22.01400 45.68700
C  48.47800 23.98500 42.57500
C  49.32200 23.71200 41.35100
H  49.13400 24.61200 40.12900
N  53.85000 21.71500 44.24800
C  52.87800 20.80100 44.43100
C  53.43400 19.46400 44.44600
C  54.81400 19.67900 44.35800
C  55.04700 21.12500 44.18800
C  52.71300 18.19000 44.81700
C  55.86000 18.52400 44.54700
O  55.44800 17.37100 44.65100
C  57.34300 18.77900 44.59100
N  55.71100 24.22900 43.72100
C  56.61200 23.17100 43.82600
C  57.98900 23.71400 43.55400
C  57.83800 25.25300 43.43700
C  56.32800 25.35500 43.58800
C  59.12500 23.29200 44.55800
C  58.45500 25.96100 42.14100
C  59.40700 27.18600 42.24000
N  53.40900 25.88400 44.05200
C  54.31900 26.85800 43.79300
C  53.62700 28.15500 43.89100
C  52.30100 27.79000 43.95700
C  52.20500 26.39000 43.95000
C  54.28700 29.54100 43.84800
C  50.98700 28.31100 43.92900
O  50.57200 29.49500 44.00600
C  49.99500 27.13600 43.87100
C  49.25000 27.41800 42.67400
O  49.79500 27.51900 41.58600
O  47.90500 27.64500 42.91900
C  47.13200 28.24700 41.83400
H  50.85200 20.30200 44.77000
H  57.24000 21.26800 43.87300
H  56.37000 27.44700 43.52500
H  48.53200 24.39000 44.63000
H  49.02800 21.72700 43.54400
H  48.52700 22.88300 46.31800
H  49.39600 21.43500 46.30500
H  47.70700 21.61500 45.53800
H  48.14100 25.02100 42.53500
H  47.57900 23.36900 42.54600
H  49.07800 22.69100 41.06000
H  50.38700 23.65700 41.57600
H  53.05400 17.51100 44.03600
H  51.65200 18.42200 44.73200
H  52.95200 17.83100 45.81800
H  57.78600 17.91300 45.08200
H  57.56700 19.66700 45.18300
H  57.76700 18.81500 43.58700
H  58.15200 23.26600 42.57400
H  58.38400 25.63500 44.30000
H  59.42900 24.04300 45.28700
H  60.03600 22.89200 44.11200
H  58.67800 22.45800 45.09800
H  57.65500 26.39900 41.54500
H  58.96400 25.37100 41.37800
H  60.38600 26.82600 41.92400
H  59.59500 27.44100 43.28300
H  59.09400 28.05000 41.65300
H  53.94200 30.12800 42.99700
H  55.37200 29.57400 43.74300
H  53.96300 30.01000 44.77700
H  49.31700 27.10300 44.72400
H  46.98800 27.49800 41.05600
H  47.76600 28.97700 41.33000
H  46.15100 28.63900 42.10000

