158

Mg 29.86900 57.76300 41.06300
C  27.25800 55.88200 39.80000
C  32.01300 55.37100 40.10700
C  32.42600 59.83600 41.57300
C  27.56700 60.50400 41.50200
N  29.55500 55.83400 40.17600
C  28.42900 55.23200 39.72800
C  28.62600 53.80800 39.25200
C  30.16300 53.60000 39.54500
C  30.63100 54.97600 40.04900
C  30.37400 52.47600 40.54500
C  28.25900 53.38300 37.82200
C  28.47500 54.51200 36.77100
H  28.86400 54.15900 35.24800
N  31.90800 57.57700 40.97300
C  32.59800 56.53700 40.52900
C  34.01400 56.77700 40.45400
C  34.22300 58.04400 40.93800
C  32.81800 58.56400 41.21500
C  34.89600 55.73300 39.96400
C  35.53500 58.74700 41.13800
O  36.54900 58.07400 41.00900
C  35.67100 60.20600 41.57100
N  29.93400 59.83300 41.43900
C  31.13400 60.42000 41.67300
C  31.01500 61.92700 42.05900
C  29.54200 62.07900 42.22900
C  28.96300 60.72200 41.74700
C  31.76300 62.28200 43.33300
C  28.92900 63.31100 41.37800
C  27.82000 64.02900 42.10300
N  27.81900 58.15600 40.74900
C  27.01900 59.28900 40.96700
C  25.65400 58.95400 40.74800
C  25.74900 57.66600 40.15500
C  27.08400 57.20400 40.23500
C  24.34600 59.76300 40.98600
C  24.94700 56.63800 39.48100
O  23.76600 56.66600 39.14800
C  25.90600 55.40200 39.23100
C  25.43500 54.24200 39.93500
O  25.61800 54.03100 41.12300
O  24.54000 53.39300 39.20300
C  23.79200 52.34700 39.87400
H  32.60600 54.47500 39.91400
H  33.20500 60.57500 41.77400
H  26.77900 61.19500 41.81000
H  28.03000 53.17900 39.91200
H  30.78400 53.47700 38.65700
H  31.33400 51.95900 40.51400
H  29.56100 51.75400 40.47300
H  30.29700 52.84000 41.56900
H  27.21300 53.11300 37.67900
H  28.84500 52.50100 37.56200
H  29.19300 55.20000 37.21900
H  27.52000 55.02800 36.67000
H  34.55300 55.40900 38.98100
H  34.93700 54.81700 40.55300
H  35.90300 56.10800 39.77900
H  35.16600 60.88600 40.88500
H  36.68700 60.50400 41.83000
H  35.16300 60.23600 42.53400
H  31.36700 62.63700 41.31100
H  29.21400 62.28800 43.24700
H  32.31900 61.39900 43.65000
H  31.05500 62.46000 44.14200
H  32.41300 63.15600 43.29500
H  28.48500 62.89600 40.47200
H  29.73000 64.03300 41.21900
H  28.25700 64.86900 42.64200
H  27.31200 63.53400 42.93200
H  27.03000 64.41300 41.45700
H  23.48100 59.16500 41.27200
H  23.95800 60.12400 40.03400
H  24.46800 60.59800 41.67600
H  25.88600 55.18800 38.16200
H  23.09500 52.83400 40.55500
H  24.39700 51.70000 40.51000
H  23.25100 51.75400 39.13700
Mg -4.93700 25.18200 26.25600
C  -3.58700 26.44300 29.21400
C  -7.01900 23.23600 28.09600
C  -5.79300 23.61200 23.39700
C  -2.44900 27.06400 24.43000
N  -5.25800 24.88000 28.36900
C  -4.64900 25.50500 29.38400
C  -5.24400 25.19100 30.70600
C  -6.24000 24.05400 30.41500
C  -6.19100 24.07100 28.86000
C  -5.78000 22.62000 30.93700
C  -5.88100 26.41300 31.40400
C  -5.42100 26.78500 32.83300
H  -4.79600 25.68100 33.70000
N  -6.21700 23.69400 25.84600
C  -7.04000 23.06700 26.73100
C  -8.02800 22.27900 25.95800
C  -7.70400 22.39000 24.58500
C  -6.48500 23.29600 24.54700
C  -9.01700 21.52400 26.78700
C  -8.37200 21.73800 23.39000
O  -7.87600 21.69000 22.23600
C  -9.75200 21.14700 23.57000
N  -4.18500 25.33600 24.17100
C  -4.71800 24.54600 23.20700
C  -3.82700 24.56300 21.96900
C  -2.81100 25.75200 22.20600
C  -3.11300 26.05200 23.73100
C  -3.17600 23.15200 21.54900
C  -3.07800 27.05200 21.36600
C  -1.93500 28.02100 20.96800
N  -3.22100 26.52300 26.64300
C  -2.43700 27.27800 25.81800
C  -1.68000 28.14500 26.61800
C  -2.00200 27.89000 28.01100
C  -3.03600 26.91600 27.94600
C  -0.65800 29.15900 26.10300
C  -1.74800 28.17200 29.45900
O  -1.02400 28.93100 30.02800
C  -2.72300 27.19300 30.25300
C  -1.79000 26.22300 30.87800
O  -1.19300 25.35200 30.19600
O  -1.55800 26.47700 32.19700
C  -0.48700 25.76700 32.95000
H  -7.59400 22.57200 28.74500
H  -6.10700 23.14200 22.46300
H  -1.81100 27.70000 23.81300
H  -4.38100 24.88500 31.29800
H  -7.27100 24.27600 30.69100
H  -6.16700 22.52600 31.95200
H  -4.70500 22.53500 31.09600
H  -6.13700 21.75800 30.37400
H  -6.95400 26.25900 31.51900
H  -5.63500 27.31900 30.85100
H  -6.35100 27.08900 33.31400
H  -4.72900 27.62600 32.78300
H  -8.56900 20.86700 27.53300
H  -9.65200 20.82400 26.24400
H  -9.69300 22.21400 27.29100
H  -10.25400 21.17500 22.60300
H  -10.32300 21.73700 24.28700
H  -9.60700 20.13200 23.93900
H  -4.50400 24.86000 21.16800
H  -1.79000 25.40500 22.04600
H  -2.12200 23.17700 21.27200
H  -3.83100 22.81200 20.74700
H  -3.30700 22.45700 22.37800
H  -3.73200 27.70900 21.94000
H  -3.68500 26.69100 20.53600
H  -2.10000 28.96500 21.48700
H  -1.85100 28.13100 19.88700
H  -0.96800 27.64500 21.30200
H  -1.21400 30.08800 26.23100
H  -0.34900 28.88700 25.09300
H  0.23100 29.28000 26.72200
H  -3.28200 27.59100 31.10100
H  0.00700 25.14000 32.20800
H  -1.08700 25.12700 33.59600
H  0.20300 26.41700 33.48800

