158

Mg 40.45700 40.66500 27.14600
C  39.80200 43.03300 29.59300
C  41.79300 38.65600 29.54900
C  41.52400 38.68800 24.63700
C  39.82400 43.18700 24.69800
N  40.79800 40.84900 29.35300
C  40.36300 41.87700 30.10100
C  40.63900 41.64100 31.62500
C  41.20300 40.13700 31.61200
C  41.36700 39.85500 30.08700
C  42.47300 40.06900 32.45000
C  39.40000 41.64100 32.49700
C  39.28800 42.71000 33.61700
H  38.41300 42.37900 34.82600
N  41.44300 38.85500 27.09800
C  41.94600 38.17600 28.13400
C  42.47200 36.88500 27.74400
C  42.45000 36.91300 26.30900
C  41.79200 38.20900 25.91200
C  43.14800 36.01400 28.73800
C  42.94400 35.80900 25.31700
O  42.81900 35.84000 24.10400
C  43.37700 34.48900 25.87800
N  40.74700 41.01200 24.97700
C  40.91500 39.82400 24.23200
C  40.46200 40.10200 22.79000
C  39.79200 41.51300 22.82300
C  40.13800 41.98100 24.25200
C  41.67800 40.14800 21.82000
C  38.26700 41.66000 22.44300
C  37.26000 40.83500 23.22100
N  39.77200 42.62200 27.09200
C  39.68100 43.59100 26.04100
C  39.26900 44.84500 26.52000
C  39.25700 44.65200 27.90400
C  39.62100 43.31100 28.22500
C  38.82400 45.99600 25.68000
C  38.86700 45.32000 29.12600
O  38.30200 46.39300 29.36400
C  39.27800 44.25300 30.30000
C  40.30200 44.99200 31.14200
O  41.50000 45.04500 30.88500
O  39.69800 45.53400 32.20500
C  40.61000 46.50300 32.97000
H  42.06200 37.88900 30.27800
H  41.78100 37.96700 23.85900
H  39.46500 43.78000 23.85500
H  41.34000 42.36600 32.03900
H  40.54200 39.35200 31.97800
H  42.35600 39.03500 32.77700
H  42.50900 40.82300 33.23600
H  43.33300 40.20900 31.79600
H  39.25800 40.70500 33.03700
H  38.49700 41.86300 31.92700
H  38.68300 43.43800 33.07600
H  40.29300 43.03900 33.88000
H  42.72400 35.01100 28.68100
H  43.18400 36.28700 29.79300
H  44.17300 35.77000 28.45900
H  44.11800 34.56100 26.67400
H  43.75100 33.86900 25.06300
H  42.50400 33.90900 26.17900
H  39.76500 39.27200 22.67600
H  40.33500 42.22100 22.19700
H  41.75300 39.26500 21.18500
H  42.54100 40.09700 22.48400
H  41.90500 41.06700 21.28100
H  38.20000 41.35000 21.40000
H  38.02000 42.72100 22.46800
H  37.71400 40.21300 23.99300
H  36.73500 40.13300 22.57300
H  36.51100 41.47700 23.68400
H  38.31400 45.69300 24.76500
H  39.68300 46.62400 25.44300
H  38.18600 46.60100 26.32300
H  38.33300 43.96300 30.75900
H  40.19700 46.82600 33.92500
H  40.68500 47.30600 32.23600
H  41.55700 46.04700 33.25900
Mg -5.02400 24.80900 26.70700
C  -3.76400 26.81600 29.44700
C  -6.01300 22.56400 29.18300
C  -6.16100 22.88900 24.16200
C  -3.39900 26.84400 24.50400
N  -4.90800 24.75600 29.10800
C  -4.51600 25.77900 29.97900
C  -5.07700 25.52600 31.38100
C  -5.57500 24.00900 31.31000
C  -5.56100 23.77900 29.82400
C  -4.61400 23.01400 32.11700
C  -6.19200 26.57500 31.84900
C  -5.97600 27.22100 33.21500
H  -6.96300 26.80400 34.25600
N  -5.96000 22.97000 26.64400
C  -6.29500 22.24400 27.77000
C  -6.83600 21.02300 27.26500
C  -6.83500 21.04200 25.84900
C  -6.35700 22.35700 25.45000
C  -7.42800 20.07200 28.13700
C  -7.30800 20.07200 24.75100
O  -7.38900 20.34200 23.53200
C  -7.59400 18.64300 25.22400
N  -4.99000 24.85400 24.65400
C  -5.54900 24.06700 23.74100
C  -5.24600 24.35100 22.31700
C  -4.32800 25.66800 22.43600
C  -4.24800 25.80500 23.95700
C  -4.56000 23.17200 21.57000
C  -4.88600 26.96700 21.75300
C  -3.99100 27.71300 20.79800
N  -3.91400 26.53400 26.86300
C  -3.27900 27.20200 25.85700
C  -2.55600 28.26500 26.41000
C  -2.68400 28.13800 27.77400
C  -3.54600 27.08900 28.06900
C  -1.71500 29.26300 25.55200
C  -2.37200 28.77400 29.02000
O  -1.63000 29.72500 29.25100
C  -3.02100 27.92400 30.20600
C  -1.88700 27.37900 31.06500
O  -0.77700 27.08900 30.63200
O  -2.27900 27.21300 32.35400
C  -1.26400 26.72400 33.32000
H  -6.30300 21.81000 29.91800
H  -6.40400 22.26900 23.29700
H  -2.76700 27.38300 23.79400
H  -4.28200 25.49800 32.12700
H  -6.56300 23.71300 31.66200
H  -4.18300 22.20900 31.52100
H  -5.19000 22.58200 32.93500
H  -3.80200 23.59300 32.55800
H  -7.17900 26.11100 31.84900
H  -6.22100 27.36200 31.09500
H  -5.98200 28.29700 33.04100
H  -5.02300 26.89800 33.63400
H  -8.44300 19.89800 27.77900
H  -7.45300 20.30600 29.20100
H  -6.87000 19.14900 27.97900
H  -7.86200 17.88000 24.49300
H  -8.39100 18.71700 25.96300
H  -6.62800 18.43400 25.68400
H  -6.25300 24.47600 21.92000
H  -3.33200 25.36500 22.11500
H  -4.00300 22.55700 22.27700
H  -3.92500 23.41600 20.71900
H  -5.37000 22.49400 21.29900
H  -5.11900 27.69100 22.53400
H  -5.81600 26.81700 21.20500
H  -3.60000 28.61500 21.26900
H  -4.47200 27.90400 19.83900
H  -3.15300 27.07700 20.51600
H  -2.20800 29.81100 24.75000
H  -0.81800 28.74900 25.20600
H  -1.47900 29.91900 26.39000
H  -3.68800 28.51000 30.83800
H  -0.31000 27.25000 33.27700
H  -1.22900 25.66400 33.06900
H  -1.76400 26.85200 34.27900

