158

Mg 31.18600 58.74300 40.73600
C  28.75100 56.41000 39.66800
C  33.57200 56.33700 39.88200
C  33.36200 61.16100 40.98500
C  28.54500 61.05900 41.17800
N  31.11600 56.54000 40.02400
C  30.00600 55.81900 39.60000
C  30.48500 54.49600 38.85500
C  31.91500 54.37800 39.43300
C  32.25700 55.85800 39.81300
C  32.13900 53.45000 40.71200
C  30.52700 54.58000 37.29000
C  29.60800 53.63700 36.44600
H  28.47900 54.35000 35.60700
N  33.12400 58.72200 40.61200
C  33.96400 57.68400 40.31200
C  35.36100 58.10100 40.38500
C  35.34600 59.45000 40.84100
C  33.88200 59.79400 40.85000
C  36.44100 57.16200 39.89900
C  36.52500 60.31100 41.27000
O  37.64900 59.80300 41.23900
C  36.40200 61.70600 41.80200
N  30.91000 60.81900 40.85700
C  31.99900 61.56800 41.06800
C  31.64900 63.02800 41.46400
C  30.09600 62.97900 41.74000
C  29.84400 61.55900 41.16500
C  32.38900 63.76000 42.61700
C  29.38300 64.03400 40.95400
C  28.09800 64.54900 41.72800
N  29.02900 58.76600 40.63200
C  28.15400 59.77100 40.83800
C  26.85100 59.21200 40.75700
C  26.98800 57.94200 40.22900
C  28.37200 57.70800 40.14700
C  25.55100 59.89300 41.16800
C  26.28900 56.70000 39.74900
O  25.11000 56.52900 39.44200
C  27.45700 55.66300 39.37700
C  27.32800 54.50000 40.29700
O  28.01400 54.25300 41.25700
O  26.08600 53.99500 40.12100
C  25.53700 52.84300 40.84500
H  34.23300 55.47900 39.74600
H  34.00500 62.01600 41.20600
H  27.79000 61.81300 41.41000
H  29.98600 53.58900 39.19800
H  32.65200 54.12100 38.67300
H  31.42500 52.62600 40.71100
H  32.01000 54.07000 41.59900
H  33.13000 52.99600 40.73100
H  31.54100 54.36100 36.95600
H  30.30200 55.60700 37.00300
H  28.97900 52.98400 37.05000
H  30.19300 53.01300 35.77100
H  36.16500 56.77100 38.91900
H  36.72800 56.44500 40.66800
H  37.33600 57.77200 39.77500
H  37.33500 61.93300 42.31700
H  35.57100 61.66500 42.50700
H  36.19400 62.36000 40.95500
H  31.85400 63.63500 40.58200
H  29.83500 62.99300 42.79900
H  32.85800 63.01900 43.26400
H  31.79100 64.41900 43.24700
H  33.17200 64.38500 42.18900
H  28.95800 63.72100 40.00100
H  30.07200 64.83700 40.69200
H  27.19700 64.23700 41.19800
H  28.10500 65.63800 41.71700
H  28.01200 64.08000 42.70800
H  25.42400 60.84500 40.65300
H  25.55600 60.01400 42.25100
H  24.77200 59.24400 40.76600
H  27.50300 55.33500 38.33900
H  24.65600 52.38000 40.39900
H  25.19100 53.29600 41.77400
H  26.30300 52.20900 41.29100
Mg 6.92600 55.56100 40.31500
C  4.34400 53.18700 39.88600
C  9.22200 52.99500 39.82900
C  9.29300 57.77400 40.14000
C  4.50100 57.99100 41.07300
N  6.75300 53.34300 39.50700
C  5.60600 52.60200 39.53700
C  5.94400 51.21800 38.99300
C  7.48900 51.14000 39.30800
C  7.85500 52.56600 39.61100
C  7.98600 50.33300 40.49900
C  5.49400 51.02900 37.49500
C  4.56100 49.83300 37.19300
H  4.77500 48.95900 35.92400
N  8.98400 55.43000 39.86600
C  9.75100 54.23700 39.81600
C  11.08400 54.58500 39.65800
C  11.16900 55.97500 39.58000
C  9.79900 56.44500 39.82700
C  12.28800 53.59600 39.46300
C  12.40200 56.77400 39.33900
O  13.44000 56.15300 39.13700
C  12.44400 58.27600 39.38800
N  6.82900 57.63200 40.44800
C  8.03800 58.27100 40.50200
C  7.88400 59.60500 41.08500
C  6.28900 59.87400 41.02400
C  5.76100 58.40500 40.82300
C  8.40900 59.71000 42.54700
C  5.95100 60.79400 39.81800
C  5.33500 62.16700 40.19900
N  4.88000 55.68600 40.46600
C  4.02800 56.70200 40.81800
C  2.69600 56.23100 40.96700
C  2.79600 54.82300 40.72800
C  4.08600 54.56300 40.23600
C  1.47600 56.98700 41.42800
C  2.06900 53.62100 40.73500
O  0.91100 53.33800 41.03900
C  2.99800 52.50200 40.12000
C  2.39500 52.08400 38.90100
O  2.66000 52.58300 37.83600
O  1.52600 51.04500 39.25500
C  0.74000 50.54600 38.21200
H  9.92100 52.17800 39.63900
H  10.09900 58.49200 40.30300
H  3.84300 58.76000 41.48200
H  5.47700 50.46900 39.63200
H  7.98300 51.00300 38.34600
H  9.01500 50.04300 40.28700
H  7.44400 49.38800 40.53000
H  7.90600 50.86900 41.44500
H  6.36300 51.06800 36.83800
H  5.02700 51.94300 37.12900
H  3.62000 50.27900 36.87200
H  4.42900 49.15300 38.03500
H  12.77200 53.66000 38.48800
H  12.23000 52.52500 39.65800
H  13.08300 54.03200 40.06800
H  11.98600 58.74100 38.51500
H  13.52100 58.44500 39.38800
H  12.18600 58.64700 40.38000
H  8.58800 60.19600 40.50000
H  5.98900 60.23100 42.00900
H  7.63400 60.05300 43.23300
H  9.36000 60.24000 42.59800
H  8.70000 58.73700 42.94300
H  5.31800 60.28600 39.09100
H  6.83500 61.01700 39.22100
H  4.74200 62.12700 41.11300
H  4.51000 62.21200 39.48900
H  5.98400 63.03600 40.30900
H  0.71400 56.21500 41.53700
H  1.06400 57.65000 40.66700
H  1.62500 57.51800 42.36800
H  3.07100 51.66800 40.81800
H  0.20300 49.66800 38.57000
H  1.28000 50.21800 37.32400
H  0.01600 51.26800 37.83400

