158

Mg 43.44700 4.19200 47.84700
C  41.41600 6.92100 47.74300
C  40.61900 2.19900 47.63500
C  45.44600 1.63000 47.10900
C  46.25800 6.40400 47.66400
N  41.26900 4.54700 47.51700
C  40.67700 5.77100 47.67800
C  39.19100 5.58600 47.76800
C  39.04700 4.08200 48.00300
C  40.38700 3.55800 47.68300
C  38.51500 3.41100 49.31800
C  38.42800 6.17600 46.54700
C  39.29200 6.15700 45.19700
H  38.45700 6.07700 43.86800
N  43.09800 2.16100 47.43500
C  41.86600 1.53100 47.45700
C  41.99300 0.14800 47.22900
C  43.36900 -0.05200 46.87200
C  44.05900 1.28300 47.12900
C  40.84300 -0.85600 47.14400
C  43.93100 -1.39500 46.42200
O  43.18600 -2.32000 46.22500
C  45.48000 -1.53800 46.06800
N  45.60500 4.05900 47.29600
C  46.17500 2.87100 47.14000
C  47.64500 2.98400 47.24400
C  47.91600 4.53500 47.54000
C  46.52800 5.04400 47.46300
C  48.31300 1.94200 48.11200
C  49.04000 5.12700 46.65500
C  50.44200 5.20200 47.31600
N  43.84000 6.28000 47.81400
C  44.97500 7.03200 47.81100
C  44.66500 8.39400 47.80000
C  43.22500 8.45200 47.78200
C  42.80000 7.13900 47.77100
C  45.58500 9.57500 47.76400
C  42.05400 9.32000 47.71300
O  41.83800 10.53900 47.61800
C  40.79600 8.34700 47.76600
C  40.04600 8.64400 48.98100
O  40.22700 8.13200 50.10800
O  39.11900 9.61200 48.71800
C  37.96700 9.91900 49.58700
H  39.65600 1.68400 47.61700
H  46.11200 0.80200 46.85800
H  47.15600 7.01700 47.76600
H  38.79900 6.03900 48.67900
H  38.38000 3.71000 47.22500
H  38.06500 4.17600 49.95000
H  39.38600 2.93300 49.76800
H  37.70800 2.69700 49.15200
H  38.19200 7.21600 46.77200
H  37.54300 5.57600 46.33700
H  40.06600 5.39000 45.18100
H  39.73000 7.15300 45.13900
H  40.69000 -1.18000 46.11500
H  39.95300 -0.29300 47.42300
H  41.02100 -1.71600 47.78900
H  46.10500 -1.21500 46.90100
H  45.58000 -0.94200 45.16100
H  45.68400 -2.59000 45.86600
H  47.97700 2.79700 46.22300
H  48.02400 4.77800 48.59700
H  48.71900 1.19300 47.43100
H  47.54700 1.49400 48.74400
H  49.14400 2.43200 48.61900
H  48.72800 6.07900 46.22500
H  49.14300 4.48700 45.77800
H  50.64700 6.26400 47.45200
H  51.14900 4.75200 46.61900
H  50.38400 4.80000 48.32800
H  45.09300 10.47900 47.40600
H  46.22300 9.28300 46.92900
H  46.28700 9.73900 48.58100
H  40.19000 8.55300 46.88400
H  38.33700 10.70600 50.24500
H  37.79000 8.99100 50.12900
H  37.09600 10.19100 48.99100
Mg -2.35400 34.80200 26.60700
C  -3.55000 33.07900 29.26200
C  -0.91800 37.17800 28.75600
C  -1.39200 36.66000 23.95100
C  -4.31600 32.86600 24.42700
N  -2.25900 35.07300 28.73000
C  -2.73900 34.16500 29.65200
C  -2.29900 34.46600 31.10400
C  -1.47800 35.80700 30.83200
C  -1.53200 36.06700 29.31700
C  -1.85400 37.10000 31.64200
C  -1.53100 33.28300 31.76700
C  -2.05400 32.61200 33.05700
H  -1.18700 32.84000 34.33600
N  -1.30300 36.65500 26.38800
C  -0.72600 37.40200 27.38600
C  0.21200 38.28900 26.74100
C  0.19000 38.04300 25.40500
C  -0.89500 37.07500 25.17900
C  0.89800 39.44000 27.58400
C  1.05300 38.59300 24.31100
O  0.86000 38.39300 23.13200
C  2.26900 39.36800 24.59500
N  -3.05700 34.89300 24.53400
C  -2.39400 35.76400 23.68500
C  -2.86500 35.58100 22.26400
C  -3.78100 34.28000 22.39000
C  -3.78000 34.00700 23.87700
C  -3.60000 36.81700 21.63300
C  -3.00100 33.17400 21.63400
C  -1.56100 32.81800 22.09000
N  -3.60600 33.22600 26.77000
C  -4.26100 32.46300 25.75200
C  -4.81600 31.27900 26.45400
C  -4.61800 31.54500 27.83100
C  -3.85000 32.69400 27.99500
C  -5.49100 30.11700 25.80900
C  -4.89200 31.03300 29.18000
O  -5.49000 30.03600 29.61800
C  -4.20600 32.02900 30.13200
C  -5.32900 32.61300 30.93600
O  -5.95100 33.61700 30.67900
O  -5.49500 31.84900 32.08100
C  -6.64200 32.24500 32.94300
H  -0.42400 37.87200 29.44000
H  -1.02600 37.31100 23.15400
H  -4.73400 32.12100 23.74600
H  -3.14600 34.61400 31.77300
H  -0.41800 35.58100 30.94900
H  -1.07000 37.56700 32.23900
H  -2.73200 36.95300 32.27000
H  -2.23100 37.82300 30.91900
H  -0.51400 33.58200 32.02200
H  -1.40300 32.52400 30.99400
H  -2.20400 31.55000 32.86600
H  -3.07700 32.94500 33.23400
H  0.37500 39.61500 28.52400
H  0.77400 40.37200 27.03300
H  1.93700 39.28800 27.87400
H  2.66600 39.83000 23.69100
H  3.00000 38.71300 25.06900
H  1.89300 40.07200 25.33800
H  -1.94800 35.41600 21.69900
H  -4.78400 34.47100 22.00900
H  -3.24900 36.88700 20.60300
H  -3.42300 37.71400 22.22700
H  -4.68500 36.82100 21.52900
H  -3.00900 33.32800 20.55500
H  -3.57800 32.25400 21.53800
H  -1.27800 33.20900 23.06700
H  -0.83500 33.22700 21.38700
H  -1.52100 31.72900 22.10500
H  -5.05200 29.81500 24.85800
H  -6.49700 30.41300 25.51100
H  -5.53300 29.30100 26.53000
H  -3.54300 31.44900 30.77400
H  -7.41700 32.72900 32.34900
H  -6.25400 32.75600 33.82500
H  -7.04900 31.35600 33.42400

