158

Mg 30.51700 59.66400 40.47800
C  27.73500 57.89000 39.39600
C  32.44500 56.82500 39.72100
C  33.24500 61.49600 40.92000
C  28.44400 62.30600 41.10000
N  30.16500 57.69400 39.51400
C  28.92100 57.20100 39.14300
C  29.01000 55.81600 38.42400
C  30.46800 55.40300 38.91600
C  31.11600 56.72700 39.35100
C  30.48600 54.22100 39.97900
C  28.87900 55.96800 36.90000
C  27.89000 55.06100 36.19200
H  26.87600 55.72800 35.27600
N  32.62500 59.24600 40.19200
C  33.19000 57.98200 40.10700
C  34.57200 58.09200 40.27600
C  34.86800 59.46600 40.60000
C  33.54700 60.15000 40.62200
C  35.57800 56.96100 39.95200
C  36.30700 59.95600 40.75700
O  37.32700 59.21500 40.71900
C  36.60500 61.41900 40.91900
N  30.83600 61.62800 40.64500
C  32.07700 62.12700 40.93800
C  32.05400 63.58500 41.31400
C  30.49700 63.83100 41.43300
C  29.90400 62.47600 41.04100
C  32.99200 64.10800 42.44400
C  30.05500 65.05300 40.53200
C  29.14200 66.11100 41.11000
N  28.49900 60.03900 40.48200
C  27.78300 61.17200 40.74400
C  26.32100 60.92600 40.63800
C  26.27000 59.66700 40.01100
C  27.61800 59.16800 40.00900
C  25.21500 61.96700 40.87400
C  25.36200 58.63100 39.47200
O  24.14200 58.65900 39.40300
C  26.27100 57.46500 39.08000
C  25.77100 56.35900 39.94700
O  26.16000 56.16700 41.10300
O  24.77700 55.67100 39.28400
C  24.25700 54.51500 39.95600
H  32.99400 55.90100 39.52400
H  34.07200 62.03400 41.39000
H  27.82100 63.15700 41.38200
H  28.20600 55.18600 38.80500
H  31.03200 55.00400 38.07200
H  30.79900 53.26300 39.56500
H  29.47100 54.05100 40.33700
H  31.03400 54.59700 40.84300
H  29.84700 55.61300 36.54600
H  28.79200 57.01000 36.59300
H  27.35400 54.47000 36.93400
H  28.46400 54.35400 35.59300
H  36.08900 56.74800 40.89100
H  36.38200 57.18600 39.25100
H  35.00200 56.06000 39.73900
H  37.62100 61.66300 40.60900
H  36.26200 61.81600 41.87500
H  36.02900 61.94200 40.15600
H  32.42100 64.10500 40.42900
H  30.05000 64.01200 42.41100
H  32.27900 64.68400 43.03400
H  33.75900 64.81000 42.11800
H  33.40000 63.32200 43.07900
H  29.64600 64.71100 39.58100
H  30.98600 65.53800 40.23900
H  28.52700 66.54400 40.32200
H  29.70900 66.97200 41.46400
H  28.49600 65.72800 41.90000
H  24.84100 62.44700 39.96900
H  25.61300 62.78100 41.48100
H  24.35800 61.57000 41.41700
H  26.10500 57.34500 38.01000
H  24.99200 54.17800 40.68800
H  24.10700 53.70700 39.24000
H  23.35900 54.82700 40.48800
Mg -9.45000 18.09100 42.04200
C  -5.98800 17.42200 42.25100
C  -8.73800 21.27300 41.37600
C  -12.74500 18.56200 41.67400
C  -9.94800 14.52000 41.97300
N  -7.55700 19.13000 41.59300
C  -6.33300 18.73500 42.02200
C  -5.34200 19.86500 41.70800
C  -6.27700 21.13600 41.61300
C  -7.65400 20.49500 41.56700
C  -6.04200 22.18300 42.78500
C  -4.43300 19.44600 40.49200
C  -4.99300 18.69700 39.25200
H  -4.79900 19.17600 37.79000
N  -10.60700 19.73200 41.70800
C  -10.09000 20.96000 41.42200
C  -11.16800 21.90400 41.50600
C  -12.41300 21.16900 41.52400
C  -11.98900 19.79500 41.63200
C  -10.96700 23.35500 41.24200
C  -13.85200 21.78300 41.48700
O  -13.91000 23.00000 41.41500
C  -15.13300 20.97000 41.85400
N  -11.04000 16.70300 41.80500
C  -12.35000 17.17300 41.70400
C  -13.37400 15.99800 41.88400
C  -12.45400 14.77100 41.63600
C  -11.03600 15.33700 41.85100
C  -14.30600 15.91900 43.12300
C  -12.61600 14.04400 40.22600
C  -12.61300 12.50200 40.18200
N  -8.29700 16.25200 42.15300
C  -8.61100 14.91900 42.15500
C  -7.40400 14.11700 42.41900
C  -6.38200 15.03600 42.57600
C  -6.94400 16.38100 42.36100
C  -7.14700 12.56000 42.45300
C  -4.94500 15.18400 42.84300
O  -4.10300 14.33100 43.10300
C  -4.64500 16.72900 42.57400
C  -4.01400 17.25400 43.75900
O  -2.82200 17.02100 44.07700
O  -4.80300 18.09800 44.53200
C  -4.12700 18.79000 45.63700
H  -8.36100 22.29400 41.28500
H  -13.81900 18.56300 41.47700
H  -10.12600 13.44500 41.90200
H  -4.81500 19.79000 42.65900
H  -6.15800 21.59100 40.62900
H  -6.98900 22.25600 43.31900
H  -5.70100 23.16000 42.44200
H  -5.22400 21.75600 43.36500
H  -3.61300 18.84500 40.88400
H  -4.08200 20.45500 40.27600
H  -6.07800 18.60100 39.28900
H  -4.48300 17.73500 39.29500
H  -10.96000 23.66300 40.19600
H  -10.02600 23.72400 41.65000
H  -11.62900 23.94000 41.88100
H  -14.91500 20.31100 42.69500
H  -15.36000 20.35200 40.98500
H  -16.01300 21.59300 42.01300
H  -14.02400 15.96700 41.01000
H  -12.58400 14.04200 42.43600
H  -14.43700 14.84500 43.25700
H  -15.25000 16.44300 42.97500
H  -13.88200 16.32500 44.04100
H  -11.70400 14.37800 39.73200
H  -13.47000 14.35100 39.62200
H  -13.46200 12.06400 39.65800
H  -12.82400 12.12900 41.18500
H  -11.75900 11.99400 39.73500
H  -6.38000 12.27400 41.73400
H  -8.07100 12.05800 42.16400
H  -7.07100 12.23300 43.49000
H  -3.90800 16.82000 41.77600
H  -4.51200 19.80600 45.72300
H  -3.04800 18.94000 45.62100
H  -4.26200 18.22400 46.55800

