158

Mg 1.72700 8.12100 25.33000
C  2.13900 10.11300 28.20800
C  1.80600 5.30900 27.42000
C  1.68200 6.22500 22.67800
C  1.87400 11.01200 23.35300
N  2.04000 7.76400 27.64700
C  2.13000 8.73800 28.57800
C  2.12500 8.04100 29.97800
C  2.32400 6.51700 29.68600
C  2.00100 6.50000 28.16300
C  3.76600 5.89600 30.00100
C  0.85600 8.31700 30.86500
C  1.21400 8.73500 32.29300
H  2.41400 7.96300 32.91100
N  1.65200 6.06300 25.08600
C  1.58900 5.08500 26.07100
C  1.27500 3.78700 25.49300
C  1.24800 4.03900 24.05600
C  1.61300 5.42500 23.90100
C  1.23900 2.57900 26.40500
C  0.88000 3.03800 23.02200
O  1.01600 3.26700 21.83400
C  0.40900 1.71300 23.39300
N  1.80600 8.58900 23.29100
C  1.75500 7.57600 22.45700
C  1.82000 8.04100 20.95300
C  1.59600 9.60700 21.13000
C  1.83100 9.77900 22.67000
C  3.17700 7.69600 20.26400
C  0.26000 10.17100 20.73400
C  0.41700 11.53300 20.02600
N  2.02100 10.21500 25.59300
C  1.96700 11.31500 24.70300
C  2.12100 12.52800 25.49900
C  2.23300 12.09000 26.81600
C  2.08100 10.67900 26.82900
C  2.36000 13.92800 24.94200
C  2.39700 12.57000 28.12200
O  2.68700 13.67300 28.55700
C  2.20600 11.34500 29.05700
C  3.29600 11.39700 30.10600
O  4.49500 11.29800 29.90800
O  2.66700 11.60900 31.33300
C  3.49600 11.87100 32.50800
H  1.92100 4.45000 28.08400
H  1.44000 5.63000 21.79600
H  1.97800 11.89000 22.71300
H  2.99300 8.35600 30.55700
H  1.60500 5.95900 30.28500
H  4.36600 6.68400 30.45700
H  4.25400 5.46000 29.12900
H  3.54800 4.98600 30.56000
H  0.30300 7.37800 30.85800
H  0.19100 9.06800 30.43800
H  0.37400 8.40600 32.90400
H  1.26800 9.81500 32.42500
H  2.22600 2.11500 26.40900
H  0.39900 1.92000 26.18400
H  1.18600 2.75800 27.47900
H  -0.39700 1.85900 24.11100
H  1.33900 1.21100 23.66200
H  -0.01000 1.09800 22.59600
H  0.92900 7.56400 20.54500
H  2.47700 10.14300 20.77600
H  3.85300 7.24000 20.98800
H  3.70300 8.60000 19.95500
H  3.08000 7.02000 19.41400
H  -0.45400 10.18400 21.55800
H  -0.16800 9.49100 19.99700
H  1.39000 12.02300 20.07900
H  -0.29300 12.14200 20.58500
H  0.17300 11.41200 18.97100
H  2.26500 14.02500 23.86000
H  3.34600 14.27400 25.24900
H  1.71500 14.72400 25.31300
H  1.25800 11.40500 29.59200
H  2.92400 11.71000 33.42200
H  3.72100 12.92700 32.66300
H  4.39900 11.27200 32.40000
Mg 0.11100 43.21500 27.01500
C  2.51400 42.86300 29.42600
C  -2.34200 42.20900 29.41800
C  -2.35000 43.45900 24.66700
C  2.50900 43.53500 24.52400
N  0.09200 42.61800 29.15000
C  1.18400 42.67000 29.96700
C  0.81900 42.56300 31.45100
C  -0.59100 41.89000 31.37000
C  -0.98900 42.30900 29.87100
C  -0.59100 40.39300 31.57100
C  0.92800 43.86200 32.14200
C  0.90100 43.80300 33.65900
H  0.26800 42.63300 34.41500
N  -2.03500 42.91300 27.04600
C  -2.77500 42.57900 28.13500
C  -4.19100 42.63600 27.80900
C  -4.24200 43.07000 26.43100
C  -2.88700 43.24600 25.97000
C  -5.30900 42.27000 28.78000
C  -5.49500 43.31000 25.40100
O  -5.40100 43.72800 24.25300
C  -6.84300 42.86200 25.89100
N  0.05700 43.25900 24.86700
C  -1.05700 43.47800 24.17600
C  -0.73000 43.72500 22.64500
C  0.77600 43.76800 22.56600
C  1.16200 43.58500 24.07600
C  -1.35500 42.67000 21.71500
C  1.41500 44.91800 21.82900
C  1.92600 46.09000 22.73900
N  2.09600 43.19700 26.92000
C  2.94900 43.32500 25.84200
C  4.35200 43.32200 26.32100
C  4.20000 43.05500 27.68300
C  2.77100 43.01300 28.04700
C  5.71900 43.43700 25.55500
C  5.00600 42.86200 28.89100
O  6.19000 42.57900 29.18600
C  3.95800 42.84400 30.09600
C  4.25200 41.71900 31.03300
O  4.33000 40.52300 30.75000
O  4.39200 42.19400 32.24800
C  4.47500 41.19100 33.30500
H  -3.07300 41.87600 30.15800
H  -3.07200 43.68000 23.87800
H  3.33500 43.66000 23.82100
H  1.47900 41.86200 31.96200
H  -1.27900 42.31400 32.10200
H  0.36500 39.93300 31.82100
H  -0.80600 39.97000 30.59000
H  -1.36400 40.20800 32.31700
H  0.21700 44.58300 31.73900
H  1.90100 44.29600 31.90900
H  0.50600 44.76800 33.97800
H  1.90500 43.88000 34.07700
H  -6.13900 42.91300 28.48800
H  -5.13600 42.60600 29.80300
H  -5.58200 41.21500 28.74600
H  -6.78900 41.83000 26.23800
H  -7.63100 43.08400 25.17200
H  -7.09800 43.47300 26.75700
H  -1.14700 44.70000 22.39400
H  1.16000 42.84100 22.13900
H  -0.56800 42.31500 21.05000
H  -2.25300 43.11800 21.29000
H  -1.59300 41.80000 22.32600
H  0.90000 45.26800 20.93500
H  2.36900 44.48400 21.53000
H  1.22600 46.25500 23.55900
H  2.04300 46.98600 22.12900
H  2.93800 46.00200 23.13300
H  6.51300 43.15100 26.24500
H  5.83900 44.43200 25.12600
H  5.79500 42.73200 24.72800
H  4.12500 43.82600 30.53800
H  5.49500 41.23900 33.68600
H  4.04400 40.19800 33.17800
H  3.85500 41.62400 34.09100

