158

Mg 54.14100 25.08800 44.76600
C  51.41500 27.17800 43.80300
C  52.22600 22.52600 43.72200
C  57.00900 23.31200 44.78000
C  55.99300 27.97000 45.48800
N  52.09000 24.95400 43.64100
C  51.19800 25.83800 43.39300
C  50.04400 25.29100 42.57400
C  50.01100 23.81100 43.15300
C  51.56000 23.73500 43.52900
C  48.95400 23.53800 44.29200
C  50.39100 25.38000 41.10600
C  49.13900 25.54000 40.18600
H  48.99300 24.72000 38.94700
N  54.50200 23.08000 44.36100
C  53.57200 22.21900 43.94700
C  54.17800 20.90700 43.84600
C  55.62800 21.07600 44.21800
C  55.79400 22.54000 44.48400
C  53.39400 19.70700 43.51000
C  56.66800 19.88200 44.41700
O  56.22300 18.74300 44.37200
C  58.02200 20.14800 44.93600
N  56.21600 25.54700 45.10600
C  57.21800 24.65500 45.09400
C  58.57300 25.27300 45.45100
C  58.19800 26.71300 45.68500
C  56.69100 26.76900 45.39500
C  59.22800 24.65500 46.79400
C  59.03600 27.56100 44.68700
C  60.54000 27.75000 45.12400
N  53.86200 27.10500 44.76800
C  54.57200 28.16500 45.25900
C  53.79900 29.38200 45.25700
C  52.57700 28.94300 44.68700
C  52.58200 27.62200 44.50600
C  54.27400 30.72200 45.59000
C  51.32800 29.48800 44.35800
O  50.93200 30.65300 44.42100
C  50.50700 28.38300 43.73400
C  50.16900 28.73400 42.30400
O  50.95400 29.10900 41.48600
O  48.82800 28.67000 42.19200
C  48.38000 29.29200 40.90100
H  51.54300 21.68100 43.60700
H  57.86100 22.64400 44.63600
H  56.63700 28.81900 45.72400
H  49.07500 25.72600 42.81700
H  49.94100 23.15600 42.28400
H  48.56700 24.54000 44.47700
H  49.36700 23.20800 45.24600
H  48.17400 22.88500 43.90200
H  50.86600 24.44100 40.82100
H  51.09900 26.19400 40.95100
H  49.10600 26.59700 39.92500
H  48.22600 25.36100 40.75500
H  54.10900 19.01200 43.07000
H  52.69900 19.90900 42.69400
H  52.82400 19.30300 44.34600
H  58.01300 20.58700 45.93400
H  58.60900 20.66600 44.17600
H  58.40300 19.15500 45.17100
H  59.39600 25.24100 44.73600
H  58.33600 26.97900 46.73300
H  58.83100 23.67000 47.04100
H  59.21500 25.27500 47.69000
H  60.29300 24.44400 46.69300
H  58.67000 28.58700 44.66800
H  58.96900 27.18100 43.66800
H  60.67100 27.51500 46.18000
H  60.84900 28.78300 44.96200
H  61.16000 27.09300 44.51400
H  53.55500 31.33400 46.13300
H  54.53100 31.16200 44.62600
H  55.19100 30.61100 46.17000
H  49.61700 28.21500 44.34000
H  48.86400 30.26200 40.78700
H  47.30500 29.47300 40.89800
H  48.68300 28.72800 40.01900
Mg 50.02900 44.96300 40.86400
C  47.11600 45.72200 39.06000
C  49.89900 41.76300 39.56100
C  53.41800 44.72800 41.50300
C  50.25200 48.29900 41.77500
N  48.61000 43.86100 39.51400
C  47.52500 44.42300 38.85100
C  46.74900 43.34100 38.08800
C  47.55900 42.02800 38.48700
C  48.79400 42.54100 39.18100
C  46.71000 40.99100 39.36300
C  46.76300 43.63500 36.51000
C  45.35200 43.56800 35.86400
H  45.05800 44.41600 34.59900
N  51.38700 43.39100 40.71400
C  51.11200 42.15300 40.08800
C  52.33900 41.35800 40.11400
C  53.33600 42.15200 40.84600
C  52.73600 43.49700 41.01200
C  52.47200 39.95200 39.54600
C  54.79700 41.70600 41.24000
O  55.17800 40.55400 40.91600
C  55.73500 42.51200 41.99700
N  51.52900 46.26100 41.68700
C  52.80700 45.94400 41.78900
C  53.68400 47.05100 42.26200
C  52.64300 48.21900 42.52300
C  51.35200 47.53500 42.00100
C  54.86000 46.76500 43.32800
C  53.02000 49.61000 42.01500
C  53.21000 50.63300 43.22000
N  48.81700 46.67900 40.75500
C  49.04300 47.98400 41.09700
C  48.04200 48.83900 40.62100
C  47.20900 48.03700 39.86800
C  47.70500 46.72800 39.91500
C  47.92300 50.31200 41.01500
C  46.04100 48.04500 38.99500
O  45.22300 48.89800 38.58800
C  45.93000 46.55200 38.49400
C  44.67100 45.99600 39.06000
O  43.66800 45.70600 38.36400
O  44.64100 45.98200 40.40100
C  43.33700 46.19500 41.15300
H  49.83900 40.72000 39.24300
H  54.48400 44.65700 41.73300
H  50.17200 49.35900 42.02500
H  45.73200 43.30800 38.47900
H  48.00300 41.51100 37.63600
H  46.88700 39.95400 39.07800
H  45.64300 41.17200 39.23400
H  47.00200 41.13900 40.40200
H  47.40600 42.86600 36.08300
H  47.23900 44.56800 36.20900
H  44.59600 43.84100 36.60100
H  45.15900 42.51800 35.64500
H  53.16200 39.89100 38.70400
H  51.51100 39.74800 39.07300
H  52.70000 39.16900 40.27000
H  55.22200 42.99500 42.82900
H  56.16900 43.25700 41.33100
H  56.59100 41.99700 42.43200
H  54.12200 47.36300 41.31300
H  52.49800 48.25900 43.60300
H  55.78100 46.70300 42.74900
H  54.58200 45.77400 43.68800
H  54.88000 47.53500 44.09900
H  52.19200 50.02700 41.44100
H  53.87700 49.62200 41.34200
H  52.51000 51.46800 43.18300
H  54.24000 50.98500 43.27700
H  53.10200 50.07300 44.14900
H  48.81100 50.92200 40.84700
H  47.80100 50.25700 42.09700
H  47.08200 50.80400 40.52700
H  45.92800 46.51700 37.40500
H  43.45000 47.11800 41.72100
H  43.08500 45.34300 41.78400
H  42.42900 46.32300 40.56300

