158

Mg -1.66800 17.28500 26.13400
C  -2.38000 15.21200 28.92800
C  -2.23900 19.99100 28.15000
C  -1.35600 19.25600 23.31900
C  -1.90100 14.42300 24.03400
N  -2.33200 17.57200 28.27400
C  -2.42400 16.59500 29.27900
C  -2.67300 17.27300 30.63700
C  -2.89400 18.81900 30.29700
C  -2.38500 18.76200 28.81100
C  -4.33300 19.38000 30.42800
C  -1.53800 17.07900 31.61900
C  -1.66400 17.93700 32.88200
H  -2.01400 17.11000 34.19000
N  -1.77100 19.32400 25.78700
C  -1.94200 20.31100 26.76300
C  -1.88500 21.63600 26.19900
C  -1.62300 21.39300 24.81500
C  -1.55200 19.95800 24.57900
C  -2.02100 22.90300 27.05000
C  -1.46300 22.47900 23.67200
O  -1.28300 22.21500 22.51000
C  -1.66800 23.84400 24.04200
N  -1.51400 16.81000 23.97300
C  -1.35100 17.83800 23.04300
C  -1.16800 17.24700 21.58300
C  -1.05700 15.69600 21.90600
C  -1.42400 15.60100 23.39700
C  -2.27800 17.59300 20.62400
C  0.33200 14.93100 21.66800
C  1.58600 15.73000 21.99000
N  -2.11000 15.25900 26.37000
C  -2.17000 14.18500 25.45400
C  -2.46800 12.93000 26.05900
C  -2.45900 13.28800 27.43100
C  -2.24000 14.69800 27.54900
C  -2.62500 11.61800 25.45200
C  -2.58000 12.75500 28.81500
O  -2.75100 11.61400 29.23000
C  -2.48900 14.05000 29.83000
C  -1.33000 13.87200 30.63400
O  -0.17300 14.14300 30.22600
O  -1.65100 13.24600 31.83200
C  -0.51800 13.28400 32.80700
H  -2.37400 20.84000 28.82400
H  -1.36600 19.79000 22.36700
H  -1.92400 13.56600 23.35800
H  -3.54800 16.80900 31.09300
H  -2.13600 19.36300 30.86100
H  -4.97700 18.67700 30.95700
H  -4.79600 19.65600 29.48000
H  -4.34200 20.27500 31.05000
H  -0.65000 17.33700 31.04200
H  -1.45900 16.05800 31.99100
H  -2.35900 18.76100 32.71900
H  -0.69400 18.39300 33.08200
H  -1.22900 23.61700 26.82500
H  -2.04800 22.78400 28.13300
H  -2.92300 23.41900 26.72000
H  -2.63600 24.00500 24.51600
H  -1.64900 24.48100 23.15700
H  -0.84000 24.15400 24.67900
H  -0.19400 17.55800 21.20300
H  -1.89400 15.16000 21.45900
H  -2.53500 18.64600 20.74300
H  -3.07300 16.86900 20.80200
H  -1.84300 17.53200 19.62600
H  0.40300 14.58200 20.63700
H  0.35600 14.03800 22.29300
H  2.10200 15.87200 21.04000
H  2.22800 15.17000 22.67000
H  1.40900 16.69800 22.45900
H  -3.48100 11.05400 25.82400
H  -1.70100 11.05100 25.55900
H  -2.79000 11.70000 24.37800
H  -3.45500 13.95500 30.32600
H  -1.05100 13.73400 33.64400
H  0.31900 13.93600 32.55500
H  -0.11700 12.31700 33.11000
Mg 7.93600 48.51400 27.88400
C  6.10800 47.79900 30.76500
C  10.65800 49.15100 29.72300
C  9.51700 49.65100 25.05100
C  4.92700 48.75000 26.08900
N  8.35600 48.37000 30.05500
C  7.47600 48.08300 31.08200
C  8.07100 48.20700 32.42000
C  9.52400 48.77900 32.07100
C  9.61200 48.76000 30.52800
C  9.83800 50.20100 32.61100
C  8.06300 46.89200 33.24300
C  9.20100 46.58500 34.19700
H  8.83500 45.60700 35.35500
N  9.87800 49.02500 27.37400
C  10.87300 49.11400 28.32700
C  12.14600 49.32800 27.70100
C  11.83300 49.47200 26.32900
C  10.35300 49.38400 26.19800
C  13.54600 49.45400 28.41400
C  12.72900 49.71400 25.05700
O  12.27500 49.97600 23.94800
C  14.20300 49.80600 25.29100
N  7.27100 49.14700 25.83800
C  8.13500 49.56400 24.93100
C  7.41200 50.02700 23.70400
C  5.97900 49.54000 23.87000
C  6.02600 49.01600 25.29500
C  7.56400 51.46600 23.35800
C  5.42900 48.46200 22.82200
C  6.22900 47.13200 22.50900
N  5.94900 48.17500 28.27400
C  4.86200 48.31300 27.42100
C  3.65800 47.86200 28.23400
C  4.07700 47.62900 29.47700
C  5.40200 47.92600 29.50800
C  2.22300 47.86200 27.75400
C  3.67700 47.32000 30.79500
O  2.59900 46.99700 31.31700
C  4.95100 47.41900 31.67100
C  5.01800 46.08400 32.25800
O  5.46600 45.07200 31.71800
O  4.42800 46.11400 33.53800
C  4.62100 44.92200 34.33700
H  11.56800 49.33100 30.29900
H  9.85000 49.94000 24.05200
H  3.98400 48.79700 25.54000
H  7.51000 48.96900 32.96200
H  10.26100 48.03500 32.37500
H  9.98600 50.96400 31.84700
H  10.74300 50.08000 33.20700
H  9.13200 50.54100 33.36800
H  7.84200 46.07100 32.56100
H  7.19900 46.93600 33.90600
H  9.63000 47.52800 34.53400
H  9.95100 46.22000 33.49600
H  13.79700 50.50600 28.55100
H  14.24600 48.92100 27.77100
H  13.55000 48.95300 29.38200
H  14.61700 50.30700 24.41600
H  14.73500 48.86600 25.43900
H  14.32300 50.49900 26.12400
H  7.92000 49.37100 22.99800
H  5.23700 50.33400 23.78300
H  8.19000 51.93700 24.11600
H  6.66900 52.08300 23.44500
H  8.01400 51.63900 22.38100
H  5.11900 48.90100 21.87300
H  4.42500 48.31000 23.21800
H  5.58500 46.25300 22.54300
H  7.07700 46.84300 23.13000
H  6.63400 47.29800 21.51100
H  1.96400 48.74400 27.17000
H  1.49600 47.67500 28.54500
H  2.19800 47.04600 27.03200
H  4.71200 48.17700 32.41800
H  4.59600 45.31500 35.35300
H  5.64000 44.58600 34.14400
H  3.98900 44.07000 34.09100

