158

Mg 51.15000 47.15100 43.22400
C  47.88400 47.94900 42.49700
C  50.50800 44.15600 41.43000
C  54.29400 46.33200 43.68100
C  51.76400 50.43800 44.36700
N  49.46200 46.18600 42.02000
C  48.20300 46.70800 41.95400
C  47.36400 45.87400 40.94400
C  48.05900 44.47600 41.09900
C  49.44800 44.97100 41.46700
C  47.34300 43.51000 42.10900
C  47.41300 46.45400 39.50700
C  46.29300 46.17300 38.55100
H  46.30900 44.83600 37.67700
N  52.29200 45.50600 42.58700
C  51.83000 44.39600 41.93900
C  52.95600 43.47500 41.74800
C  54.09600 44.08200 42.28400
C  53.62200 45.32600 42.89500
C  52.90900 42.06900 41.17400
C  55.49200 43.51000 42.38100
O  55.82400 42.44700 41.83900
C  56.66100 44.36600 42.82100
N  52.87200 48.25200 43.93700
C  54.01200 47.61900 44.10000
C  55.03600 48.44800 44.84800
C  54.25100 49.85300 45.06600
C  52.85900 49.50800 44.47500
C  55.70200 47.86800 46.13800
C  54.91000 51.07100 44.45200
C  55.26200 52.33500 45.27900
N  50.09900 48.87600 43.45500
C  50.44400 50.10700 43.97100
C  49.20400 50.96400 43.95600
C  48.21300 50.16500 43.32600
C  48.80600 48.95400 43.03700
C  49.09900 52.42900 44.08900
C  46.75300 50.12600 43.03900
O  45.87700 51.00200 43.14300
C  46.59100 48.73000 42.24500
C  45.33800 47.99500 42.72200
O  45.27700 47.55600 43.84800
O  44.36700 47.86100 41.73100
C  43.29300 46.95100 42.15500
H  50.30400 43.23900 40.87300
H  55.35800 46.15800 43.85500
H  52.03800 51.45600 44.65000
H  46.33600 45.69700 41.26000
H  48.10200 43.96500 40.13700
H  46.49200 43.95500 42.62400
H  48.04700 43.33700 42.92300
H  46.92600 42.67100 41.55100
H  48.38300 46.31500 39.03000
H  47.40500 47.53200 39.67200
H  46.17700 46.97600 37.82300
H  45.32400 46.22100 39.04600
H  53.48100 41.99700 40.24900
H  51.88400 41.88600 40.85300
H  53.19400 41.34100 41.93400
H  57.57300 43.78800 42.66700
H  56.60900 44.64000 43.87500
H  56.78300 45.26500 42.21600
H  55.77900 48.60600 44.06600
H  54.14200 50.04700 46.13300
H  55.24600 46.88500 46.26000
H  55.48800 48.46400 47.02500
H  56.74400 47.56000 46.04400
H  54.18200 51.25500 43.66100
H  55.80800 50.84500 43.87700
H  56.34000 52.47900 45.20600
H  54.94400 52.15100 46.30500
H  54.72900 53.21900 44.92900
H  50.00800 52.72400 44.61300
H  48.25200 52.79500 44.66900
H  49.16400 52.80400 43.06700
H  46.46200 48.92900 41.18100
H  43.62700 46.15200 42.81600
H  43.03800 46.35900 41.27600
H  42.43800 47.51800 42.52200
Mg 17.34100 52.57500 26.83300
C  19.63700 51.04600 28.94700
C  15.45200 53.30900 29.67500
C  15.07100 53.87700 24.88500
C  19.11500 51.46200 24.04800
N  17.53100 52.09700 29.05600
C  18.53100 51.50900 29.69300
C  18.33500 51.58100 31.23400
C  16.84400 51.97300 31.35200
C  16.60500 52.54500 29.97100
C  15.79500 50.87100 31.78700
C  19.29900 52.62200 31.85100
C  19.31300 52.69000 33.46400
H  18.24200 51.96900 34.27400
N  15.56200 53.57400 27.26300
C  14.95400 53.81300 28.48200
C  13.76600 54.62200 28.28100
C  13.67700 54.75500 26.81500
C  14.83000 54.02700 26.24300
C  12.77500 55.12800 29.34800
C  12.70100 55.51400 25.96300
O  12.66100 55.57100 24.73700
C  11.70200 56.31100 26.64900
N  17.05600 52.42300 24.79900
C  16.08100 53.18000 24.22500
C  16.16200 53.10100 22.64400
C  17.55800 52.39700 22.41500
C  17.92000 52.08700 23.81200
C  14.98600 52.32600 22.02200
C  18.64900 53.33400 21.88200
C  19.75400 52.80100 21.02400
N  19.00600 51.44500 26.50800
C  19.64100 51.09700 25.32500
C  20.79900 50.29600 25.72900
C  20.82600 50.22800 27.13200
C  19.73900 51.08000 27.52900
C  21.78800 49.64400 24.84100
C  21.58200 49.73700 28.30100
O  22.57900 48.95600 28.43200
C  20.71000 50.12900 29.42800
C  20.26100 48.96100 30.22200
O  19.75800 47.96000 29.73100
O  20.44500 49.25700 31.54300
C  20.19700 48.13500 32.36700
H  14.88700 53.50600 30.58800
H  14.61700 54.51800 24.12700
H  19.79300 51.14000 23.25400
H  18.52500 50.60600 31.68300
H  16.70800 52.84800 31.98700
H  14.97800 51.32200 32.34900
H  16.35000 50.14200 32.37800
H  15.44400 50.41100 30.86300
H  19.04200 53.56000 31.35800
H  20.26800 52.25700 31.51300
H  19.22100 53.76700 33.60700
H  20.33000 52.47100 33.78900
H  12.50900 56.18400 29.30200
H  13.27100 54.95500 30.30400
H  11.87600 54.52200 29.23800
H  10.97600 55.75200 27.23900
H  11.15200 56.97100 25.97600
H  12.26300 57.01200 27.26700
H  16.27400 54.04600 22.11200
H  17.40700 51.50200 21.81200
H  14.75500 51.45200 22.63100
H  15.42600 52.03800 21.06700
H  14.06700 52.89900 21.90000
H  19.17500 53.88500 22.66100
H  18.25000 54.11100 21.22900
H  19.80000 53.38400 20.10500
H  19.58200 51.76600 20.72900
H  20.72000 52.82000 21.52800
H  22.54400 49.12100 25.42600
H  22.24800 50.47400 24.30400
H  21.39700 48.85900 24.19400
H  21.41200 50.69700 30.03800
H  19.19700 48.20100 32.79400
H  20.85100 48.17400 33.23900
H  20.39400 47.14200 31.96300

