158

Mg -1.48300 17.78400 27.24500
C  -1.86900 15.32100 29.72700
C  -2.06500 20.16800 29.48100
C  -1.36900 19.89400 24.67200
C  -1.58300 15.03400 24.73900
N  -1.91200 17.66400 29.41200
C  -1.96500 16.62800 30.26100
C  -2.31400 17.17900 31.65700
C  -2.60900 18.67600 31.40500
C  -2.18700 18.87400 29.96300
C  -4.02500 19.09500 31.74500
C  -1.16900 16.84800 32.69000
C  -1.59000 16.06300 33.94800
H  -0.44200 15.98700 34.99000
N  -1.61400 19.76500 27.04800
C  -1.70100 20.58400 28.16600
C  -1.57200 21.92900 27.73800
C  -1.38200 21.91000 26.38200
C  -1.37400 20.53100 25.97700
C  -1.82200 23.15300 28.62300
C  -1.13200 22.99800 25.38600
O  -1.03300 22.84200 24.18800
C  -1.02000 24.41200 25.85300
N  -1.45100 17.46600 25.05100
C  -1.46600 18.57400 24.25100
C  -1.83300 18.16600 22.78700
C  -1.67500 16.63600 22.80100
C  -1.54500 16.40600 24.28100
C  -3.22900 18.51300 22.31400
C  -0.47600 15.98900 22.03100
C  0.99400 16.28800 22.56100
N  -1.56800 15.64700 27.19000
C  -1.54800 14.72600 26.14100
C  -1.76900 13.38700 26.70400
C  -1.90400 13.58700 28.08900
C  -1.74300 14.98100 28.32100
C  -2.09100 12.20700 25.92200
C  -2.17900 12.90700 29.29400
O  -2.30100 11.68600 29.51100
C  -2.22200 13.98900 30.43200
C  -1.11500 13.58500 31.42000
O  0.04800 13.97100 31.34000
O  -1.55200 12.93000 32.52900
C  -0.62300 12.55000 33.64500
H  -2.15500 21.02000 30.15800
H  -1.52500 20.50300 23.77900
H  -1.66000 14.21000 24.02800
H  -3.20700 16.70700 32.06700
H  -1.99300 19.39900 31.94100
H  -4.55900 18.49000 32.47800
H  -4.52000 19.19900 30.78000
H  -3.96600 20.12100 32.11000
H  -0.79500 17.82900 32.98200
H  -0.37900 16.35400 32.12400
H  -1.82700 15.04400 33.63900
H  -2.40600 16.63500 34.39000
H  -2.67400 23.75700 28.31000
H  -0.89300 23.69800 28.78600
H  -2.18400 22.99600 29.63900
H  -1.93700 24.70100 26.36600
H  -0.86900 25.03000 24.96800
H  -0.29000 24.41000 26.66300
H  -1.12200 18.64900 22.11600
H  -2.56700 16.12700 22.43800
H  -3.59800 18.96200 23.23700
H  -3.85000 17.63400 22.14500
H  -3.22300 19.17100 21.44500
H  -0.57200 16.34100 21.00400
H  -0.53500 14.90100 21.99700
H  1.02500 16.75500 23.54500
H  1.49200 16.92000 21.82500
H  1.60700 15.39900 22.71000
H  -2.22800 11.46700 26.71000
H  -1.34300 11.84700 25.21600
H  -3.05400 12.41700 25.45700
H  -3.22400 13.93200 30.85600
H  -0.01100 11.68700 33.38400
H  -1.14400 12.35800 34.58400
H  0.06500 13.39000 33.73600
Mg 35.88900 2.43900 30.48700
C  33.42200 3.33200 32.75400
C  38.27200 2.24700 33.08000
C  38.31200 1.79800 28.21200
C  33.61900 3.16100 27.90500
N  35.81900 2.87100 32.63200
C  34.67200 2.98900 33.40200
C  34.91200 2.99600 34.85700
C  36.55700 2.83200 34.88100
C  36.98900 2.62000 33.42400
C  37.32300 4.01500 35.55400
C  34.04900 1.95300 35.65500
C  33.97700 2.10000 37.21000
H  34.79300 3.16500 37.98600
N  37.97600 2.08700 30.63000
C  38.72100 1.89000 31.76800
C  40.05100 1.42000 31.40400
C  40.12600 1.45900 30.00300
C  38.79600 1.71700 29.52900
C  41.11600 1.01900 32.37400
C  41.42400 1.26500 29.12900
O  41.34700 1.48900 27.92200
C  42.71900 0.72900 29.70600
N  35.92200 2.54400 28.38100
C  37.08700 2.14500 27.73100
C  36.85400 2.37200 26.22600
C  35.31300 2.47300 26.13400
C  34.89000 2.69600 27.51100
C  37.75600 3.49800 25.60000
C  34.47500 1.35600 25.37500
C  34.03100 0.15700 26.18100
N  33.89000 3.04800 30.31300
C  33.13000 3.34100 29.21600
C  31.78200 3.67400 29.64500
C  31.84700 3.74100 31.05300
C  33.12000 3.24500 31.37700
C  30.60100 4.02300 28.78100
C  31.11700 3.99800 32.25800
O  29.99100 4.50200 32.42200
C  32.11500 3.65200 33.42700
C  32.23900 4.81200 34.35300
O  32.80200 5.87800 34.02200
O  31.62700 4.46800 35.54700
C  31.55000 5.45100 36.57200
H  38.88300 2.24400 33.98600
H  39.01600 1.61600 27.39800
H  32.90700 3.33600 27.09600
H  34.68900 4.01300 35.17700
H  36.88800 1.95700 35.44000
H  36.95100 4.01700 36.57900
H  36.94600 4.93100 35.10100
H  38.40700 4.02900 35.44200
H  34.49800 0.96800 35.52800
H  33.07300 1.95100 35.17100
H  34.29000 1.16300 37.67200
H  32.92200 2.11800 37.48300
H  41.93100 1.74200 32.41500
H  41.57600 0.04200 32.22700
H  40.83000 0.93100 33.42300
H  43.36000 0.52500 28.84900
H  42.53600 -0.17800 30.28300
H  43.28600 1.36400 30.38700
H  37.13100 1.43700 25.73800
H  35.01600 3.45100 25.75600
H  37.07000 4.13500 25.04200
H  38.49700 3.13000 24.89100
H  38.18800 4.27900 26.22600
H  35.16500 1.01200 24.60500
H  33.64200 1.86400 24.88900
H  34.41200 -0.70100 25.62800
H  32.94200 0.10000 26.20800
H  34.52300 0.09200 27.15100
H  29.73300 4.10200 29.43500
H  30.42300 3.39600 27.90700
H  30.81400 4.96400 28.27400
H  31.62700 2.85700 33.99200
H  31.85900 6.44300 36.24500
H  31.90000 5.12400 37.55200
H  30.50500 5.65100 36.81100

