158

Mg 2.45800 -1.68300 44.17600
C  4.90500 0.75400 43.33000
C  0.03800 0.52500 42.80400
C  0.36200 -4.16200 44.25600
C  5.10100 -3.78600 45.21200
N  2.47900 0.34100 43.20300
C  3.64200 1.14400 42.96800
C  3.24600 2.45600 42.26200
C  1.67000 2.40400 42.22500
C  1.38400 0.95600 42.75300
C  1.04900 3.53400 43.14500
C  3.95100 2.55800 40.87500
C  4.66000 3.87200 40.58000
H  4.45900 4.34900 39.07800
N  0.42600 -1.78400 43.83000
C  -0.39700 -0.77400 43.34100
C  -1.77300 -1.28300 43.35700
C  -1.69800 -2.71900 43.64800
C  -0.25700 -2.94500 43.94500
C  -2.97400 -0.48000 43.17300
C  -2.94100 -3.62900 43.87400
O  -4.09500 -3.23600 43.64600
C  -2.77000 -5.08600 44.34900
N  2.70700 -3.72200 44.60600
C  1.65100 -4.57500 44.57600
C  2.07500 -5.97800 45.11600
C  3.64100 -5.81400 45.34500
C  3.89600 -4.38700 45.06800
C  1.20500 -6.56600 46.23900
C  4.54600 -6.76800 44.39300
C  5.36800 -7.91000 45.01200
N  4.67500 -1.59600 44.21800
C  5.55800 -2.51600 44.72400
C  6.83200 -1.89200 44.70800
C  6.62200 -0.56800 44.21500
C  5.26000 -0.40900 43.90900
C  8.10200 -2.54900 45.04100
C  7.25900 0.68900 43.90900
O  8.41700 1.04100 43.97100
C  6.15300 1.66400 43.37600
C  6.04400 2.76600 44.32200
O  5.54000 2.62400 45.45200
O  6.69100 3.89000 43.94400
C  6.64400 4.95700 44.96400
H  -0.79400 1.11600 42.41400
H  -0.29400 -5.03500 44.24800
H  5.81700 -4.53300 45.56200
H  3.69800 3.24200 42.86800
H  1.29100 2.52700 41.21000
H  1.73900 4.27500 43.54900
H  0.53100 3.09400 43.99700
H  0.36000 4.08700 42.50700
H  3.25300 2.42100 40.04900
H  4.74700 1.81600 40.80600
H  5.72600 3.75700 40.77100
H  4.25900 4.55500 41.32900
H  -3.30600 -0.81200 42.19000
H  -2.74800 0.57800 43.04100
H  -3.80800 -0.69600 43.84100
H  -3.69600 -5.62300 44.55200
H  -2.10900 -5.19000 45.21000
H  -2.29900 -5.68500 43.57000
H  2.02700 -6.66100 44.26800
H  3.80900 -5.95100 46.41300
H  0.54500 -5.82500 46.68900
H  1.71500 -6.85500 47.15700
H  0.66500 -7.37700 45.75000
H  5.23600 -6.22200 43.75100
H  3.90900 -7.24900 43.65100
H  5.36900 -8.10200 46.08500
H  6.39700 -7.63900 44.77800
H  5.18600 -8.87900 44.54900
H  8.47200 -3.09000 44.17000
H  7.84900 -3.34700 45.73900
H  8.79400 -1.84500 45.50300
H  6.43900 2.10300 42.42000
H  7.40500 4.71600 45.70700
H  5.68100 5.14300 45.43800
H  6.90500 5.85300 44.40100
Mg 26.23800 48.98800 27.01600
C  24.27700 50.32900 29.49700
C  28.71100 48.37200 29.19500
C  28.41000 48.34600 24.41800
C  24.00600 50.35000 24.65400
N  26.45300 49.21100 29.12300
C  25.49600 49.75000 29.97900
C  25.85900 49.45500 31.46300
C  27.43100 49.08400 31.33900
C  27.52900 48.91700 29.79800
C  28.41600 50.18200 31.85400
C  25.00700 48.31900 32.05700
C  24.96700 48.20800 33.56800
H  25.74900 49.15500 34.48800
N  28.27100 48.39100 26.82000
C  29.13700 48.21500 27.84300
C  30.36600 47.82200 27.38400
C  30.28600 47.74800 25.99400
C  28.92200 48.16600 25.64900
C  31.50600 47.41600 28.23100
C  31.31700 47.53700 24.95500
O  31.15400 47.62200 23.75000
C  32.77200 47.41600 25.46700
N  26.32200 49.59000 24.89600
C  27.26300 48.98700 24.07600
C  26.83700 49.08500 22.57700
C  25.39200 49.56500 22.68100
C  25.24700 49.90800 24.13500
C  27.77300 49.89500 21.70000
C  24.44200 48.47000 22.20700
C  24.01600 47.44100 23.24900
N  24.51800 50.10600 27.01700
C  23.66700 50.56500 25.99600
C  22.49500 51.17100 26.52200
C  22.70300 51.10800 27.89000
C  23.93600 50.40900 28.12200
C  21.42100 51.80900 25.69500
C  22.13200 51.40600 29.22000
O  21.07000 51.89800 29.54400
C  23.18500 50.94000 30.29300
C  23.64000 52.09400 31.17800
O  24.40500 52.98300 30.83000
O  22.95800 52.02600 32.35700
C  23.29100 53.06100 33.35800
H  29.45100 48.24800 29.98800
H  28.89300 47.89400 23.55000
H  23.29000 50.45000 23.83600
H  25.64800 50.42700 31.90800
H  27.58700 48.14800 31.87500
H  27.91000 51.13200 32.02800
H  29.12700 50.47900 31.08300
H  28.98900 49.77300 32.68700
H  25.54900 47.44700 31.69100
H  24.02300 48.31600 31.58900
H  25.19600 47.21400 33.95200
H  23.93600 48.47300 33.80200
H  31.21900 47.23900 29.26800
H  32.17000 48.28000 28.25400
H  32.23200 46.68100 27.88200
H  32.83700 46.40700 25.87500
H  32.96300 48.24400 26.14900
H  33.39800 47.65800 24.60800
H  26.73400 48.11900 22.08100
H  25.26500 50.40400 21.99800
H  28.64300 50.26500 22.24300
H  27.28800 50.73100 21.19500
H  28.20300 49.21100 20.96800
H  24.84800 47.91700 21.36000
H  23.56900 48.95200 21.76900
H  24.58900 47.55800 24.16900
H  24.15900 46.45400 22.80800
H  22.98300 47.67300 23.50800
H  21.06000 51.04500 25.00600
H  21.83900 52.69500 25.21800
H  20.51500 52.08200 26.23600
H  22.83100 50.11400 30.91000
H  22.92600 54.06500 33.14300
H  24.37700 53.13800 33.32400
H  23.09300 52.75000 34.38400

