158

Mg 54.08000 23.89000 44.87700
C  51.82400 26.45600 43.74800
C  51.78000 21.60500 43.75400
C  56.41800 21.73600 45.29700
C  56.22200 26.53800 46.04500
N  52.06700 24.04200 43.69800
C  51.38900 25.18800 43.44100
C  50.05600 24.81900 42.75500
C  49.76900 23.42100 43.33200
C  51.30400 22.95800 43.63200
C  48.86800 23.46200 44.57000
C  50.09400 24.81800 41.21400
C  48.77500 25.27300 40.51200
H  48.31600 24.46300 39.29600
N  54.10900 21.90400 44.44200
C  53.06200 21.13300 44.13000
C  53.43400 19.73800 44.32300
C  54.83200 19.67400 44.66000
C  55.22600 21.16400 44.80600
C  52.51400 18.47800 43.85200
C  55.65800 18.40600 44.90400
O  55.17000 17.31000 44.85900
C  57.14100 18.50400 45.06400
N  56.15200 24.15800 45.40300
C  56.84300 23.03300 45.73100
C  58.22700 23.25300 46.28100
C  58.07500 24.80700 46.62200
C  56.70600 25.25100 45.99900
C  58.72200 22.39300 47.37500
C  59.27400 25.53000 45.95900
C  60.53400 25.64900 46.87700
N  54.05300 26.04700 44.99400
C  54.92800 26.90400 45.53600
C  54.26200 28.21500 45.65400
C  53.03900 28.09500 44.96000
C  52.99400 26.76700 44.49900
C  54.87600 29.44700 46.19900
C  51.82300 28.82500 44.46100
O  51.46800 29.99300 44.62100
C  50.98100 27.72900 43.67000
C  50.80200 28.27100 42.26200
O  51.70300 28.27400 41.41700
O  49.50000 28.69700 42.07900
C  49.10600 29.23300 40.76900
H  51.03400 20.84000 43.52700
H  57.12700 21.04600 45.75700
H  56.73900 27.41500 46.43900
H  49.26100 25.48300 43.09100
H  49.10100 22.85000 42.68800
H  48.06600 22.73600 44.43500
H  48.34300 24.38900 44.79700
H  49.38600 23.06000 45.44100
H  50.26700 23.81500 40.82500
H  50.94900 25.44600 40.96400
H  48.97600 26.30300 40.21800
H  47.96500 25.16200 41.23300
H  52.56900 18.41600 42.76500
H  51.48000 18.69200 44.12400
H  52.64300 17.44200 44.16500
H  57.55600 17.50800 44.91200
H  57.29800 18.88000 46.07500
H  57.41700 19.12400 44.21100
H  58.98300 23.03200 45.52700
H  58.22600 25.05900 47.67200
H  59.44500 21.74600 46.87900
H  57.94300 21.77100 47.81600
H  59.13000 23.05000 48.14400
H  59.01500 26.56700 45.74300
H  59.59500 25.06200 45.02800
H  60.52700 25.38000 47.93400
H  60.81400 26.70200 46.85200
H  61.41900 25.17200 46.45600
H  54.15700 30.26700 46.20500
H  55.69900 29.64800 45.51300
H  55.12100 29.19600 47.23100
H  49.98600 27.74600 44.11400
H  49.76200 29.99900 40.35400
H  48.08000 29.59900 40.77000
H  49.14100 28.41500 40.05000
Mg -10.55600 38.73900 41.40900
C  -9.33000 35.54400 40.61400
C  -7.76600 40.06300 39.96300
C  -12.26400 41.62800 40.85100
C  -13.64100 37.14100 42.31500
N  -8.87800 37.86800 40.24100
C  -8.58800 36.53700 40.08700
C  -7.27600 36.44900 39.30900
C  -6.61800 37.84600 39.48400
C  -7.81000 38.68400 39.91700
C  -5.45200 37.94900 40.62900
C  -7.68100 36.03900 37.85200
C  -7.12600 34.67300 37.36700
H  -6.56800 34.57200 35.94800
N  -10.00800 40.62100 40.66100
C  -8.77400 41.03500 40.20900
C  -8.79600 42.44600 39.88200
C  -10.11600 42.89900 40.09600
C  -10.91400 41.67600 40.58000
C  -7.56900 43.12400 39.43400
C  -10.67600 44.27400 39.82900
O  -9.89600 45.15300 39.51200
C  -12.09000 44.61700 39.75600
N  -12.70700 39.24500 41.54700
C  -13.06600 40.59000 41.36200
C  -14.54000 40.67500 41.75500
C  -14.91400 39.35400 42.37400
C  -13.69300 38.52700 42.04100
C  -15.06300 41.95300 42.59700
C  -16.29100 38.63300 42.09200
C  -17.10200 38.27500 43.41500
N  -11.35500 36.80700 41.57300
C  -12.50300 36.31200 42.07100
C  -12.41300 34.90300 42.25400
C  -11.28200 34.54300 41.69700
C  -10.57500 35.70900 41.27400
C  -13.43800 34.04600 42.75000
C  -10.42500 33.37300 41.30100
O  -10.56100 32.20400 41.53700
C  -9.17800 34.00800 40.52100
C  -7.95900 33.47700 41.09600
O  -7.05200 32.87300 40.52800
O  -7.97600 33.62200 42.43000
C  -6.86200 32.95800 43.25500
H  -6.77300 40.37800 39.63500
H  -12.85500 42.54700 40.84300
H  -14.57200 36.79600 42.76900
H  -6.68700 35.70400 39.84400
H  -6.18700 38.13200 38.52400
H  -5.77500 38.51100 41.50600
H  -4.52000 38.37600 40.25900
H  -5.28000 36.91500 40.92500
H  -7.27000 36.75400 37.13900
H  -8.76900 36.06900 37.79900
H  -7.86900 33.89400 37.53800
H  -6.28000 34.44100 38.01400
H  -6.87700 43.19700 40.27300
H  -7.66000 44.12900 39.02300
H  -7.08800 42.45400 38.72100
H  -12.78700 43.92300 39.28500
H  -12.18200 45.63900 39.38800
H  -12.50300 44.65500 40.76400
H  -15.18900 40.72200 40.88100
H  -14.78100 39.50600 43.44500
H  -15.45400 41.63200 43.56200
H  -15.82000 42.51100 42.04700
H  -14.28000 42.65500 42.88500
H  -16.03400 37.75500 41.50000
H  -16.86100 39.40300 41.57300
H  -16.62500 38.47300 44.37500
H  -17.31900 37.21300 43.30200
H  -18.06400 38.77300 43.29300
H  -12.97000 33.11900 43.08100
H  -14.12500 33.85500 41.92600
H  -13.92000 34.47700 43.62800
H  -9.20500 33.67900 39.48200
H  -7.30800 32.58800 44.17800
H  -6.05200 33.66900 43.41600
H  -6.40800 32.09600 42.76600

