158

Mg -12.95700 15.90900 41.98300
C  -9.82500 14.22000 41.77500
C  -11.40700 18.61400 40.45000
C  -15.95000 17.16900 41.66300
C  -14.24700 12.85800 42.92300
N  -10.83600 16.33400 41.16500
C  -9.77800 15.54400 41.18600
C  -8.57000 16.22900 40.57300
C  -9.03700 17.68900 40.40100
C  -10.53000 17.55900 40.64100
C  -8.42100 18.63400 41.47700
C  -7.96200 15.51400 39.33100
C  -6.46400 15.33800 39.24200
H  -5.71900 16.02500 38.08700
N  -13.59300 17.70000 41.20700
C  -12.82500 18.71500 40.57600
C  -13.69600 19.80700 40.25900
C  -15.03400 19.38200 40.52500
C  -14.92300 18.04000 41.17300
C  -13.12600 21.11500 39.62900
C  -16.31000 20.11700 40.15400
O  -16.19400 21.16700 39.51900
C  -17.69000 19.57300 40.40500
N  -14.81600 15.05500 42.09700
C  -15.92900 15.81800 42.00400
C  -17.24200 15.10400 42.32900
C  -16.72100 13.63900 42.47100
C  -15.14200 13.85900 42.49100
C  -18.03200 15.62700 43.57700
C  -17.13700 12.73300 41.37900
C  -17.08400 11.15600 41.54000
N  -12.26200 13.97200 42.51800
C  -12.88400 12.80400 42.88700
C  -11.94900 11.68600 43.16700
C  -10.73200 12.29500 42.82000
C  -10.97300 13.61100 42.37700
C  -12.17900 10.29400 43.46300
C  -9.28300 11.97300 42.62600
O  -8.59700 11.03000 42.96000
C  -8.73700 13.16600 41.76900
C  -7.58800 13.54700 42.58200
O  -7.67900 13.89800 43.78100
O  -6.46500 13.58700 41.73400
C  -5.19800 13.95400 42.36500
H  -10.96100 19.52700 40.05000
H  -16.93600 17.63200 41.73300
H  -14.70400 11.93500 43.28400
H  -7.90300 16.20300 41.43500
H  -8.73600 18.11700 39.44500
H  -7.73100 19.29200 40.94800
H  -8.02300 18.05900 42.31300
H  -9.17300 19.29500 41.90800
H  -8.10500 16.14000 38.45000
H  -8.52400 14.60500 39.11900
H  -6.24700 14.27000 39.23200
H  -6.08700 15.61900 40.22500
H  -12.52200 20.99800 38.72900
H  -12.60000 21.70700 40.37700
H  -13.83000 21.87200 39.28100
H  -18.45300 20.30600 40.14300
H  -17.85300 19.51900 41.48100
H  -17.88100 18.58800 39.97700
H  -17.87900 15.15700 41.44600
H  -17.04100 13.17300 43.40300
H  -19.05100 15.88600 43.29000
H  -17.53600 16.50300 43.99400
H  -18.02800 14.90400 44.39200
H  -16.41600 13.04400 40.62300
H  -18.13500 13.07400 41.10200
H  -16.21700 10.75700 41.01500
H  -17.95400 10.73000 41.04000
H  -17.05500 10.87300 42.59200
H  -13.11100 10.25400 44.02700
H  -11.43200 9.93800 44.17300
H  -12.32100 9.68500 42.57100
H  -8.39200 12.74700 40.82300
H  -4.52600 14.14500 41.52900
H  -4.79900 13.11000 42.92700
H  -5.36900 14.77800 43.05800
Mg -4.75300 25.16200 25.35800
C  -3.52800 26.29200 28.49700
C  -6.69600 22.95700 27.02200
C  -5.40300 23.62100 22.45000
C  -2.41900 27.22300 23.78800
N  -4.79700 24.51800 27.47900
C  -4.36700 25.27500 28.57100
C  -4.92900 24.74300 29.87100
C  -5.78900 23.51600 29.31100
C  -5.74600 23.63900 27.82800
C  -5.43800 22.03600 29.89800
C  -5.78000 25.75300 30.75100
C  -5.25100 25.86300 32.20700
H  -6.19700 25.35200 33.35300
N  -5.97300 23.62000 24.80500
C  -6.80600 22.98700 25.63900
C  -7.74500 22.11700 24.94400
C  -7.23500 22.08400 23.62400
C  -6.15600 23.10500 23.56100
C  -8.97000 21.42500 25.51900
C  -7.52800 21.13200 22.45600
O  -6.87900 20.94000 21.50400
C  -8.80300 20.34900 22.67300
N  -3.86200 25.24400 23.45900
C  -4.39600 24.54500 22.45000
C  -3.77200 24.89900 21.09000
C  -3.08600 26.28600 21.46700
C  -3.12100 26.27300 22.98400
C  -2.84300 23.82300 20.48200
C  -3.83000 27.52400 20.79500
C  -3.66900 27.54800 19.30600
N  -3.34400 26.65300 25.94300
C  -2.46100 27.36500 25.20900
C  -1.66200 28.23600 26.11600
C  -2.00000 27.84900 27.39500
C  -3.05200 26.86200 27.24000
C  -0.58500 29.24200 25.80700
C  -1.64800 28.03400 28.75500
O  -0.88300 28.79600 29.37300
C  -2.74500 27.10900 29.55600
C  -1.88700 26.36800 30.47700
O  -1.45900 25.20200 30.38600
O  -1.71600 27.02400 31.68100
C  -1.00500 26.32900 32.72800
H  -7.42400 22.30700 27.51300
H  -5.59400 23.06300 21.53100
H  -1.74000 27.83600 23.19100
H  -4.02300 24.46300 30.40800
H  -6.84200 23.53100 29.59300
H  -4.48100 22.05400 30.42000
H  -5.17800 21.30600 29.13200
H  -6.23100 21.58000 30.49100
H  -6.84500 25.56800 30.88900
H  -5.82800 26.70300 30.21900
H  -5.02600 26.89800 32.46500
H  -4.27100 25.40200 32.33700
H  -8.91500 20.33700 25.51400
H  -9.96400 21.68000 25.15000
H  -9.15500 21.58700 26.58100
H  -9.69300 20.97500 22.73000
H  -8.64200 19.69400 23.52900
H  -8.87500 19.62700 21.86000
H  -4.55600 25.05000 20.34800
H  -2.05100 26.41000 21.15000
H  -1.81200 24.17600 20.48000
H  -3.19100 23.45400 19.51700
H  -2.94400 23.02700 21.21900
H  -3.32700 28.41900 21.16400
H  -4.87300 27.58700 21.10400
H  -4.59000 27.11100 18.92000
H  -2.83500 26.99400 18.87400
H  -3.45600 28.55700 18.95400
H  -0.88300 29.83400 24.94200
H  0.42600 28.84500 25.72300
H  -0.56300 29.88900 26.68400
H  -3.43200 27.65800 30.20000
H  0.03900 26.30500 32.41500
H  -1.28900 25.27900 32.78400
H  -1.16800 26.85400 33.67000

