158

Mg 25.55000 1.41600 28.98200
C  27.50700 1.21700 31.92000
C  22.89300 1.68800 30.77000
C  23.84800 1.26500 26.07700
C  28.49400 0.51100 27.14900
N  25.28900 1.38100 31.06100
C  26.12600 1.54000 32.15600
C  25.45000 1.70500 33.48500
C  23.94500 1.75600 33.10000
C  24.02900 1.54800 31.49600
C  22.99500 0.65300 33.73700
C  25.90700 2.88800 34.39200
C  26.49100 2.58000 35.76500
H  26.35100 3.67300 36.86400
N  23.56800 1.56200 28.46200
C  22.61900 1.76400 29.41400
C  21.36800 1.93800 28.73900
C  21.62900 1.75000 27.31700
C  23.07300 1.53400 27.22900
C  20.01700 2.09100 29.47200
C  20.58700 1.69100 26.16000
O  20.98000 1.33600 25.00800
C  19.17300 1.92900 26.35500
N  26.07900 0.77300 26.94200
C  25.23000 1.12100 25.95600
C  25.79700 1.00600 24.57800
C  27.34100 0.75000 24.92400
C  27.34600 0.70700 26.47100
C  25.28600 -0.18800 23.59300
C  28.28600 1.86200 24.38700
C  29.49300 1.33700 23.63600
N  27.63100 1.04700 29.38500
C  28.70300 0.65200 28.56100
C  29.86100 0.44300 29.36000
C  29.46600 0.73200 30.67900
C  28.08900 0.96500 30.68500
C  31.14000 -0.15800 28.95000
C  29.81500 0.79400 32.10000
O  30.90800 0.66200 32.64000
C  28.60800 1.19200 32.92000
C  28.50800 0.13800 34.00800
O  28.10800 -1.01800 33.85700
O  29.00400 0.58800 35.24700
C  28.89400 -0.25900 36.45700
H  22.02500 2.04700 31.32800
H  23.38000 1.29900 25.09100
H  29.48600 0.45100 26.69600
H  25.59400 0.79700 34.07100
H  23.48100 2.68600 33.42900
H  23.47800 -0.16900 34.26400
H  22.36800 0.18100 32.98000
H  22.32800 1.24200 34.36700
H  25.10200 3.59500 34.59100
H  26.74100 3.40600 33.91800
H  27.57600 2.56800 35.66200
H  26.12000 1.62100 36.12700
H  19.39600 2.82800 28.96100
H  20.12600 2.39300 30.51300
H  19.59500 1.08600 29.48800
H  18.71700 1.26800 27.09200
H  18.70100 1.81600 25.37900
H  18.97000 2.95100 26.67200
H  25.61900 1.98400 24.13100
H  27.73600 -0.17700 24.51000
H  24.62600 -0.78200 24.22500
H  26.03100 -0.82300 23.11200
H  24.76400 0.29700 22.76900
H  28.57300 2.56300 25.17100
H  27.66600 2.50300 23.76000
H  30.24800 2.10300 23.46200
H  29.16300 0.90500 22.69000
H  29.92400 0.51000 24.20000
H  30.86700 -0.96700 28.27300
H  31.66200 -0.51500 29.83800
H  31.78200 0.50400 28.36800
H  28.81300 2.20500 33.26700
H  27.94600 -0.18300 36.99000
H  29.67200 -0.04400 37.18900
H  29.09000 -1.30200 36.20800
Mg 35.41400 2.72400 30.04300
C  32.90600 3.89300 32.19700
C  37.55700 2.76700 32.71800
C  37.95500 1.95300 27.99500
C  33.26500 2.99000 27.29000
N  35.27500 3.50600 32.12200
C  34.10100 3.71500 32.83300
C  34.37100 3.64300 34.33900
C  35.90100 3.72000 34.39300
C  36.27900 3.25600 33.00400
C  36.46600 5.16500 34.75800
C  33.71900 2.46700 34.97000
C  33.07600 2.69700 36.37200
H  33.66700 3.79900 37.29800
N  37.47100 2.50600 30.27400
C  38.09000 2.49400 31.46500
C  39.48300 2.13800 31.27100
C  39.68400 1.97800 29.88700
C  38.35700 2.14000 29.28500
C  40.49400 1.92300 32.41800
C  40.99200 1.56700 29.19300
O  41.11200 1.44700 27.97700
C  42.20500 1.23300 29.98800
N  35.62900 2.43600 27.99000
C  36.74500 1.95500 27.38100
C  36.46900 1.72000 25.89500
C  34.99600 2.10600 25.68600
C  34.59900 2.61200 27.10300
C  37.48000 2.41100 24.92500
C  34.14200 1.01900 24.93000
C  33.84600 -0.28600 25.72900
N  33.49100 3.31900 29.73400
C  32.74900 3.36200 28.54100
C  31.37400 3.82700 28.94200
C  31.35600 3.94600 30.35900
C  32.66700 3.77000 30.78800
C  30.13300 4.03100 28.02000
C  30.57400 4.24000 31.49800
O  29.41700 4.59900 31.51900
C  31.51700 4.21100 32.75000
C  31.56400 5.54400 33.47500
O  31.90700 6.61300 32.96300
O  31.16700 5.33200 34.75700
C  31.08400 6.49600 35.64300
H  38.24200 2.73100 33.56800
H  38.77900 1.72400 27.31600
H  32.62000 3.10700 26.41700
H  33.90800 4.57900 34.65100
H  36.36100 2.96900 35.03600
H  35.63300 5.85600 34.88200
H  36.94500 5.46200 33.82600
H  37.03800 5.15000 35.68600
H  34.48300 1.69700 35.07300
H  32.95200 2.16100 34.25900
H  33.01900 1.80500 36.99600
H  32.03300 3.00800 36.30600
H  41.53400 2.06600 32.12300
H  40.41500 0.87300 32.70000
H  40.34000 2.58800 33.26700
H  42.56300 2.22600 30.26000
H  42.95000 0.71900 29.38100
H  41.90500 0.55600 30.78800
H  36.58000 0.66400 25.64700
H  34.94900 2.96700 25.02000
H  37.03400 3.05200 24.16400
H  38.04800 1.59900 24.47200
H  38.21400 3.03200 25.43900
H  34.76900 0.71300 24.09200
H  33.20700 1.40900 24.52800
H  34.49500 -0.46500 26.58600
H  34.21200 -1.09300 25.09500
H  32.78100 -0.33600 25.95700
H  30.26200 4.89900 27.37400
H  29.29800 4.16300 28.70800
H  29.86900 3.13900 27.45200
H  31.27100 3.38700 33.42000
H  31.83500 7.21700 35.32100
H  31.29200 6.07500 36.62700
H  30.08800 6.92400 35.53800

