158

Mg 36.18500 1.13500 29.23900
C  33.96000 2.31300 31.84100
C  38.72300 1.51100 31.56400
C  38.12400 0.54300 26.80900
C  33.33200 1.54000 27.02900
N  36.35400 1.86600 31.48400
C  35.27100 2.10600 32.31100
C  35.68500 2.13700 33.82600
C  37.23700 2.16200 33.57300
C  37.48600 1.75800 32.16000
C  37.92300 3.42800 34.21700
C  35.26500 0.87700 34.61100
C  34.71400 1.08200 36.04800
H  35.03600 2.29700 36.92700
N  38.17500 0.83200 29.16300
C  39.05100 1.00500 30.21800
C  40.40300 0.61200 29.79500
C  40.30000 0.37300 28.34000
C  38.83500 0.55500 28.04000
C  41.57500 0.38700 30.70700
C  41.35400 0.08800 27.25200
O  41.14000 0.09600 26.05400
C  42.73300 -0.13100 27.65800
N  35.74600 1.19300 27.13000
C  36.79300 0.87700 26.41200
C  36.39000 0.56400 24.97600
C  34.84100 0.64500 25.01600
C  34.55000 1.17200 26.42700
C  37.02000 1.51200 23.88000
C  33.96800 -0.69200 24.71800
C  32.85500 -0.52400 23.62800
N  34.12200 1.87300 29.32100
C  33.08900 1.89100 28.40900
C  31.84400 2.47000 28.97600
C  32.08400 2.58200 30.34900
C  33.47200 2.19200 30.54300
C  30.63100 2.79800 28.17100
C  31.58200 3.00400 31.55900
O  30.54500 3.52800 31.78400
C  32.68800 2.66200 32.64500
C  32.77200 3.90500 33.48400
O  33.59100 4.73100 33.27000
O  31.89300 3.84800 34.52400
C  32.25600 4.83200 35.55000
H  39.56700 1.46500 32.25600
H  38.67800 0.11900 25.96900
H  32.51500 1.52800 26.30400
H  35.27000 3.04700 34.25800
H  37.68500 1.39500 34.20500
H  38.51500 3.19700 35.10300
H  37.10900 4.04900 34.59200
H  38.52000 3.97000 33.48400
H  35.99500 0.06800 34.65100
H  34.36600 0.58100 34.07100
H  35.10700 0.21400 36.57800
H  33.62800 1.01700 35.98400
H  42.17500 1.29200 30.80500
H  42.18600 -0.47500 30.43900
H  41.21300 0.14900 31.70700
H  43.52300 -0.21500 26.91200
H  42.81100 -1.10700 28.13800
H  43.08200 0.70700 28.26200
H  36.68000 -0.45700 24.73000
H  34.43900 1.42200 24.36600
H  38.09100 1.66900 24.01400
H  36.55000 2.49400 23.94800
H  37.01400 1.03000 22.90200
H  33.51800 -1.05200 25.64400
H  34.60500 -1.49700 24.35200
H  31.90500 -0.93300 23.97300
H  33.11800 -1.06600 22.71900
H  32.72600 0.54400 23.45000
H  30.23800 3.77800 28.44200
H  29.90200 2.00200 28.32700
H  30.95900 2.98000 27.14800
H  32.37900 1.70200 33.05800
H  31.74200 5.78800 35.45500
H  33.31000 5.05000 35.72500
H  31.97900 4.18100 36.37900
Mg 30.12800 58.02600 40.53600
C  27.11400 56.28500 39.87300
C  31.89300 55.33000 39.43500
C  32.86800 59.99900 40.09100
C  28.17300 60.87600 41.20900
N  29.47600 56.06500 39.65400
C  28.19500 55.49500 39.56700
C  28.32500 54.02800 39.22400
C  29.87400 53.82100 39.07000
C  30.47100 55.15400 39.48900
C  30.41100 52.56300 39.83400
C  27.40400 53.51600 38.06400
C  27.19500 54.33100 36.81500
H  27.97400 54.07500 35.50900
N  32.13700 57.67700 40.15000
C  32.61300 56.48000 39.68500
C  34.06000 56.53000 39.65900
C  34.36800 57.90500 39.80600
C  33.09800 58.61700 39.97200
C  34.95300 55.43800 39.28100
C  35.73700 58.51300 39.56700
O  36.72000 57.83300 39.35000
C  35.92500 60.03100 39.70200
N  30.47500 60.16200 40.59800
C  31.70800 60.72700 40.45800
C  31.66800 62.26900 40.63100
C  30.16500 62.49700 41.04700
C  29.54100 61.11500 40.92200
C  32.73000 62.79100 41.70600
C  29.36400 63.51700 40.15700
C  28.44700 64.50300 40.99900
N  28.04900 58.54700 40.70800
C  27.45000 59.72400 40.99000
C  26.00300 59.53200 40.97000
C  25.81700 58.24800 40.53300
C  27.09300 57.64900 40.33200
C  25.01600 60.62300 41.33800
C  24.81300 57.24400 40.12100
O  23.61300 57.29500 40.20900
C  25.60700 55.93500 39.79100
C  25.30500 54.81500 40.73600
O  25.95100 54.48200 41.66000
O  24.12300 54.22600 40.23300
C  23.70500 52.98800 40.96200
H  32.53800 54.46900 39.24700
H  33.63200 60.77100 40.20000
H  27.47900 61.65400 41.53500
H  28.01200 53.46800 40.10500
H  30.12000 53.63000 38.02500
H  31.39700 52.21900 39.52300
H  29.70900 51.77800 39.55200
H  30.49300 52.72800 40.90800
H  26.39000 53.44600 38.45800
H  27.68200 52.50500 37.76500
H  27.26700 55.38400 37.08900
H  26.19300 54.17200 36.41600
H  35.64600 55.81500 38.52900
H  34.55400 54.58600 38.73100
H  35.55000 55.21100 40.16400
H  35.57600 60.35800 40.68100
H  35.32300 60.34200 38.84900
H  36.97200 60.33200 39.65100
H  31.79400 62.79300 39.68400
H  30.20700 62.79600 42.09400
H  33.18500 61.94800 42.22700
H  32.29300 63.41000 42.49000
H  33.53200 63.31100 41.18300
H  28.80100 63.00400 39.37700
H  30.08800 64.19900 39.71200
H  28.68400 65.56300 41.09800
H  28.46100 64.30700 42.07100
H  27.39800 64.45000 40.71000
H  25.44800 61.51200 41.79600
H  24.43700 60.11400 42.10900
H  24.43500 60.95700 40.47800
H  25.44200 55.69300 38.74100
H  22.70800 52.66600 40.66400
H  23.79200 53.06100 42.04700
H  24.52600 52.28400 40.82800

