158

Mg 35.89600 1.80000 29.32600
C  33.90200 3.15400 31.81200
C  38.64700 1.99600 31.60400
C  38.07500 1.55900 26.72300
C  33.34000 2.36700 27.06000
N  36.18900 2.39600 31.50400
C  35.18100 2.84200 32.27800
C  35.67700 2.89900 33.74800
C  37.26800 2.80800 33.65800
C  37.37800 2.37300 32.16400
C  38.13400 4.03500 33.99700
C  34.99900 1.88600 34.69300
C  34.27300 2.46200 35.89200
H  35.05200 3.49000 36.67000
N  38.00500 1.49800 29.23100
C  38.92800 1.62000 30.24600
C  40.21000 1.21200 29.72600
C  40.10600 1.21800 28.26900
C  38.67200 1.36800 27.96600
C  41.44400 0.85700 30.56200
C  41.17200 1.13300 27.26300
O  40.92800 1.22100 26.09600
C  42.56000 1.29100 27.62400
N  35.70300 1.81200 27.18900
C  36.77300 1.66100 26.35500
C  36.33900 1.58300 24.89000
C  34.78600 1.56400 25.03000
C  34.54400 1.88100 26.50400
C  36.95400 2.72700 23.98600
C  34.14600 0.24300 24.64500
C  33.24600 0.08400 23.33900
N  34.04600 2.56000 29.38000
C  33.08700 2.70600 28.38900
C  31.90200 3.30700 28.93200
C  32.13800 3.42200 30.29100
C  33.48500 2.96500 30.48800
C  30.62800 3.60900 28.14400
C  31.55700 3.79000 31.54600
O  30.45900 4.27200 31.71700
C  32.69400 3.62800 32.55800
C  32.90500 4.95100 33.26300
O  33.62200 5.84300 32.92600
O  32.04200 5.05000 34.32900
C  32.19800 6.13900 35.26300
H  39.41400 1.87500 32.37200
H  38.58900 1.53600 25.76100
H  32.43500 2.34100 26.45000
H  35.39200 3.92800 33.96500
H  37.60100 2.02200 34.33600
H  37.56500 4.68200 34.66500
H  38.65100 4.47500 33.14300
H  39.00400 3.65900 34.53600
H  35.72200 1.27000 35.22800
H  34.34700 1.21700 34.13300
H  33.93600 1.66500 36.55400
H  33.34500 2.93600 35.57100
H  41.74100 -0.19200 30.56100
H  41.23000 0.99700 31.62100
H  42.28800 1.50700 30.33300
H  42.83700 0.43400 28.23800
H  42.81800 2.21800 28.13600
H  43.14300 1.27500 26.70300
H  36.66000 0.59000 24.57300
H  34.31300 2.37800 24.48000
H  37.95900 2.44400 23.67200
H  37.02100 3.65800 24.54800
H  36.36800 2.96200 23.09700
H  33.44900 -0.08900 25.41400
H  34.94300 -0.49500 24.55600
H  32.20500 0.25200 23.61600
H  33.33300 -0.86900 22.81700
H  33.47200 0.99000 22.77600
H  30.05200 2.71800 27.89400
H  30.79200 4.25700 27.28400
H  30.01900 4.09100 28.90800
H  32.35500 2.84200 33.23300
H  31.26500 6.05300 35.82000
H  32.14700 7.12200 34.79400
H  32.97700 6.02600 36.01700
Mg 52.88300 23.49300 44.70000
C  50.25600 25.69100 43.81500
C  51.18400 21.05600 42.87300
C  55.69600 21.72700 44.74100
C  54.50100 26.22900 46.10200
N  50.95500 23.42200 43.53100
C  50.11100 24.48700 43.20100
C  49.10400 24.08700 42.14400
C  49.15300 22.44500 42.23700
C  50.55700 22.27400 42.85400
C  48.04700 21.74900 42.98000
C  49.24400 24.61600 40.63500
C  50.64100 24.92600 40.00700
H  50.70700 25.55800 38.66000
N  53.30800 21.49500 44.03900
C  52.46400 20.65900 43.30900
C  53.09100 19.43700 43.18300
C  54.35700 19.55200 43.80500
C  54.59100 20.97400 44.18400
C  52.47100 18.13400 42.57700
C  55.28500 18.35100 43.95100
O  55.01100 17.18600 43.60300
C  56.63200 18.54000 44.66200
N  54.83600 23.99200 45.15700
C  55.81500 22.99900 45.24500
C  57.13500 23.51900 45.86700
C  56.68400 24.97700 46.34000
C  55.28900 25.11000 45.77500
C  57.75600 22.60600 46.90300
C  57.60200 26.13100 45.96800
C  57.37000 26.92200 44.64600
N  52.47100 25.67600 44.98300
C  53.17500 26.60600 45.67300
C  52.48500 27.79600 45.78900
C  51.33900 27.55000 45.02000
C  51.32400 26.22400 44.57600
C  52.79200 29.01800 46.52100
C  50.12200 28.09600 44.43600
O  49.57900 29.22900 44.59600
C  49.33800 26.89300 43.67100
C  48.89400 27.42000 42.27800
O  49.67000 27.71000 41.36500
O  47.49000 27.49500 42.28900
C  46.85000 28.14400 41.15000
H  50.63800 20.33100 42.26500
H  56.61200 21.17000 44.53500
H  55.01400 27.04600 46.61400
H  48.19000 24.44800 42.61700
H  49.19600 21.97900 41.25300
H  47.65100 20.91600 42.39900
H  47.38800 22.61100 43.07900
H  48.32600 21.60900 44.02400
H  48.57200 25.47300 40.58700
H  48.89100 23.84400 39.95100
H  51.07900 23.92900 39.95900
H  51.18900 25.60900 40.65700
H  53.20800 17.59200 41.98300
H  51.57800 18.32400 41.98200
H  52.09700 17.35600 43.24200
H  56.44500 18.95200 45.65400
H  57.25700 19.17900 44.03900
H  57.13900 17.59400 44.84900
H  57.83900 23.61500 45.04000
H  56.54800 24.96500 47.42200
H  57.77100 23.09600 47.87600
H  58.78100 22.31100 46.68000
H  57.22000 21.67400 47.08600
H  58.48300 25.59000 45.62300
H  57.87600 26.72600 46.83900
H  58.14200 26.75500 43.89400
H  57.48200 27.96700 44.93400
H  56.41200 26.77900 44.14700
H  51.95200 29.39800 47.10200
H  53.32600 29.74700 45.91200
H  53.55000 28.67700 47.22600
H  48.42900 26.77300 44.26000
H  45.77600 27.96800 41.21200
H  47.16000 27.73400 40.18900
H  47.05000 29.21400 41.21600

