158

Mg 34.99300 0.73000 28.70700
C  33.10400 1.81100 31.32000
C  37.59600 0.29900 30.88200
C  36.92100 -0.20600 25.97400
C  32.43500 1.62700 26.52800
N  35.27200 1.03200 30.89500
C  34.37400 1.54100 31.73200
C  34.97400 1.64100 33.19500
C  36.46400 1.55700 32.93600
C  36.42300 0.83800 31.45600
C  37.38700 2.84500 32.98100
C  34.52800 0.39800 34.09700
C  33.97900 0.76700 35.54000
H  34.56300 1.97300 36.30000
N  36.94500 0.00300 28.50900
C  37.84900 -0.18400 29.52500
C  38.97600 -0.83500 28.99500
C  38.79700 -1.06700 27.56900
C  37.47100 -0.43000 27.27000
C  40.16900 -1.17000 29.89700
C  39.71100 -1.79900 26.59000
O  39.39200 -2.08300 25.43800
C  41.14900 -2.01500 26.94200
N  34.64000 0.44800 26.55700
C  35.60800 0.21900 25.65200
C  35.25100 0.65200 24.25900
C  33.74500 1.06200 24.42500
C  33.52000 1.04400 25.91700
C  36.06000 2.01600 23.72900
C  32.72100 0.09500 23.71100
C  32.10900 -0.97700 24.46500
N  33.16200 1.54600 28.79200
C  32.19400 1.73900 27.87300
C  31.00800 2.07900 28.53600
C  31.30700 2.17000 29.88800
C  32.65800 1.82900 30.00200
C  29.66300 2.30800 27.85200
C  30.74200 2.36900 31.28200
O  29.59300 2.60200 31.57600
C  31.93800 2.23300 32.21000
C  32.07400 3.56200 32.90900
O  32.44800 4.59200 32.47200
O  31.62600 3.38700 34.19800
C  31.72000 4.53300 35.07600
H  38.46700 0.19200 31.53200
H  37.59600 -0.30000 25.12000
H  31.67300 2.19000 25.98600
H  34.75600 2.59700 33.67100
H  36.89800 0.87900 33.67100
H  36.84400 3.79000 33.00000
H  38.00000 2.95500 32.08700
H  37.93600 2.95100 33.91600
H  35.26400 -0.39300 34.24000
H  33.66300 -0.02600 33.58900
H  34.17200 -0.16500 36.07100
H  32.92200 1.00500 35.41800
H  41.03000 -0.58700 29.56900
H  40.37800 -2.23600 29.80100
H  40.00700 -1.05500 30.96900
H  41.78700 -2.43600 26.16500
H  41.12500 -2.59700 27.86300
H  41.55900 -1.05200 27.24900
H  35.26700 -0.25500 23.65600
H  33.64800 2.08700 24.06800
H  36.91100 2.30200 24.34800
H  35.49400 2.94800 23.71200
H  36.40900 1.74000 22.73400
H  33.08200 -0.26800 22.74900
H  31.92300 0.72700 23.32100
H  32.33900 -1.79800 23.78600
H  31.03100 -0.85300 24.57600
H  32.43300 -1.10500 25.49800
H  29.58100 2.18200 26.77300
H  29.13600 3.25300 27.98900
H  29.05500 1.48800 28.23400
H  31.56900 1.44800 32.87000
H  31.11800 5.27800 34.55600
H  32.75300 4.84700 35.22800
H  31.24300 4.35200 36.03900
Mg 35.68000 49.45000 25.18600
C  35.66800 48.06800 28.32800
C  34.70600 52.53500 26.68000
C  35.15700 50.75500 22.19400
C  35.84600 46.27700 23.81900
N  35.09400 50.16800 27.28900
C  35.32500 49.39800 28.40400
C  35.24300 50.27200 29.65100
C  34.73200 51.65000 29.12100
C  34.86000 51.46700 27.59400
C  33.37700 52.22200 29.67600
C  36.63300 50.33000 30.39100
C  36.64700 50.01100 31.90100
H  35.52600 50.52700 32.82800
N  35.30500 51.46700 24.51100
C  34.93000 52.56900 25.29600
C  34.70000 53.73600 24.45200
C  34.75700 53.20100 23.07700
C  35.13800 51.75800 23.16100
C  34.44000 55.23900 24.94000
C  34.39500 53.86900 21.79300
O  34.45800 53.31900 20.66600
C  33.85300 55.17100 21.76400
N  35.45400 48.56600 23.19400
C  35.40500 49.34600 22.15200
C  35.53200 48.58100 20.81600
C  35.91900 47.17600 21.40700
C  35.75500 47.30300 22.87500
C  34.20200 48.58400 20.00000
C  37.33400 46.71900 20.95500
C  38.52100 47.26200 21.69700
N  35.66000 47.54700 25.87800
C  35.82700 46.34700 25.19200
C  36.09100 45.31900 26.17700
C  35.95400 45.90000 27.42800
C  35.72900 47.25000 27.18500
C  36.48700 43.89300 25.83500
C  36.10700 45.64900 28.76800
O  36.28300 44.55300 29.39500
C  35.98900 47.09100 29.45300
C  34.76500 46.88300 30.30400
O  33.57600 47.04800 29.92400
O  35.14500 46.32900 31.53700
C  34.01400 45.79800 32.35800
H  34.40300 53.53400 27.00000
H  34.96400 51.14000 21.19100
H  36.10200 45.35900 23.28700
H  34.50200 49.82800 30.31600
H  35.46100 52.43000 29.34200
H  32.56100 51.65400 29.23000
H  33.38200 53.26500 29.35800
H  33.33900 52.06200 30.75400
H  36.99700 51.35500 30.31600
H  37.36300 49.59400 30.05300
H  37.62400 50.36100 32.23500
H  36.41300 48.95200 32.00800
H  34.95800 55.41400 25.88300
H  33.36700 55.37600 25.07200
H  34.93400 55.94500 24.27300
H  33.38500 55.17800 20.78000
H  34.59700 55.95900 21.88300
H  33.01700 55.29300 22.45300
H  36.47500 48.93300 20.39800
H  35.33300 46.28100 21.20200
H  33.39900 49.00200 20.60900
H  33.90000 47.57700 19.71400
H  34.17200 49.32000 19.19700
H  37.53700 46.90300 19.90000
H  37.40100 45.63200 20.99500
H  39.22400 47.79600 21.05800
H  38.98300 46.35800 22.09200
H  38.20500 47.83900 22.56700
H  35.63200 43.22500 25.94800
H  37.40100 43.59500 26.34900
H  36.81000 43.70000 24.81200
H  36.81200 47.32400 30.12800
H  33.30200 46.58200 32.61400
H  34.34600 45.13300 33.15500
H  33.49100 45.15800 31.64800

