158

Mg 25.68800 1.74000 29.69300
C  27.69100 1.65700 32.36500
C  22.96900 2.16900 31.83500
C  23.60900 1.40800 27.00500
C  28.31800 0.56100 27.52800
N  25.35000 1.89800 31.86700
C  26.40500 2.09300 32.71200
C  25.96200 2.43000 34.08200
C  24.40700 2.45800 33.95200
C  24.22400 2.23600 32.43400
C  23.54100 1.48500 34.86300
C  26.49600 3.78800 34.65000
C  27.31800 3.66900 35.99300
H  27.14300 4.58700 37.23400
N  23.59700 1.64500 29.51400
C  22.67900 1.86400 30.48500
C  21.36800 1.75800 29.95300
C  21.53900 1.47000 28.57900
C  22.96000 1.52200 28.31300
C  20.08800 1.83600 30.68500
C  20.56900 1.05300 27.49400
O  20.95500 0.60600 26.45700
C  19.15800 1.20400 27.79800
N  25.83100 0.84900 27.56600
C  24.86500 1.03400 26.68700
C  25.37200 0.95900 25.19700
C  26.94500 0.81100 25.40800
C  27.04000 0.69300 26.91200
C  24.71400 -0.17000 24.40300
C  27.71800 1.99500 24.78300
C  28.09900 3.20100 25.56600
N  27.56900 1.31300 29.83800
C  28.48000 0.85700 28.93300
C  29.78100 0.69800 29.67400
C  29.47300 1.06400 30.91500
C  28.13900 1.32800 31.02400
C  31.01700 0.19900 29.16700
C  30.07000 1.21400 32.26000
O  31.19600 1.07100 32.66700
C  28.89200 1.60400 33.21300
C  28.74400 0.63700 34.32600
O  27.99000 -0.33900 34.36600
O  29.43800 1.09400 35.39300
C  29.11500 0.39400 36.61900
H  22.18600 2.48400 32.52700
H  23.00600 1.49800 26.09800
H  29.17200 0.22500 26.93600
H  26.22100 1.59200 34.73000
H  24.08100 3.49600 34.01800
H  22.69800 2.06200 35.24200
H  23.99400 0.97800 35.71500
H  23.05600 0.72300 34.25300
H  25.82800 4.61500 34.88800
H  27.05900 4.22300 33.82400
H  28.38400 3.75200 35.78200
H  27.14200 2.68400 36.42700
H  20.27800 1.92700 31.75400
H  19.60100 0.86600 30.57800
H  19.50400 2.64400 30.24500
H  18.93600 0.33100 28.41200
H  18.55000 1.13500 26.89600
H  18.89900 2.08400 28.38700
H  25.02200 1.90800 24.79100
H  27.32500 -0.12900 25.00700
H  25.39700 -0.88000 23.93700
H  24.29800 0.38200 23.56000
H  23.97400 -0.75300 24.95100
H  27.08100 2.34900 23.97200
H  28.55300 1.51400 24.27300
H  27.60600 3.43600 26.51000
H  27.95900 4.07400 24.92800
H  29.13800 3.00800 25.82900
H  31.81100 0.93400 29.29300
H  30.99100 -0.09700 28.11800
H  31.26200 -0.61300 29.85100
H  29.15400 2.60400 33.55700
H  28.06200 0.56100 36.84400
H  29.66300 0.80700 37.46600
H  29.30100 -0.67600 36.52800
Mg 54.43100 24.78400 45.06800
C  51.48800 26.52700 43.99000
C  52.80400 21.80600 44.06600
C  57.36800 23.17700 45.09100
C  55.90400 27.75900 45.66500
N  52.28400 24.26300 44.20100
C  51.35300 25.08600 43.78500
C  50.23200 24.32900 43.12000
C  50.48100 22.86900 43.58000
C  51.97500 22.94900 43.95000
C  49.68600 22.53300 44.80600
C  50.03000 24.52400 41.57300
C  48.61600 24.91300 41.13600
H  48.24800 24.64000 39.69300
N  54.99600 22.78100 44.85700
C  54.16600 21.75200 44.38400
C  54.96700 20.54900 44.14900
C  56.26900 20.87800 44.56100
C  56.25800 22.27900 44.91700
C  54.38300 19.28900 43.51200
C  57.36800 19.85700 44.60100
O  57.09900 18.66700 44.36200
C  58.76100 20.15900 45.02800
N  56.38400 25.37700 45.30300
C  57.50800 24.52800 45.29500
C  58.81600 25.28800 45.53300
C  58.28500 26.73100 45.79300
C  56.75400 26.59900 45.49100
C  59.73700 24.72700 46.63500
C  59.03700 27.80600 44.96900
C  59.47500 29.09400 45.61800
N  53.85000 26.74400 44.96600
C  54.49900 27.84600 45.46100
C  53.63000 28.95800 45.49600
C  52.46400 28.55100 44.84200
C  52.63200 27.13700 44.57100
C  54.06200 30.28700 46.12700
C  51.09300 28.91300 44.41800
O  50.45000 29.94800 44.56400
C  50.45500 27.64700 43.74100
C  50.32400 27.94800 42.26500
O  51.22200 28.19800 41.46200
O  48.94600 28.22800 42.01400
C  48.69400 28.99400 40.76600
H  52.33500 20.83600 43.88800
H  58.39900 22.82800 45.00800
H  56.33400 28.73700 45.88900
H  49.33500 24.67400 43.63500
H  50.38900 22.13200 42.78200
H  50.24600 21.72300 45.27300
H  48.66300 22.25100 44.55500
H  49.80400 23.36000 45.50600
H  50.38300 23.62100 41.07400
H  50.77900 25.25200 41.26000
H  48.48500 25.98100 41.31000
H  47.84500 24.45900 41.75800
H  54.60100 19.34500 42.44500
H  53.29600 19.23100 43.56600
H  54.67000 18.35800 44.00000
H  59.30800 19.22600 45.16700
H  58.68000 20.70800 45.96600
H  59.22500 20.66200 44.17900
H  59.30000 25.22100 44.55900
H  58.27500 26.93300 46.86400
H  59.32100 23.89200 47.19800
H  60.05000 25.50000 47.33700
H  60.62800 24.40500 46.09700
H  58.47600 28.09700 44.08100
H  59.95500 27.37000 44.57500
H  58.78100 29.87000 45.29500
H  60.49800 29.31200 45.31100
H  59.42200 28.98200 46.70100
H  54.64100 29.94200 46.98300
H  53.21000 30.94400 46.30000
H  54.74900 30.86500 45.50800
H  49.48200 27.41300 44.17200
H  49.24300 28.65300 39.88900
H  49.00000 30.03000 40.91200
H  47.62700 29.07000 40.55500

