158

Mg 6.43300 54.37600 39.68000
C  5.91300 50.95800 39.50900
C  9.67600 53.96400 39.04700
C  6.63600 57.60700 39.03400
C  2.91800 54.70700 39.95800
N  7.59400 52.66400 39.19600
C  7.26600 51.37800 39.25000
C  8.50000 50.53200 38.84100
C  9.66500 51.46700 39.09300
C  8.94700 52.81600 39.15800
C  10.30600 51.23400 40.53200
C  8.41000 50.04000 37.41400
C  8.48500 51.12300 36.37000
H  7.17300 51.51500 35.57400
N  7.95100 55.62000 39.06800
C  9.22600 55.29500 38.89800
C  10.09900 56.50200 38.64100
C  9.19200 57.59400 38.55700
C  7.82600 56.99600 38.92500
C  11.60400 56.60400 38.41400
C  9.58000 59.07400 38.38400
O  10.74700 59.39400 38.37400
C  8.51600 60.11300 38.35000
N  5.01800 55.98800 39.38100
C  5.42100 57.27000 39.38200
C  4.30700 58.24900 39.73500
C  3.12200 57.35100 39.99800
C  3.71500 55.90100 39.79000
C  4.66500 59.17000 40.93700
C  1.88700 57.50000 39.02700
C  0.72900 58.21800 39.68400
N  4.67700 53.14300 39.82600
C  3.33300 53.41700 39.98100
C  2.58000 52.09100 40.13700
C  3.58800 51.11200 39.99100
C  4.81900 51.79300 39.72000
C  1.03400 51.90700 40.48800
C  3.86800 49.68700 40.03800
O  3.13000 48.72900 40.15200
C  5.41100 49.55500 39.78800
C  5.41000 48.69900 38.61000
O  4.96400 48.86300 37.51000
O  6.09000 47.47800 38.86700
C  6.05200 46.46600 37.82000
H  10.74800 53.89000 38.85200
H  6.53900 58.66900 38.79800
H  1.86800 54.92900 40.15600
H  8.63200 49.64300 39.45800
H  10.43900 51.47000 38.32500
H  10.10800 50.23700 40.92400
H  9.98600 52.01100 41.22800
H  11.39500 51.20100 40.52400
H  7.51500 49.43500 37.27000
H  9.12400 49.23600 37.23600
H  9.11300 50.70500 35.58300
H  9.03900 52.01100 36.67400
H  11.84300 56.85000 37.38000
H  12.13900 55.67100 38.59200
H  12.10300 57.37400 39.00300
H  9.12500 61.00700 38.21900
H  7.89400 60.20600 39.24100
H  7.79000 59.89800 37.56600
H  4.06200 58.87300 38.87600
H  2.75200 57.39500 41.02300
H  5.74800 59.17900 41.06100
H  4.26100 58.70400 41.83600
H  4.30000 60.19200 40.83300
H  1.56400 56.64300 38.43500
H  2.20600 58.22500 38.27800
H  -0.02000 58.47600 38.93500
H  1.21000 59.02700 40.23400
H  0.31000 57.52000 40.40800
H  0.68800 52.92400 40.67300
H  0.93700 51.35000 41.42000
H  0.52000 51.46900 39.63300
H  6.04000 48.99300 40.47900
H  7.03400 46.00000 37.73900
H  5.87000 46.85400 36.81800
H  5.34700 45.65900 38.01900
Mg 1.43800 43.05200 25.18100
C  2.91200 43.12800 28.40500
C  -1.47100 42.03000 26.55100
C  0.09100 42.70500 22.01000
C  4.52600 43.87700 23.83600
N  0.83500 42.69800 27.28000
C  1.53600 42.78900 28.44600
C  0.58600 42.40900 29.67400
C  -0.75100 41.87600 28.95000
C  -0.45400 42.17800 27.50900
C  -1.09700 40.36700 29.07500
C  0.44500 43.66500 30.57100
C  0.88500 43.54600 31.98100
H  0.29000 42.28600 32.71100
N  -0.38800 42.52000 24.42100
C  -1.46100 42.09100 25.17200
C  -2.55800 41.80700 24.30500
C  -2.12100 42.00900 22.98400
C  -0.78300 42.42600 23.10700
C  -3.95500 41.43100 24.79500
C  -2.84500 41.89300 21.60900
O  -2.34900 42.08900 20.50100
C  -4.36500 41.47300 21.57700
N  2.19200 43.49700 23.23900
C  1.45700 43.15500 22.10300
C  2.33800 43.18400 20.84200
C  3.56800 43.85100 21.45200
C  3.43600 43.83200 22.94800
C  2.76000 41.76000 20.35500
C  3.89400 45.22600 20.80700
C  2.72600 46.23800 20.81000
N  3.38300 43.46800 25.91300
C  4.56900 43.74500 25.21500
C  5.65100 43.70900 26.21500
C  5.04700 43.53400 27.46800
C  3.67200 43.42200 27.26000
C  7.03700 44.23700 26.05400
C  5.28200 43.46200 28.90700
O  6.30800 43.48600 29.51100
C  3.92000 43.25000 29.57600
C  4.12800 42.04100 30.35600
O  4.17900 40.92600 29.87500
O  4.01800 42.33000 31.68800
C  4.11100 41.06700 32.59400
H  -2.40500 41.72600 27.02700
H  -0.18400 42.49700 20.97300
H  5.42500 44.12200 23.26600
H  1.01100 41.62800 30.30400
H  -1.58900 42.51500 29.22800
H  -0.56700 39.79200 29.83400
H  -0.93300 39.97400 28.07200
H  -2.16700 40.24900 29.25100
H  -0.50200 44.19800 30.48300
H  1.15300 44.40400 30.19800
H  0.51800 44.38500 32.57300
H  1.96800 43.46600 32.06700
H  -4.60500 42.29300 24.94100
H  -3.87000 40.95400 25.77200
H  -4.38800 40.69800 24.11400
H  -4.39200 40.47500 22.01300
H  -4.74000 41.39400 20.55600
H  -4.87800 42.24000 22.15700
H  1.83100 43.79500 20.09500
H  4.48100 43.33200 21.16100
H  1.83500 41.24200 20.10300
H  3.21500 41.18900 21.16500
H  3.38200 42.00500 19.49400
H  4.16100 44.93300 19.79200
H  4.77300 45.63000 21.30900
H  2.34600 46.46600 19.81400
H  2.90200 47.16400 21.35600
H  1.86000 45.79300 21.29900
H  7.73100 43.44700 25.76900
H  7.32000 44.70900 26.99500
H  6.84500 45.03800 25.34000
H  3.67300 44.13800 30.15900
H  3.40700 40.32900 32.21000
H  3.98800 41.24200 33.66300
H  5.04500 40.52900 32.43300

