158

Mg 41.13500 7.86700 28.67600
C  42.83200 9.23200 31.51600
C  38.79200 6.44700 30.69700
C  39.88300 6.33000 25.97100
C  43.96700 8.77700 26.74800
N  40.87800 7.85100 30.88100
C  41.62000 8.57400 31.83700
C  40.97800 8.42100 33.23800
C  39.72100 7.55200 32.95100
C  39.72500 7.30800 31.37700
C  39.68800 6.13500 33.65200
C  40.55100 9.81800 33.79400
C  39.93100 9.88100 35.19600
H  40.60500 10.59800 36.39300
N  39.52700 6.71100 28.41000
C  38.61400 6.25700 29.31700
C  37.57600 5.49100 28.65100
C  37.79900 5.66300 27.20300
C  39.13400 6.24700 27.13700
C  36.46000 4.71900 29.29600
C  37.01200 5.12300 25.99500
O  37.30400 5.26100 24.81200
C  35.65600 4.43600 26.26000
N  41.87700 7.53600 26.66400
C  41.16500 6.82100 25.72700
C  41.88300 6.77000 24.43800
C  43.27700 7.51100 24.70500
C  43.01100 8.05900 26.10000
C  42.08200 5.35200 23.80400
C  43.61600 8.60300 23.64100
C  43.94200 8.08900 22.24900
N  42.89400 8.89800 28.95600
C  43.89700 9.20500 28.08400
C  45.00400 9.98900 28.80300
C  44.57900 9.95200 30.14000
C  43.37400 9.21000 30.19800
C  46.27200 10.56300 28.24600
C  44.88600 10.34800 31.47600
O  45.88500 10.88300 31.88200
C  43.80200 9.90100 32.42200
C  44.33500 9.03100 33.48900
O  44.86500 7.94000 33.29700
O  44.01500 9.50000 34.73800
C  44.64600 8.72400 35.84800
H  38.10400 5.88200 31.33000
H  39.40800 5.76000 25.17000
H  44.77000 9.17000 26.12200
H  41.70700 7.92000 33.87400
H  38.82400 8.09500 33.25000
H  40.57500 6.03800 34.27800
H  39.71300 5.26500 32.99700
H  38.83000 5.93100 34.29200
H  39.84500 10.23100 33.07400
H  41.32200 10.58400 33.88000
H  39.83800 8.84200 35.51300
H  38.92200 10.29300 35.20500
H  36.41600 4.90700 30.36900
H  36.60400 3.66200 29.07200
H  35.63300 5.20100 28.77700
H  35.87600 3.67800 27.01200
H  35.30300 4.10000 25.28500
H  35.04600 5.27900 26.58700
H  41.34600 7.38400 23.71500
H  44.18300 6.90900 24.77800
H  41.51300 4.51100 24.20200
H  43.13900 5.08700 23.81700
H  41.64100 5.44100 22.81100
H  44.33600 9.37400 23.91400
H  42.77700 9.26500 23.42500
H  43.27000 8.54200 21.52000
H  43.82400 7.00600 22.26000
H  44.97800 8.36800 22.05400
H  46.98000 10.94700 28.98100
H  45.97300 11.30200 27.50200
H  46.86400 9.90300 27.61200
H  43.38300 10.77400 32.92100
H  44.40600 7.66100 35.83300
H  44.53400 9.11600 36.85900
H  45.71400 8.72800 35.63300
Mg -1.53700 33.86600 27.55200
C  -2.95000 32.16700 30.39900
C  -0.05100 35.92900 29.81500
C  -1.15600 36.21200 25.03000
C  -3.42000 31.91400 25.45700
N  -1.60200 34.02500 29.86400
C  -2.13300 33.16700 30.79300
C  -1.64300 33.42700 32.22700
C  -0.88400 34.74000 31.99500
C  -0.83500 35.01600 30.47400
C  -1.32400 36.00400 32.84100
C  -1.02100 32.19500 33.05500
C  -1.65500 31.81700 34.37800
H  -0.69500 32.01100 35.57900
N  -0.55900 35.67000 27.37200
C  0.07100 36.29100 28.41100
C  0.73600 37.45000 27.95300
C  0.34900 37.63400 26.57900
C  -0.50200 36.47000 26.26400
C  1.72500 38.21100 28.75000
C  0.95200 38.56300 25.51500
O  0.72800 38.47500 24.28600
C  1.86400 39.71700 25.85800
N  -2.05000 33.91700 25.46200
C  -1.86600 35.00200 24.63100
C  -2.59100 34.83500 23.29600
C  -2.88200 33.30300 23.34200
C  -2.73600 32.97300 24.80400
C  -3.76900 35.84200 23.00700
C  -1.94600 32.45900 22.32400
C  -0.79300 31.71500 22.86700
N  -2.80500 32.31700 27.80700
C  -3.53900 31.62000 26.86400
C  -4.24700 30.54200 27.46300
C  -4.04600 30.68900 28.79300
C  -3.20500 31.83500 28.99000
C  -5.03900 29.55700 26.76700
C  -4.46600 30.24200 30.09800
O  -5.26100 29.34600 30.36100
C  -3.73100 31.12400 31.20600
C  -4.70400 31.59900 32.22300
O  -5.38900 32.61300 32.15200
O  -4.75600 30.68800 33.24400
C  -5.71600 30.86900 34.32800
H  0.66400 36.31900 30.54300
H  -1.14400 37.01800 24.29300
H  -3.98300 31.23100 24.81700
H  -2.56400 33.66000 32.76200
H  0.12000 34.42800 32.28100
H  -1.97700 35.76800 33.68100
H  -1.72300 36.80500 32.21800
H  -0.39600 36.47200 33.16900
H  0.06500 32.29000 33.07600
H  -1.11900 31.26900 32.48900
H  -1.87600 30.75000 34.38400
H  -2.57900 32.39200 34.43000
H  1.32600 39.22300 28.82100
H  2.65000 38.21400 28.17200
H  2.00200 37.79700 29.71900
H  1.29400 40.30100 26.58100
H  2.12200 40.34500 25.00600
H  2.69700 39.21000 26.34500
H  -1.85400 34.99100 22.50900
H  -3.94100 33.11400 23.16500
H  -3.81700 36.56300 23.82300
H  -4.72500 35.31900 22.96800
H  -3.56300 36.33600 22.05700
H  -1.51700 33.12500 21.57500
H  -2.61500 31.75500 21.82900
H  -0.90000 31.62200 23.94800
H  0.17500 32.15200 22.62400
H  -0.79000 30.71300 22.43700
H  -4.63100 29.43300 25.76400
H  -6.04300 29.97300 26.67600
H  -5.19200 28.69400 27.41600
H  -3.06900 30.42400 31.71700
H  -5.81200 29.94700 34.90200
H  -6.65400 31.14600 33.84800
H  -5.45100 31.67500 35.01200

