158

Mg 35.10300 3.02200 30.07000
C  32.77400 3.94600 32.58200
C  37.62100 3.36800 32.48600
C  37.31700 2.20200 27.79300
C  32.64100 3.58900 27.73500
N  35.16700 3.91800 32.19500
C  34.11700 3.94600 33.10200
C  34.61800 3.87200 34.53700
C  36.13100 4.10100 34.40700
C  36.34500 3.82200 32.91600
C  36.58100 5.55900 34.66100
C  34.24300 2.47900 35.14300
C  33.74000 2.47600 36.59300
H  34.42900 3.42800 37.56600
N  37.17300 2.71100 30.10700
C  37.99500 2.83800 31.17700
C  39.27900 2.32700 30.85600
C  39.19000 1.96100 29.46800
C  37.87600 2.27200 29.02300
C  40.36400 2.25700 31.84600
C  40.30600 1.38100 28.49800
O  40.12900 1.10200 27.33600
C  41.73500 1.27600 29.06700
N  34.99600 3.01000 28.02500
C  36.06100 2.58300 27.31000
C  35.62000 2.44300 25.81100
C  34.07900 2.76100 25.88200
C  33.85600 3.11800 27.32800
C  36.38200 3.35300 24.74500
C  33.20400 1.50100 25.60200
C  32.87100 1.30000 24.08000
N  33.04500 3.64300 30.08300
C  32.14900 3.78500 29.05600
C  30.83000 4.09800 29.60500
C  31.03100 4.14000 31.02200
C  32.39100 3.87400 31.24000
C  29.57800 4.36800 28.79200
C  30.40200 4.37200 32.34400
O  29.26000 4.61500 32.65000
C  31.47400 4.13500 33.44300
C  31.57100 5.26100 34.34500
O  32.04200 6.37500 34.19100
O  31.13900 4.74900 35.58200
C  31.22400 5.84700 36.65400
H  38.37600 3.37700 33.27500
H  37.97800 2.13800 26.92600
H  31.91000 3.67500 26.92900
H  34.14100 4.66600 35.11100
H  36.72900 3.40700 34.99800
H  37.27400 5.61400 35.50000
H  35.66500 6.15000 34.64300
H  37.14600 5.94800 33.81400
H  35.07800 1.78100 35.20600
H  33.43000 2.11800 34.51300
H  33.75400 1.47000 37.01200
H  32.72500 2.87200 36.61300
H  39.91800 1.83500 32.74600
H  40.69400 3.28300 32.00800
H  41.13600 1.51700 31.63400
H  42.31800 1.09400 28.16500
H  41.72700 0.40400 29.72100
H  42.12000 2.15800 29.57900
H  35.83100 1.40200 25.56800
H  33.90900 3.55400 25.15400
H  37.03000 4.14100 25.13000
H  35.62700 3.90400 24.18400
H  36.90800 2.92600 23.89100
H  32.25800 1.72700 26.09500
H  33.67100 0.59800 25.99600
H  33.26800 0.32300 23.80600
H  33.19900 2.15500 23.48900
H  31.78800 1.23900 23.97600
H  28.80200 4.19600 29.53800
H  29.59600 3.54700 28.07600
H  29.75600 5.35200 28.35800
H  31.20300 3.21700 33.96500
H  32.27900 5.99100 36.88700
H  30.76800 5.75900 37.64000
H  30.79000 6.76700 36.26300
Mg 54.14900 24.41300 45.16700
C  51.30100 26.35400 44.08600
C  52.57400 21.75000 43.56700
C  57.01200 22.79100 45.34700
C  55.55000 27.36400 46.14500
N  52.12400 24.08300 43.98100
C  51.25500 25.05800 43.58400
C  50.19900 24.40800 42.66900
C  50.30900 22.91600 43.07700
C  51.74900 22.87100 43.59400
C  49.19400 22.44800 44.06500
C  50.49900 24.76800 41.21600
C  49.36100 25.38900 40.42300
H  49.10300 24.79200 39.02800
N  54.71500 22.43900 44.58800
C  53.95600 21.52800 43.99100
C  54.64200 20.30300 43.89900
C  55.93400 20.49200 44.42900
C  55.99200 21.94300 44.77400
C  54.05800 18.98300 43.34000
C  56.93700 19.43800 44.68800
O  56.77100 18.26600 44.39600
C  58.29500 19.78900 45.13300
N  56.06200 25.04200 45.46200
C  57.07900 24.11600 45.63600
C  58.35100 24.88300 46.09600
C  57.86100 26.31800 46.49500
C  56.36800 26.24100 46.01500
C  59.32300 24.13100 47.17500
C  58.70200 27.42500 45.87800
C  58.98900 28.67900 46.66900
N  53.55900 26.42400 45.21000
C  54.18500 27.50200 45.79000
C  53.29900 28.66900 45.87000
C  52.16500 28.27000 45.20000
C  52.34300 26.93900 44.81300
C  53.58900 30.03700 46.37000
C  50.82300 28.61400 44.74100
O  50.18600 29.68000 44.74600
C  50.18600 27.38400 44.11500
C  49.78800 27.89900 42.73900
O  50.52200 28.36500 41.94100
O  48.45100 27.92900 42.66700
C  47.93800 28.68700 41.50200
H  51.95900 20.90500 43.25000
H  57.87700 22.26800 45.76100
H  55.89400 28.27900 46.63300
H  49.23100 24.82900 42.94100
H  50.18900 22.39900 42.12500
H  49.08600 21.37600 43.89900
H  48.34300 23.12500 43.99600
H  49.51400 22.56600 45.10100
H  50.79700 23.84500 40.71700
H  51.35800 25.43900 41.21900
H  49.50700 26.44600 40.20200
H  48.45700 25.27400 41.02200
H  53.00200 19.02100 43.07200
H  54.19700 18.08900 43.94800
H  54.61300 18.64300 42.46600
H  58.98300 18.94500 45.17900
H  58.31600 20.03200 46.19500
H  58.76200 20.55400 44.51200
H  59.01300 24.93200 45.23100
H  57.79400 26.33400 47.58300
H  60.29800 24.09900 46.69000
H  59.10000 23.11300 47.49400
H  59.41300 24.83600 48.00200
H  58.12700 27.78100 45.02400
H  59.68500 27.01000 45.65500
H  60.06800 28.72100 46.81300
H  58.42100 28.81100 47.59000
H  58.77900 29.61400 46.15100
H  53.64100 30.80200 45.59500
H  54.50900 30.06900 46.95300
H  52.76800 30.32500 47.02600
H  49.31500 27.02400 44.66300
H  46.88800 28.86800 41.73200
H  48.06700 28.18500 40.54300
H  48.37000 29.68700 41.45900

