158

Mg 17.05700 -0.91200 28.68100
C  15.79000 0.99600 31.42200
C  18.73400 -2.77900 30.97000
C  18.35400 -2.43700 26.12700
C  15.32800 1.28100 26.52500
N  17.31100 -0.74500 30.96800
C  16.70800 0.06100 31.88100
C  17.06100 -0.36800 33.34000
C  18.10400 -1.49800 33.16800
C  18.08700 -1.68900 31.60400
C  19.54700 -1.18400 33.78300
C  15.75500 -0.80700 34.05000
C  15.46100 -0.16700 35.48700
H  16.61600 0.52200 36.21900
N  18.34600 -2.41600 28.57600
C  18.91500 -3.08500 29.59900
C  19.62500 -4.29200 29.03000
C  19.62900 -4.10200 27.62600
C  18.74800 -2.92600 27.39300
C  20.34200 -5.20200 29.96300
C  20.19800 -4.99400 26.59400
O  20.14100 -4.74800 25.39400
C  20.83100 -6.33000 27.00400
N  16.90600 -0.52200 26.63700
C  17.64000 -1.32900 25.74500
C  17.31600 -1.04800 24.25600
C  16.25500 0.14700 24.39000
C  16.15800 0.31700 25.92600
C  18.59000 -0.56400 23.50100
C  14.90700 -0.14100 23.68400
C  13.91900 -0.89200 24.50500
N  15.84000 0.79700 28.84400
C  15.16900 1.55300 27.88500
C  14.28600 2.47400 28.50300
C  14.52000 2.32700 29.88900
C  15.47200 1.31700 30.00300
C  13.36200 3.46300 27.77800
C  14.07400 2.76400 31.17800
O  13.32700 3.70700 31.40600
C  14.81900 1.84600 32.25400
C  15.53000 2.70700 33.34700
O  16.69200 3.08800 33.39000
O  14.54800 3.10400 34.26700
C  14.94500 4.20900 35.20500
H  19.20400 -3.40500 31.73200
H  18.72000 -2.86800 25.19300
H  14.43600 1.64500 26.00900
H  17.49600 0.48000 33.87100
H  17.75500 -2.36100 33.73600
H  19.52800 -0.39100 34.53000
H  20.26700 -0.88000 33.02300
H  20.03200 -2.03500 34.26100
H  15.79400 -1.87500 34.26500
H  14.86600 -0.67000 33.43400
H  15.17100 -1.01100 36.11300
H  14.58800 0.48200 35.40800
H  20.44100 -4.79900 30.97100
H  21.34700 -5.36300 29.57100
H  19.91100 -6.19800 30.06500
H  20.18900 -7.07600 27.47300
H  21.65400 -6.08000 27.67400
H  21.39600 -6.74700 26.17000
H  16.86100 -1.91500 23.77800
H  16.66500 1.11600 24.10600
H  18.36100 0.33900 22.93500
H  19.03000 -1.34000 22.87500
H  19.39500 -0.29900 24.18700
H  15.00100 -0.63300 22.71600
H  14.57000 0.87800 23.49300
H  14.47900 -1.21500 25.38200
H  13.49600 -1.72100 23.93700
H  13.10400 -0.20100 24.72100
H  13.88800 3.63200 26.83900
H  13.39000 4.39900 28.33500
H  12.34100 3.10100 27.65400
H  14.00300 1.32000 32.75000
H  14.07400 4.42000 35.82500
H  15.30000 5.09800 34.68500
H  15.84300 3.87700 35.72500
Mg 10.25200 47.31000 25.85700
C  8.25100 47.50700 28.57500
C  12.81300 48.75500 27.88900
C  12.23900 47.69500 23.16700
C  7.49000 46.98100 23.80000
N  10.51200 48.06300 28.08500
C  9.54500 47.94400 29.00500
C  10.05800 48.27500 30.41700
C  11.34800 49.16100 30.05100
C  11.64900 48.44100 28.66600
C  11.09000 50.70400 30.10200
C  10.45600 46.97500 31.19500
C  10.03200 47.04000 32.64700
H  10.48000 45.96200 33.67700
N  12.31300 47.85400 25.59300
C  13.22400 48.31500 26.56200
C  14.52300 48.60500 25.94400
C  14.40200 48.14100 24.57000
C  12.95800 47.87700 24.36900
C  15.79700 49.10100 26.70800
C  15.46900 47.89900 23.49700
O  15.19600 47.49700 22.38600
C  16.94000 48.28700 23.73100
N  9.93500 47.49600 23.80400
C  10.88800 47.57200 22.91300
C  10.41800 47.29800 21.44500
C  8.89300 47.14800 21.64300
C  8.75800 47.11900 23.18200
C  10.73700 48.40100 20.43400
C  8.23800 45.93000 20.84800
C  7.07500 46.33600 19.93000
N  8.31500 47.19800 26.12100
C  7.24600 47.07500 25.19900
C  6.08300 46.78300 25.95700
C  6.39600 47.02700 27.28600
C  7.78300 47.27000 27.29500
C  4.81400 46.42100 25.37400
C  5.86700 46.96700 28.57900
O  4.72100 46.84800 28.89600
C  6.98900 47.29400 29.51400
C  7.14700 46.17900 30.49300
O  7.82700 45.19200 30.30300
O  6.18600 46.38900 31.45000
C  6.12900 45.30900 32.46300
H  13.61100 49.35500 28.33200
H  12.90000 47.66200 22.29800
H  6.59400 46.87400 23.18500
H  9.35900 48.82400 31.04700
H  12.24900 49.05600 30.65500
H  10.08800 51.03600 30.37300
H  11.42300 51.10400 29.14400
H  11.74600 51.17400 30.83400
H  11.53500 46.84100 31.27100
H  10.10000 46.14700 30.58200
H  8.97100 46.79100 32.64300
H  10.16700 48.01100 33.12300
H  15.68100 49.31900 27.77000
H  16.07300 50.06500 26.28000
H  16.51100 48.27900 26.65800
H  17.23700 47.65900 24.57100
H  17.02000 49.36300 23.88600
H  17.56800 48.09900 22.86000
H  10.94100 46.43100 21.04100
H  8.36700 48.02700 21.26900
H  10.48300 49.38300 20.83500
H  10.12300 48.14200 19.57200
H  11.80800 48.31700 20.25000
H  7.89500 45.23700 21.61600
H  9.00700 45.50600 20.20300
H  6.23800 45.68000 20.17000
H  7.29000 46.19800 18.87000
H  6.85700 47.40500 19.93400
H  4.20200 47.32200 25.36500
H  4.23100 45.87400 26.11500
H  4.79600 46.03300 24.35600
H  6.72900 48.21700 30.03100
H  5.88800 44.39100 31.92800
H  5.27900 45.57100 33.09400
H  7.01400 45.20700 33.09100

