158

Mg 24.39900 -4.77600 45.39700
C  26.46400 -2.53500 43.82200
C  21.77200 -3.52700 43.48000
C  22.67900 -7.77800 45.92400
C  27.17000 -6.23000 47.00100
N  24.17400 -3.23700 43.82000
C  25.16600 -2.41000 43.44100
C  24.59900 -1.47200 42.41000
C  23.10300 -1.48200 42.72800
C  23.00900 -2.82700 43.41700
C  22.52200 -0.34800 43.59000
C  24.92300 -1.92100 40.96900
C  25.20700 -0.70300 40.03400
H  24.90500 -0.85600 38.53700
N  22.39200 -5.52300 44.85100
C  21.52100 -4.88600 44.00000
C  20.30400 -5.68400 44.03800
C  20.55700 -6.89500 44.65500
C  21.94400 -6.78800 45.21900
C  19.00900 -5.17900 43.37400
C  19.61900 -8.02000 44.90600
O  18.52000 -7.92600 44.32300
C  19.91000 -9.27900 45.86700
N  24.71800 -6.63500 46.55400
C  23.84400 -7.70900 46.58600
C  24.46100 -8.93100 47.31700
C  25.81700 -8.35800 47.75100
C  25.92900 -6.93200 47.08500
C  23.58500 -9.57600 48.41300
C  27.10300 -9.33100 47.70900
C  27.72900 -9.71200 49.12800
N  26.38800 -4.35200 45.55100
C  27.41300 -5.01000 46.26300
C  28.67100 -4.32700 46.01700
C  28.37100 -3.38100 45.05100
C  26.96300 -3.46200 44.84100
C  30.02300 -4.78300 46.53700
C  28.85400 -2.41600 44.12800
O  30.04700 -2.09400 43.92400
C  27.64300 -1.79400 43.28200
C  27.62900 -0.34000 43.59900
O  27.29300 0.08400 44.72500
O  28.03800 0.38300 42.48700
C  27.97400 1.81500 42.77800
H  20.92800 -3.07300 42.95500
H  22.34700 -8.80900 45.78700
H  27.92100 -6.74600 47.60300
H  25.06200 -0.49800 42.57200
H  22.49500 -1.65700 41.84000
H  21.84300 0.28100 43.01400
H  23.38600 0.27400 43.82200
H  22.12800 -0.70900 44.54000
H  24.06000 -2.48400 40.61200
H  25.77900 -2.59600 40.99900
H  26.26600 -0.44800 40.01700
H  24.64900 0.17500 40.36100
H  18.28000 -5.97200 43.20700
H  19.22500 -4.72400 42.40700
H  18.67600 -4.37100 44.02700
H  20.29700 -9.02900 46.85500
H  20.63800 -9.84800 45.29000
H  18.97300 -9.80700 46.04600
H  24.61700 -9.71200 46.57300
H  25.68300 -8.08600 48.79800
H  23.34800 -10.62800 48.24900
H  22.65400 -9.06600 48.65700
H  24.14400 -9.53700 49.34800
H  27.88100 -9.06600 46.99200
H  26.68900 -10.22100 47.23400
H  28.81200 -9.62200 49.04400
H  27.47700 -10.71900 49.46000
H  27.51400 -8.95900 49.88600
H  30.74500 -4.56200 45.75100
H  29.96800 -5.87000 46.46700
H  30.20800 -4.39000 47.53600
H  27.82100 -2.06600 42.24200
H  27.27500 2.21000 42.04000
H  28.95700 2.26900 42.65900
H  27.56600 2.20200 43.71200
Mg 6.92600 55.56100 40.31500
C  4.34400 53.18700 39.88600
C  9.22200 52.99500 39.82900
C  9.29300 57.77400 40.14000
C  4.50100 57.99100 41.07300
N  6.75300 53.34300 39.50700
C  5.60600 52.60200 39.53700
C  5.94400 51.21800 38.99300
C  7.48900 51.14000 39.30800
C  7.85500 52.56600 39.61100
C  7.98600 50.33300 40.49900
C  5.49400 51.02900 37.49500
C  4.56100 49.83300 37.19300
H  4.77500 48.95900 35.92400
N  8.98400 55.43000 39.86600
C  9.75100 54.23700 39.81600
C  11.08400 54.58500 39.65800
C  11.16900 55.97500 39.58000
C  9.79900 56.44500 39.82700
C  12.28800 53.59600 39.46300
C  12.40200 56.77400 39.33900
O  13.44000 56.15300 39.13700
C  12.44400 58.27600 39.38800
N  6.82900 57.63200 40.44800
C  8.03800 58.27100 40.50200
C  7.88400 59.60500 41.08500
C  6.28900 59.87400 41.02400
C  5.76100 58.40500 40.82300
C  8.40900 59.71000 42.54700
C  5.95100 60.79400 39.81800
C  5.33500 62.16700 40.19900
N  4.88000 55.68600 40.46600
C  4.02800 56.70200 40.81800
C  2.69600 56.23100 40.96700
C  2.79600 54.82300 40.72800
C  4.08600 54.56300 40.23600
C  1.47600 56.98700 41.42800
C  2.06900 53.62100 40.73500
O  0.91100 53.33800 41.03900
C  2.99800 52.50200 40.12000
C  2.39500 52.08400 38.90100
O  2.66000 52.58300 37.83600
O  1.52600 51.04500 39.25500
C  0.74000 50.54600 38.21200
H  9.92100 52.17800 39.63900
H  10.09900 58.49200 40.30300
H  3.84300 58.76000 41.48200
H  5.47700 50.46900 39.63200
H  7.98300 51.00300 38.34600
H  9.01500 50.04300 40.28700
H  7.44400 49.38800 40.53000
H  7.90600 50.86900 41.44500
H  6.36300 51.06800 36.83800
H  5.02700 51.94300 37.12900
H  3.62000 50.27900 36.87200
H  4.42900 49.15300 38.03500
H  12.77200 53.66000 38.48800
H  12.23000 52.52500 39.65800
H  13.08300 54.03200 40.06800
H  11.98600 58.74100 38.51500
H  13.52100 58.44500 39.38800
H  12.18600 58.64700 40.38000
H  8.58800 60.19600 40.50000
H  5.98900 60.23100 42.00900
H  7.63400 60.05300 43.23300
H  9.36000 60.24000 42.59800
H  8.70000 58.73700 42.94300
H  5.31800 60.28600 39.09100
H  6.83500 61.01700 39.22100
H  4.74200 62.12700 41.11300
H  4.51000 62.21200 39.48900
H  5.98400 63.03600 40.30900
H  0.71400 56.21500 41.53700
H  1.06400 57.65000 40.66700
H  1.62500 57.51800 42.36800
H  3.07100 51.66800 40.81800
H  0.20300 49.66800 38.57000
H  1.28000 50.21800 37.32400
H  0.01600 51.26800 37.83400

