158

Mg 24.01300 -4.88900 45.69100
C  25.88200 -2.46800 44.14900
C  21.32400 -3.71800 43.84000
C  22.35400 -7.61100 46.72700
C  26.85900 -6.02600 47.41000
N  23.67300 -3.44400 43.95800
C  24.62800 -2.50400 43.60600
C  23.92800 -1.43200 42.64100
C  22.45200 -1.62700 43.04500
C  22.43600 -3.05800 43.63900
C  21.99800 -0.59400 44.13400
C  24.30600 -1.74000 41.17200
C  24.87900 -0.64600 40.27400
H  24.95000 -0.97900 38.76200
N  22.12800 -5.57400 45.33900
C  21.11100 -4.98700 44.45500
C  19.93800 -5.83600 44.48600
C  20.27200 -6.90100 45.40100
C  21.65800 -6.74800 45.85300
C  18.69400 -5.47500 43.61600
C  19.26000 -8.01200 45.94200
O  18.10900 -8.06100 45.53600
C  19.57900 -8.90400 47.11400
N  24.55100 -6.52900 47.09100
C  23.62800 -7.52000 47.29100
C  24.29500 -8.68200 48.09700
C  25.68700 -8.10300 48.45300
C  25.75200 -6.81600 47.59900
C  23.47700 -9.23400 49.31400
C  26.83700 -9.04600 48.02300
C  28.20500 -8.99100 48.91800
N  25.97200 -4.44000 45.78000
C  27.00500 -4.89400 46.55600
C  28.17600 -4.07900 46.35500
C  27.78900 -3.15100 45.41100
C  26.41900 -3.32500 45.10800
C  29.48900 -4.20600 47.07200
C  28.25500 -1.97200 44.66500
O  29.34800 -1.49800 44.57500
C  27.02700 -1.54800 43.74600
C  26.73400 -0.13700 44.08700
O  25.90900 0.16100 44.97100
O  27.51100 0.76000 43.23700
C  27.22800 2.10000 43.46100
H  20.36900 -3.30700 43.50600
H  21.86000 -8.56400 46.92800
H  27.78600 -6.38200 47.86300
H  24.24000 -0.41300 42.87000
H  21.75900 -1.54000 42.20800
H  22.84000 -0.05500 44.57000
H  21.46400 -1.17500 44.88600
H  21.26000 -0.00700 43.58900
H  23.37100 -2.06000 40.71300
H  25.07300 -2.51100 41.23900
H  25.87400 -0.45600 40.67600
H  24.39800 0.31800 40.44100
H  18.95400 -5.14200 42.61100
H  18.14900 -4.59300 43.95100
H  18.15000 -6.41900 43.58200
H  18.61200 -9.15800 47.54800
H  20.20900 -8.42100 47.86100
H  19.98700 -9.83900 46.72900
H  24.45500 -9.47200 47.36400
H  25.88700 -7.86700 49.49800
H  23.39700 -10.29600 49.08000
H  22.44700 -8.88200 49.37100
H  23.95300 -8.94900 50.25200
H  27.01600 -8.91400 46.95600
H  26.52700 -10.07700 48.19200
H  28.47900 -9.97900 49.28800
H  28.17600 -8.22700 49.69600
H  29.04800 -8.66900 48.30600
H  30.42600 -3.94000 46.58200
H  29.56400 -5.25900 47.34200
H  29.45200 -3.76500 48.06800
H  27.22300 -1.67800 42.68200
H  27.01500 2.60400 42.51800
H  28.15400 2.59400 43.75700
H  26.48400 2.34100 44.22000
Mg 45.09900 4.77200 46.31400
C  43.11300 7.58800 46.07500
C  42.26700 2.74000 46.13900
C  47.18800 2.09200 45.54300
C  47.91500 6.79200 45.72800
N  42.89600 5.13600 45.96700
C  42.34800 6.38100 45.97000
C  40.84300 6.31300 45.79100
C  40.56400 4.77000 46.13600
C  41.96000 4.11000 46.16100
C  39.83400 4.60500 47.58400
C  40.09100 6.90400 44.58000
C  41.02800 7.38500 43.39300
H  40.38300 7.48800 41.98400
N  44.78400 2.73500 45.78900
C  43.53000 2.12800 45.83800
C  43.78700 0.71600 45.83500
C  45.14400 0.47300 45.54800
C  45.79200 1.80100 45.57600
C  42.69200 -0.24600 46.14800
C  45.81500 -0.82100 45.17000
O  45.06300 -1.76400 45.27100
C  47.22000 -1.11400 44.67500
N  47.30000 4.46900 45.76400
C  47.88200 3.25600 45.61400
C  49.47400 3.44700 45.61000
C  49.58000 4.93500 45.03400
C  48.18200 5.43100 45.50700
C  50.12800 3.12100 46.99300
C  49.77100 5.00100 43.47000
C  51.22500 5.33700 42.91400
N  45.50500 6.76700 46.13800
C  46.72200 7.46400 46.05100
C  46.42800 8.88300 46.14300
C  45.07400 8.97000 46.25700
C  44.52200 7.67900 46.10600
C  47.23200 10.05600 46.00300
C  43.99700 9.89200 46.47900
O  43.92600 11.07900 46.64400
C  42.70800 9.03900 46.49200
C  41.97500 9.14400 47.77500
O  41.78500 8.31400 48.69300
O  41.34300 10.30400 47.76600
C  40.71400 10.71700 49.01500
H  41.37700 2.12300 46.28100
H  47.86400 1.23700 45.61800
H  48.77500 7.46500 45.70500
H  40.52400 6.94800 46.61800
H  39.98000 4.23000 45.39100
H  39.49000 5.50000 48.10300
H  40.58200 4.11400 48.20600
H  38.94200 3.98100 47.65000
H  39.49600 7.69500 45.03600
H  39.51000 6.06200 44.20500
H  41.89900 6.73100 43.34600
H  41.36900 8.35000 43.76800
H  42.68100 -0.84300 45.23600
H  41.69400 0.16600 46.30000
H  42.94400 -0.90200 46.98100
H  47.31100 -2.10900 44.23900
H  47.80300 -1.08700 45.59600
H  47.38800 -0.29600 43.97400
H  49.96300 2.77600 44.90400
H  50.24600 5.44900 45.72600
H  49.19800 2.91700 47.52400
H  50.60500 3.97400 47.47500
H  50.83800 2.31400 46.81000
H  49.06000 5.70600 43.04000
H  49.51000 4.01600 43.08500
H  51.61900 4.49900 42.34000
H  51.96600 5.56800 43.67900
H  51.27700 6.29700 42.40000
H  47.34200 10.11600 44.92000
H  48.24400 10.03100 46.40600
H  46.67100 10.89600 46.41300
H  42.01900 9.45300 45.75500
H  41.40200 11.04200 49.79600
H  40.15200 9.90300 49.47400
H  39.99900 11.52500 48.86200

