158

Mg 35.78300 2.32400 31.01800
C  33.00400 3.32300 33.00800
C  37.70900 2.66700 33.83100
C  38.34700 1.72800 29.07000
C  33.58600 2.33700 28.17800
N  35.34100 2.87100 33.13900
C  34.18000 3.11600 33.78100
C  34.24500 3.30500 35.34200
C  35.77700 3.39300 35.48800
C  36.32900 2.99900 34.02100
C  36.28200 4.80900 35.80300
C  33.66900 2.13600 36.15200
C  33.02000 2.59300 37.48300
H  33.58200 3.74200 38.29400
N  37.76500 2.15900 31.37700
C  38.37000 2.29700 32.58500
C  39.79000 2.04900 32.41600
C  39.98200 1.70900 31.05500
C  38.69200 1.91100 30.41900
C  40.80200 2.22700 33.57400
C  41.24700 1.28300 30.33700
O  41.35900 1.13100 29.08900
C  42.52000 1.00800 31.18600
N  35.91400 2.20300 28.87900
C  37.13100 1.77900 28.37600
C  36.95800 1.26800 26.94800
C  35.42800 1.41400 26.65300
C  34.93000 1.95700 27.95000
C  37.80200 2.02100 25.90200
C  34.68800 0.07100 26.20100
C  33.59300 0.37200 25.05400
N  33.69400 2.70000 30.60800
C  32.95600 2.75100 29.44200
C  31.62700 3.25300 29.70500
C  31.60700 3.58300 31.13600
C  32.86700 3.22600 31.57600
C  30.43800 3.41800 28.81800
C  30.84400 4.18200 32.20700
O  29.70100 4.62200 32.21200
C  31.68900 3.95000 33.54400
C  31.97700 5.33600 34.03600
O  32.63800 6.14200 33.43800
O  31.20600 5.58600 35.15900
C  31.15500 6.99500 35.59400
H  38.30600 2.72500 34.74400
H  39.16800 1.35200 28.45500
H  32.80500 2.22700 27.42300
H  33.78500 4.26300 35.58300
H  36.30200 2.66300 36.10300
H  36.13200 5.46600 34.94700
H  37.33500 4.61200 36.00300
H  35.74400 5.26200 36.63600
H  34.42400 1.37400 36.34700
H  32.87900 1.64300 35.58500
H  32.91500 1.67900 38.06700
H  31.97100 2.80300 37.27100
H  40.98700 1.28300 34.08700
H  40.35700 2.89200 34.31400
H  41.72200 2.73200 33.28100
H  43.29300 0.70600 30.48000
H  42.30200 0.29900 31.98400
H  42.92500 1.98400 31.45400
H  37.13300 0.19200 26.96400
H  35.34200 2.21800 25.92200
H  37.30300 2.29200 24.97100
H  38.77800 1.60800 25.64700
H  38.11500 2.94100 26.39500
H  34.19800 -0.29600 27.10200
H  35.47200 -0.61100 25.87200
H  33.96400 0.12900 24.05800
H  33.33200 1.42800 25.12900
H  32.71600 -0.24200 25.25800
H  30.57100 3.16200 27.76700
H  30.07500 4.44400 28.76900
H  29.66700 2.77600 29.24300
H  31.03100 3.37000 34.19200
H  30.11800 7.32400 35.51600
H  31.69700 7.67900 34.94200
H  31.58800 7.01200 36.59400
Mg -0.15900 44.03500 26.56900
C  1.98300 43.84900 29.24700
C  -2.92200 43.35500 28.89500
C  -2.50800 43.58400 24.02000
C  2.35300 44.17500 24.30300
N  -0.44100 43.59300 28.81900
C  0.63800 43.65900 29.71000
C  0.07400 43.42600 31.10500
C  -1.41100 43.05800 30.89900
C  -1.58700 43.43400 29.42200
C  -1.88500 41.60700 31.25200
C  0.31900 44.68600 31.95600
C  0.29300 44.55300 33.49400
H  -0.02600 43.22300 34.08500
N  -2.39500 43.55400 26.53300
C  -3.27400 43.32600 27.50900
C  -4.60500 42.98800 27.06500
C  -4.54800 43.34600 25.65400
C  -3.08400 43.50600 25.34000
C  -5.70900 42.56300 27.96100
C  -5.66400 43.52700 24.63300
O  -5.44300 43.59600 23.43900
C  -7.05700 43.57400 25.22800
N  -0.04200 43.76600 24.40600
C  -1.14100 43.74100 23.58600
C  -0.70900 43.73000 22.18100
C  0.72400 44.24300 22.22000
C  1.08300 44.04500 23.70400
C  -0.90900 42.30300 21.64800
C  0.99700 45.65100 21.82000
C  1.61900 45.72800 20.37500
N  1.74600 44.10000 26.69200
C  2.74400 44.23600 25.70100
C  4.01500 44.34600 26.30300
C  3.78400 44.15400 27.72000
C  2.37600 44.03300 27.88600
C  5.32600 44.31700 25.58600
C  4.48200 44.08000 29.01300
O  5.68300 44.08500 29.32400
C  3.29100 43.81300 30.01800
C  3.48300 42.58100 30.68300
O  3.65400 41.53900 30.07900
O  3.69900 42.76300 32.01300
C  4.24500 41.59500 32.73200
H  -3.67100 43.14900 29.66300
H  -3.11500 43.48800 23.11700
H  3.13300 44.39800 23.57200
H  0.61000 42.57900 31.53400
H  -2.00200 43.77900 31.46400
H  -2.08500 41.02700 30.35100
H  -2.86300 41.60500 31.73400
H  -1.07300 41.20900 31.86000
H  -0.49800 45.37900 31.75800
H  1.24500 45.16500 31.63800
H  -0.35100 45.30100 33.95500
H  1.28700 44.85300 33.82700
H  -5.39500 42.30400 28.97200
H  -6.34900 41.81900 27.48700
H  -6.37100 43.41900 28.09300
H  -7.30500 44.55200 25.64000
H  -7.32200 42.73200 25.86800
H  -7.74000 43.49000 24.38300
H  -1.40500 44.42800 21.71600
H  1.36400 43.54400 21.68100
H  -1.92900 42.14200 21.29800
H  -0.62400 41.56500 22.39700
H  -0.25500 42.24300 20.77800
H  1.59900 46.15600 22.57500
H  0.05000 46.19000 21.85700
H  1.24400 46.66600 19.96700
H  1.35200 44.87900 19.74600
H  2.66200 46.00000 20.53300
H  5.06100 44.67400 24.59100
H  5.68000 43.28700 25.57400
H  6.02800 44.96400 26.11200
H  3.24800 44.61600 30.75300
H  5.31800 41.70100 32.57300
H  3.93400 40.56800 32.54000
H  4.03800 41.90400 33.75700

