158

Mg 6.52500 54.38300 40.59100
C  6.19300 50.90300 40.56300
C  9.94500 53.87400 39.99300
C  6.80900 57.52900 40.01400
C  3.10300 54.62200 41.11000
N  7.87400 52.60600 40.21500
C  7.52100 51.26000 40.21000
C  8.75800 50.37700 40.05100
C  9.94500 51.34700 40.38000
C  9.23400 52.71100 40.18500
C  10.74600 51.01700 41.68600
C  8.92000 49.81200 38.57100
C  9.07000 50.75500 37.34500
H  7.81500 51.10000 36.58500
N  8.05300 55.52400 39.95000
C  9.41900 55.16300 39.82000
C  10.19500 56.29000 39.61100
C  9.31900 57.41400 39.63900
C  7.95800 56.88000 39.79100
C  11.71600 56.29300 39.34600
C  9.81900 58.87500 39.45000
O  11.02000 59.05200 39.29900
C  8.90300 60.17300 39.51500
N  5.06700 55.81700 40.34800
C  5.49800 57.10100 40.30200
C  4.32700 58.09400 40.48600
C  3.14200 57.16900 40.81900
C  3.81200 55.80700 40.77600
C  4.71700 59.26700 41.50600
C  1.87100 57.33000 39.94700
C  0.70000 58.03800 40.69100
N  4.94800 53.12300 40.77900
C  3.61400 53.35000 41.08400
C  2.93100 52.14900 41.37400
C  3.98400 51.10200 41.15700
C  5.14800 51.79200 40.82100
C  1.43800 51.97900 41.75000
C  4.21900 49.73900 41.09500
O  3.48200 48.81600 41.26800
C  5.64500 49.45000 40.72300
C  5.64400 48.69400 39.43200
O  5.21300 49.07600 38.38200
O  6.32400 47.53700 39.65300
C  6.14600 46.60000 38.61600
H  11.03500 53.91900 39.95200
H  6.90400 58.61100 40.13300
H  2.07100 54.87500 41.36400
H  8.73400 49.55800 40.76900
H  10.68200 51.25800 39.58200
H  10.70800 51.86300 42.37200
H  11.73000 50.58600 41.49500
H  10.22900 50.21900 42.21800
H  7.97000 49.31900 38.36700
H  9.71000 49.06100 38.56200
H  9.80700 50.32900 36.66400
H  9.48800 51.70400 37.68100
H  11.95400 57.00800 38.55800
H  11.98000 55.31300 38.94800
H  12.22100 56.35600 40.31000
H  8.12200 60.06800 38.76200
H  9.59700 61.01100 39.44600
H  8.51800 60.20300 40.53400
H  4.26100 58.60100 39.52300
H  2.91700 57.38400 41.86400
H  5.65800 58.86800 41.88500
H  3.97400 59.35700 42.29800
H  4.87000 60.26100 41.08500
H  1.59600 56.42000 39.41300
H  2.11500 57.82900 39.00900
H  0.70100 59.11600 40.52600
H  0.72900 57.79500 41.75300
H  -0.29500 57.64500 40.48200
H  1.28900 50.97300 42.14200
H  0.76900 52.07900 40.89600
H  1.10300 52.66200 42.53000
H  6.11900 48.82900 41.48300
H  5.07700 46.39100 38.56000
H  6.80200 45.79100 38.93600
H  6.41700 47.00200 37.64000
Mg -2.04900 34.70000 26.99500
C  -3.70600 32.79300 29.45000
C  -1.00200 36.84500 29.27500
C  -1.16900 36.62000 24.38100
C  -3.22300 32.33800 24.62100
N  -2.36900 34.85400 29.06600
C  -2.93800 33.89900 29.91300
C  -2.56300 34.14300 31.34300
C  -1.63900 35.39600 31.25900
C  -1.74400 35.79300 29.78400
C  -1.94700 36.48600 32.28200
C  -1.75500 32.96600 31.98500
C  -2.17200 32.47000 33.35500
H  -1.18300 32.61200 34.57900
N  -1.13400 36.54500 26.85100
C  -0.75600 37.26400 27.95500
C  -0.08400 38.49100 27.55100
C  -0.27600 38.49100 26.10900
C  -0.91500 37.19700 25.66900
C  0.55000 39.50900 28.54700
C  0.20100 39.52400 25.10800
O  0.14200 39.34300 23.88800
C  0.86200 40.81100 25.62900
N  -2.27100 34.51700 24.76000
C  -1.68000 35.44400 23.93600
C  -1.62200 34.94800 22.49600
C  -2.14100 33.53100 22.67800
C  -2.51900 33.37600 24.11600
C  -2.55400 35.80200 21.64800
C  -1.09800 32.50400 22.18400
C  -0.02000 32.11300 23.18400
N  -3.24200 32.93900 26.99500
C  -3.67800 32.10100 25.93300
C  -4.53200 31.05300 26.39600
C  -4.52800 31.27800 27.80400
C  -3.69700 32.42100 28.05400
C  -5.30400 30.04100 25.61200
C  -5.05400 30.79300 29.11400
O  -5.79400 29.86800 29.42200
C  -4.40300 31.71500 30.25900
C  -5.45800 32.24300 31.16000
O  -6.16900 33.17300 30.87900
O  -5.53500 31.46700 32.34200
C  -6.49600 31.97200 33.33700
H  -0.54400 37.48300 30.03500
H  -0.75000 37.12600 23.50900
H  -3.45700 31.57600 23.87400
H  -3.51000 34.28500 31.86300
H  -0.60000 35.09700 31.39700
H  -2.36100 37.35800 31.77600
H  -1.05100 36.63800 32.88400
H  -2.69700 36.04500 32.93900
H  -0.71000 33.25300 32.10700
H  -1.70600 32.08600 31.34400
H  -2.35500 31.40100 33.24000
H  -3.14700 32.94300 33.47200
H  1.42100 39.96200 28.07300
H  0.90500 39.06000 29.47500
H  -0.15900 40.29500 28.80800
H  0.90600 41.50600 24.79000
H  1.83700 40.56500 26.05000
H  0.19700 41.23100 26.38300
H  -0.59700 35.03300 22.13500
H  -3.04200 33.44600 22.07100
H  -3.25500 36.33600 22.28800
H  -3.14700 35.25000 20.91900
H  -1.99400 36.59800 21.15700
H  -0.63100 32.87600 21.27200
H  -1.68800 31.70000 21.74500
H  0.10900 32.94000 23.88300
H  0.93100 31.95400 22.67600
H  -0.19200 31.11100 23.57700
H  -5.04400 30.05900 24.55400
H  -6.36400 30.23200 25.77900
H  -5.12400 29.05100 26.03100
H  -3.65500 31.06800 30.71600
H  -7.38600 32.42100 32.89500
H  -6.13600 32.69500 34.06900
H  -6.73800 31.20300 34.07000

