158

Mg 17.66500 -2.40100 28.20700
C  16.97700 -0.43800 31.13100
C  19.43000 -4.51800 30.29100
C  18.89400 -3.92900 25.51300
C  16.15500 0.07500 26.27300
N  18.18600 -2.43300 30.50600
C  17.60800 -1.63600 31.44000
C  17.80400 -2.23600 32.84300
C  18.65700 -3.53100 32.54100
C  18.80500 -3.46700 31.03700
C  20.00600 -3.53100 33.38700
C  16.48200 -2.67200 33.51500
C  16.23700 -2.13800 34.99100
H  17.45300 -1.68100 35.88400
N  18.93100 -4.02400 27.93400
C  19.48700 -4.77900 28.92600
C  20.33700 -5.82700 28.28300
C  20.12700 -5.74300 26.87600
C  19.24000 -4.58700 26.70300
C  21.07600 -6.84800 29.15300
C  20.60400 -6.62800 25.75300
O  20.29800 -6.41600 24.58700
C  21.29500 -7.81800 26.18200
N  17.51100 -1.93800 26.13700
C  18.15700 -2.70700 25.18500
C  17.85700 -2.16000 23.77000
C  16.66700 -1.14700 24.07400
C  16.75300 -1.02100 25.55200
C  19.00700 -1.47500 23.01700
C  15.24000 -1.65800 23.66400
C  14.14300 -0.61700 23.29100
N  16.78300 -0.59500 28.54700
C  16.12000 0.28500 27.65000
C  15.34500 1.24400 28.46100
C  15.80100 1.06300 29.78500
C  16.65100 -0.07700 29.78300
C  14.38500 2.35300 27.95600
C  15.56400 1.51400 31.10000
O  14.79900 2.41000 31.49000
C  16.35400 0.58800 32.06100
C  17.26900 1.37600 32.88300
O  18.40100 1.66300 32.59700
O  16.58800 1.95900 33.88700
C  17.35300 2.88900 34.68900
H  19.75900 -5.35300 30.91300
H  19.39000 -4.29800 24.61300
H  15.73700 0.86100 25.64100
H  18.39500 -1.48200 33.36400
H  18.13600 -4.47300 32.71300
H  19.93100 -2.91000 34.28000
H  20.81800 -3.12500 32.78500
H  20.21700 -4.53900 33.74500
H  16.31700 -3.74400 33.41600
H  15.78700 -2.06900 32.93000
H  15.63600 -2.91100 35.47100
H  15.54700 -1.29600 34.92500
H  20.47800 -7.75100 29.03800
H  21.39200 -6.69600 30.18600
H  22.06900 -6.99200 28.72600
H  22.31500 -7.76600 26.56000
H  21.58300 -8.35600 25.27900
H  20.59400 -8.47500 26.69700
H  17.57100 -3.07700 23.25500
H  16.72800 -0.15200 23.63300
H  19.75000 -1.44200 23.81400
H  18.68600 -0.46700 22.75500
H  19.35100 -1.99800 22.12500
H  14.94500 -2.24200 24.53500
H  15.38500 -2.24900 22.75900
H  13.25800 -0.74000 23.91600
H  13.75300 -0.95600 22.33100
H  14.56800 0.37600 23.14800
H  13.45500 1.90700 27.60400
H  14.87600 2.80300 27.09300
H  14.25800 3.18700 28.64700
H  15.69500 0.10600 32.78300
H  17.38600 2.50100 35.70700
H  16.85600 3.85500 34.77800
H  18.38900 3.05400 34.39400
Mg 44.43300 2.20500 47.27500
C  44.05200 5.51900 46.30300
C  41.31400 1.52900 46.10000
C  45.14600 -1.08800 47.56300
C  47.84400 2.87300 47.90900
N  42.80000 3.41600 46.49700
C  42.86600 4.73100 46.05400
C  41.60100 5.17500 45.39200
C  40.63300 3.91000 45.55300
C  41.61900 2.88100 46.12900
C  39.44800 4.04000 46.59300
C  41.82700 5.60200 43.90800
C  41.37600 7.00000 43.47500
H  40.20300 7.16500 42.43300
N  43.34100 0.43100 46.96500
C  42.03100 0.39100 46.47700
C  41.60600 -1.01400 46.35300
C  42.70500 -1.80000 46.82300
C  43.79900 -0.85700 47.17600
C  40.21700 -1.45000 45.88500
C  42.73100 -3.32900 46.96600
O  41.70700 -3.93400 46.72700
C  43.90400 -4.12600 47.33500
N  46.27100 1.02000 47.73600
C  46.21200 -0.25600 47.85800
C  47.60000 -0.91000 48.11100
C  48.53200 0.39300 47.95200
C  47.50700 1.54200 47.90300
C  47.78400 -1.71000 49.41700
C  49.56100 0.45100 46.83500
C  51.00600 0.11600 47.16800
N  45.66600 3.89900 47.22500
C  46.98200 4.00500 47.62400
C  47.35300 5.42000 47.51700
C  46.23500 6.02600 47.03400
C  45.26100 5.08700 46.85400
C  48.57500 6.03700 47.90800
C  45.70400 7.28700 46.57100
O  46.20900 8.40800 46.52100
C  44.25200 6.97400 46.01400
C  43.32000 7.81000 46.79700
O  42.90600 7.62500 47.88900
O  43.11600 8.99000 46.09600
C  42.49200 10.04500 46.86300
H  40.33100 1.31500 45.67600
H  45.42000 -2.12500 47.76900
H  48.90600 3.10500 48.01600
H  41.09800 6.04000 45.82500
H  40.08100 3.57100 44.67600
H  39.80500 4.03300 47.62300
H  38.65300 3.30900 46.44400
H  39.09000 5.06100 46.46300
H  41.41000 4.82800 43.26300
H  42.88000 5.38100 43.73600
H  42.21800 7.44800 42.94800
H  41.20200 7.67900 44.31000
H  40.20900 -2.19600 45.09000
H  39.69400 -0.56100 45.53200
H  39.63300 -1.71900 46.76500
H  44.26500 -3.81100 48.31400
H  44.67400 -4.12800 46.56400
H  43.46300 -5.12100 47.40800
H  47.67000 -1.59400 47.26600
H  49.07900 0.47600 48.89100
H  48.47000 -1.16700 50.06700
H  48.10700 -2.72500 49.18700
H  46.87200 -1.66300 50.01200
H  49.60400 1.42800 46.35500
H  49.15300 -0.29400 46.15200
H  51.62900 0.86100 46.67300
H  51.25500 -0.85300 46.73600
H  51.27500 0.11200 48.22500
H  49.43300 5.38300 48.06100
H  48.41900 6.65600 48.79200
H  48.72200 6.66800 47.03200
H  44.26000 7.28500 44.96900
H  42.89100 10.98400 46.47800
H  42.57800 9.89200 47.93900
H  41.44700 9.95200 46.56700

