158

Mg 16.79700 -0.56300 27.93000
C  15.54500 1.05000 30.71900
C  18.72100 -2.56300 29.89400
C  18.13500 -1.97200 25.15300
C  15.02800 1.65200 25.91500
N  17.06800 -0.73400 30.00900
C  16.44400 0.05900 30.99900
C  16.95600 -0.38300 32.44300
C  17.92800 -1.59800 32.10600
C  17.98300 -1.58600 30.53800
C  19.38200 -1.51000 32.67200
C  15.84700 -0.86700 33.49100
C  15.92500 -0.22300 34.94400
H  17.24200 0.22200 35.54600
N  18.26800 -2.06600 27.63000
C  18.96100 -2.80600 28.55300
C  19.75500 -3.75900 27.91500
C  19.55400 -3.62800 26.53300
C  18.61600 -2.47100 26.37900
C  20.49800 -4.73600 28.76000
C  20.26700 -4.31500 25.37900
O  20.00600 -4.12800 24.22100
C  21.35000 -5.26900 25.74400
N  16.64300 -0.23100 25.84600
C  17.34100 -0.92000 24.88300
C  17.04200 -0.29500 23.41400
C  15.92300 0.74300 23.73000
C  15.82100 0.71700 25.29200
C  18.36900 0.21000 22.74100
C  14.65400 0.51300 22.92900
C  13.65400 -0.53000 23.48500
N  15.49000 1.01300 28.19100
C  14.94300 1.92500 27.26600
C  14.25200 2.95600 27.96700
C  14.42000 2.59500 29.31900
C  15.19200 1.40300 29.38500
C  13.63700 4.15000 27.31700
C  14.12300 3.04000 30.61700
O  13.65000 4.14500 30.95400
C  14.89600 2.12900 31.62500
C  15.91400 2.91300 32.27800
O  17.05000 3.09100 31.87200
O  15.49100 3.24900 33.54400
C  16.41800 4.00500 34.37300
H  19.16100 -3.23700 30.63200
H  18.54200 -2.35200 24.21300
H  14.45600 2.30500 25.25200
H  17.52900 0.42700 32.89400
H  17.58800 -2.61200 32.31900
H  19.91500 -2.45800 32.73800
H  19.42800 -1.00700 33.63800
H  20.02300 -0.90700 32.02900
H  16.02500 -1.92200 33.70100
H  14.87400 -0.51600 33.14700
H  15.44100 -0.95100 35.59400
H  15.27400 0.64900 34.99800
H  21.55600 -4.78100 28.50200
H  20.16700 -5.76500 28.62200
H  20.53300 -4.58000 29.83800
H  22.24300 -4.70000 26.00100
H  21.64200 -5.94100 24.93700
H  21.04400 -5.87900 26.59400
H  16.61400 -1.12100 22.84400
H  16.31800 1.72600 23.47700
H  19.19300 0.06200 23.43900
H  18.21500 1.26500 22.51500
H  18.57300 -0.30500 21.80200
H  15.08300 0.17900 21.98400
H  14.07900 1.42000 22.74400
H  13.99500 -1.14700 24.31600
H  13.32900 -1.21000 22.69700
H  12.77400 0.00900 23.83600
H  13.63800 4.86300 28.14200
H  12.67200 3.94000 26.85600
H  14.33400 4.49700 26.55500
H  14.15600 1.83900 32.37000
H  16.72800 4.90600 33.84500
H  17.37600 3.52100 34.56200
H  16.05100 4.45000 35.29800
Mg 47.74700 15.86000 28.47500
C  45.91500 15.97100 31.52400
C  50.21000 17.41300 30.09700
C  49.19800 16.44900 25.50900
C  44.91500 14.72600 26.94100
N  47.97300 16.80500 30.54600
C  47.10500 16.57500 31.61700
C  47.77500 17.14600 32.89100
C  49.10300 17.88400 32.33500
C  49.17100 17.27000 30.93700
C  49.16400 19.44100 32.36200
C  48.03900 15.99400 33.87700
C  47.45300 16.17800 35.29600
H  47.03900 17.56200 35.79200
N  49.51800 16.67000 27.91300
C  50.46100 17.23500 28.72000
C  51.58300 17.57300 27.86300
C  51.34500 17.17300 26.52800
C  49.93500 16.80700 26.60200
C  52.85400 18.13900 28.45100
C  52.20300 17.30300 25.27500
O  51.81100 17.16700 24.11000
C  53.58500 17.79200 25.45300
N  47.04000 15.84400 26.51300
C  47.92100 15.95400 25.42100
C  47.24000 15.61300 24.03700
C  45.84300 15.05900 24.51000
C  45.86200 15.24800 26.06900
C  47.28900 16.71800 22.93800
C  45.53800 13.63300 24.06900
C  46.45400 12.55500 24.55300
N  45.90200 15.28400 29.04800
C  44.90600 14.70600 28.29400
C  43.90700 14.24900 29.16800
C  44.23600 14.70000 30.43200
C  45.42900 15.37800 30.29400
C  42.69000 13.39700 28.80500
C  43.80000 14.81800 31.83100
O  42.78700 14.30600 32.34000
C  44.84000 15.69900 32.60000
C  44.17200 16.89800 33.19300
O  44.12700 18.00600 32.78000
O  43.59200 16.42000 34.32700
C  42.69700 17.40800 34.90500
H  50.99900 17.94200 30.63600
H  49.77000 16.44800 24.57900
H  44.02500 14.21500 26.56600
H  47.04300 17.86400 33.26200
H  49.97000 17.59000 32.92600
H  49.98800 19.78900 32.98400
H  48.22800 19.98000 32.51200
H  49.53400 19.69100 31.36800
H  49.11400 15.82400 33.92700
H  47.69500 15.01000 33.55900
H  48.21000 15.80100 35.98400
H  46.65300 15.44500 35.40100
H  52.85300 18.70600 29.38200
H  53.18700 18.88700 27.73200
H  53.62700 17.38000 28.57100
H  54.18400 17.61700 24.55900
H  54.00900 17.09500 26.17600
H  53.64800 18.85400 25.69300
H  47.90800 14.90600 23.54600
H  45.02900 15.66600 24.11500
H  47.90400 17.55100 23.27800
H  46.30300 17.05500 22.61700
H  47.78200 16.31800 22.05200
H  45.38400 13.64100 22.99000
H  44.52000 13.44500 24.41200
H  46.50000 11.83200 23.73900
H  45.99200 12.04600 25.39900
H  47.44000 12.94600 24.80600
H  42.94100 12.44900 28.32800
H  42.04000 13.88200 28.07800
H  42.14200 13.27400 29.73900
H  45.10900 15.07400 33.45100
H  41.76700 17.55500 34.35600
H  43.13700 18.40400 34.96200
H  42.58400 17.15400 35.95900

