158

Mg 46.44200 25.75500 28.66400
C  47.23900 27.76100 31.48600
C  45.57200 23.26800 31.04100
C  45.78900 23.85900 26.21700
C  48.23100 28.00100 26.58600
N  46.33400 25.62700 31.11000
C  46.65000 26.55800 31.97200
C  46.38200 26.04600 33.36900
C  46.16600 24.47400 33.17000
C  45.98400 24.42000 31.69300
C  47.41700 23.66200 33.83100
C  45.28200 26.82600 34.05200
C  45.33200 27.34000 35.54300
H  45.96700 26.44900 36.65600
N  45.67500 23.84400 28.70100
C  45.31700 22.98400 29.70700
C  44.62800 21.77500 29.09000
C  44.62500 22.01200 27.66200
C  45.36200 23.28600 27.48700
C  44.16000 20.63900 29.88400
C  44.15200 21.04200 26.53800
O  44.39100 21.17000 25.32200
C  43.22600 19.89600 26.87600
N  47.03200 25.89000 26.75100
C  46.53200 24.94500 25.87100
C  47.12200 25.17800 24.42800
C  47.65300 26.64800 24.61400
C  47.68700 26.86300 26.07600
C  48.19000 24.09000 24.10900
C  46.53000 27.62200 24.05200
C  46.88400 29.05000 23.82900
N  47.53600 27.53600 28.89600
C  48.25900 28.23500 27.95800
C  48.75600 29.37000 28.60300
C  48.41500 29.21900 29.95300
C  47.71700 28.07400 30.09300
C  49.44300 30.57300 27.97000
C  48.55300 29.81600 31.25800
O  49.22700 30.76300 31.68500
C  47.76700 28.95500 32.26400
C  48.76200 28.62500 33.37000
O  49.92100 28.15700 33.22000
O  48.10900 28.90200 34.53600
C  48.81200 28.51200 35.73300
H  45.21900 22.46900 31.69600
H  45.54100 23.20200 25.38100
H  48.61700 28.69900 25.84000
H  47.29600 26.29400 33.90900
H  45.30600 24.01700 33.66000
H  47.07200 22.83000 34.44500
H  47.90500 24.32300 34.54600
H  48.02400 23.28100 33.01000
H  44.42600 26.15500 33.97300
H  44.96100 27.56100 33.31400
H  44.30300 27.56300 35.82500
H  45.91300 28.26100 35.49000
H  43.16400 20.27400 29.63600
H  44.38900 20.64000 30.95000
H  44.75600 19.80500 29.51200
H  43.79500 19.20300 27.49600
H  42.90400 19.36700 25.97900
H  42.33400 20.15300 27.44700
H  46.33900 25.00300 23.69000
H  48.68100 26.85900 24.31800
H  47.87200 23.57100 23.20400
H  48.08600 23.39700 24.94400
H  49.15800 24.54700 23.90600
H  45.74500 27.70700 24.80300
H  46.16000 27.18600 23.12400
H  46.54500 29.26100 22.81500
H  47.93600 29.32000 23.73300
H  46.44300 29.74600 24.54400
H  49.49100 31.37000 28.71100
H  49.03200 30.86300 27.00300
H  50.47800 30.31000 27.74900
H  46.96400 29.54400 32.70700
H  49.75400 29.04100 35.87600
H  48.96200 27.43400 35.79400
H  48.02900 28.77900 36.44300
Mg 16.68300 51.76100 26.87900
C  18.73200 50.58100 29.48000
C  14.45200 52.90000 29.31500
C  14.63500 52.90400 24.42600
C  19.17100 50.88200 24.54000
N  16.65300 51.76500 29.16800
C  17.58700 51.17100 30.03200
C  17.14000 51.19800 31.50300
C  15.59000 51.59600 31.21900
C  15.55700 52.18900 29.80800
C  14.63500 50.38400 31.46300
C  17.92200 52.35200 32.31200
C  18.14200 51.97500 33.78500
H  17.17200 52.34000 34.95100
N  14.79600 52.74500 26.87900
C  14.10100 53.20400 27.99300
C  12.94900 53.95000 27.50800
C  12.89200 53.89400 26.10900
C  14.13900 53.06800 25.73300
C  12.05300 54.66000 28.55400
C  11.88300 54.55100 25.21200
O  12.01700 54.40900 23.97300
C  10.68700 55.33500 25.73000
N  16.89400 51.88800 24.77200
C  15.88700 52.39100 23.94500
C  16.25300 52.21900 22.37200
C  17.72100 51.55800 22.53400
C  17.97200 51.41400 24.03200
C  15.13300 51.33700 21.75900
C  18.87000 52.28500 21.85400
C  19.85300 51.30600 21.22700
N  18.55700 50.99300 26.93700
C  19.53800 50.69300 25.89800
C  20.67300 50.09000 26.38300
C  20.38600 50.05900 27.77800
C  19.10900 50.60100 28.05900
C  21.93000 49.61700 25.51800
C  20.90400 49.69900 29.08200
O  22.00800 49.21300 29.32800
C  19.84800 49.91500 30.23300
C  19.60700 48.59900 30.86700
O  18.91200 47.65500 30.44800
O  20.20500 48.51900 32.03500
C  19.90300 47.44000 32.97800
H  13.85900 53.33700 30.12100
H  13.89800 53.08500 23.64100
H  19.97600 50.58700 23.86400
H  17.20800 50.23800 32.01400
H  15.40000 52.34300 31.98900
H  13.87400 50.29200 30.68800
H  14.09300 50.44600 32.40700
H  15.13900 49.43000 31.31400
H  17.41900 53.31900 32.33800
H  18.85500 52.59100 31.80200
H  19.08200 52.38200 34.15800
H  18.26400 50.89200 33.76000
H  11.02800 54.71800 28.18700
H  12.28600 55.70300 28.76700
H  12.12300 54.18800 29.53400
H  11.10300 55.98900 26.49600
H  9.89200 54.65700 26.04100
H  10.31600 56.01900 24.96600
H  16.22200 53.21100 21.92200
H  17.61500 50.52600 22.20000
H  15.46500 50.62900 21.00000
H  14.32900 51.95200 21.35600
H  14.64600 50.75500 22.54200
H  19.46600 52.93700 22.49300
H  18.61500 52.97200 21.04700
H  19.86600 51.51900 20.15800
H  19.58900 50.25100 21.30900
H  20.85600 51.55400 21.57400
H  22.73900 49.97900 26.15200
H  21.92900 50.08000 24.53200
H  21.96600 48.52900 25.45200
H  20.40000 50.61100 30.86500
H  20.19100 47.79600 33.96700
H  20.57900 46.59700 32.83300
H  18.90000 47.02800 32.86300

