158

Mg 17.50800 -2.83200 28.19900
C  16.31400 -0.73800 30.91700
C  19.33400 -4.59000 30.51400
C  18.80600 -4.33800 25.70400
C  15.66100 -0.76100 25.99600
N  17.69700 -2.73000 30.45300
C  17.08600 -1.78000 31.33500
C  17.57500 -2.11400 32.79300
C  18.65600 -3.15700 32.60600
C  18.65300 -3.49800 31.07900
C  20.02900 -2.66200 33.07000
C  16.36700 -2.43600 33.72000
C  16.28000 -1.68400 35.08800
H  17.52100 -1.18900 35.79600
N  18.79100 -4.39200 28.07600
C  19.38200 -5.01200 29.11000
C  20.13600 -6.14800 28.55200
C  20.05100 -6.07100 27.10200
C  19.18100 -4.85900 26.91300
C  21.16000 -7.01600 29.36400
C  20.71100 -6.94400 26.07500
O  20.66000 -6.72700 24.88600
C  21.42200 -8.21600 26.41200
N  17.48400 -2.39200 26.18700
C  18.03000 -3.27700 25.31100
C  17.74500 -2.89500 23.84800
C  16.53400 -2.04800 24.02400
C  16.56200 -1.68500 25.46900
C  18.96400 -2.19900 23.22300
C  15.23100 -2.78100 23.57100
C  14.08600 -1.97900 23.06100
N  16.30000 -1.01900 28.37500
C  15.53600 -0.36200 27.39800
C  14.63600 0.58100 27.99100
C  15.00100 0.56600 29.36700
C  15.97200 -0.45300 29.54600
C  13.69000 1.35700 27.22900
C  14.66600 1.14400 30.64600
O  13.77200 1.97300 30.97600
C  15.51700 0.27600 31.78200
C  16.48900 1.27100 32.44400
O  17.63900 1.55400 32.09800
O  15.81400 1.82100 33.50200
C  16.44300 2.74900 34.43400
H  19.94700 -5.27700 31.10100
H  19.12600 -4.91600 24.83500
H  15.20100 -0.15100 25.21600
H  18.00400 -1.17500 33.14200
H  18.33400 -4.12600 32.98700
H  20.76700 -3.39600 32.74800
H  20.10800 -2.53500 34.14900
H  20.17600 -1.70400 32.56900
H  16.46300 -3.48200 34.01200
H  15.41000 -2.24400 33.23500
H  15.77900 -2.40400 35.73400
H  15.49400 -0.97500 34.82500
H  22.00900 -7.25400 28.72300
H  20.81600 -7.93800 29.83200
H  21.52300 -6.45400 30.22400
H  21.00300 -8.61900 27.33400
H  22.45200 -7.93200 26.63100
H  21.48500 -8.95200 25.61100
H  17.64900 -3.89800 23.43100
H  16.67400 -1.11600 23.47700
H  19.90400 -2.05400 23.75500
H  18.65500 -1.18700 22.96200
H  19.23800 -2.78000 22.34200
H  14.93100 -3.26400 24.50100
H  15.34900 -3.39900 22.68000
H  14.14700 -1.01900 23.57400
H  13.20700 -2.55300 23.35500
H  14.17500 -1.88100 21.97900
H  13.11900 0.74800 26.52700
H  14.25100 1.99300 26.54500
H  13.07200 1.95100 27.90200
H  14.81600 -0.11800 32.51700
H  17.21900 3.33800 33.94500
H  16.74300 2.30700 35.38400
H  15.67200 3.46600 34.71800
Mg 25.69300 52.13400 26.07700
C  23.71200 53.25100 28.87000
C  28.38200 51.84800 28.30500
C  27.86000 52.01000 23.47900
C  23.19500 53.37200 23.97800
N  25.99700 52.46400 28.27500
C  25.01400 52.75700 29.22000
C  25.46300 52.54100 30.72000
C  26.98100 52.14300 30.51000
C  27.14400 52.06800 28.94200
C  27.98500 53.12900 31.33200
C  24.59300 51.37500 31.47800
C  23.87400 51.74800 32.74500
H  24.64800 52.51600 33.78400
N  27.77500 51.71300 25.89300
C  28.67500 51.63000 26.95500
C  30.04500 51.36500 26.42300
C  29.86900 51.47100 24.96900
C  28.49900 51.81900 24.69400
C  31.23000 51.09100 27.28400
C  30.95100 51.45800 23.96100
O  30.69900 51.78000 22.80300
C  32.31100 51.08800 24.45900
N  25.58700 52.55800 24.05100
C  26.55500 52.30500 23.19600
C  26.13600 52.80300 21.79800
C  24.62800 53.02900 21.90500
C  24.38700 52.94200 23.41600
C  27.04900 53.98300 21.20100
C  23.67000 52.11100 21.12900
C  23.40500 52.44500 19.64700
N  23.81400 53.06300 26.28900
C  22.89000 53.45300 25.33900
C  21.69000 53.99900 25.94200
C  22.05800 53.98300 27.35000
C  23.28900 53.38700 27.49800
C  20.46100 54.48400 25.19400
C  21.56600 54.35700 28.69800
O  20.48000 54.83800 29.06600
C  22.52800 53.71300 29.74800
C  23.01200 54.82600 30.63100
O  24.01400 55.45300 30.53200
O  22.07400 55.01700 31.63000
C  22.46800 56.13900 32.52100
H  29.24300 51.64800 28.94800
H  28.42500 51.99600 22.54400
H  22.39800 53.64600 23.28400
H  25.42700 53.49100 31.25400
H  27.15200 51.21500 31.05500
H  28.69800 53.66500 30.70600
H  28.53100 52.57900 32.09900
H  27.41700 53.85600 31.91200
H  25.14100 50.48100 31.77400
H  23.78600 51.10000 30.79900
H  23.56000 50.88300 33.32900
H  23.00000 52.34300 32.47800
H  31.76100 50.19700 26.95600
H  30.93300 50.88700 28.31200
H  31.96900 51.89200 27.28100
H  32.92700 50.95100 23.57100
H  32.34200 50.07600 24.86400
H  32.72800 51.83500 25.13500
H  26.26600 51.91700 21.17800
H  24.50900 54.04600 21.53000
H  26.37100 54.83500 21.14200
H  27.38000 53.76100 20.18600
H  27.91100 54.14900 21.84700
H  22.71200 52.18200 21.64300
H  24.10500 51.11300 21.18200
H  24.18200 53.16000 19.37800
H  22.39800 52.86100 19.67500
H  23.49100 51.53900 19.04600
H  20.17000 53.75000 24.44300
H  20.58800 55.39600 24.61000
H  19.65700 54.69500 25.90000
H  21.94200 53.00500 30.33300
H  22.64700 56.94700 31.81100
H  23.39000 55.91600 33.05800
H  21.62900 56.30500 33.19700

