158

Mg 0.10500 7.83900 27.02000
C  0.80900 9.90400 29.81800
C  0.57200 5.23400 28.83500
C  -0.04500 6.11400 24.18700
C  0.57600 10.82100 25.02500
N  0.48100 7.66600 29.04300
C  0.60000 8.55800 30.09500
C  0.55900 7.94300 31.46200
C  0.83500 6.42200 31.08200
C  0.66100 6.44000 29.51700
C  2.17900 5.76200 31.51200
C  -0.76600 8.33100 32.13300
C  -0.69200 8.76400 33.61900
H  0.53000 8.28200 34.46400
N  0.24500 5.86600 26.54800
C  0.32300 4.92300 27.51700
C  0.16800 3.59800 26.92800
C  0.09600 3.84700 25.50200
C  0.05100 5.33800 25.36000
C  0.44800 2.29700 27.67400
C  0.08100 2.89900 24.32600
O  -0.10100 3.20700 23.10400
C  0.26800 1.39700 24.62800
N  0.21000 8.36800 24.95300
C  0.04700 7.45500 23.93000
C  0.28100 8.07400 22.54500
C  0.13500 9.61700 22.81700
C  0.40000 9.58800 24.35100
C  1.62800 7.51000 22.04600
C  -1.26900 10.22900 22.48900
C  -1.23200 11.09000 21.28200
N  0.53600 10.00600 27.29900
C  0.68600 11.07100 26.41500
C  0.85600 12.28800 27.12700
C  0.87700 11.87700 28.46700
C  0.75300 10.50600 28.52000
C  1.13100 13.71500 26.42100
C  1.11800 12.41000 29.79200
O  1.33200 13.65400 30.10000
C  0.91000 11.17600 30.81700
C  2.02500 11.24000 31.76500
O  3.11000 10.67200 31.72000
O  1.57300 11.89800 32.90700
C  2.41600 11.77100 34.11400
H  0.77200 4.35700 29.45500
H  -0.09500 5.57500 23.23900
H  0.59900 11.68600 24.35800
H  1.32800 8.45800 32.03800
H  0.14700 5.81200 31.66800
H  2.73000 6.37400 32.22700
H  2.82700 5.45300 30.69200
H  1.98700 4.87800 32.12100
H  -1.44000 7.47400 32.10900
H  -1.19100 9.17300 31.58700
H  -1.56600 8.36500 34.13300
H  -0.70100 9.85200 33.68300
H  -0.20200 1.50400 27.30500
H  0.34900 2.39800 28.75400
H  1.48800 2.06800 27.43800
H  -0.72900 1.17100 25.00800
H  1.07100 1.24900 25.35000
H  0.38900 0.82200 23.71000
H  -0.44000 7.73500 21.80100
H  0.91500 10.23700 22.37600
H  1.95100 8.08200 21.17600
H  1.57800 6.46800 21.73100
H  2.34700 7.56300 22.86400
H  -1.61000 10.88500 23.29100
H  -2.02700 9.48600 22.23900
H  -0.37300 10.88900 20.64200
H  -1.11300 12.13900 21.55400
H  -2.11400 10.82900 20.69800
H  1.70500 13.47100 25.52700
H  1.78800 14.31600 27.05000
H  0.24000 14.26200 26.11500
H  -0.07400 11.24400 31.28000
H  3.28600 11.14900 33.90200
H  1.84000 11.30800 34.91400
H  2.87000 12.72600 34.38000
Mg 41.36400 41.60100 26.48700
C  40.76300 43.74200 29.18300
C  42.90200 39.39600 28.75400
C  42.04500 39.48900 23.98900
C  40.67600 44.05200 24.24400
N  41.70700 41.54500 28.72000
C  41.31600 42.48400 29.55500
C  41.48800 42.03600 31.03600
C  42.57300 40.76700 30.89700
C  42.43500 40.53900 29.39000
C  43.99000 41.03500 31.40800
C  40.18500 41.88200 31.90100
C  40.07200 42.72000 33.18900
H  39.83800 41.90700 34.48300
N  42.31500 39.70400 26.41500
C  42.86000 38.98800 27.41000
C  43.37200 37.75200 26.94600
C  43.17800 37.71200 25.54800
C  42.47700 39.02400 25.25400
C  44.08500 36.62800 27.79400
C  43.57200 36.62500 24.52100
O  43.45500 36.80700 23.34200
C  44.13000 35.34000 25.03400
N  41.41400 41.76100 24.39400
C  41.71200 40.70000 23.51900
C  41.31700 41.05100 22.04800
C  41.00600 42.63200 22.18200
C  40.97800 42.83600 23.64700
C  42.33900 40.66700 21.03200
C  39.66900 43.06100 21.49900
C  39.85300 44.29000 20.60200
N  40.80000 43.50400 26.62000
C  40.60700 44.39100 25.58500
C  40.22000 45.61600 26.15100
C  40.23800 45.44500 27.56600
C  40.60600 44.12900 27.81600
C  39.95300 46.82200 25.37000
C  39.96700 46.04800 28.90500
O  39.53200 47.19100 29.19800
C  40.29400 44.99900 29.90300
C  41.41300 45.51800 30.78000
O  42.55500 45.14900 30.74100
O  40.92100 46.41200 31.72900
C  41.81900 46.80600 32.78900
H  43.29900 38.72600 29.52000
H  42.22500 38.80900 23.15300
H  40.32200 44.80000 23.53200
H  42.10400 42.82600 31.46700
H  42.16000 39.90600 31.42100
H  44.18800 42.09700 31.26100
H  44.66800 40.32200 30.93800
H  44.00500 40.88600 32.48800
H  40.09400 40.83100 32.17700
H  39.36800 42.11400 31.21800
H  39.26100 43.43700 33.05700
H  41.00300 43.26600 33.34100
H  45.08200 36.56800 27.35600
H  43.48400 35.71900 27.79500
H  44.08700 36.97900 28.82600
H  43.43700 34.80100 25.68000
H  45.06900 35.51400 25.56000
H  44.47700 34.69000 24.23100
H  40.38100 40.58600 21.73900
H  41.85000 43.21600 21.81400
H  42.81200 41.53600 20.57600
H  41.79600 40.15300 20.23800
H  43.05000 40.14200 21.67000
H  38.93300 43.26700 22.27600
H  39.19900 42.26900 20.91600
H  40.15500 45.12800 21.23000
H  38.94800 44.61500 20.08800
H  40.54800 44.12500 19.77800
H  40.81500 46.82400 24.70300
H  39.99800 47.76700 25.91100
H  39.03600 46.67200 24.80000
H  39.45400 44.73700 30.54700
H  42.24500 47.80000 32.65100
H  42.60400 46.10200 33.06500
H  41.11600 46.99900 33.60000

