158

Mg 17.12900 -1.59200 27.79700
C  15.98700 0.21300 30.53500
C  18.61900 -3.82600 30.11100
C  18.43200 -3.40700 25.25600
C  15.48800 0.50100 25.60900
N  17.35100 -1.76400 30.09500
C  16.76400 -0.88900 30.93200
C  17.06600 -1.26900 32.43100
C  18.02400 -2.48400 32.28400
C  18.03700 -2.73600 30.74300
C  19.52000 -2.43400 32.73600
C  15.88300 -1.51000 33.37000
C  16.09600 -1.59100 34.96400
H  17.25700 -0.71600 35.48300
N  18.45700 -3.24800 27.73300
C  18.91300 -4.06600 28.74700
C  19.60200 -5.23300 28.26100
C  19.58300 -5.12600 26.84200
C  18.78700 -3.89700 26.52300
C  20.31300 -6.25400 29.19100
C  20.11500 -6.02900 25.75100
O  20.18300 -5.68900 24.58200
C  20.77700 -7.34300 26.15700
N  16.96800 -1.56400 25.76600
C  17.66800 -2.27400 24.92900
C  17.32100 -1.92700 23.44500
C  16.46100 -0.63600 23.64300
C  16.26400 -0.55600 25.11300
C  18.58500 -1.63700 22.66000
C  15.15600 -0.52500 22.68300
C  13.97200 -1.44000 23.00000
N  15.87200 -0.04700 28.03500
C  15.21300 0.69600 27.03000
C  14.58800 1.83300 27.59500
C  14.82400 1.60100 29.01400
C  15.61700 0.51300 29.21100
C  13.74000 2.85000 26.89700
C  14.35800 2.14900 30.30700
O  13.54700 3.00400 30.58100
C  15.32100 1.34300 31.32400
C  16.40400 2.29700 31.78500
O  17.54500 2.33800 31.35600
O  16.03800 2.96900 32.93300
C  17.08800 3.64500 33.66200
H  18.95900 -4.50200 30.89700
H  18.68800 -3.97900 24.36200
H  15.03800 1.12200 24.83200
H  17.59900 -0.46400 32.93700
H  17.67900 -3.39100 32.77900
H  20.16900 -2.87600 31.98100
H  19.55600 -2.97000 33.68400
H  19.84200 -1.39700 32.83200
H  15.44700 -2.41000 32.93800
H  15.09900 -0.79200 33.13000
H  16.16700 -2.66900 35.11000
H  15.14200 -1.28100 35.39000
H  19.85600 -7.23700 29.06600
H  20.19400 -6.08100 30.26100
H  21.38400 -6.22700 28.99100
H  21.14100 -7.80000 25.23600
H  20.08500 -7.97500 26.71200
H  21.64500 -7.21800 26.80400
H  16.76900 -2.68100 22.88400
H  17.03100 0.27400 23.45500
H  18.34000 -1.43300 21.61700
H  19.19700 -2.53800 22.70800
H  19.22700 -0.88400 23.11700
H  15.58900 -0.68600 21.69500
H  14.76700 0.48200 22.83000
H  14.26600 -2.13900 23.78400
H  13.59900 -1.97900 22.12900
H  13.14000 -0.86200 23.40000
H  13.97200 3.82700 27.32100
H  12.70600 2.50500 26.91100
H  13.97900 2.84000 25.83400
H  14.80400 1.07200 32.24500
H  18.12300 3.59900 33.32500
H  17.12100 3.22400 34.66700
H  16.71100 4.66300 33.77000
Mg 43.91500 3.89200 46.98500
C  42.05300 6.72700 46.87900
C  40.91000 1.98600 46.80400
C  45.76000 1.20300 46.40200
C  46.86100 5.84800 46.46500
N  41.71800 4.37500 46.96100
C  41.19600 5.58700 46.86000
C  39.68000 5.52100 46.80700
C  39.30300 4.02100 46.94700
C  40.73400 3.40200 46.84500
C  38.52400 3.69700 48.26200
C  39.09400 6.22900 45.61400
C  39.44100 5.64600 44.21800
H  39.91400 6.62900 43.17100
N  43.37300 1.85300 46.78000
C  42.12300 1.21600 46.81000
C  42.26000 -0.15600 46.64400
C  43.58700 -0.37100 46.32900
C  44.35300 0.88500 46.44700
C  41.01700 -1.08100 46.73200
C  44.08500 -1.73800 45.92000
O  43.23800 -2.62400 45.86800
C  45.46600 -1.96400 45.56600
N  46.06500 3.59700 46.50000
C  46.48100 2.36900 46.48000
C  48.07100 2.31700 46.55300
C  48.43100 3.79100 46.36900
C  47.09700 4.51000 46.49200
C  48.50700 1.74600 47.92900
C  48.97000 4.15200 44.92300
C  50.44200 4.50100 44.94900
N  44.38600 5.87400 46.67300
C  45.62500 6.54400 46.51300
C  45.37600 8.00900 46.52900
C  43.97600 8.07000 46.64500
C  43.41300 6.81700 46.75100
C  46.30400 9.08000 46.56700
C  42.91500 8.93100 46.79600
O  42.95600 10.18000 46.81100
C  41.58100 8.18500 46.85800
C  40.73000 8.68200 47.92600
O  40.42600 8.04000 48.88900
O  40.18000 9.89400 47.54600
C  38.97100 10.32500 48.25500
H  39.97100 1.44900 46.65400
H  46.40800 0.32800 46.48500
H  47.71600 6.52300 46.38700
H  39.28700 6.13200 47.61900
H  38.72500 3.68000 46.08800
H  39.23400 3.84500 49.07600
H  38.39500 2.62200 48.38400
H  37.62600 4.28100 48.46200
H  39.45600 7.25500 45.56100
H  38.00800 6.27700 45.69800
H  38.58700 5.05200 43.89100
H  40.31000 5.01300 44.39600
H  40.77700 -1.52100 45.76400
H  40.10600 -0.51100 46.91500
H  41.16500 -1.84900 47.49100
H  46.05700 -2.16600 46.45900
H  45.80700 -1.08800 45.01400
H  45.50400 -2.80700 44.87600
H  48.46600 1.81000 45.67200
H  48.99800 4.30800 47.14300
H  47.68700 1.51100 48.60700
H  49.13600 2.50100 48.40000
H  49.01900 0.80200 47.74100
H  48.37500 4.95400 44.48600
H  48.70800 3.30400 44.29000
H  50.95400 3.91800 44.18300
H  50.80900 4.15900 45.91600
H  50.67200 5.56500 44.88900
H  45.87300 10.02900 46.24800
H  47.05300 8.88000 45.80100
H  46.77000 9.20700 47.54400
H  41.10500 8.50600 45.93200
H  38.98300 10.26000 49.34300
H  38.07200 9.83600 47.87900
H  38.79600 11.39200 48.11200

