158

Mg 25.61900 -0.23900 29.42500
C  27.44200 -0.76100 32.25000
C  22.78100 -0.09600 31.35400
C  23.62900 -0.27700 26.55500
C  28.43000 -0.82200 27.47300
N  25.19200 -0.61300 31.52600
C  26.15800 -0.56400 32.52400
C  25.59600 -0.29400 33.98900
C  24.03700 -0.27800 33.64300
C  23.95600 -0.42000 32.10800
C  23.14800 -1.25600 34.44500
C  26.19900 0.96200 34.69100
C  26.79000 0.64600 36.05400
H  26.47000 1.70300 37.13900
N  23.56300 -0.06700 29.01400
C  22.50900 0.13400 29.95800
C  21.28500 0.47800 29.28600
C  21.55000 0.37100 27.90600
C  22.96100 -0.06200 27.76100
C  20.04100 0.82800 30.00200
C  20.61700 0.57200 26.72900
O  20.87600 0.36400 25.53300
C  19.26400 1.24700 27.00500
N  25.91000 -0.40000 27.32900
C  25.00700 -0.38400 26.34200
C  25.69300 -0.51900 24.94500
C  27.19300 -0.41800 25.28000
C  27.22000 -0.54000 26.83500
C  25.28100 -1.73600 24.09900
C  27.85600 0.92700 24.87800
C  29.14500 0.98700 24.10700
N  27.59900 -0.57200 29.78600
C  28.59500 -0.84200 28.90200
C  29.76600 -1.12000 29.69800
C  29.50100 -0.93800 31.02600
C  28.08400 -0.79900 31.01700
C  31.12300 -1.49800 29.13400
C  29.95900 -0.92000 32.34700
O  31.06600 -0.90700 32.83500
C  28.62100 -0.96200 33.20800
C  28.44100 -2.21500 33.96000
O  27.66600 -3.14200 33.75400
O  29.36500 -2.08000 35.01200
C  29.11800 -2.97500 36.14900
H  21.93200 0.00900 32.03300
H  22.94200 -0.37700 25.71200
H  29.25400 -1.00500 26.78000
H  25.85300 -1.14900 34.61600
H  23.65100 0.72700 33.81400
H  23.34500 -1.43700 35.50200
H  23.10700 -2.19800 33.89900
H  22.15900 -0.80200 34.39400
H  25.34100 1.61600 34.84700
H  26.93300 1.41800 34.02600
H  27.84200 0.45700 35.84100
H  26.39200 -0.23900 36.55200
H  19.80300 1.86600 29.77300
H  20.30700 0.83000 31.05900
H  19.22500 0.10700 29.93800
H  19.40500 2.10400 27.66400
H  18.55400 0.49600 27.35200
H  18.87900 1.67200 26.07700
H  25.37200 0.36000 24.38600
H  27.73300 -1.27300 24.87400
H  24.79200 -2.48100 24.72600
H  26.16400 -2.21200 23.67200
H  24.57000 -1.44300 23.32500
H  28.14900 1.53900 25.73100
H  27.10300 1.42500 24.26700
H  29.06300 1.62900 23.22900
H  29.52600 0.01400 23.79500
H  29.85500 1.36000 24.84500
H  31.93100 -1.32600 29.84500
H  31.34600 -1.03700 28.17200
H  31.04000 -2.55100 28.86200
H  28.61100 -0.15700 33.94200
H  28.81500 -3.96300 35.80300
H  28.48600 -2.50200 36.90100
H  30.08100 -3.09100 36.64600
Mg -5.15200 23.72700 26.39300
C  -3.50600 25.55100 28.92300
C  -6.46200 21.76100 28.88200
C  -6.99800 22.27000 24.09000
C  -3.75500 25.83500 23.96800
N  -5.00000 23.64400 28.53400
C  -4.32500 24.58000 29.39300
C  -4.69500 24.34400 30.85200
C  -5.43500 22.95400 30.83800
C  -5.59600 22.77000 29.31400
C  -4.71300 21.74400 31.48200
C  -5.70400 25.48000 31.35600
C  -5.78600 25.81200 32.81300
H  -5.30100 24.72000 33.80400
N  -6.43200 22.10600 26.45700
C  -6.93100 21.38100 27.59200
C  -7.88400 20.36600 27.19700
C  -7.97500 20.47000 25.72200
C  -7.12500 21.63900 25.37300
C  -8.49900 19.26800 28.08200
C  -8.89500 19.74400 24.70800
O  -8.90600 19.94600 23.48700
C  -9.89600 18.78200 25.22400
N  -5.22200 23.93100 24.26800
C  -6.10800 23.18900 23.57900
C  -6.02300 23.52500 22.06400
C  -4.89500 24.67600 22.03000
C  -4.51300 24.79200 23.45600
C  -5.86700 22.20600 21.07200
C  -5.40200 25.95600 21.30900
C  -4.72000 26.51900 20.10800
N  -3.71400 25.22200 26.40300
C  -3.30200 26.01800 25.33100
C  -2.44400 27.07300 25.87700
C  -2.51000 26.91700 27.26600
C  -3.28600 25.80800 27.53700
C  -1.70800 28.06100 25.08000
C  -1.94800 27.42300 28.51700
O  -1.17400 28.33800 28.65000
C  -2.68000 26.64800 29.60300
C  -1.74600 26.09200 30.55300
O  -0.72900 25.44100 30.29900
O  -2.15600 26.41700 31.82000
C  -1.41200 25.70900 32.84900
H  -6.95400 21.17400 29.66000
H  -7.63200 21.92100 23.27200
H  -3.35300 26.53900 23.23700
H  -3.81400 24.36900 31.49400
H  -6.40700 23.02500 31.32600
H  -4.46400 21.03700 30.69000
H  -5.29200 21.27300 32.27600
H  -3.86700 22.10800 32.06400
H  -6.69400 25.20000 30.99500
H  -5.43500 26.43800 30.91200
H  -6.84100 25.76000 33.08300
H  -5.37100 26.80200 32.99900
H  -9.57100 19.46400 28.05100
H  -8.10400 19.41100 29.08800
H  -8.39400 18.24500 27.72100
H  -10.48100 19.38000 25.92200
H  -9.32000 17.98200 25.69000
H  -10.44700 18.28100 24.42800
H  -7.03000 23.86500 21.82300
H  -4.08900 24.32200 21.38800
H  -5.20000 21.53800 21.61700
H  -5.47600 22.47500 20.09100
H  -6.84000 21.73400 20.93800
H  -5.56200 26.75900 22.02800
H  -6.44000 25.80900 21.01100
H  -5.20200 26.35100 19.14500
H  -3.71900 26.08800 20.10700
H  -4.54100 27.56300 20.36700
H  -0.74400 27.69500 24.72600
H  -1.58000 28.93400 25.72000
H  -2.30100 28.39200 24.22800
H  -3.31800 27.39400 30.07700
H  -0.33000 25.75900 32.73500
H  -1.66400 24.66100 32.68600
H  -1.62000 26.11000 33.84100

