158

Mg 1.51800 9.10200 26.78300
C  1.74200 11.34000 29.57100
C  1.70700 6.51400 29.00300
C  2.13200 7.02800 24.09400
C  1.78600 11.76000 24.64400
N  1.74800 8.98300 29.00600
C  1.45300 9.98300 29.84100
C  1.23600 9.43700 31.25400
C  1.53500 7.93900 31.16600
C  1.63300 7.77200 29.62700
C  2.79500 7.37000 31.90200
C  -0.26100 9.75500 31.68700
C  -0.47400 9.57500 33.20000
H  0.70700 9.01400 34.10900
N  1.76200 6.96300 26.54900
C  1.83500 6.15100 27.64900
C  1.99500 4.77700 27.12300
C  2.00800 4.84900 25.66500
C  1.96100 6.30000 25.35200
C  1.98900 3.52600 28.11300
C  1.98500 3.85700 24.53600
O  1.86700 4.16400 23.33500
C  2.20500 2.44500 24.87500
N  1.68200 9.32900 24.73700
C  1.98100 8.37500 23.84400
C  2.01500 8.94800 22.44200
C  1.41900 10.35100 22.65800
C  1.66600 10.47700 24.11300
C  3.47900 9.01500 21.86000
C  -0.14600 10.45200 22.32100
C  -0.46200 11.46900 21.18400
N  1.76900 11.18800 26.95700
C  1.89100 12.16000 25.99500
C  2.12000 13.44400 26.69100
C  2.08000 13.13800 28.09800
C  1.91000 11.74800 28.21000
C  2.38900 14.80800 26.03400
C  2.16800 13.67700 29.42400
O  2.51700 14.80000 29.64500
C  1.83100 12.52900 30.46700
C  2.93000 12.48100 31.44700
O  4.08700 12.37800 31.16200
O  2.45000 12.57200 32.69500
C  3.40300 12.44100 33.74000
H  1.73900 5.73700 29.77000
H  2.28400 6.52300 23.13800
H  1.71300 12.61000 23.96200
H  1.97500 9.95300 31.86800
H  0.67000 7.37200 31.51000
H  3.21500 7.89900 32.75800
H  3.63800 7.17600 31.23900
H  2.51600 6.42800 32.37400
H  -0.86000 9.12100 31.03400
H  -0.60400 10.76800 31.47900
H  -1.29200 8.86900 33.33800
H  -0.57200 10.58300 33.60200
H  2.70400 3.73300 28.90900
H  2.24700 2.57600 27.64700
H  1.01200 3.46800 28.59300
H  1.27300 2.10900 25.33000
H  2.90100 2.35000 25.70800
H  2.54200 1.87600 24.00900
H  1.39200 8.35300 21.77400
H  1.92300 11.13800 22.09600
H  3.85400 10.03800 21.85500
H  3.27300 8.64000 20.85700
H  4.17600 8.47500 22.50100
H  -0.71900 10.76100 23.19500
H  -0.38600 9.48800 21.87200
H  0.45500 11.37900 20.60100
H  -0.45200 12.50900 21.51100
H  -1.39300 11.36200 20.62700
H  1.56400 15.50000 26.20600
H  2.58200 14.74800 24.96300
H  3.40500 15.00500 26.37600
H  0.91700 12.81900 30.98600
H  4.16900 11.68300 33.57700
H  2.78300 12.16500 34.59200
H  3.74000 13.46400 33.90100
Mg 47.75300 15.79400 28.68300
C  45.60900 15.44200 31.53100
C  49.79000 17.47700 30.58400
C  49.63100 16.18300 25.98700
C  45.23100 14.41000 26.81100
N  47.61600 16.42900 30.81300
C  46.81200 16.08600 31.80200
C  47.28900 16.69800 33.11100
C  48.60400 17.41400 32.69800
C  48.64000 17.07000 31.27700
C  48.73500 18.82400 33.06800
C  47.42500 15.60000 34.27400
C  47.10500 16.09200 35.63300
H  46.82000 17.62800 35.87000
N  49.48400 16.64300 28.34300
C  50.21000 17.33400 29.25600
C  51.47700 17.81500 28.63400
C  51.45700 17.41400 27.24400
C  50.13500 16.74400 27.14000
C  52.44500 18.70900 29.42100
C  52.54800 17.53000 26.12600
O  52.44700 17.00700 25.03400
C  53.88100 18.23600 26.50800
N  47.36800 15.48300 26.60500
C  48.35200 15.60000 25.69200
C  47.96800 14.96700 24.29300
C  46.54100 14.39300 24.61100
C  46.31500 14.80200 26.06900
C  47.96100 16.05200 23.11800
C  46.13400 12.93200 24.21400
C  46.42500 11.87700 25.34800
N  45.73800 15.05700 29.05300
C  44.85900 14.46500 28.16100
C  43.70100 13.97300 28.80700
C  43.94900 14.39300 30.17600
C  45.22500 14.99900 30.22400
C  42.46400 13.23600 28.26200
C  43.41800 14.38400 31.65300
O  42.39400 13.95400 32.10800
C  44.52400 15.05100 32.52200
C  43.91400 16.17300 33.24100
O  44.06200 17.35600 32.97400
O  43.30200 15.65200 34.40100
C  42.74300 16.64800 35.30200
H  50.61300 17.83800 31.20500
H  50.23900 16.29400 25.08700
H  44.47900 13.83300 26.26700
H  46.48500 17.38700 33.37000
H  49.50600 16.91700 33.05300
H  48.94500 19.48300 32.22600
H  49.49300 18.79900 33.85200
H  47.81300 19.17700 33.53000
H  48.46200 15.27200 34.20900
H  46.69900 14.83500 34.00000
H  47.81500 15.83500 36.41900
H  46.18300 15.65000 36.01200
H  53.08200 19.33600 28.79800
H  53.15600 18.03300 29.89700
H  51.92500 19.33000 30.15100
H  54.51200 18.06400 25.63600
H  54.36500 17.76400 27.36200
H  53.77900 19.30200 26.71000
H  48.67600 14.17800 24.03600
H  45.81000 15.00700 24.08500
H  47.06100 15.86200 22.53200
H  48.75500 15.94700 22.37900
H  47.86000 17.05700 23.52800
H  46.69900 12.65700 23.32300
H  45.07000 12.95300 23.97800
H  47.01000 12.26600 26.18200
H  47.06200 11.13700 24.86400
H  45.49300 11.44900 25.71600
H  42.75700 12.69900 27.35900
H  41.64300 13.91100 28.02100
H  42.10800 12.50700 28.98900
H  44.76000 14.32100 33.29700
H  41.67600 16.73500 35.09600
H  43.34700 17.55100 35.20900
H  42.83400 16.37600 36.35300

