158

Mg 8.34400 2.35900 27.66800
C  9.84800 1.16900 30.59000
C  6.40000 4.38600 29.64400
C  6.84300 3.29200 24.83000
C  10.09900 -0.11700 25.82900
N  7.98600 2.52500 29.87100
C  8.82000 2.04100 30.85400
C  8.48200 2.68500 32.20300
C  7.25700 3.62900 31.86800
C  7.08200 3.44300 30.40600
C  5.89900 3.41300 32.57700
C  9.73000 3.47000 32.80000
C  9.62100 4.28300 34.11100
H  10.49700 3.71400 35.27600
N  6.83100 3.60300 27.23900
C  6.20500 4.43400 28.22600
C  5.24000 5.32900 27.47800
C  5.43000 5.08400 26.08600
C  6.35000 3.93200 26.03100
C  4.32700 6.37400 28.14200
C  4.76100 5.88900 24.84800
O  4.87700 5.48800 23.68400
C  3.80100 7.09200 25.03600
N  8.29100 1.53500 25.64800
C  7.73800 2.21100 24.64400
C  8.22600 1.74700 23.22100
C  9.26000 0.72100 23.62700
C  9.21000 0.66100 25.17200
C  7.03400 1.42500 22.25100
C  10.74900 0.98000 23.16700
C  11.37400 -0.09900 22.18400
N  9.71800 0.82900 28.07800
C  10.32200 -0.04800 27.23500
C  11.31300 -0.80000 27.99900
C  11.17000 -0.35800 29.27200
C  10.15900 0.63700 29.34100
C  12.23200 -1.86000 27.48600
C  11.69300 -0.45000 30.63600
O  12.57000 -1.18500 31.15200
C  10.85900 0.52700 31.46200
C  10.27400 -0.21700 32.61600
O  9.60400 -1.21400 32.59700
O  10.71000 0.32700 33.78700
C  10.27200 -0.28500 35.03000
H  5.99100 5.19700 30.24900
H  6.48100 3.55800 23.83500
H  10.91400 -0.66000 25.34700
H  8.12600 1.88400 32.85100
H  7.42000 4.68600 32.08100
H  5.27400 2.71300 32.02100
H  5.33100 4.32000 32.78200
H  6.09800 2.95000 33.54300
H  10.09300 4.12100 32.00400
H  10.60300 2.82100 32.87000
H  8.58800 4.19500 34.44600
H  9.89600 5.31600 33.89900
H  3.36300 6.12400 27.69800
H  4.48200 7.41100 27.84500
H  4.17900 6.29000 29.21900
H  2.80000 6.83700 25.38200
H  3.82900 7.68400 24.12100
H  4.30600 7.72600 25.76500
H  8.80000 2.63600 22.95700
H  9.02800 -0.31900 23.39900
H  6.04200 1.51600 22.69200
H  7.12700 0.40400 21.88000
H  7.22100 2.14700 21.45500
H  11.36700 1.15500 24.04800
H  10.72500 1.96200 22.69300
H  12.16800 -0.64400 22.69400
H  11.68500 0.38500 21.25800
H  10.56300 -0.82600 22.13800
H  13.04000 -1.90800 28.21600
H  12.59400 -1.66000 26.47700
H  11.65100 -2.78100 27.48400
H  11.55700 1.24500 31.89100
H  10.22500 0.56400 35.71200
H  11.03000 -0.97200 35.40600
H  9.36600 -0.88500 34.94200
Mg 27.50000 50.82200 25.34500
C  25.58700 51.76400 28.14200
C  29.88400 49.80800 27.62000
C  29.51300 50.14300 22.75000
C  25.25000 52.53500 23.34400
N  27.70300 50.73800 27.61600
C  26.74800 51.13200 28.53500
C  27.04000 50.66900 29.94400
C  28.57800 50.21800 29.79000
C  28.78300 50.25800 28.29400
C  29.66300 50.93500 30.59400
C  25.99700 49.52600 30.46700
C  25.32800 49.67900 31.84600
H  25.94500 50.44900 33.02700
N  29.47000 50.09000 25.23500
C  30.21800 49.69900 26.28500
C  31.40500 49.10400 25.70400
C  31.41900 49.27900 24.28900
C  30.13500 49.90200 24.03300
C  32.42900 48.42800 26.52400
C  32.46200 48.92300 23.18200
O  32.38300 49.33700 22.05000
C  33.59500 48.05900 23.55100
N  27.42500 51.31100 23.43900
C  28.29000 50.77200 22.50000
C  27.68400 50.69800 21.08500
C  26.67300 51.85700 21.25900
C  26.39800 51.89600 22.81000
C  28.62400 51.07800 19.86600
C  25.40800 51.63800 20.38700
C  24.92500 52.79600 19.45100
N  25.84500 52.06200 25.68800
C  24.97300 52.64500 24.78600
C  23.85100 53.26300 25.44700
C  24.05200 52.95200 26.80100
C  25.25800 52.20000 26.87300
C  22.66400 54.03900 24.70400
C  23.40800 53.01000 28.14500
O  22.32000 53.45000 28.49000
C  24.51800 52.29200 29.04300
C  24.92200 53.41600 29.96800
O  25.91100 54.12400 29.82000
O  24.08500 53.50600 31.07700
C  24.54200 54.46500 32.13400
H  30.55100 49.39300 28.37900
H  29.98600 49.62100 21.91500
H  24.49000 52.89700 22.64900
H  27.01000 51.53500 30.60600
H  28.68400 49.15400 30.00000
H  30.48900 51.38300 30.04200
H  30.15100 50.45800 31.44300
H  29.08000 51.75700 31.00900
H  26.58200 48.60700 30.51000
H  25.26200 49.39700 29.67300
H  25.13000 48.68500 32.24600
H  24.36500 50.15500 31.66000
H  32.14000 47.38400 26.64800
H  32.45200 48.85400 27.52600
H  33.43100 48.45300 26.09600
H  33.85000 47.47400 22.66700
H  33.16600 47.23400 24.12000
H  34.40600 48.61800 24.01800
H  27.22200 49.71600 20.98200
H  27.19600 52.78900 21.04800
H  28.39600 50.34500 19.09200
H  29.67700 51.15900 20.13700
H  28.35800 52.04100 19.43000
H  24.64100 51.33800 21.10100
H  25.55700 50.80000 19.70500
H  25.04100 52.31700 18.47900
H  25.54300 53.69400 19.43700
H  23.84800 52.91600 19.57000
H  23.20800 54.75900 24.09300
H  21.96900 54.54900 25.37100
H  21.95600 53.49300 24.08100
H  24.11900 51.47900 29.65000
H  24.56100 55.48100 31.73900
H  25.52800 54.35500 32.58500
H  23.80000 54.42500 32.93100

