158

Mg 44.36200 3.62100 47.25300
C  42.28200 6.40500 46.93500
C  41.54100 1.65800 46.66300
C  46.40800 0.88700 46.99600
C  47.11600 5.75500 47.23100
N  42.12400 3.98800 46.78200
C  41.52800 5.23700 46.77100
C  40.04000 5.09800 46.80300
C  39.76100 3.48400 46.79900
C  41.18600 2.95700 46.74300
C  38.95300 2.88300 47.99600
C  39.17700 5.81100 45.73200
C  39.47900 5.49700 44.24400
H  39.74200 6.75300 43.36400
N  44.01800 1.59500 46.88900
C  42.84600 0.97000 46.67900
C  42.93800 -0.46500 46.68600
C  44.31700 -0.66600 46.48300
C  45.02500 0.61200 46.76600
C  41.76000 -1.40600 46.65400
C  44.98200 -1.94700 45.98900
O  44.27600 -2.92700 45.79000
C  46.37100 -2.00400 45.51500
N  46.38300 3.30900 47.11400
C  47.02000 2.11800 47.24600
C  48.56200 2.32000 47.41600
C  48.73600 3.85800 47.34800
C  47.31200 4.33700 47.21700
C  49.12900 1.64600 48.67400
C  49.69300 4.42300 46.23800
C  51.24000 4.06600 46.45300
N  44.64100 5.67700 47.12300
C  45.85700 6.40700 47.21500
C  45.49200 7.85400 47.29700
C  44.13900 7.87900 47.25900
C  43.62300 6.55700 47.04000
C  46.55500 8.94200 47.46100
C  43.04300 8.71400 47.40200
O  42.94800 9.88600 47.79900
C  41.78800 7.83100 47.03200
C  40.82700 8.06600 48.15800
O  40.80700 7.55000 49.26200
O  39.90800 8.95300 47.79700
C  38.91800 9.46800 48.78000
H  40.67200 1.00200 46.58100
H  47.06200 0.01900 47.09900
H  47.96700 6.41800 47.40200
H  39.68300 5.42500 47.78000
H  39.22600 3.05100 45.95300
H  38.60400 3.70200 48.62400
H  39.60000 2.36100 48.70200
H  38.19100 2.14800 47.73700
H  39.14700 6.87500 45.96800
H  38.15900 5.49900 45.96800
H  38.59800 5.04900 43.78300
H  40.24000 4.71900 44.19400
H  42.00300 -2.27400 47.26800
H  41.41300 -1.60900 45.64100
H  40.82900 -1.00100 47.04900
H  46.48300 -1.05400 44.99300
H  46.40100 -2.75300 44.72300
H  47.05700 -2.07600 46.35900
H  48.95400 1.85900 46.51000
H  49.00100 4.17600 48.35600
H  48.47400 1.01200 49.27100
H  49.46200 2.41100 49.37600
H  50.04900 1.19200 48.30600
H  49.57600 5.50500 46.17900
H  49.45200 4.02600 45.25200
H  51.85500 4.96200 46.53300
H  51.51100 3.41600 45.62100
H  51.42500 3.51700 47.37600
H  47.10900 8.78700 48.38600
H  46.10900 9.93400 47.38200
H  47.28000 8.93700 46.64700
H  41.36600 8.13400 46.07400
H  38.96200 9.10200 49.80600
H  37.97800 9.07900 48.38800
H  38.91600 10.53200 49.01500
Mg 35.56700 48.47600 24.83600
C  35.84400 46.93500 27.94600
C  34.51900 51.27500 26.27000
C  34.88300 49.65200 21.78300
C  36.77800 45.52600 23.36400
N  35.24200 49.02900 26.97400
C  35.48700 48.30900 28.01100
C  35.07800 49.05000 29.30600
C  34.43100 50.38500 28.76200
C  34.75300 50.27500 27.22800
C  33.02500 50.65600 29.31700
C  36.34200 49.34300 30.25200
C  36.14000 49.13300 31.78500
H  34.66900 49.07800 32.28500
N  34.86000 50.25100 24.14800
C  34.49900 51.31800 24.89800
C  34.06300 52.41900 24.10400
C  34.16400 51.94000 22.76700
C  34.60000 50.52400 22.85000
C  33.67000 53.77000 24.66600
C  33.73600 52.77700 21.41600
O  34.13900 52.47400 20.28900
C  33.20600 54.20400 21.50700
N  35.87900 47.70200 22.82700
C  35.47800 48.40000 21.73700
C  35.98500 47.64600 20.46100
C  36.84600 46.54300 21.11800
C  36.45600 46.58600 22.51400
C  34.84200 47.07400 19.63900
C  38.38000 46.74600 21.03100
C  39.27400 45.50100 20.98100
N  36.10700 46.54300 25.43800
C  36.66700 45.48700 24.78900
C  36.93800 44.39400 25.63000
C  36.56100 44.95800 26.87600
C  36.19300 46.27400 26.73300
C  37.37800 42.97100 25.30000
C  36.49700 44.57000 28.30200
O  36.57100 43.49000 28.91000
C  35.98600 45.90200 29.04200
C  34.71300 45.61200 29.74200
O  33.55600 45.55800 29.27400
O  35.01500 45.31500 31.05300
C  33.91800 44.80800 31.83000
H  34.13300 52.15200 26.79400
H  34.61300 50.09100 20.82000
H  37.17900 44.62800 22.89100
H  34.36600 48.36000 29.76000
H  35.00300 51.18300 29.23500
H  32.69100 49.83000 29.94500
H  32.28600 50.67300 28.51600
H  33.15700 51.57900 29.88300
H  36.83200 50.29800 30.06300
H  37.10000 48.59500 30.01900
H  36.43700 50.09900 32.19500
H  36.69400 48.31700 32.24900
H  34.45400 54.51600 24.53800
H  33.44600 53.88300 25.72700
H  32.85300 54.03600 23.99600
H  32.21100 54.15900 21.94900
H  33.06500 54.54300 20.48100
H  33.93800 54.90300 21.91200
H  36.70400 48.26900 19.92800
H  36.57500 45.53500 20.80500
H  33.89200 47.14400 20.16900
H  35.06100 46.07000 19.27500
H  34.69500 47.59600 18.69300
H  38.65400 47.38700 21.86900
H  38.77200 47.37300 20.23000
H  38.59000 44.65200 20.96800
H  40.04000 45.52900 21.75600
H  39.90600 45.40900 20.09800
H  37.90100 43.03600 24.34600
H  36.55700 42.26200 25.18700
H  38.00500 42.61700 26.11800
H  36.69800 46.27400 29.77900
H  34.32500 44.56000 32.81000
H  33.55100 43.94300 31.27800
H  33.08900 45.46300 32.09900

