158

Mg 55.12500 25.23100 44.15200
C  52.35000 27.54400 43.55600
C  53.21600 22.86700 42.46700
C  57.83200 23.60300 43.62000
C  56.91000 28.11500 45.02900
N  53.16000 25.32400 42.97300
C  52.16800 26.32000 42.94000
C  50.85300 25.83000 42.28600
C  51.11100 24.27000 42.47100
C  52.60000 24.10800 42.62300
C  50.30400 23.47000 43.51700
C  50.57900 26.48300 40.83700
C  50.77900 25.64600 39.60900
H  52.20400 25.29700 39.21800
N  55.45800 23.37700 43.34800
C  54.58700 22.53300 42.64700
C  55.29100 21.31100 42.45500
C  56.66900 21.54600 42.80000
C  56.75800 22.91500 43.23600
C  54.57700 20.12200 41.84400
C  57.68500 20.49000 42.71700
O  57.46000 19.35600 42.17000
C  59.12600 20.59400 43.21900
N  57.10000 25.82200 44.17300
C  58.04600 24.89500 44.04300
C  59.46100 25.53300 44.13400
C  59.16900 26.99900 44.56700
C  57.64100 26.99300 44.63400
C  60.37200 24.71100 45.11800
C  59.62900 28.11400 43.53000
C  58.65900 28.64400 42.43100
N  54.67800 27.42600 44.56400
C  55.51200 28.41800 44.97400
C  54.72700 29.58000 45.10000
C  53.44500 29.27200 44.60800
C  53.53800 27.95800 44.18700
C  55.12900 30.92700 45.60800
C  52.11900 29.83300 44.40600
O  51.58700 30.89400 44.71400
C  51.40100 28.77300 43.64400
C  51.13500 29.35900 42.37700
O  51.98800 29.70600 41.58800
O  49.76200 29.51700 42.16300
C  49.26500 30.26700 40.98500
H  52.59600 22.05200 42.08800
H  58.77100 23.05300 43.52000
H  57.64300 28.86700 45.32700
H  50.15800 26.18500 43.04700
H  50.82700 23.70400 41.58400
H  49.73900 24.24000 44.04300
H  50.89400 22.88200 44.22000
H  49.52700 22.81100 43.13200
H  51.36200 27.24100 40.83700
H  49.56200 26.87200 40.78300
H  50.43200 26.18900 38.72900
H  50.15200 24.75400 39.59500
H  55.21700 19.41700 41.31200
H  53.70100 20.36100 41.24100
H  54.04000 19.62500 42.65200
H  59.41000 19.58100 43.50300
H  59.01000 21.10800 44.17300
H  59.77700 21.03000 42.46000
H  60.00800 25.60700 43.19400
H  59.52500 27.27000 45.56100
H  61.17800 25.35400 45.47100
H  60.98500 23.91000 44.70300
H  59.80200 24.20600 45.89800
H  60.46300 27.76000 42.92400
H  59.90500 28.94500 44.18000
H  58.06900 27.79200 42.09300
H  59.25400 28.91500 41.56000
H  58.04400 29.42400 42.88000
H  54.26400 31.20600 46.21000
H  55.13800 31.65000 44.79300
H  56.03600 30.92900 46.21400
H  50.45300 28.56200 44.13900
H  49.43100 29.57200 40.16200
H  49.78600 31.20500 40.79500
H  48.29900 30.77300 40.97200
Mg -2.20600 34.79300 26.34600
C  -3.72600 33.61200 29.32800
C  -0.36900 36.92500 28.40400
C  -0.97000 36.12500 23.67000
C  -4.10800 32.61000 24.41500
N  -2.20900 35.31200 28.57000
C  -2.78500 34.58600 29.60000
C  -2.28800 34.99900 31.01100
C  -1.34000 36.25300 30.68100
C  -1.28400 36.13300 29.12900
C  -2.00400 37.61800 31.13000
C  -1.60300 33.87500 31.82000
C  -1.59800 33.95700 33.34200
H  -2.52700 33.10300 34.15800
N  -0.78100 36.30900 26.02200
C  -0.11200 36.99200 27.02700
C  0.91200 37.81100 26.35800
C  0.78000 37.61900 24.93600
C  -0.40200 36.66500 24.82700
C  1.94100 38.62500 27.09400
C  1.76900 37.97700 23.85700
O  1.67700 37.49900 22.77000
C  3.05500 38.71800 24.24400
N  -2.53600 34.51700 24.36400
C  -1.95100 35.24500 23.37600
C  -2.19500 34.62400 22.03100
C  -2.88400 33.25000 22.25200
C  -3.18200 33.41700 23.76700
C  -2.87100 35.48800 20.94600
C  -2.00100 32.01800 22.00200
C  -2.68600 30.83400 21.18600
N  -3.66600 33.43900 26.72300
C  -4.29000 32.57500 25.86000
C  -5.12000 31.66500 26.63400
C  -4.93200 32.01100 27.95400
C  -4.04000 33.14200 27.99900
C  -6.01200 30.62900 26.07300
C  -5.28200 31.59300 29.32300
O  -5.96600 30.68400 29.78900
C  -4.56400 32.68500 30.21600
C  -5.70000 33.29000 30.88500
O  -6.68000 33.84800 30.41800
O  -5.58200 32.96600 32.19600
C  -6.70000 33.47100 33.08600
H  0.26800 37.47900 29.09600
H  -0.51300 36.53300 22.76600
H  -4.61400 31.84100 23.82800
H  -3.20100 35.22100 31.56300
H  -0.35800 36.13400 31.14000
H  -1.43600 38.00000 31.97800
H  -3.07000 37.47800 31.30900
H  -1.94900 38.39400 30.36600
H  -0.54900 33.87800 31.54000
H  -1.91300 32.87400 31.51900
H  -1.69500 34.97200 33.72700
H  -0.59100 33.68500 33.65800
H  1.80300 38.60400 28.17500
H  1.81400 39.69400 26.92300
H  3.00000 38.42400 26.93000
H  2.87100 39.57600 24.89100
H  3.56300 38.97900 23.31500
H  3.54300 37.92300 24.80800
H  -1.17200 34.45000 21.69800
H  -3.85500 33.29300 21.75800
H  -2.14900 35.83900 20.20900
H  -3.31200 36.38600 21.37800
H  -3.72600 34.95700 20.52600
H  -1.80900 31.58500 22.98300
H  -1.01900 32.22700 21.57800
H  -1.95400 30.03000 21.10900
H  -3.02200 31.19600 20.21500
H  -3.52900 30.49200 21.78600
H  -6.88900 31.20500 25.77800
H  -6.31600 29.89200 26.81700
H  -5.56900 30.17100 25.18900
H  -3.84700 32.24200 30.90700
H  -6.83400 34.53300 32.88200
H  -6.29100 33.48800 34.09700
H  -7.67100 32.98100 33.01300

