158

Mg 25.01700 1.27900 29.73500
C  27.11100 1.05500 32.54300
C  22.36800 1.31200 31.83600
C  23.07700 1.41300 27.01900
C  27.77700 0.81100 27.69000
N  24.80900 1.17100 31.92300
C  25.74300 1.17300 32.90500
C  25.19000 1.32700 34.30500
C  23.64400 1.24600 34.05900
C  23.56800 1.12500 32.51900
C  22.82000 0.29800 34.90100
C  25.71800 2.56600 35.02300
C  26.51900 2.41900 36.32000
H  26.24100 3.42400 37.47200
N  22.98300 1.25700 29.52100
C  22.04200 1.37800 30.47500
C  20.76500 1.62300 29.85300
C  20.96100 1.75100 28.43100
C  22.38400 1.44200 28.21100
C  19.43200 1.69800 30.55800
C  19.99200 2.15500 27.33900
O  20.39200 2.30300 26.14700
C  18.51200 2.39200 27.66800
N  25.36400 1.04600 27.67100
C  24.35500 1.14800 26.78300
C  24.85600 1.15100 25.29700
C  26.48800 1.10200 25.46600
C  26.56400 0.96700 26.98500
C  24.28400 -0.05300 24.48100
C  27.25800 2.27100 24.84400
C  27.06400 3.73500 25.42700
N  27.05400 0.92400 30.01400
C  28.03700 0.78900 29.07900
C  29.29700 0.59600 29.75500
C  29.06000 0.70600 31.14700
C  27.64500 0.93900 31.26500
C  30.64500 0.31800 29.14500
C  29.59200 0.60100 32.52500
O  30.72000 0.32000 32.92900
C  28.36300 1.01000 33.52200
C  28.24600 -0.11200 34.51500
O  27.75100 -1.21700 34.25400
O  28.76400 0.29700 35.69500
C  28.97400 -0.88300 36.57000
H  21.56400 1.45600 32.56100
H  22.47700 1.62000 26.13000
H  28.63300 0.80700 27.01300
H  25.37500 0.40600 34.85800
H  23.21100 2.22800 34.25100
H  23.43900 -0.27000 35.59500
H  22.36600 -0.42300 34.22200
H  22.02000 0.78700 35.45700
H  24.85700 3.21200 35.19400
H  26.33400 3.13800 34.32900
H  27.55000 2.59100 36.00900
H  26.60400 1.38300 36.64800
H  19.61700 1.15700 31.48600
H  18.63900 1.13500 30.06600
H  19.09600 2.72900 30.65900
H  18.36400 3.13700 28.45000
H  17.96600 1.46900 27.86100
H  18.15300 2.90200 26.77400
H  24.63200 2.14400 24.90700
H  26.87700 0.19700 24.99800
H  24.96900 -0.83500 24.15300
H  23.82800 0.33600 23.57000
H  23.51300 -0.47200 25.12700
H  26.79500 2.30400 23.85800
H  28.32700 2.06600 24.78000
H  26.53400 3.62100 26.37200
H  26.43800 4.22900 24.68400
H  27.93000 4.35500 25.65700
H  30.62900 0.85200 28.19500
H  30.61500 -0.72700 28.83800
H  31.52800 0.47400 29.76500
H  28.45200 1.98100 34.00900
H  28.03400 -1.14400 37.05700
H  29.64900 -0.68200 37.40200
H  29.49800 -1.70700 36.08500
Mg 48.69500 36.10300 27.34700
C  46.84200 34.18800 29.42800
C  48.96100 38.47000 29.86800
C  50.30900 38.09700 25.08200
C  48.38200 33.61100 24.94300
N  48.08300 36.21500 29.51800
C  47.36700 35.29500 30.16200
C  47.37600 35.58300 31.66800
C  47.73500 37.10100 31.67300
C  48.33900 37.29400 30.27700
C  46.56600 38.07700 31.93000
C  48.41800 34.62900 32.32700
C  48.40500 34.42200 33.84200
H  47.54500 35.18800 34.84700
N  49.48800 38.08400 27.47300
C  49.47000 38.86900 28.60200
C  50.35900 40.06400 28.37400
C  50.59700 39.97800 26.93600
C  50.11900 38.68900 26.40400
C  50.81100 41.07700 29.43900
C  51.35800 41.06400 26.09400
O  51.70400 40.89500 24.91100
C  51.66300 42.30800 26.79400
N  49.08300 35.96600 25.30300
C  49.79000 36.87600 24.58300
C  50.27000 36.33200 23.27100
C  49.82600 34.80900 23.27300
C  49.08100 34.74200 24.58500
C  49.79500 37.20100 22.03400
C  50.99800 33.82200 22.94600
C  51.18300 33.40300 21.50700
N  47.88300 34.20300 27.14300
C  47.79400 33.34300 26.14700
C  46.98800 32.19700 26.44000
C  46.56000 32.48200 27.76600
C  47.13400 33.73800 28.12200
C  46.61000 31.04300 25.69300
C  45.71100 32.01000 28.80100
O  45.13300 30.94300 28.83700
C  45.78400 33.13700 29.91600
C  46.06400 32.37900 31.09800
O  46.85300 31.41700 31.31400
O  45.24800 32.90600 32.15000
C  45.10600 32.10100 33.39300
H  49.21900 39.10700 30.71700
H  50.90300 38.61700 24.32700
H  48.29700 32.83600 24.17900
H  46.36100 35.33500 31.98000
H  48.50100 37.26200 32.43100
H  46.72300 38.83200 32.70000
H  45.60400 37.69200 32.26800
H  46.47500 38.55600 30.95500
H  49.40300 35.00900 32.05700
H  48.44200 33.65100 31.84500
H  49.38500 34.31900 34.30700
H  48.00800 33.41300 33.95100
H  51.86200 41.35600 29.37100
H  50.59700 40.77500 30.46500
H  50.27400 42.02000 29.34300
H  50.79300 42.61400 27.37600
H  51.88100 43.06500 26.04000
H  52.42900 42.04300 27.52200
H  51.35900 36.31700 23.32700
H  49.03200 34.63400 22.54800
H  49.32600 36.56600 21.28200
H  50.62400 37.77500 21.61900
H  49.03800 37.92400 22.33800
H  50.90100 32.85800 23.44600
H  51.91300 34.24000 23.36500
H  51.38900 32.33300 21.50100
H  52.10200 33.88400 21.17300
H  50.26500 33.53100 20.93300
H  45.84300 31.35000 24.98300
H  46.15600 30.36600 26.41600
H  47.44000 30.47400 25.27300
H  44.75100 33.48300 29.92300
H  45.54600 31.11000 33.28400
H  44.06500 31.82200 33.55500
H  45.54400 32.61900 34.24600

