158

Mg 27.20900 50.24600 26.01200
C  25.28900 51.49800 28.74000
C  29.47300 49.04700 28.34600
C  29.28200 49.45200 23.55100
C  25.09600 51.82600 23.80700
N  27.39400 50.35400 28.27100
C  26.43400 50.81700 29.19000
C  26.74200 50.43000 30.64500
C  28.20100 49.85800 30.51600
C  28.36600 49.67000 28.97800
C  29.29100 50.90500 30.93700
C  25.72600 49.54200 31.38000
C  24.99800 50.26300 32.60500
H  25.89800 50.38700 33.91000
N  29.09300 49.35400 25.92000
C  29.82000 48.89300 26.96000
C  31.03800 48.24300 26.46300
C  31.03400 48.38000 25.03600
C  29.77300 49.01700 24.76300
C  32.13400 47.62200 27.36800
C  32.03500 47.85300 24.04400
O  31.97500 48.11200 22.88600
C  33.02800 46.80500 24.41900
N  27.24800 50.72400 23.97500
C  28.10800 50.22700 23.17500
C  27.71600 50.32700 21.70000
C  26.43700 51.14500 21.78100
C  26.23000 51.25100 23.26900
C  28.75600 50.98100 20.75300
C  25.37800 50.53300 20.87700
C  24.23800 49.72700 21.43800
N  25.51900 51.36200 26.20800
C  24.69900 51.86200 25.17800
C  23.50000 52.44600 25.72800
C  23.68900 52.41700 27.10700
C  24.90700 51.71100 27.34900
C  22.46300 53.16100 24.97300
C  23.21000 52.78400 28.46300
O  22.20300 53.41900 28.76700
C  24.14200 52.27100 29.57100
C  24.78300 53.39400 30.22100
O  25.74400 53.97400 29.79200
O  24.17500 53.54400 31.47200
C  24.57000 54.85000 32.20000
H  30.05600 48.57500 29.13900
H  29.81700 49.12000 22.65800
H  24.35500 52.28800 23.15200
H  26.70800 51.37300 31.19000
H  28.24700 48.86400 30.96100
H  28.78000 51.86000 31.05600
H  30.01000 51.17400 30.16200
H  29.68100 50.57500 31.90000
H  26.26300 48.65100 31.70600
H  24.97600 49.24700 30.64600
H  24.11200 49.69400 32.88300
H  24.73200 51.25800 32.24900
H  32.25600 46.57400 27.09600
H  31.84900 47.65000 28.42000
H  33.02000 48.25700 27.34900
H  33.61600 47.14800 25.27000
H  33.77900 46.81300 23.63000
H  32.53900 45.84800 24.60500
H  27.61700 49.25600 21.52200
H  26.57200 52.19100 21.50600
H  28.25900 51.75400 20.16700
H  29.16700 50.22800 20.08000
H  29.55400 51.45900 21.32200
H  25.95100 49.95400 20.15300
H  24.89200 51.26100 20.22900
H  24.04500 49.83100 22.50600
H  24.42300 48.69200 21.15100
H  23.35200 50.07500 20.90700
H  21.45200 52.97400 25.33500
H  22.36700 52.74300 23.97000
H  22.69300 54.22300 25.04800
H  23.59800 51.57900 30.21400
H  24.61300 55.61500 31.42500
H  25.60400 54.84600 32.54700
H  24.04200 55.05600 33.13100
Mg -12.60500 16.91600 42.24000
C  -9.48400 15.73600 41.51000
C  -11.54900 20.09500 41.17100
C  -15.84700 18.11300 42.36700
C  -13.79500 13.79800 42.44500
N  -10.73300 17.80300 41.51700
C  -9.55900 17.12200 41.22900
C  -8.40600 18.03100 40.94300
C  -9.05300 19.51100 41.05900
C  -10.55400 19.16500 41.23300
C  -8.48400 20.42700 42.20500
C  -7.58900 17.85500 39.65400
C  -6.19400 17.27600 39.60700
H  -5.23400 17.79600 38.53500
N  -13.52900 18.97200 41.96400
C  -12.90700 20.00800 41.42200
C  -13.92000 21.01800 41.23600
C  -15.15900 20.53800 41.75100
C  -14.89500 19.13900 42.02600
C  -13.55400 22.42200 40.88900
C  -16.39700 21.34900 41.93300
O  -16.36300 22.48000 41.50100
C  -17.72500 20.87800 42.65300
N  -14.54800 16.12100 42.54800
C  -15.70100 16.75900 42.63500
C  -16.86600 15.81800 42.76200
C  -16.21300 14.41000 42.73500
C  -14.75800 14.77500 42.59400
C  -17.66800 16.08400 44.04700
C  -16.79900 13.46300 41.72700
C  -18.10700 12.69000 42.06100
N  -11.79300 15.08900 42.23300
C  -12.41400 13.91400 42.35200
C  -11.43400 12.84300 42.32500
C  -10.22400 13.50300 42.00800
C  -10.49200 14.90200 41.98500
C  -11.68300 11.38500 42.53800
C  -8.82000 13.32500 41.67700
O  -8.20800 12.27600 41.50200
C  -8.25000 14.77900 41.57000
C  -7.33800 15.24500 42.68800
O  -7.61800 15.67600 43.80400
O  -6.05500 15.11900 42.22000
C  -4.88800 15.41200 43.14800
H  -11.12500 21.07700 40.94800
H  -16.87800 18.46400 42.27900
H  -14.04700 12.74500 42.58800
H  -7.64600 17.93400 41.71900
H  -8.96000 20.15400 40.18400
H  -7.90000 21.26400 41.82200
H  -7.70700 19.87500 42.73400
H  -9.10900 20.71500 43.05100
H  -7.46200 18.86000 39.25000
H  -8.14600 17.23200 38.95400
H  -6.25200 16.20000 39.44500
H  -5.72500 17.39800 40.58400
H  -14.26600 22.75700 40.13600
H  -12.57900 22.38600 40.40300
H  -13.38800 23.04300 41.77000
H  -18.26600 20.21600 41.97600
H  -18.38500 21.68000 42.98300
H  -17.37000 20.30800 43.51200
H  -17.40800 16.00800 41.83500
H  -16.38700 13.91300 43.68900
H  -18.03800 15.16000 44.49200
H  -18.49500 16.76700 43.85700
H  -16.99800 16.49000 44.80500
H  -15.98800 12.77100 41.49600
H  -16.95300 14.12200 40.87300
H  -18.05200 11.64200 41.76600
H  -19.06300 13.02400 41.65700
H  -18.23900 12.70100 43.14300
H  -12.35800 11.13400 41.72000
H  -12.09100 11.23000 43.53700
H  -10.82000 10.75200 42.32900
H  -7.62900 14.81200 40.67400
H  -3.93100 15.08100 42.74500
H  -5.09000 14.85000 44.06000
H  -4.90500 16.42700 43.54500

