158

Mg 8.89900 3.19600 27.42500
C  10.44000 1.59900 30.19900
C  7.52100 5.48300 29.61700
C  7.49300 4.66900 24.80500
C  10.39200 0.86600 25.27400
N  8.95800 3.47800 29.69400
C  9.69900 2.75400 30.61200
C  9.49900 3.24900 32.02500
C  8.51500 4.38700 31.78200
C  8.29700 4.50700 30.31300
C  7.15800 4.17800 32.50500
C  10.78500 3.67200 32.77300
C  10.68200 4.67100 33.94100
H  11.53000 4.31300 35.18400
N  7.64800 4.81800 27.24400
C  7.20700 5.67200 28.21300
C  6.35300 6.68400 27.67700
C  6.33800 6.39700 26.31300
C  7.18800 5.23100 26.06600
C  5.76100 7.79900 28.50500
C  5.67300 7.21800 25.25600
O  5.59100 6.80800 24.09300
C  4.95000 8.45900 25.48700
N  9.01500 2.79700 25.31200
C  8.24100 3.53300 24.49400
C  8.52800 3.04600 22.98400
C  9.58200 1.93500 23.10500
C  9.66800 1.85100 24.62700
C  7.30300 2.67100 22.20700
C  10.97100 2.30000 22.37600
C  11.91800 1.13900 22.14300
N  10.11500 1.53300 27.60900
C  10.64900 0.69800 26.65400
C  11.40800 -0.33400 27.32300
C  11.35700 0.02400 28.69000
C  10.58400 1.15300 28.81800
C  12.15400 -1.45500 26.69200
C  11.71600 -0.44400 30.04600
O  12.24000 -1.48500 30.41400
C  11.24600 0.60600 31.01600
C  10.54500 0.05800 32.16800
O  9.50100 -0.56600 32.11000
O  11.23000 0.27000 33.37400
C  10.58300 -0.21400 34.60700
H  7.15800 6.26500 30.28700
H  7.05200 5.11100 23.91000
H  10.93400 0.08200 24.74100
H  8.97000 2.43800 32.52600
H  8.94700 5.29900 32.19500
H  6.40500 3.94000 31.75300
H  6.77000 5.11600 32.90100
H  7.31000 3.41800 33.27100
H  11.27900 4.14200 31.92300
H  11.38900 2.84500 33.14500
H  9.65200 4.87900 34.23000
H  11.15900 5.54100 33.49000
H  6.31800 8.71200 28.29200
H  5.57200 7.68000 29.57100
H  4.77100 8.02600 28.11000
H  4.59100 8.83600 24.52900
H  5.62000 9.20100 25.92100
H  4.07100 8.34400 26.12100
H  9.00900 3.86800 22.45400
H  9.28300 0.98000 22.67200
H  7.30600 3.30800 21.32200
H  6.41700 2.65800 22.84200
H  7.50100 1.65500 21.86600
H  11.41700 2.93500 23.14200
H  10.72500 2.86000 21.47300
H  11.54700 0.12100 22.26200
H  12.76700 1.12600 22.82600
H  12.32500 1.21400 21.13400
H  11.48900 -2.07900 26.09500
H  12.66100 -2.16000 27.35000
H  12.86800 -1.09300 25.95200
H  12.06400 1.22100 31.38900
H  10.91400 0.55200 35.30800
H  10.98300 -1.15300 34.98900
H  9.49400 -0.19900 34.65000
Mg 48.08500 34.56200 27.13700
C  46.24900 33.00100 29.77300
C  48.57400 37.16900 29.31900
C  49.42900 36.29200 24.61400
C  47.14500 31.90000 25.17500
N  47.65600 34.85000 29.30500
C  46.92400 34.12900 30.19200
C  46.87400 34.74000 31.60500
C  47.31500 36.21900 31.24000
C  47.92800 36.08900 29.89200
C  46.15300 37.26200 31.40600
C  47.86000 34.04300 32.65200
C  47.31300 33.69200 34.01000
H  46.04800 34.41000 34.43900
N  49.06300 36.43700 27.03400
C  49.09700 37.36700 28.02500
C  49.65500 38.60700 27.52100
C  49.84900 38.39500 26.13600
C  49.48700 37.00900 25.83900
C  49.84200 39.83400 28.33400
C  50.28400 39.35000 25.08300
O  50.35400 39.09600 23.89300
C  50.71800 40.74300 25.55200
N  48.46100 34.17100 25.23400
C  48.91100 34.99700 24.30400
C  48.90300 34.42700 22.85700
C  48.45200 32.94800 23.14300
C  47.95100 32.96300 24.64000
C  47.88000 35.23300 21.90600
C  49.49800 31.81100 23.10000
C  48.98600 30.50700 22.56000
N  46.97600 32.71500 27.38200
C  46.64900 31.77400 26.44600
C  45.88700 30.71500 27.09100
C  45.71700 31.23100 28.32900
C  46.35300 32.44500 28.46900
C  45.36700 29.40400 26.58000
C  45.09900 30.85400 29.55400
O  44.62300 29.82200 29.94100
C  45.28200 32.10100 30.52800
C  45.72200 31.46700 31.85500
O  46.79500 30.96600 32.03200
O  44.63100 31.36700 32.69400
C  44.84600 30.61600 33.97200
H  48.66400 37.93800 30.09000
H  49.72100 36.86900 23.73400
H  46.94000 31.19600 24.36500
H  45.81900 34.71100 31.87900
H  48.08700 36.56300 31.92900
H  45.16500 36.82300 31.54900
H  46.10200 37.95400 30.56500
H  46.45700 37.79000 32.30900
H  48.81500 34.54900 32.78800
H  48.06900 33.08200 32.18100
H  48.09400 33.91900 34.73500
H  47.18800 32.63400 34.24100
H  50.80200 40.29300 28.09500
H  49.58600 39.61400 29.37000
H  49.16900 40.58600 27.92300
H  49.88800 41.23000 26.06400
H  50.83200 41.32800 24.63900
H  51.61900 40.58000 26.14400
H  49.89500 34.50900 22.41200
H  47.65500 32.70700 22.44000
H  47.59000 36.12100 22.46800
H  46.94000 34.74700 21.64700
H  48.39200 35.44400 20.96700
H  50.04200 31.68900 24.03700
H  50.28000 32.26800 22.49300
H  49.68400 30.15600 21.80000
H  47.98500 30.54600 22.12800
H  48.91300 29.75100 23.34100
H  45.08800 29.30600 25.53100
H  44.42100 29.16300 27.06400
H  46.17700 28.74600 26.89200
H  44.38100 32.68600 30.70900
H  44.67400 29.56900 33.72100
H  44.10200 30.95600 34.69300
H  45.84900 30.80600 34.35400

