158

Mg 47.88600 23.87600 28.71200
C  49.00900 26.04800 31.19800
C  47.36900 21.60300 31.15200
C  47.19800 21.79900 26.28800
C  49.06500 26.29900 26.29100
N  48.22000 23.84800 30.87600
C  48.50900 24.93000 31.69400
C  48.26300 24.52900 33.18700
C  48.07100 22.99000 33.10400
C  47.92900 22.78700 31.65900
C  49.11500 22.14800 33.79900
C  47.06700 25.30400 33.92200
C  47.51000 26.29800 35.02500
H  46.46300 26.57400 36.12100
N  47.24500 22.01100 28.72700
C  46.97600 21.24200 29.84800
C  46.40400 19.99500 29.40800
C  46.36800 20.00900 27.98400
C  46.97800 21.29800 27.58100
C  45.97300 18.96400 30.34400
C  45.88500 18.94400 26.99800
O  45.85800 19.15500 25.77800
C  45.51000 17.57300 27.48400
N  48.28800 23.96500 26.62600
C  47.72800 23.00900 25.83300
C  47.72900 23.39000 24.34500
C  48.04600 24.93000 24.42100
C  48.50000 25.10400 25.88600
C  48.82600 22.54900 23.57800
C  46.89200 25.85000 23.96900
C  45.58400 25.79000 24.73900
N  48.82400 25.88400 28.67400
C  49.28400 26.69600 27.64000
C  49.88000 27.88900 28.20500
C  49.73700 27.77100 29.60100
C  49.14200 26.46800 29.83800
C  50.54400 28.99200 27.45100
C  50.11900 28.32300 30.93900
O  50.68200 29.35000 31.29000
C  49.54400 27.29300 31.99100
C  50.60600 26.98900 32.95900
O  51.49700 26.18500 32.83800
O  50.36800 27.72200 34.09200
C  51.21500 27.43800 35.30300
H  46.97300 20.99500 31.96800
H  46.84000 21.21700 25.43700
H  49.40400 26.91000 25.45200
H  49.14700 24.74600 33.78600
H  47.14600 22.58200 33.51400
H  49.95300 22.68200 34.24700
H  49.44400 21.36700 33.11300
H  48.71000 21.64300 34.67600
H  46.30400 24.60400 34.26200
H  46.63700 25.93500 33.14500
H  47.74300 27.25200 34.55300
H  48.43400 25.92500 35.46700
H  46.79000 18.24200 30.33800
H  45.02800 18.64700 29.90400
H  45.82200 19.32300 31.36200
H  46.27100 17.21800 28.17900
H  45.34400 16.78000 26.75400
H  44.66400 17.66900 28.16400
H  46.74600 23.28800 23.88500
H  48.90600 25.09500 23.77200
H  49.81300 23.01100 23.55600
H  48.47700 22.45800 22.54900
H  48.69600 21.53700 23.96300
H  46.65600 25.60500 22.93300
H  47.30400 26.85800 23.91600
H  45.53900 26.79700 25.15500
H  45.67100 24.91100 25.37800
H  44.74100 25.64200 24.06500
H  49.95600 29.34800 26.60500
H  51.47300 28.62000 27.02000
H  50.74300 29.89100 28.03500
H  48.76100 27.79600 32.55900
H  52.19700 27.07600 34.99700
H  50.61700 26.82000 35.97200
H  51.35200 28.42300 35.75000
Mg 35.54900 48.48500 25.00300
C  36.14600 46.76600 27.93100
C  34.42100 51.23700 26.78200
C  35.00100 50.03400 22.16700
C  36.64700 45.54400 23.29700
N  34.95700 48.84700 27.08800
C  35.46100 47.97300 28.08800
C  35.33800 48.70600 29.45800
C  34.60900 49.99800 29.03000
C  34.64100 50.07500 27.53700
C  33.16300 50.08000 29.61200
C  36.68600 48.86300 30.24200
C  36.65100 48.57300 31.76100
H  35.21100 48.54800 32.38400
N  34.91100 50.43200 24.55500
C  34.55500 51.42100 25.37000
C  34.31100 52.61300 24.59200
C  34.46800 52.24500 23.21100
C  34.77600 50.85200 23.29700
C  34.15900 53.99100 25.27800
C  34.32700 53.08900 21.98700
O  34.37300 52.68800 20.81700
C  34.36700 54.61400 22.25500
N  35.61700 47.78300 23.08700
C  35.42400 48.72900 22.07200
C  35.64700 48.05400 20.68900
C  36.21400 46.66800 21.06200
C  36.18900 46.69200 22.58600
C  34.35400 48.00700 19.80900
C  37.57600 46.44600 20.47300
C  37.72000 45.90300 19.06500
N  36.22000 46.48000 25.45200
C  36.69400 45.46700 24.68800
C  37.08100 44.33600 25.52100
C  36.90000 44.80100 26.85100
C  36.39600 46.14500 26.73500
C  37.52900 42.99900 25.17400
C  36.95600 44.44400 28.27300
O  37.31000 43.46100 28.97800
C  36.57000 45.74500 28.99400
C  35.47300 45.38300 29.96500
O  34.31200 45.19900 29.66800
O  36.08200 45.22200 31.18000
C  35.29800 44.34800 32.12500
H  34.00800 52.00100 27.44300
H  34.93800 50.56800 21.21600
H  36.98900 44.66800 22.74100
H  34.68000 48.08000 30.06100
H  35.09000 50.84800 29.51500
H  33.29900 50.53800 30.59200
H  32.81100 49.07600 29.84800
H  32.45100 50.55200 28.93500
H  37.06800 49.87100 30.08100
H  37.45100 48.24800 29.76900
H  37.19300 49.28200 32.38600
H  37.18600 47.66000 32.02200
H  35.10300 54.53600 25.27800
H  34.05800 54.02300 26.36300
H  33.37100 54.57300 24.80100
H  33.48300 55.00000 22.76200
H  34.35200 55.14800 21.30500
H  35.24800 54.69900 22.89000
H  36.37600 48.63400 20.12400
H  35.65000 45.80200 20.71900
H  34.06800 47.06700 19.33700
H  34.27700 48.75500 19.02000
H  33.49300 48.14100 20.46400
H  38.17100 45.71600 21.02200
H  38.11900 47.38100 20.60700
H  38.04700 44.86500 19.01100
H  38.40400 46.50200 18.46400
H  36.78800 46.04200 18.51700
H  38.48800 42.99600 24.65600
H  36.69600 42.56500 24.62000
H  37.70300 42.30000 25.99200
H  37.49900 45.92600 29.53400
H  35.84200 44.05600 33.02300
H  34.92300 43.41500 31.70500
H  34.39600 44.92800 32.32300

