158

Mg 41.85800 41.52500 26.04800
C  41.58800 43.85100 28.67000
C  42.67900 39.14800 28.26700
C  43.09500 39.72800 23.41400
C  41.33800 44.26600 23.86600
N  42.12300 41.52100 28.27300
C  41.76600 42.53600 29.14800
C  41.71900 41.99600 30.55600
C  42.04100 40.43500 30.38900
C  42.28900 40.37500 28.86100
C  43.26500 39.94400 31.28500
C  40.29500 42.26100 31.21000
C  40.09500 41.73200 32.60800
H  39.73800 42.91600 33.56700
N  42.61300 39.54900 25.82400
C  42.88700 38.73700 26.86200
C  43.42300 37.50900 26.36700
C  43.53200 37.65900 24.94900
C  43.09300 39.03800 24.61600
C  43.80500 36.34000 27.27900
C  44.15100 36.73900 23.90400
O  44.14500 37.02400 22.73900
C  44.80100 35.46500 24.42900
N  42.17600 41.95300 23.89900
C  42.55900 40.99200 23.07300
C  42.18400 41.46500 21.55500
C  41.34300 42.78900 21.79000
C  41.57800 42.99600 23.28200
C  43.47600 41.67200 20.71400
C  39.85500 42.49500 21.43200
C  39.02000 41.42500 22.25600
N  41.41700 43.53400 26.19300
C  41.21100 44.55300 25.24100
C  40.80600 45.75000 25.81100
C  41.01500 45.56000 27.15200
C  41.44300 44.22200 27.32300
C  40.34400 47.02600 25.08600
C  40.83600 46.19200 28.42900
O  40.39800 47.27100 28.79400
C  41.17400 45.09800 29.48300
C  42.16300 45.59000 30.59500
O  43.36700 45.78100 30.41400
O  41.54700 45.75500 31.81600
C  42.39200 45.96200 32.96200
H  42.86200 38.30000 28.93100
H  43.49600 39.19800 22.54800
H  41.03700 44.97100 23.08800
H  42.41800 42.56500 31.17000
H  41.18400 39.84900 30.72000
H  43.14900 38.93000 31.66500
H  43.41800 40.65600 32.09600
H  44.09700 40.01800 30.58400
H  39.51800 41.95800 30.50700
H  40.12800 43.33300 31.31500
H  41.06500 41.40800 32.98700
H  39.31400 40.99400 32.79200
H  43.41900 36.43400 28.29400
H  44.89300 36.29100 27.31400
H  43.45600 35.34000 27.02300
H  44.01000 34.80500 24.78400
H  45.36300 35.64800 25.34500
H  45.43000 35.07700 23.62800
H  41.47700 40.78800 21.07600
H  41.62900 43.65100 21.18800
H  43.35200 41.39300 19.66800
H  44.31400 41.11600 21.13500
H  43.80500 42.70000 20.86600
H  39.77900 42.16800 20.39500
H  39.50900 43.52600 21.50700
H  38.13000 41.93700 22.62100
H  39.61800 40.99100 23.05700
H  38.67000 40.62800 21.60000
H  41.12200 47.71400 24.75700
H  39.74500 47.58200 25.80800
H  39.81500 46.71300 24.18600
H  40.15900 44.97700 29.86100
H  42.34500 45.02700 33.51900
H  42.00900 46.73500 33.62900
H  43.38100 46.29600 32.64900
Mg -4.39600 25.12200 26.29700
C  -3.23800 26.90500 29.10800
C  -6.25900 23.25400 28.37400
C  -5.47600 23.38600 23.54700
C  -2.76100 27.27600 24.25600
N  -4.74600 25.15700 28.51200
C  -4.13600 25.88000 29.50900
C  -4.77400 25.61800 30.84200
C  -5.49400 24.23600 30.53600
C  -5.60600 24.26800 29.05900
C  -4.65000 23.09200 31.02700
C  -5.68900 26.82600 31.20600
C  -5.76300 27.00500 32.73400
H  -5.39900 25.86700 33.62900
N  -5.63100 23.42900 26.00200
C  -6.34600 22.91300 26.96900
C  -7.28700 21.91000 26.42000
C  -7.04600 21.90900 24.95600
C  -5.95200 22.91600 24.76600
C  -8.27500 21.21200 27.30900
C  -7.67100 21.00000 23.95800
O  -7.30500 20.85900 22.79400
C  -8.90300 20.23200 24.36800
N  -4.14500 25.25800 24.17000
C  -4.63400 24.43000 23.23100
C  -4.26000 24.79200 21.77700
C  -3.57700 26.18000 22.09500
C  -3.49100 26.27500 23.61400
C  -3.31400 23.72400 21.03300
C  -4.28100 27.42400 21.55100
C  -3.68600 28.13400 20.32700
N  -3.10200 26.62700 26.60300
C  -2.48700 27.39600 25.63800
C  -1.63500 28.39200 26.30000
C  -1.95500 28.27100 27.63800
C  -2.79500 27.17700 27.75000
C  -0.78200 29.40900 25.58800
C  -1.76600 28.84800 28.98100
O  -1.10900 29.89100 29.33100
C  -2.40800 27.79100 29.96000
C  -1.27600 27.11800 30.78600
O  -0.51000 26.20000 30.33500
O  -1.43700 27.44300 32.07200
C  -0.79000 26.59900 33.02300
H  -6.83900 22.66200 29.08600
H  -5.87200 22.85200 22.68100
H  -2.19900 27.93700 23.59300
H  -3.93000 25.47300 31.51600
H  -6.51700 24.13900 30.89900
H  -5.21700 22.42300 31.67400
H  -3.67200 23.33500 31.44300
H  -4.41300 22.39300 30.22500
H  -6.72600 26.66000 30.91300
H  -5.33800 27.72700 30.70300
H  -6.77600 27.29300 33.01300
H  -5.14500 27.87900 32.94100
H  -7.95600 21.00500 28.33100
H  -8.34000 20.17400 26.98200
H  -9.12200 21.89400 27.22600
H  -9.59300 20.69400 25.07300
H  -8.51800 19.26700 24.69900
H  -9.52200 19.91100 23.53000
H  -5.17800 24.88000 21.19600
H  -2.59900 26.13700 21.61600
H  -3.28600 22.83400 21.66200
H  -2.29100 24.09600 20.97400
H  -3.87300 23.57100 20.11000
H  -4.39400 28.23500 22.27100
H  -5.25600 27.23000 21.10500
H  -4.38000 28.55100 19.59700
H  -3.02700 27.39500 19.87100
H  -3.01400 28.93700 20.63000
H  0.20200 29.01200 25.83600
H  -0.85900 30.38700 26.06300
H  -1.07300 29.36400 24.53900
H  -2.97600 28.24300 30.77400
H  0.12300 27.07800 33.37800
H  -0.51500 25.61700 32.63700
H  -1.40500 26.46400 33.91200

