158

Mg 46.80300 16.39700 27.51600
C  45.19000 16.16700 30.64600
C  48.78400 18.85500 28.96100
C  48.11700 16.85100 24.47700
C  44.21100 14.57200 26.08500
N  47.01400 17.26500 29.63400
C  46.28800 17.00800 30.74100
C  46.94500 17.58600 32.07100
C  47.96400 18.62400 31.48400
C  47.90100 18.26500 29.94800
C  47.66400 20.14300 31.83000
C  47.52700 16.45800 32.94600
C  47.16100 16.42000 34.44500
H  48.41200 16.17400 35.33900
N  48.26100 17.59500 26.80700
C  48.97400 18.56000 27.56000
C  49.92000 19.15600 26.69700
C  49.84000 18.52000 25.38700
C  48.74100 17.58000 25.50100
C  50.83000 20.25800 27.24500
C  50.64300 18.71400 24.10100
O  50.49200 18.04000 23.06000
C  51.84100 19.59100 24.02500
N  46.14100 15.86400 25.52000
C  46.96400 16.04100 24.46500
C  46.43800 15.26500 23.23900
C  45.36700 14.34000 23.82500
C  45.30900 14.85600 25.26100
C  45.83500 16.27300 22.22200
C  45.30200 12.80500 23.57000
C  46.68400 12.17400 23.77800
N  45.12600 15.58100 28.16700
C  44.10500 14.98600 27.47400
C  43.03200 14.57500 28.32000
C  43.38000 15.00800 29.60800
C  44.71600 15.60100 29.44700
C  41.86400 13.65100 27.93100
C  43.01800 14.98300 31.07400
O  42.06300 14.45800 31.65900
C  44.20800 15.77800 31.78200
C  43.51000 17.01200 32.37200
O  43.36200 18.09200 31.76200
O  43.05200 16.68900 33.62200
C  41.98300 17.58500 34.16100
H  49.43100 19.63200 29.37300
H  48.50100 17.00400 23.46600
H  43.33500 14.03700 25.71400
H  46.21700 18.21700 32.58200
H  48.94000 18.52900 31.95900
H  47.72500 20.80200 30.96400
H  48.41700 20.65700 32.42800
H  46.65600 20.28500 32.22100
H  48.61100 16.50700 32.84200
H  47.08900 15.52400 32.59500
H  46.53400 15.55700 34.66800
H  46.71500 17.39600 34.63800
H  51.66500 20.60800 26.63700
H  51.22800 19.88300 28.18800
H  50.23000 21.11600 27.54600
H  51.53400 20.60300 24.29300
H  52.44700 19.50400 23.12300
H  52.55100 19.15900 24.73000
H  47.27300 14.78600 22.72800
H  44.41100 14.66400 23.41300
H  46.35500 17.23200 22.20100
H  44.79500 16.50100 22.45600
H  45.94500 15.83500 21.23000
H  44.86500 12.62100 22.58800
H  44.65600 12.34400 24.31600
H  47.32500 12.79500 24.40500
H  47.24200 12.04900 22.85100
H  46.47300 11.26000 24.33300
H  41.28500 14.05700 27.10200
H  41.22400 13.46000 28.79300
H  42.28400 12.69800 27.61000
H  44.55600 15.03200 32.49600
H  41.24900 16.94800 34.65400
H  41.48600 18.11500 33.34900
H  42.29300 18.30500 34.91900
Mg 47.75700 25.02500 28.21100
C  48.05600 27.25300 30.93300
C  45.93400 22.98500 30.26100
C  47.73000 22.88900 25.74200
C  49.32300 27.35900 26.24700
N  47.40700 24.95700 30.40000
C  47.41800 26.08300 31.24300
C  46.80500 25.68700 32.59200
C  46.37600 24.26200 32.38800
C  46.53400 24.06200 30.89400
C  47.25700 23.28900 33.04900
C  45.63200 26.54900 33.14700
C  45.69400 26.56400 34.65600
H  44.34500 26.46600 35.52100
N  46.97200 23.21600 28.02400
C  46.15200 22.56100 28.95200
C  45.61900 21.32000 28.36300
C  46.02500 21.32800 27.03100
C  46.95700 22.54900 26.87500
C  44.78400 20.30800 29.08300
C  45.58800 20.37800 25.86000
O  45.89900 20.51000 24.70500
C  44.59500 19.25500 26.18800
N  48.54800 25.05700 26.31500
C  48.43200 24.04800 25.40400
C  48.97500 24.36600 24.00100
C  49.47900 25.81100 24.14100
C  49.11700 26.08800 25.68900
C  49.95000 23.21800 23.54200
C  48.72700 26.81900 23.11200
C  47.24900 27.04200 23.38100
N  48.54600 26.96800 28.44600
C  49.10200 27.78600 27.52700
C  49.48600 29.07000 28.12000
C  49.06300 28.92000 29.46300
C  48.48700 27.60200 29.64100
C  50.08600 30.21800 27.31400
C  48.95100 29.55700 30.70700
O  49.20600 30.70700 31.06700
C  48.24900 28.47500 31.73800
C  49.03600 28.35800 33.00400
O  50.08600 27.84300 33.13900
O  48.36700 28.90300 34.02900
C  48.91300 28.44700 35.33200
H  45.17500 22.49900 30.87800
H  47.67600 22.15100 24.93900
H  49.79900 28.10800 25.61100
H  47.63000 25.85500 33.28400
H  45.31600 24.10100 32.58700
H  47.82400 23.79100 33.83400
H  47.87400 22.64700 32.42100
H  46.52800 22.64800 33.54300
H  44.64700 26.23400 32.80300
H  45.72200 27.59100 32.84300
H  46.07700 27.54600 34.93500
H  46.45400 25.91000 35.08200
H  43.70200 20.30100 28.95700
H  44.93900 20.45800 30.15100
H  45.26000 19.34500 28.89800
H  45.12600 18.60300 26.88200
H  44.44500 18.64800 25.29500
H  43.65100 19.58900 26.62000
H  48.21700 24.26600 23.22400
H  50.55700 25.77900 23.98700
H  50.89300 23.61600 23.16800
H  49.56300 22.68200 22.67500
H  50.29400 22.59700 24.36900
H  48.88000 26.27100 22.18200
H  49.27100 27.76000 23.19300
H  47.30100 28.05800 23.77200
H  46.64800 26.38800 24.01300
H  46.68900 27.10100 22.44800
H  49.29300 30.64400 26.69900
H  50.78500 29.87500 26.55100
H  50.44700 30.97400 28.01200
H  47.24500 28.87600 31.87400
H  48.46400 27.48600 35.58000
H  48.80800 29.18200 36.13100
H  49.99600 28.32600 35.35800

