158

Mg 8.88900 4.32000 27.65200
C  10.11200 2.54300 30.51600
C  6.99900 6.17900 29.86700
C  7.62500 5.88900 25.14400
C  10.44400 2.06400 25.67500
N  8.60100 4.35300 29.88600
C  9.27600 3.58900 30.80400
C  8.93100 3.97100 32.24600
C  7.93700 5.10200 32.03300
C  7.75400 5.16600 30.45400
C  6.47000 4.87100 32.66200
C  10.04800 4.22700 33.30500
C  9.76700 5.30900 34.39800
H  9.97600 4.81200 35.79500
N  7.53100 5.90500 27.53900
C  6.84200 6.56600 28.53200
C  5.96900 7.58700 27.97100
C  6.18900 7.51000 26.57400
C  7.15300 6.39400 26.34500
C  5.03800 8.43500 28.80700
C  5.49300 8.37300 25.53400
O  5.75300 8.19200 24.30900
C  4.58300 9.55600 25.87400
N  8.95700 3.96000 25.65800
C  8.46900 4.84400 24.74400
C  8.78200 4.43600 23.33200
C  9.78600 3.17700 23.53300
C  9.73500 3.02400 25.05600
C  7.59000 4.18500 22.41700
C  11.16700 3.61400 22.97300
C  12.03000 2.45000 22.64600
N  9.96500 2.59000 27.97900
C  10.64300 1.86300 27.07100
C  11.58200 0.92700 27.74700
C  11.38700 1.11200 29.07000
C  10.41400 2.14800 29.18700
C  12.57600 -0.01500 27.23100
C  11.82300 0.72600 30.37600
O  12.54600 -0.18200 30.70300
C  11.00800 1.64900 31.39200
C  10.14400 0.83800 32.36900
O  9.24900 0.07500 32.02600
O  10.58200 1.04700 33.59000
C  9.92900 0.36300 34.61700
H  6.62100 6.91600 30.57900
H  7.21000 6.34400 24.24200
H  10.89100 1.25800 25.08800
H  8.41400 3.02600 32.41200
H  8.18400 6.13400 32.28400
H  6.21000 5.84200 33.08400
H  6.43200 3.90700 33.16900
H  5.81600 4.68200 31.81100
H  10.83400 4.67300 32.69700
H  10.40900 3.35900 33.85800
H  8.74600 5.69100 34.38200
H  10.32100 6.21800 34.16400
H  4.02400 8.22700 28.46400
H  5.07700 9.52000 28.72200
H  5.05500 8.18400 29.86700
H  4.09400 10.00000 25.00700
H  5.03400 10.28400 26.54800
H  3.81300 9.12700 26.51500
H  9.33400 5.28600 22.93200
H  9.31400 2.27500 23.14300
H  7.49900 4.98800 21.68500
H  6.67500 4.21000 23.00900
H  7.65600 3.27700 21.81700
H  11.78700 4.22100 23.63200
H  11.09600 4.21400 22.06600
H  11.46300 1.52400 22.74400
H  12.87200 2.46500 23.33700
H  12.31100 2.49100 21.59400
H  13.01800 0.46100 26.35600
H  12.00200 -0.92200 27.04200
H  13.33900 -0.32900 27.94400
H  11.68400 2.36300 31.86300
H  8.84900 0.48200 34.70200
H  10.22800 0.71400 35.60500
H  10.13800 -0.70400 34.53100
Mg -9.72900 40.03900 39.01500
C  -8.60200 36.88900 38.36700
C  -6.64500 41.17700 38.59900
C  -11.03200 43.08800 38.59500
C  -13.03500 38.81900 38.86100
N  -7.88400 39.08700 38.35900
C  -7.61600 37.76500 38.15600
C  -6.14700 37.47500 38.00800
C  -5.50500 38.85400 38.36500
C  -6.73200 39.80400 38.46000
C  -4.63800 38.83800 39.63200
C  -5.66600 36.87800 36.61300
C  -6.07500 37.59100 35.28300
H  -6.97500 36.81600 34.35300
N  -8.93500 41.99800 38.84200
C  -7.62500 42.24300 38.70000
C  -7.39700 43.65000 38.64600
C  -8.67800 44.26300 38.72100
C  -9.64400 43.12400 38.68700
C  -6.04700 44.32600 38.44500
C  -8.95400 45.76200 38.66700
O  -8.06500 46.58900 38.58000
C  -10.31000 46.34600 38.59000
N  -11.76500 40.79700 38.54400
C  -12.00800 42.12100 38.50600
C  -13.54900 42.42300 38.29300
C  -14.15300 41.03200 38.60000
C  -12.94800 40.19900 38.75700
C  -14.21500 43.60300 39.09000
C  -15.13700 40.59000 37.44400
C  -16.55400 41.04700 37.72700
N  -10.56600 38.27800 38.85100
C  -11.98100 37.88900 38.83000
C  -12.14600 36.45700 38.63300
C  -10.80700 36.05000 38.44100
C  -9.94700 37.11200 38.62700
C  -13.47500 35.73200 38.55800
C  -9.99600 34.84900 38.14200
O  -10.33800 33.70100 37.95400
C  -8.46100 35.37700 38.14800
C  -7.58700 34.62200 39.17200
O  -7.74300 34.56200 40.36400
O  -6.59000 33.98700 38.44900
C  -5.52700 33.50100 39.34900
H  -5.60100 41.47300 38.47800
H  -11.51100 44.05200 38.40700
H  -14.03000 38.37500 38.92300
H  -5.74200 36.74800 38.71200
H  -5.00300 39.27100 37.49100
H  -3.61700 39.18100 39.46600
H  -4.73000 37.94000 40.24300
H  -5.12800 39.57000 40.27300
H  -5.89400 35.82000 36.48800
H  -4.59200 37.03100 36.50600
H  -5.12500 37.84500 34.81300
H  -6.69200 38.46800 35.47700
H  -5.31000 43.57100 38.72000
H  -5.89600 45.23000 39.03500
H  -5.94500 44.63600 37.40500
H  -10.93200 46.18700 39.47100
H  -10.77800 46.10900 37.63500
H  -10.29400 47.43600 38.58500
H  -13.68400 42.60800 37.22700
H  -14.67500 41.06800 39.55600
H  -13.52400 44.06200 39.79700
H  -15.09800 43.25900 39.62800
H  -14.60700 44.34000 38.39000
H  -15.00400 39.53500 37.20400
H  -15.01800 41.02100 36.44900
H  -17.16300 40.14600 37.80400
H  -17.04100 41.69000 36.99500
H  -16.65000 41.59900 38.66200
H  -13.96500 36.21000 37.70900
H  -13.94300 35.80300 39.54000
H  -13.27200 34.74400 38.14400
H  -8.04900 35.11200 37.17500
H  -5.35200 32.43200 39.23200
H  -5.55300 33.79400 40.39900
H  -4.56900 33.86100 38.97400

