158

Mg 42.93900 41.62900 26.10400
C  42.37000 44.25600 28.27300
C  43.82000 39.58600 28.62600
C  43.60300 39.18600 23.73800
C  42.41600 43.88900 23.45600
N  43.23100 41.97200 28.19400
C  42.80500 43.06400 28.84700
C  43.04300 42.72700 30.37200
C  43.88400 41.41400 30.33000
C  43.57400 40.92100 28.96000
C  45.35900 41.48100 30.78800
C  41.78900 42.77300 31.27600
C  41.74400 42.25900 32.66300
H  42.00500 43.16500 33.86800
N  43.55000 39.67600 26.18500
C  43.86700 38.98600 27.33300
C  44.11500 37.65400 27.00600
C  43.89700 37.49300 25.68900
C  43.66200 38.79200 25.10300
C  44.65200 36.69200 28.01700
C  43.87600 36.24200 24.83300
O  43.74700 36.26100 23.61600
C  44.08000 34.89000 25.38000
N  43.09900 41.59300 23.89200
C  43.42500 40.45400 23.20500
C  43.57500 40.76500 21.72300
C  42.95300 42.19800 21.62200
C  42.80400 42.63500 23.06300
C  45.04000 40.66200 21.13700
C  41.59200 42.26800 20.72100
C  40.30800 41.81100 21.44000
N  42.45500 43.66000 25.86500
C  42.20300 44.38500 24.77000
C  41.78200 45.73400 25.10100
C  41.82000 45.77000 26.54000
C  42.28200 44.48900 26.89700
C  41.58400 46.87600 24.18000
C  41.57100 46.52500 27.74300
O  41.24200 47.71200 27.85900
C  41.91200 45.55500 28.96900
C  43.04200 46.07300 29.65800
O  44.09600 46.36500 29.08800
O  42.96500 46.06600 31.04500
C  44.26500 46.41600 31.78500
H  44.10900 38.96300 29.47500
H  43.61000 38.37700 23.00400
H  42.12000 44.44500 22.56300
H  43.60700 43.54900 30.81200
H  43.38300 40.67500 30.95500
H  46.02800 41.24700 29.96000
H  45.59500 40.74900 31.56000
H  45.49800 42.48900 31.17700
H  40.99200 42.40000 30.63200
H  41.53800 43.82800 31.38600
H  42.56000 41.55500 32.82700
H  40.81300 41.69800 32.74200
H  45.50100 36.21400 27.52800
H  44.02400 35.84400 28.28900
H  45.03800 37.13000 28.93700
H  43.85800 34.25800 24.52100
H  43.28900 34.71800 26.11000
H  45.11800 34.72100 25.66700
H  42.90600 40.11700 21.15800
H  43.70300 42.80600 21.11700
H  45.67100 40.53300 22.01600
H  45.29600 41.51700 20.51200
H  45.07700 39.81100 20.45700
H  41.68300 41.89000 19.70200
H  41.43400 43.32700 20.51900
H  40.44200 41.01200 22.16800
H  39.48800 41.59400 20.75500
H  39.94800 42.67300 22.00100
H  40.84700 47.61600 24.49200
H  41.33600 46.53800 23.17400
H  42.57300 47.33400 24.19800
H  41.08600 45.44800 29.67100
H  43.91100 46.71300 32.77200
H  44.88000 47.16200 31.28200
H  44.85600 45.50400 31.87700
Mg 30.53200 57.67100 40.09700
C  27.57600 55.77400 39.26100
C  32.40300 54.99100 38.92000
C  33.15900 59.63000 40.18400
C  28.43800 60.52200 40.52700
N  30.03600 55.59900 39.20600
C  28.79000 55.09200 39.01800
C  28.85500 53.72600 38.30400
C  30.41200 53.32500 38.47600
C  31.02600 54.67600 38.96500
C  30.67900 52.25100 39.58500
C  28.15600 53.57400 36.83000
C  29.12700 53.49100 35.64200
H  28.62100 53.92200 34.24100
N  32.52200 57.31100 39.61800
C  33.08300 56.18800 39.22700
C  34.51100 56.44400 39.04100
C  34.75800 57.80200 39.34800
C  33.43200 58.28500 39.80400
C  35.47400 55.40300 38.50700
C  36.15900 58.63100 39.18000
O  37.14800 58.01100 38.77900
C  36.39500 59.95800 39.66800
N  30.77700 59.79700 40.25100
C  31.97800 60.34200 40.41900
C  31.98200 61.84300 40.58600
C  30.45900 62.11700 40.85000
C  29.82600 60.75500 40.49400
C  33.04500 62.46900 41.51800
C  29.85900 63.33500 40.15100
C  29.28300 64.41800 41.03500
N  28.45800 58.07200 39.97200
C  27.77900 59.25700 40.23300
C  26.29400 58.97700 40.23300
C  26.22300 57.66300 39.80400
C  27.50300 57.13400 39.66400
C  25.21500 59.90700 40.53000
C  25.30100 56.61500 39.43000
O  24.07100 56.59700 39.35400
C  26.14500 55.35300 39.11000
C  25.77900 54.18200 39.99800
O  26.33700 53.75400 40.98600
O  24.67400 53.56100 39.43900
C  24.19200 52.39600 40.22500
H  33.00800 54.16300 38.54600
H  34.04800 60.24000 40.35600
H  27.66800 61.26600 40.74200
H  28.35600 52.95600 38.89300
H  30.83400 52.94600 37.54500
H  31.06400 52.67700 40.51100
H  31.35400 51.52400 39.13300
H  29.76500 51.69900 39.80400
H  27.70800 54.55000 36.64800
H  27.55600 52.66700 36.89900
H  29.23700 52.40900 35.56700
H  30.10600 53.92400 35.84700
H  35.33600 55.23500 37.43900
H  35.15400 54.48900 39.00800
H  36.50700 55.57900 38.80900
H  36.14100 59.95300 40.72800
H  35.84700 60.64800 39.02700
H  37.45900 60.18200 39.59000
H  32.14700 62.33800 39.62900
H  30.50000 62.38000 41.90700
H  32.69000 63.08500 42.34400
H  33.65100 63.17100 40.94500
H  33.72500 61.75500 41.98200
H  29.02800 63.01400 39.52200
H  30.56700 63.78100 39.45200
H  29.87800 65.33100 40.99800
H  29.14600 64.14200 42.08000
H  28.24700 64.50900 40.70800
H  25.28000 60.13700 41.59300
H  24.23100 59.54200 40.23400
H  25.50500 60.82800 40.02400
H  26.11000 55.08200 38.05500
H  24.25800 52.48000 41.31000
H  24.70800 51.48900 39.91100
H  23.12900 52.18800 40.10100

