158

Mg 49.71800 45.37700 43.16400
C  46.46900 45.97600 41.96000
C  49.72100 42.38200 41.37800
C  53.08600 45.17500 43.64200
C  49.80800 48.78300 44.16200
N  48.29000 44.42500 41.74900
C  47.02200 44.77300 41.54400
C  46.42700 43.90500 40.48200
C  47.18300 42.56100 40.71400
C  48.49200 43.12500 41.29400
C  46.42900 41.54100 41.58300
C  46.63900 44.61300 39.08000
C  45.38400 45.04100 38.22700
H  45.17100 44.19200 36.99100
N  51.20100 43.92300 42.67600
C  50.94700 42.73500 41.97800
C  52.19900 41.96800 41.85600
C  53.13800 42.74500 42.54600
C  52.54100 44.03200 42.93700
C  52.37100 40.73200 41.13500
C  54.48600 42.28100 42.84500
O  54.81600 41.10900 42.57500
C  55.53100 43.07600 43.64500
N  51.27000 46.75600 43.89200
C  52.55500 46.41200 44.06700
C  53.43600 47.64800 44.46900
C  52.31900 48.64700 44.80800
C  51.05800 48.05900 44.19100
C  54.43400 47.40000 45.68100
C  52.57000 50.07700 44.23700
C  52.29500 51.28400 45.09400
N  48.35500 47.07300 43.21800
C  48.54300 48.38800 43.67600
C  47.35600 49.12000 43.42400
C  46.47700 48.23300 42.81300
C  47.16900 46.99500 42.66000
C  47.35700 50.57700 43.70600
C  45.10500 48.10500 42.30400
O  44.19200 48.88700 42.21900
C  45.12200 46.65600 41.58500
C  43.87400 45.98700 42.12300
O  43.84100 45.30900 43.17900
O  42.77800 46.08700 41.25900
C  41.49900 45.43600 41.56200
H  49.68200 41.42300 40.85600
H  54.11700 45.15700 44.00200
H  49.80400 49.84300 44.42500
H  45.37000 43.76800 40.70700
H  47.51500 42.06800 39.80000
H  46.25500 40.62900 41.01200
H  45.47700 41.84700 42.01700
H  47.10100 41.25900 42.39300
H  47.32400 43.98500 38.50900
H  47.12600 45.58600 39.14100
H  45.42400 46.06600 37.85900
H  44.52800 44.87200 38.88100
H  52.15300 39.94800 41.86000
H  53.37900 40.59800 40.74200
H  51.63400 40.52200 40.36000
H  56.45200 42.49500 43.68800
H  55.03500 43.12200 44.61400
H  55.78500 44.04200 43.20900
H  54.00400 47.96100 43.59200
H  52.11400 48.71300 45.87700
H  55.36000 47.97100 45.75400
H  54.62300 46.33000 45.76300
H  54.03800 47.62000 46.67200
H  51.92000 50.16500 43.36600
H  53.58200 50.16300 43.84200
H  51.44200 51.87500 44.76000
H  53.08000 52.03700 45.16200
H  52.00000 51.04900 46.11700
H  47.62000 50.81700 44.73700
H  46.36500 50.90500 43.39500
H  48.01500 51.03400 42.96700
H  44.98100 46.82900 40.51800
H  40.82400 46.20500 41.93800
H  41.49100 44.66100 42.32800
H  41.06700 44.98100 40.67000
Mg -4.96900 25.02900 26.58900
C  -3.46900 26.42500 29.53100
C  -6.81400 23.06200 28.71600
C  -6.22600 23.52300 23.95100
C  -2.52300 26.75800 24.64200
N  -4.99000 24.76700 28.89300
C  -4.40500 25.49900 29.86700
C  -4.99500 25.16000 31.23800
C  -5.85600 23.85200 30.98600
C  -5.87000 23.88600 29.39500
C  -5.27500 22.49800 31.63800
C  -5.72000 26.36600 31.80300
C  -6.12400 26.42700 33.31900
H  -5.75500 25.17300 34.18500
N  -6.30200 23.54300 26.35200
C  -7.00900 22.87600 27.36900
C  -8.03500 22.08200 26.80200
C  -7.94800 22.20600 25.39500
C  -6.77300 23.04600 25.18400
C  -9.09100 21.36200 27.64400
C  -8.77200 21.53500 24.33900
O  -8.66500 21.73500 23.15700
C  -9.90700 20.62700 24.75100
N  -4.53500 25.19000 24.56200
C  -5.17400 24.40100 23.65800
C  -4.42100 24.48400 22.23400
C  -3.31600 25.55800 22.48700
C  -3.46500 25.93400 23.96600
C  -3.95100 23.18500 21.48600
C  -3.35300 26.87400 21.68000
C  -1.97800 27.26200 20.97900
N  -3.40400 26.32900 26.94600
C  -2.56600 27.03000 26.05100
C  -1.75000 27.93300 26.81100
C  -1.98400 27.71800 28.16000
C  -3.02200 26.70200 28.21100
C  -0.71300 28.88100 26.28000
C  -1.75400 28.16800 29.48600
O  -1.08600 29.05300 29.96600
C  -2.81900 27.43100 30.47400
C  -2.06500 26.78000 31.61200
O  -1.45800 25.69700 31.56300
O  -2.30100 27.51200 32.81600
C  -1.83300 26.96200 34.09900
H  -7.44300 22.47700 29.39000
H  -6.57500 23.18700 22.97300
H  -1.75200 27.24800 24.04400
H  -4.19200 24.95900 31.94700
H  -6.84800 23.92100 31.43200
H  -6.06400 21.77700 31.85200
H  -4.57100 22.65800 32.45500
H  -4.62700 22.08700 30.86400
H  -6.65700 26.48400 31.25900
H  -5.13500 27.27700 31.67900
H  -7.16500 26.72300 33.45000
H  -5.46400 27.18900 33.73500
H  -9.09000 20.27700 27.54000
H  -10.09700 21.60600 27.30300
H  -9.10400 21.55300 28.71700
H  -9.58200 19.70100 25.22500
H  -10.48600 20.40900 23.85300
H  -10.56800 21.24300 25.36100
H  -5.19100 24.95100 21.62000
H  -2.39900 25.01800 22.24900
H  -2.92700 23.17100 21.11100
H  -4.48200 23.13600 20.53600
H  -4.20100 22.30200 22.07500
H  -3.72700 27.74900 22.21300
H  -4.10400 26.75100 20.89900
H  -1.18600 26.62900 21.38000
H  -1.72100 28.32100 21.00400
H  -2.12600 27.13700 19.90600
H  0.19800 28.91000 26.87700
H  -1.15200 29.86700 26.12500
H  -0.43600 28.51100 25.29300
H  -3.48900 28.22700 30.79800
H  -2.07800 25.94400 34.40000
H  -2.15300 27.64100 34.88900
H  -0.74400 26.94200 34.15000

