158

Mg 3.01000 -0.62000 43.66400
C  5.92200 1.38600 43.46500
C  1.30400 2.03000 42.16900
C  0.28700 -2.54100 43.67700
C  5.00700 -3.17100 44.98300
N  3.56300 1.42100 42.85400
C  4.79300 2.13100 43.07300
C  4.65900 3.63000 42.61400
C  3.13900 3.79100 42.48300
C  2.63000 2.32600 42.48800
C  2.46800 4.57900 43.57200
C  5.36500 4.06900 41.30500
C  5.26800 3.17000 40.08600
H  5.28000 3.87700 38.71900
N  1.03700 -0.29400 43.00100
C  0.58200 0.76800 42.32100
C  -0.76300 0.54300 41.95500
C  -1.21700 -0.65600 42.53500
C  0.02900 -1.20500 43.11900
C  -1.55200 1.56700 41.08200
C  -2.56700 -1.30900 42.40300
O  -3.54600 -0.68500 41.95200
C  -2.78500 -2.63200 42.97500
N  2.73500 -2.55000 44.23000
C  1.47900 -3.13800 44.13500
C  1.49200 -4.60100 44.66500
C  2.95100 -4.74100 45.16000
C  3.59900 -3.41000 44.76300
C  0.38200 -4.93000 45.67200
C  3.82100 -6.02300 44.58800
C  4.23600 -6.98200 45.62900
N  5.07700 -1.00900 43.95100
C  5.71400 -2.04000 44.63200
C  7.15500 -1.72900 44.84500
C  7.27400 -0.42300 44.30600
C  5.96300 -0.02300 43.82500
C  8.18100 -2.58900 45.48500
C  8.16400 0.71200 44.00500
O  9.34000 0.88300 44.26000
C  7.34500 1.84700 43.42300
C  7.48200 2.98800 44.26300
O  7.76300 4.14300 43.93200
O  7.22200 2.65800 45.61700
C  7.37100 3.69600 46.61300
H  0.85100 2.85100 41.60900
H  -0.50300 -3.29500 43.72100
H  5.49900 -4.03600 45.43200
H  5.16200 4.14200 43.43500
H  2.85600 4.35200 41.59300
H  2.21600 3.94500 44.42200
H  1.53700 4.92500 43.12400
H  3.14900 5.40000 43.80100
H  6.38700 4.35700 41.55100
H  4.89400 4.99000 40.96200
H  4.30800 2.66900 40.20800
H  6.12000 2.49100 40.09000
H  -2.11100 0.95800 40.37200
H  -0.94200 2.22800 40.46700
H  -2.28500 2.16300 41.62600
H  -3.79300 -3.03600 42.87600
H  -2.49000 -2.78100 44.01300
H  -2.22400 -3.35000 42.37700
H  1.38400 -5.33300 43.86500
H  2.97900 -4.75100 46.25000
H  0.73400 -5.04900 46.69700
H  0.13700 -5.90900 45.26200
H  -0.45100 -4.22800 45.63600
H  4.70900 -5.65700 44.07100
H  3.16900 -6.49300 43.85200
H  4.07200 -6.59500 46.63500
H  5.29000 -7.09100 45.37300
H  3.88400 -7.99900 45.45400
H  9.00600 -1.99000 45.86800
H  8.66900 -3.39600 44.93800
H  7.67000 -3.02700 46.34200
H  7.59900 2.05500 42.38400
H  8.03300 4.46400 46.21300
H  7.78800 3.36700 47.56500
H  6.41900 4.21800 46.70300
Mg 46.75900 34.63800 28.67900
C  45.19300 32.35100 30.72500
C  46.71800 36.89200 31.19100
C  47.83100 36.91700 26.45800
C  46.04100 32.41400 25.85900
N  46.16600 34.53600 30.71600
C  45.47900 33.52800 31.43500
C  45.30800 33.87700 32.91500
C  45.27800 35.43000 32.75300
C  46.15800 35.62000 31.48500
C  43.82900 35.99200 32.63500
C  46.41200 33.20000 33.90200
C  47.40900 33.94300 34.76000
H  46.91200 34.47700 36.15800
N  47.53300 36.57300 28.92400
C  47.46800 37.36100 30.04500
C  48.16400 38.53800 29.88900
C  48.49100 38.58500 28.48600
C  47.92700 37.37400 27.86000
C  48.46700 39.40800 31.04100
C  49.25100 39.59600 27.71100
O  49.55500 39.38600 26.52200
C  49.63300 40.95200 28.32000
N  46.89800 34.61800 26.47700
C  47.35500 35.72400 25.85700
C  47.39100 35.49900 24.32500
C  46.81800 34.06500 24.19800
C  46.63000 33.61800 25.60100
C  46.79300 36.65200 23.46000
C  47.61000 33.08600 23.25600
C  46.85200 32.56100 22.02000
N  45.86900 32.75500 28.33200
C  45.67400 31.93400 27.16900
C  44.90500 30.76400 27.49700
C  44.76700 30.83100 28.94300
C  45.22100 32.08200 29.34200
C  44.47200 29.71300 26.61800
C  44.27400 30.18600 30.14900
O  43.80900 29.10200 30.30300
C  44.37300 31.24600 31.25300
C  44.70900 30.63300 32.60300
O  45.73400 30.12500 32.97500
O  43.59400 30.86900 33.39900
C  43.79200 30.40700 34.81500
H  46.56700 37.68400 31.92800
H  48.15600 37.68800 25.75700
H  45.68000 31.78900 25.04000
H  44.40200 33.55900 33.43000
H  45.76100 35.94900 33.58100
H  43.31400 35.72600 33.55800
H  43.28300 35.61500 31.77100
H  43.89100 37.08000 32.64600
H  46.97600 32.48700 33.30200
H  45.76800 32.84000 34.70500
H  47.55100 34.88000 34.22200
H  48.39000 33.46800 34.76300
H  47.72200 40.20200 31.08500
H  49.37600 39.99400 30.90200
H  48.70800 39.00300 32.02400
H  48.87000 41.47800 28.89400
H  49.91200 41.51100 27.42700
H  50.45900 40.72300 28.99300
H  48.44700 35.42000 24.06600
H  45.75300 34.09400 23.97100
H  46.11200 37.28100 24.03200
H  46.12600 36.12100 22.78100
H  47.57900 37.15400 22.89500
H  47.90300 32.14400 23.72000
H  48.54300 33.55800 22.94900
H  47.54200 32.47400 21.18100
H  46.02600 33.12800 21.58900
H  46.56200 31.53500 22.24500
H  45.33900 29.24600 26.15000
H  43.80800 30.14000 25.86700
H  44.05900 28.84500 27.13200
H  43.38500 31.70000 31.33300
H  43.74600 29.32800 34.96000
H  43.08100 31.02500 35.36200
H  44.82100 30.52000 35.15600

