158

Mg -3.25300 16.83300 26.01400
C  -3.15300 14.63700 28.75900
C  -3.50200 19.37200 28.26200
C  -3.22900 18.91700 23.32600
C  -3.20600 14.03600 23.94100
N  -3.37500 16.89800 28.28200
C  -3.25000 15.98800 29.20100
C  -3.48100 16.52000 30.59200
C  -3.86900 17.99900 30.29700
C  -3.50700 18.11100 28.88700
C  -5.29900 18.48800 30.62400
C  -2.26500 16.26300 31.52000
C  -2.17800 17.06200 32.88900
H  -2.08700 16.23400 34.17600
N  -3.33600 18.90000 25.88400
C  -3.45300 19.75500 26.91900
C  -3.43000 21.08000 26.44500
C  -3.36700 20.97000 24.94600
C  -3.33900 19.53100 24.64600
C  -3.64000 22.34200 27.28400
C  -3.30700 22.06300 23.92800
O  -3.26300 21.84000 22.70400
C  -3.14600 23.55000 24.36400
N  -3.40300 16.52400 23.89000
C  -3.27200 17.49700 23.04400
C  -3.08000 16.95500 21.57200
C  -2.83400 15.42500 21.77700
C  -3.17700 15.28000 23.29200
C  -4.41900 17.28400 20.67200
C  -1.43000 14.84900 21.51600
C  -0.20600 15.60100 22.03300
N  -3.28600 14.82800 26.18800
C  -3.17400 13.84000 25.32300
C  -3.06300 12.57600 25.95300
C  -3.03400 12.86100 27.35200
C  -3.11200 14.23000 27.43000
C  -2.81500 11.22200 25.24900
C  -2.81300 12.23600 28.64300
O  -2.47600 11.02900 28.93500
C  -2.96200 13.39100 29.64600
C  -1.68300 13.29400 30.35300
O  -0.65500 13.89300 30.13600
O  -1.88700 12.43400 31.46600
C  -0.78400 12.46000 32.45200
H  -3.33900 20.20100 28.95300
H  -3.10900 19.52400 22.42700
H  -3.10600 13.17700 23.27500
H  -4.31200 15.91700 30.95700
H  -3.18700 18.68600 30.79800
H  -5.25200 18.94500 31.61300
H  -5.99900 17.66400 30.76700
H  -5.64600 19.30400 29.99100
H  -1.31400 16.33900 30.99400
H  -2.59800 15.27500 31.83800
H  -3.03900 17.73100 32.88900
H  -1.26600 17.65800 32.85100
H  -3.81400 22.12600 28.33800
H  -4.44200 22.97100 26.89700
H  -2.72100 22.88700 27.49900
H  -2.23800 23.66700 24.95600
H  -4.08000 23.82900 24.85100
H  -2.89700 24.06500 23.43500
H  -2.23300 17.43800 21.08300
H  -3.56100 14.86400 21.18900
H  -4.44200 18.34100 20.40600
H  -5.36300 17.16400 21.20300
H  -4.43700 16.62400 19.80500
H  -1.27200 14.78700 20.43900
H  -1.30600 13.87700 21.99300
H  -0.40300 16.34900 22.80100
H  0.28600 16.04400 21.16700
H  0.46200 14.89900 22.53200
H  -3.78900 10.80400 24.99400
H  -2.17500 10.65100 25.92100
H  -2.34500 11.40500 24.28200
H  -3.71200 13.32000 30.43400
H  0.20200 12.21400 32.05800
H  -0.99700 11.83400 33.31800
H  -0.89400 13.46500 32.86000
Mg 35.42300 49.99400 25.73800
C  35.71500 47.97800 28.50400
C  33.77200 52.38800 27.67000
C  34.97300 51.82400 22.90000
C  36.70100 47.39800 23.80300
N  34.73000 50.08500 27.79500
C  35.06000 49.22500 28.74900
C  34.69900 49.78600 30.14700
C  33.94000 51.09600 29.87000
C  34.11700 51.22900 28.32900
C  32.44200 51.10200 30.28100
C  35.88800 50.02500 31.14000
C  35.51800 49.73300 32.62900
H  34.07400 49.71100 33.06400
N  34.50300 51.91600 25.33600
C  33.90300 52.71800 26.28400
C  33.59900 53.98100 25.60200
C  33.81000 53.79200 24.18400
C  34.44200 52.47800 24.07600
C  33.04900 55.16400 26.38300
C  33.60800 54.76800 23.07900
O  34.00400 54.60300 21.91700
C  32.73400 55.95500 23.25800
N  35.68900 49.59900 23.64600
C  35.51000 50.58700 22.70700
C  36.11900 50.10100 21.40500
C  36.76500 48.76200 21.61100
C  36.34500 48.55900 23.04200
C  35.20600 50.03100 20.14000
C  38.32700 48.77900 21.42600
C  39.12600 49.49900 22.40500
N  35.87400 48.04700 26.00400
C  36.33600 47.06600 25.09000
C  36.51300 45.85800 25.74200
C  36.30200 46.13900 27.11900
C  35.93000 47.48700 27.20800
C  37.22900 44.71600 25.14800
C  36.43600 45.62200 28.45800
O  36.76800 44.52500 28.85900
C  36.05600 46.78000 29.43200
C  34.96800 46.38100 30.26400
O  33.77800 46.54500 30.02600
O  35.47700 45.87900 31.45200
C  34.52900 45.50000 32.48900
H  33.32500 53.19200 28.25700
H  35.05100 52.41600 21.98500
H  37.21100 46.69800 23.13800
H  33.96200 49.05000 30.47000
H  34.44600 51.96900 30.28000
H  31.76600 50.97900 29.43400
H  32.27700 52.11800 30.63900
H  32.24300 50.43100 31.11600
H  36.35300 51.00600 31.04000
H  36.60500 49.32000 30.72000
H  36.07100 50.40800 33.28200
H  35.87400 48.72400 32.83800
H  33.57700 55.19500 27.33600
H  31.96400 55.14000 26.49300
H  33.42400 56.00700 25.80200
H  32.08200 55.86500 24.12600
H  32.04300 56.07200 22.42300
H  33.44000 56.77600 23.38400
H  36.78300 50.95000 21.24400
H  36.43100 47.93200 20.98900
H  34.69200 49.07000 20.11800
H  35.84100 50.11400 19.25700
H  34.47300 50.83700 20.11000
H  38.53600 49.14000 20.41900
H  38.69200 47.75700 21.32500
H  39.35500 48.74900 23.16200
H  38.73400 50.39600 22.88300
H  40.14000 49.66100 22.03800
H  38.06300 45.13200 24.58200
H  36.69500 44.05900 24.46200
H  37.66500 44.09300 25.92900
H  36.85300 46.95100 30.15600
H  34.85700 44.62400 33.04800
H  33.53300 45.23400 32.13600
H  34.46200 46.25400 33.27300

