158

Mg 41.40700 8.15400 29.17900
C  43.32600 9.66500 31.67800
C  39.38700 6.80700 31.64300
C  39.58300 6.61800 26.73800
C  43.94200 8.99600 26.81900
N  41.40600 8.07500 31.36900
C  42.12300 8.95600 32.14600
C  41.63700 9.01300 33.57600
C  40.62900 7.89600 33.57700
C  40.41900 7.58800 32.08000
C  40.88300 6.67600 34.38200
C  41.13000 10.37200 34.06000
C  40.38800 10.31800 35.46900
H  41.00300 10.99000 36.66200
N  39.68100 7.06400 29.16900
C  38.99200 6.55400 30.28100
C  37.69000 6.02300 29.84500
C  37.67400 6.09300 28.45100
C  39.01700 6.65300 28.00900
C  36.70700 5.43400 30.80000
C  36.51600 5.77700 27.44600
O  36.62200 5.71300 26.22800
C  35.14500 5.60000 28.04900
N  41.83600 7.56400 27.14100
C  40.86100 7.05700 26.31700
C  41.43500 6.84500 24.89500
C  42.54700 7.94900 24.89400
C  42.84000 8.22100 26.40100
C  41.92900 5.40100 24.64200
C  42.11100 9.24600 24.11000
C  41.28400 10.35800 24.84400
N  43.24700 9.16300 29.16800
C  44.17400 9.46500 28.13400
C  45.13900 10.29500 28.66700
C  44.84100 10.42500 30.02800
C  43.69400 9.72300 30.31200
C  46.31000 10.87000 27.86900
C  45.31300 11.02200 31.25700
O  46.18600 11.82300 31.51000
C  44.31900 10.47200 32.38900
C  45.00200 9.76200 33.47300
O  45.40300 8.60300 33.46800
O  45.12100 10.62700 34.46300
C  45.41500 9.93800 35.73300
H  38.72700 6.54200 32.47200
H  39.00000 6.07200 25.99300
H  44.54100 9.32800 25.96900
H  42.45500 8.79700 34.26400
H  39.67800 8.27900 33.94800
H  40.59300 5.75400 33.87700
H  40.23300 6.70000 35.25600
H  41.86200 6.55100 34.84500
H  40.52100 10.84500 33.29000
H  41.97800 11.01000 34.30900
H  39.94700 9.35700 35.73500
H  39.55700 11.00900 35.32800
H  35.96600 6.09100 31.25700
H  37.37300 5.04600 31.57100
H  36.22400 4.53800 30.41100
H  35.13100 4.59600 28.47400
H  34.43900 5.49500 27.22500
H  34.73400 6.37400 28.69700
H  40.73000 7.21900 24.15300
H  43.47800 7.57200 24.47200
H  41.98300 5.30400 23.55800
H  41.23300 4.62600 24.96500
H  42.92200 5.21100 25.04900
H  41.64000 9.00200 23.15800
H  43.05600 9.74000 23.88500
H  40.46200 10.66600 24.19800
H  41.93900 11.21100 25.02200
H  40.97700 9.89800 25.78300
H  46.41400 11.94800 27.99700
H  46.15900 10.65300 26.81200
H  47.19300 10.32600 28.20500
H  43.71500 11.26600 32.82900
H  46.12300 9.11100 35.69200
H  44.46400 9.64100 36.17600
H  45.75300 10.65300 36.48200
Mg -4.75900 24.58800 26.47400
C  -2.82500 26.35400 28.70700
C  -5.79600 22.62200 29.09500
C  -6.17400 22.54000 24.11600
C  -3.11600 26.34800 23.94100
N  -4.43200 24.57700 28.64700
C  -3.56700 25.40800 29.33800
C  -3.81300 25.23200 30.78000
C  -4.40600 23.79400 30.98900
C  -4.94600 23.63100 29.50900
C  -3.35600 22.68100 31.35700
C  -4.64800 26.38600 31.40500
C  -4.34200 26.77300 32.86500
H  -5.34000 26.41200 33.91300
N  -5.72700 22.78500 26.61700
C  -6.05300 22.19100 27.75800
C  -6.79300 21.01500 27.35400
C  -7.08500 20.97800 25.95900
C  -6.34000 22.21400 25.51700
C  -7.17900 19.98700 28.45900
C  -7.88800 20.06100 25.13100
O  -8.17200 20.36900 23.97300
C  -8.40200 18.76100 25.78200
N  -4.71800 24.49400 24.36900
C  -5.37400 23.56800 23.60200
C  -5.23500 23.86900 22.05700
C  -4.27100 25.10900 22.06400
C  -3.93800 25.27200 23.57600
C  -4.77300 22.67900 21.23900
C  -4.88000 26.40100 21.43200
C  -4.09900 27.11200 20.35000
N  -3.44800 26.10900 26.32000
C  -2.85100 26.70900 25.19500
C  -1.91900 27.76300 25.59100
C  -1.87000 27.65600 26.96600
C  -2.79800 26.60600 27.32900
C  -1.11300 28.67900 24.61800
C  -1.25500 28.15400 28.20300
O  -0.41300 29.05000 28.34100
C  -1.85300 27.34100 29.37600
C  -0.74000 26.64100 30.17900
O  0.02900 25.86200 29.66200
O  -0.75000 27.05900 31.46300
C  0.27200 26.36400 32.28900
H  -6.14100 22.08100 29.97900
H  -6.82000 22.13600 23.33300
H  -2.75000 26.89900 23.07200
H  -2.81100 25.19700 31.20600
H  -5.29400 23.84300 31.61900
H  -3.38100 21.75500 30.78400
H  -3.24000 22.56300 32.43400
H  -2.37500 23.08000 31.09700
H  -5.67400 26.02300 31.34600
H  -4.64800 27.29000 30.79600
H  -4.28300 27.85300 32.73700
H  -3.31300 26.41600 32.92600
H  -7.34100 20.33400 29.48000
H  -6.41000 19.23400 28.28400
H  -8.17700 19.60500 28.24400
H  -8.75600 18.02600 25.06000
H  -9.16100 19.04800 26.50900
H  -7.58300 18.25600 26.29600
H  -6.25000 24.10500 21.73700
H  -3.31100 24.76900 21.67700
H  -4.36900 21.79100 21.72300
H  -4.08200 22.93300 20.43400
H  -5.66900 22.45600 20.65900
H  -5.05700 27.06600 22.27600
H  -5.88900 26.12000 21.13200
H  -3.10000 26.71400 20.17000
H  -3.90200 28.14700 20.63000
H  -4.64800 27.07300 19.41000
H  -0.63300 29.52900 25.10400
H  -1.88700 29.11100 23.98500
H  -0.36900 27.97700 24.24200
H  -2.39200 28.00700 30.04900
H  1.16000 26.97800 32.14100
H  0.35600 25.30900 32.02600
H  0.00800 26.53800 33.33200

