158

Mg -1.75600 17.82300 26.36400
C  -2.16800 15.74800 29.06900
C  -2.63900 20.56100 28.28300
C  -2.00700 19.71900 23.56900
C  -1.59200 14.97600 24.28500
N  -2.19000 18.04300 28.44100
C  -2.36400 17.07700 29.41700
C  -2.82100 17.65800 30.74700
C  -3.18000 19.09900 30.39800
C  -2.63300 19.31000 28.97500
C  -4.72100 19.31500 30.38600
C  -1.75300 17.51900 31.76100
C  -2.13800 16.93200 33.04900
H  -1.07300 16.37900 33.88700
N  -1.96700 19.84900 26.02100
C  -2.25500 20.81900 26.93800
C  -2.00800 22.14000 26.36500
C  -1.84800 21.93400 24.97400
C  -1.92000 20.41200 24.79500
C  -2.20000 23.36700 27.18100
C  -1.61300 22.98900 23.84700
O  -1.52800 22.69900 22.64300
C  -1.28100 24.48900 24.27600
N  -2.00800 17.43500 24.20300
C  -2.13100 18.41100 23.28500
C  -2.09200 17.90100 21.84100
C  -1.68700 16.36400 22.12800
C  -1.72700 16.23500 23.61700
C  -3.40700 17.97600 21.03400
C  -0.32900 15.99200 21.48800
C  0.86400 16.56700 22.15900
N  -1.74800 15.73600 26.59600
C  -1.66600 14.68200 25.62300
C  -1.73300 13.43400 26.34700
C  -1.99200 13.79500 27.68600
C  -1.87800 15.22200 27.79700
C  -1.85700 12.08000 25.68900
C  -2.39700 13.27600 28.95400
O  -2.55600 12.12400 29.33500
C  -2.35900 14.48000 29.98900
C  -1.51700 14.12800 31.14900
O  -0.32300 14.11000 31.06500
O  -2.20200 13.72900 32.29500
C  -1.44700 12.95400 33.28300
H  -3.02900 21.33700 28.94500
H  -2.00200 20.27000 22.62600
H  -1.51800 14.16600 23.55600
H  -3.63000 16.98500 31.03300
H  -2.70600 19.74100 31.14100
H  -5.13100 19.73700 29.46900
H  -4.99400 19.97100 31.21300
H  -5.26900 18.43400 30.72400
H  -1.30700 18.49100 31.97400
H  -0.97700 16.89800 31.31400
H  -2.95500 16.22300 32.91600
H  -2.51200 17.82100 33.55700
H  -2.54300 23.07500 28.17300
H  -3.03700 23.96600 26.82300
H  -1.35400 24.01400 27.41100
H  -2.09800 24.88600 24.87800
H  -1.13000 25.13700 23.41300
H  -0.33900 24.50800 24.82500
H  -1.26800 18.46100 21.39800
H  -2.43900 15.70400 21.69500
H  -4.15500 18.54900 21.58400
H  -3.74600 16.96100 20.82800
H  -3.35000 18.56300 20.11800
H  -0.33900 16.32100 20.44900
H  -0.26500 14.90700 21.57800
H  1.55800 15.90200 22.67200
H  0.49600 17.34000 22.83400
H  1.47400 17.05400 21.39900
H  -1.00000 11.90400 25.03900
H  -2.74600 11.98600 25.06400
H  -1.88100 11.31100 26.46100
H  -3.37100 14.64000 30.36200
H  -1.57200 13.51700 34.20800
H  -0.36200 12.90800 33.19400
H  -1.82300 11.93600 33.38600
Mg 16.45400 -2.83800 27.04600
C  15.66100 -0.43700 29.49900
C  18.36800 -4.48200 29.42100
C  17.62900 -4.75400 24.57300
C  14.90900 -0.66400 24.54600
N  17.22200 -2.20700 29.14600
C  16.57800 -1.37400 30.00600
C  17.08100 -1.48200 31.54000
C  18.07300 -2.77700 31.37900
C  17.93800 -3.17200 29.83600
C  19.52400 -2.54000 31.74400
C  15.97000 -1.62900 32.57500
C  15.81100 -0.66500 33.65100
H  17.12200 -0.07800 34.25000
N  17.64000 -4.55500 27.08900
C  18.30300 -5.14100 28.13900
C  18.88900 -6.35200 27.66400
C  18.73000 -6.38300 26.26000
C  17.94600 -5.24300 25.88200
C  19.82300 -7.06800 28.50100
C  19.32400 -7.38500 25.30100
O  19.07700 -7.37300 24.06800
C  20.14100 -8.70100 25.86000
N  16.21700 -2.76100 24.91700
C  16.95100 -3.65400 24.14600
C  16.90100 -3.30300 22.62200
C  15.78700 -2.17400 22.64800
C  15.63600 -1.83300 24.10400
C  18.26300 -2.78700 22.02600
C  14.53300 -2.41400 21.83700
C  13.26100 -2.54500 22.59500
N  15.51600 -0.97800 26.95000
C  14.83800 -0.27000 25.95600
C  14.09000 0.89800 26.60900
C  14.40400 0.84800 27.97100
C  15.30600 -0.30600 28.13400
C  13.16000 1.83500 25.95800
C  14.11700 1.58100 29.25200
O  13.43700 2.55200 29.49600
C  14.87600 0.65200 30.22600
C  15.90500 1.61100 30.91500
O  16.99500 1.85500 30.40900
O  15.50000 2.23400 32.06900
C  16.43600 3.34100 32.51800
H  18.91600 -5.06000 30.16800
H  18.01100 -5.19300 23.64900
H  14.39100 -0.02000 23.83300
H  17.58300 -0.54500 31.78200
H  17.86200 -3.60700 32.05200
H  19.85700 -3.20300 32.54300
H  19.63300 -1.49600 32.04000
H  20.17100 -2.71700 30.88500
H  15.92900 -2.59900 33.07200
H  15.08100 -1.58700 31.94500
H  15.51100 -1.29000 34.49200
H  15.10300 0.14000 33.45400
H  20.83900 -7.00700 28.11200
H  19.64100 -8.13900 28.59000
H  19.78500 -6.74500 29.54100
H  19.53300 -9.36500 26.47500
H  21.04500 -8.30100 26.31800
H  20.63600 -9.28100 25.08100
H  16.56700 -4.14300 22.01200
H  16.17700 -1.25500 22.20900
H  19.10800 -3.21300 22.56700
H  18.41600 -1.71000 22.10100
H  18.35500 -3.07800 20.98000
H  14.74900 -3.25000 21.17200
H  14.42900 -1.48000 21.28400
H  13.40700 -3.04000 23.55500
H  12.60100 -3.19800 22.02300
H  12.77800 -1.58300 22.76500
H  12.74600 1.19500 25.17900
H  13.63400 2.72000 25.53200
H  12.52200 2.11900 26.79500
H  14.15500 0.33000 30.97800
H  16.29300 4.29000 32.00200
H  17.50000 3.10400 32.51600
H  16.24100 3.54700 33.57100

