158

Mg 46.22300 16.11000 27.76300
C  44.50100 15.61200 30.82900
C  48.42000 17.98400 29.39400
C  47.82400 16.53100 24.89600
C  43.78400 14.29900 26.17000
N  46.40900 16.66900 29.86100
C  45.63600 16.39500 30.92500
C  46.13400 17.02200 32.22800
C  47.10500 18.10600 31.74200
C  47.31600 17.65400 30.25100
C  46.63100 19.60600 31.84900
C  46.87400 15.81800 33.02100
C  46.85500 16.04700 34.55400
H  48.28800 16.13400 35.18400
N  47.94400 17.09800 27.26600
C  48.78100 17.80500 28.06700
C  49.97300 18.11800 27.46400
C  49.78600 17.80700 26.09600
C  48.47200 17.11000 26.02000
C  51.08500 18.76100 28.17700
C  50.69000 18.00300 24.97300
O  50.40200 17.69800 23.78900
C  52.05300 18.50200 25.15700
N  45.89500 15.45500 25.84800
C  46.62600 15.79600 24.79800
C  46.15100 15.26900 23.52900
C  44.97900 14.32000 23.89300
C  44.86100 14.66600 25.40300
C  45.92800 16.27000 22.33400
C  45.16300 12.76400 23.58400
C  46.05700 11.99400 24.52700
N  44.43500 15.12700 28.32000
C  43.47400 14.47700 27.56800
C  42.38000 13.98400 28.38500
C  42.73500 14.45800 29.67200
C  44.00900 15.08300 29.61300
C  41.15800 13.26400 27.88000
C  42.28900 14.50100 31.00100
O  41.24800 14.03400 31.39700
C  43.44500 15.29100 31.86400
C  42.67900 16.43500 32.49300
O  42.45400 17.51100 31.97700
O  42.29700 16.03200 33.74000
C  41.50000 16.92100 34.58200
H  49.16900 18.55300 29.94900
H  48.23500 16.61100 23.88700
H  43.07000 13.74300 25.55900
H  45.30800 17.51000 32.74500
H  48.04900 18.09200 32.28700
H  46.29600 19.96700 30.87700
H  47.52400 20.17500 32.10900
H  45.76900 19.82000 32.48200
H  47.88600 15.76500 32.62100
H  46.49000 14.82400 32.79100
H  46.34000 15.22300 35.04700
H  46.33900 16.99200 34.72600
H  51.05000 19.83900 28.02100
H  52.08600 18.51200 27.82500
H  51.05800 18.60200 29.25500
H  52.00200 19.47700 25.64100
H  52.50800 18.62600 24.17400
H  52.58100 17.73800 25.72800
H  46.97400 14.59900 23.28200
H  44.03400 14.67600 23.48100
H  45.04300 16.00300 21.75600
H  46.83900 16.07000 21.77000
H  45.92200 17.31200 22.65300
H  45.62700 12.65500 22.60300
H  44.14200 12.38900 23.64200
H  45.53500 11.24700 25.12400
H  46.57400 12.57000 25.29500
H  46.79000 11.36900 24.01700
H  41.45700 12.23800 27.66400
H  40.71700 13.69800 26.98300
H  40.51300 13.20600 28.75600
H  43.95900 14.72900 32.64400
H  41.34700 16.39900 35.52600
H  40.54000 16.93600 34.06700
H  42.03200 17.85500 34.76600
Mg 26.50900 51.98800 26.74200
C  24.25200 52.90800 29.31100
C  28.77800 51.24500 29.14800
C  28.71200 51.74300 24.33500
C  24.10500 53.14400 24.46200
N  26.48600 52.17700 29.02500
C  25.46200 52.39200 29.85700
C  25.90000 52.16200 31.35500
C  27.35900 51.72800 31.19100
C  27.56300 51.69400 29.66200
C  28.39400 52.66200 31.93900
C  25.00200 51.11400 32.15000
C  25.42200 50.86100 33.59600
H  24.56300 51.26600 34.76300
N  28.52500 51.46900 26.80900
C  29.23100 51.17500 27.85400
C  30.54000 50.79900 27.34900
C  30.51800 50.97200 25.94300
C  29.20900 51.41300 25.61800
C  31.66600 50.22900 28.23400
C  31.75600 50.83500 25.05500
O  31.63300 51.14200 23.89300
C  33.08200 50.43700 25.52000
N  26.37900 52.32700 24.71100
C  27.39000 52.02600 23.93300
C  27.05100 52.27500 22.38400
C  25.57500 52.54900 22.45500
C  25.31600 52.83400 23.92100
C  27.89000 53.32300 21.73500
C  24.63600 51.43200 21.80000
C  23.75200 51.96700 20.64700
N  24.58300 52.95700 26.83800
C  23.75100 53.23300 25.83400
C  22.51400 53.75300 26.32900
C  22.65700 53.57500 27.71500
C  23.93500 53.13900 27.99800
C  21.36900 54.37900 25.63400
C  21.97500 53.70800 29.05500
O  20.88700 54.15000 29.41500
C  23.00200 53.33200 30.07400
C  23.20700 54.51700 30.96500
O  23.68900 55.60000 30.63100
O  22.79100 54.17300 32.22800
C  22.56400 55.26500 33.17400
H  29.43800 50.90700 29.95000
H  29.37600 51.74800 23.46900
H  23.27600 53.58400 23.90500
H  25.77900 53.11100 31.87700
H  27.47200 50.74100 31.64100
H  29.23000 52.88800 31.27700
H  28.82100 52.07500 32.75200
H  28.08100 53.63400 32.32000
H  25.14600 50.22200 31.54000
H  23.95200 51.38500 32.03900
H  26.40400 51.32900 33.66500
H  25.49900 49.77800 33.70000
H  31.93800 49.20300 27.98600
H  31.40600 50.27500 29.29200
H  32.50000 50.92700 28.15500
H  33.31000 51.16500 26.29900
H  33.85100 50.51900 24.75300
H  33.07100 49.41700 25.90300
H  27.33200 51.29200 22.00700
H  25.42800 53.55400 22.05900
H  27.27900 54.09700 21.27100
H  28.46600 52.85400 20.93700
H  28.52100 53.70300 22.53800
H  23.93900 51.03700 22.54000
H  25.24300 50.58300 21.48700
H  23.85500 51.30700 19.78600
H  24.01500 52.99200 20.38500
H  22.70000 51.88400 20.91900
H  21.80800 55.16200 25.01500
H  20.80900 54.72100 26.50500
H  20.87100 53.60600 25.05000
H  22.64600 52.48100 30.65600
H  23.51100 55.79500 33.26900
H  22.33400 54.82700 34.14500
H  21.73800 55.90400 32.86200

