158

Mg 46.85200 25.09500 28.75700
C  47.71800 27.27700 31.33700
C  45.87200 22.83200 31.07800
C  46.58500 22.87900 26.33900
C  48.60000 27.26200 26.50400
N  46.83900 25.07600 30.93700
C  47.25200 26.06400 31.77500
C  46.93700 25.66600 33.22600
C  46.61100 24.16000 33.09100
C  46.37500 24.00400 31.62300
C  47.60900 23.09900 33.75500
C  45.89400 26.66900 33.81300
C  46.37700 27.45600 35.07100
H  45.44700 27.28500 36.23800
N  46.20600 23.13000 28.69900
C  45.78400 22.39300 29.73800
C  45.20400 21.15600 29.23800
C  45.53400 21.07700 27.87900
C  46.22500 22.38700 27.56700
C  44.65600 20.05400 30.19000
C  45.17900 19.92000 26.85700
O  45.46500 20.03000 25.66100
C  44.61300 18.69500 27.30100
N  47.45600 25.12700 26.69100
C  47.17700 24.06800 25.93200
C  47.59800 24.32600 24.46600
C  48.07300 25.74700 24.48900
C  48.04500 26.10000 25.96500
C  48.51500 23.25000 23.80500
C  47.24400 26.70800 23.49700
C  45.89500 27.13400 24.18900
N  47.78900 27.01300 28.82500
C  48.56900 27.67500 27.87000
C  49.11100 28.91400 28.50500
C  48.81200 28.78100 29.85400
C  48.01900 27.62800 29.96500
C  49.89500 29.99300 27.81400
C  49.03200 29.42400 31.12400
O  49.74300 30.37400 31.40000
C  48.30300 28.49000 32.18400
C  49.28300 28.04100 33.27800
O  49.88300 26.99100 33.23100
O  49.24300 28.89900 34.35800
C  50.15300 28.60200 35.52000
H  45.62300 22.11500 31.86300
H  46.49400 22.21900 25.47400
H  49.11600 28.00200 25.88900
H  47.80300 25.75500 33.88200
H  45.63800 23.92700 33.52300
H  47.27300 22.52800 34.62100
H  48.48400 23.62200 34.13900
H  47.75300 22.32200 33.00400
H  44.99600 26.16800 34.17500
H  45.65600 27.39400 33.03500
H  46.26300 28.51600 34.84600
H  47.39800 27.20400 35.35700
H  45.34200 19.20700 30.18800
H  43.78400 19.57000 29.74900
H  44.51300 20.27300 31.24800
H  43.64900 18.77600 27.80300
H  45.33000 18.18900 27.94700
H  44.66800 17.96700 26.49100
H  46.61100 24.40200 24.01000
H  49.10900 25.69100 24.15600
H  47.92900 22.75800 23.03000
H  48.91200 22.49500 24.48400
H  49.41500 23.58000 23.28700
H  46.95600 26.17600 22.59000
H  47.83200 27.53600 23.10100
H  45.03800 26.83500 23.58500
H  45.78800 28.21600 24.26000
H  45.68500 26.62000 25.12700
H  50.42700 29.58800 26.95300
H  50.66900 30.25800 28.53400
H  49.12600 30.71600 27.54000
H  47.51000 29.08800 32.63400
H  50.65400 29.56300 35.62900
H  50.96500 27.88800 35.37800
H  49.52100 28.43500 36.39300
Mg 42.70500 41.46200 26.79100
C  42.21400 44.08000 29.18300
C  43.33800 39.46800 29.38700
C  43.42300 39.16100 24.56200
C  42.34000 43.91500 24.17800
N  42.83400 41.81800 29.06800
C  42.49100 42.85900 29.80600
C  42.69700 42.71500 31.35100
C  43.14300 41.20100 31.34100
C  43.18500 40.80300 29.83300
C  44.45200 40.83100 32.11300
C  41.36900 43.03300 32.08100
C  41.17600 42.33700 33.39800
H  41.45600 43.23300 34.58800
N  43.29000 39.55000 26.95500
C  43.35300 38.88800 28.11500
C  43.76100 37.51600 27.78200
C  43.90300 37.40100 26.33500
C  43.59400 38.72700 25.84200
C  44.13400 36.50800 28.91300
C  44.14800 36.21300 25.37400
O  44.20300 36.36100 24.10300
C  44.30300 34.86900 25.97100
N  43.06400 41.56800 24.67200
C  43.20200 40.40500 23.96600
C  43.14500 40.63400 22.38300
C  42.48600 42.04200 22.36800
C  42.61200 42.59200 23.82200
C  44.53200 40.53600 21.69800
C  40.98000 41.96000 22.01600
C  40.14600 40.86300 22.74300
N  42.33200 43.59200 26.62900
C  42.18600 44.41900 25.49800
C  41.82200 45.74200 25.95500
C  41.79000 45.62600 27.37400
C  42.15100 44.33000 27.73200
C  41.50000 46.90000 25.07300
C  41.55900 46.37300 28.60500
O  41.06900 47.50500 28.83000
C  41.89600 45.41600 29.78900
C  42.89700 46.13500 30.58100
O  44.11900 46.13700 30.41300
O  42.32900 46.73000 31.71200
C  43.16900 47.24000 32.78500
H  43.50300 38.92900 30.32200
H  43.46600 38.45800 23.72700
H  42.07000 44.61000 23.38000
H  43.45100 43.31800 31.85800
H  42.30000 40.59000 31.66400
H  45.27900 40.50600 31.48200
H  44.20800 39.98300 32.75200
H  44.78800 41.64600 32.75400
H  40.50400 42.94300 31.42400
H  41.40500 44.08700 32.35700
H  41.71400 41.39400 33.50300
H  40.11700 42.12000 33.53900
H  44.10400 36.97900 29.89500
H  45.17100 36.27900 28.66800
H  43.73600 35.49300 28.88200
H  43.31500 34.49100 26.23500
H  45.01400 34.90900 26.79600
H  44.58000 34.15000 25.20000
H  42.50000 39.85000 21.98600
H  43.01800 42.78200 21.77000
H  44.87100 41.39500 21.11900
H  44.34900 39.64500 21.09800
H  45.33200 40.25100 22.38000
H  41.00800 41.78400 20.94000
H  40.41800 42.88800 22.12200
H  39.40900 41.48500 23.25200
H  40.77100 40.29100 23.42900
H  39.64500 40.12700 22.11400
H  41.11100 47.63100 25.78100
H  40.66300 46.68300 24.41000
H  42.34700 47.26100 24.48900
H  41.10400 45.43700 30.53700
H  44.06800 47.72900 32.40800
H  43.52200 46.31900 33.24800
H  42.55900 47.86500 33.43800

