158

Mg 17.39600 -1.02300 27.34700
C  16.26800 1.11200 29.85500
C  19.25300 -2.64700 29.88100
C  18.84800 -2.70300 24.99600
C  15.70200 1.06600 24.99800
N  17.63200 -0.85000 29.64200
C  17.11900 0.16200 30.38800
C  17.42800 -0.03500 31.90200
C  18.54500 -1.14100 31.82900
C  18.53700 -1.51800 30.39300
C  19.90900 -0.78000 32.37200
C  16.19300 -0.45500 32.80600
C  16.54000 -0.47400 34.29900
H  17.78600 0.16500 34.86600
N  18.83500 -2.52600 27.40700
C  19.36800 -3.19000 28.53300
C  20.11200 -4.33400 28.10000
C  19.94700 -4.38400 26.67000
C  19.24400 -3.14000 26.28400
C  20.82000 -5.31700 28.97500
C  20.48500 -5.37600 25.59300
O  20.40500 -5.20000 24.38300
C  21.24000 -6.55300 26.14900
N  17.48600 -0.65700 25.35000
C  18.09500 -1.59000 24.57200
C  17.84200 -1.32600 23.04700
C  16.88100 -0.05400 23.08000
C  16.66400 0.19500 24.56600
C  19.03400 -1.24300 22.17600
C  15.66500 -0.41000 22.21100
C  14.94500 0.72600 21.58300
N  16.07300 0.65800 27.39200
C  15.46900 1.32400 26.36500
C  14.70300 2.39200 26.88800
C  14.96700 2.36700 28.23200
C  15.81600 1.27600 28.52300
C  13.75500 3.33200 26.15300
C  14.76500 3.04100 29.49600
O  13.97800 3.95100 29.75400
C  15.43900 2.23200 30.57100
C  16.24600 3.16600 31.42300
O  17.43600 3.35700 31.25000
O  15.56000 3.72800 32.51200
C  16.31200 4.47700 33.45800
H  19.75800 -3.12300 30.72300
H  19.15800 -3.26400 24.11200
H  15.20500 1.71500 24.27400
H  17.87300 0.92100 32.17500
H  18.27800 -2.05200 32.36500
H  19.87600 0.08800 33.02900
H  20.52100 -0.44600 31.53300
H  20.26300 -1.57000 33.03400
H  15.82300 -1.43200 32.49500
H  15.44500 0.31500 32.61400
H  16.45300 -1.52500 34.57600
H  15.74700 -0.01400 34.88800
H  21.85900 -5.13900 28.69700
H  20.46700 -6.31600 28.71800
H  20.59400 -5.01600 29.99800
H  22.07600 -6.24100 26.77500
H  21.62800 -7.20100 25.36300
H  20.47800 -7.11100 26.69300
H  17.33500 -2.23900 22.73500
H  17.43400 0.83500 22.77500
H  18.87400 -0.47700 21.41700
H  19.14900 -2.23600 21.74100
H  19.83600 -1.03100 22.88300
H  14.99600 -0.94400 22.88700
H  15.87000 -1.04000 21.34600
H  13.89200 0.50500 21.40400
H  15.46000 0.84300 20.63000
H  15.15100 1.67200 22.08400
H  13.06000 2.85600 25.46100
H  14.32300 4.17600 25.76200
H  13.12900 3.65900 26.98300
H  14.59800 1.86200 31.15700
H  16.52200 5.44900 33.01100
H  17.23600 4.01900 33.81200
H  15.58000 4.69100 34.23700
Mg 41.41500 8.81100 30.33800
C  43.25600 10.01700 32.92500
C  39.01300 7.69400 32.54800
C  39.82800 7.27700 27.79900
C  44.21300 9.43600 28.22300
N  41.32100 8.61000 32.50200
C  42.05600 9.41500 33.31900
C  41.34200 9.72900 34.62200
C  40.11900 8.70800 34.59900
C  40.16200 8.30000 33.10000
C  40.24300 7.50200 35.54200
C  40.98900 11.20800 34.72200
C  40.31100 11.59300 35.98700
H  41.02600 12.03000 37.31500
N  39.57900 7.85500 30.14600
C  38.78800 7.44900 31.18800
C  37.64500 6.76500 30.61600
C  37.71400 6.85700 29.22900
C  39.05600 7.32200 28.99500
C  36.53700 6.28000 31.57000
C  36.70700 6.37500 28.18100
O  36.92500 6.29900 26.97000
C  35.32500 5.96900 28.70600
N  41.97200 8.37300 28.30200
C  41.10200 7.68600 27.50000
C  41.85600 7.60400 26.08700
C  43.08600 8.47800 26.25700
C  43.09600 8.79200 27.67300
C  42.19900 6.11500 25.79700
C  43.20900 9.58700 25.20200
C  42.50500 10.95500 25.41700
N  43.41500 9.57700 30.48500
C  44.44400 9.87800 29.58200
C  45.47300 10.58500 30.25100
C  45.11500 10.64000 31.62300
C  43.85200 9.97400 31.70200
C  46.75300 11.09200 29.56700
C  45.49300 11.07400 32.89100
O  46.45400 11.66200 33.38900
C  44.32500 10.67000 33.82700
C  44.76300 9.52900 34.76400
O  44.49900 8.30800 34.68900
O  45.57700 10.14600 35.66900
C  45.78700 9.19400 36.74000
H  38.30900 7.55800 33.37200
H  39.32600 6.79900 26.95500
H  45.10600 9.82300 27.72900
H  42.08200 9.52900 35.39700
H  39.11600 9.08200 34.80500
H  39.60800 7.57700 36.42500
H  41.29100 7.38200 35.81700
H  39.82100 6.61700 35.06600
H  40.43700 11.47500 33.82100
H  41.86700 11.85200 34.66700
H  39.76600 10.69500 36.27700
H  39.46300 12.24500 35.77400
H  36.07100 7.22300 31.85700
H  36.95100 5.84200 32.47800
H  35.87000 5.55600 31.10100
H  34.63600 5.95800 27.86200
H  35.00500 6.76000 29.38400
H  35.40000 4.98800 29.17400
H  41.29500 7.99100 25.23700
H  44.00200 7.88700 26.27500
H  41.89800 6.06300 24.75100
H  41.84700 5.44900 26.58500
H  43.26900 5.92600 25.70700
H  42.93100 9.33900 24.17800
H  44.26700 9.84400 25.15400
H  43.22700 11.76600 25.32200
H  42.03400 10.96100 26.40000
H  41.74200 11.12300 24.65600
H  46.56800 11.22000 28.50100
H  47.58400 10.39000 29.63200
H  47.06300 12.08900 29.88300
H  43.93200 11.56000 34.31700
H  44.92300 8.91100 37.34000
H  46.50700 9.68900 37.39300
H  46.25300 8.30700 36.31100

