158

Mg 17.32900 -1.47900 27.77800
C  16.16200 0.42200 30.57600
C  19.42300 -3.08500 29.72700
C  18.78800 -2.73200 24.96300
C  15.57300 0.87300 25.76900
N  17.77900 -1.28600 29.91400
C  17.12500 -0.59700 30.84400
C  17.63800 -0.93000 32.24300
C  18.88200 -1.87200 31.95400
C  18.66100 -2.11000 30.44400
C  20.31600 -1.27200 32.23900
C  16.49000 -1.46700 33.11300
C  16.33900 -0.84400 34.52500
H  17.65600 -0.29600 35.23700
N  18.71100 -2.94100 27.41200
C  19.43100 -3.51300 28.39800
C  20.20500 -4.60400 27.75100
C  20.12600 -4.42900 26.32900
C  19.18600 -3.33600 26.16300
C  20.96100 -5.57000 28.55500
C  20.69800 -5.26700 25.18700
O  20.62900 -5.06200 23.98000
C  21.55400 -6.44900 25.54100
N  17.16700 -0.98200 25.72600
C  17.94000 -1.63900 24.72300
C  17.67400 -1.03000 23.36200
C  16.39400 -0.17600 23.65400
C  16.37500 -0.04300 25.14300
C  18.91400 -0.36700 22.65100
C  15.13700 -0.91100 23.09800
C  13.81200 -0.10500 23.02200
N  16.10700 0.35300 28.05700
C  15.38200 1.05500 27.12600
C  14.50700 1.98500 27.79300
C  14.78900 1.79400 29.19800
C  15.79600 0.78800 29.27000
C  13.52900 3.01900 27.23500
C  14.44500 2.21600 30.53800
O  13.60900 2.96700 30.94700
C  15.40100 1.32000 31.54400
C  16.23600 2.28400 32.22300
O  17.40400 2.51800 32.04400
O  15.49500 2.91400 33.22400
C  16.29400 3.82500 34.04400
H  20.17800 -3.59800 30.32700
H  19.32100 -3.04500 24.06300
H  15.16600 1.69200 25.17300
H  18.00200 0.01300 32.65100
H  18.82500 -2.77800 32.55700
H  20.65000 -1.71400 33.17800
H  20.31200 -0.18300 32.28500
H  21.08400 -1.46800 31.49100
H  16.35200 -2.54800 33.10800
H  15.59600 -1.25500 32.52600
H  15.79200 -1.65500 35.00700
H  15.70000 0.03600 34.44900
H  20.52700 -6.57000 28.54500
H  21.04300 -5.17600 29.56800
H  21.94200 -5.58600 28.08100
H  22.60500 -6.16200 25.55600
H  21.54000 -7.14600 24.70400
H  21.12100 -7.05600 26.33600
H  17.34700 -1.93900 22.85800
H  16.45900 0.76600 23.11100
H  18.79200 0.71300 22.72600
H  18.96800 -0.59000 21.58600
H  19.87100 -0.64500 23.09300
H  14.91000 -1.74600 23.76000
H  15.38500 -1.28200 22.10300
H  13.89100 0.89400 23.45200
H  13.02800 -0.56900 23.62100
H  13.39400 -0.09900 22.01500
H  13.80800 3.08600 26.18400
H  13.66500 3.97100 27.74800
H  12.50200 2.67600 27.36300
H  14.75100 0.80800 32.25400
H  15.68800 4.16500 34.88400
H  16.59300 4.72400 33.50500
H  17.21200 3.40200 34.45100
Mg 35.93600 48.45400 26.33900
C  36.24200 46.35600 29.08300
C  34.15900 50.73900 28.41400
C  35.16500 50.50000 23.59100
C  37.06300 45.99700 24.34200
N  35.09500 48.46600 28.52500
C  35.65600 47.58000 29.40800
C  35.48400 48.22600 30.85000
C  34.46100 49.35800 30.64200
C  34.63400 49.61100 29.13700
C  32.93600 48.97800 30.88600
C  36.78900 48.79900 31.43700
C  37.22100 48.38700 32.87500
H  36.97500 49.52400 33.88600
N  34.89900 50.38700 26.16300
C  34.39300 51.18300 27.11100
C  33.89000 52.43800 26.56100
C  34.22200 52.41800 25.22500
C  34.78800 51.00200 24.89100
C  33.19900 53.44400 27.48600
C  34.23900 53.53600 24.15100
O  34.67500 53.40400 23.02100
C  33.90800 54.89100 24.49400
N  35.93600 48.14800 24.24100
C  35.69500 49.18300 23.39400
C  36.15200 48.79700 21.98700
C  36.96500 47.44800 22.22300
C  36.64200 47.18100 23.69700
C  34.93900 48.68400 21.08100
C  38.48900 47.43200 21.85900
C  38.96200 46.40300 20.77600
N  36.49500 46.53000 26.56100
C  36.98300 45.64400 25.66400
C  37.36300 44.36200 26.34600
C  37.11800 44.64000 27.72800
C  36.54400 45.95300 27.77500
C  37.91700 43.13100 25.70300
C  37.23700 44.15300 29.10400
O  37.54000 43.08200 29.47100
C  36.77400 45.28700 30.02500
C  35.71900 44.74800 30.92300
O  34.69500 44.31200 30.46100
O  36.10600 44.81300 32.24800
C  35.07900 44.53200 33.17000
H  33.69500 51.49600 29.04900
H  34.88600 51.09600 22.72000
H  37.55100 45.24800 23.71500
H  35.09200 47.45200 31.51000
H  34.60800 50.28500 31.19500
H  32.46100 49.50000 31.71600
H  32.82200 47.90600 31.04800
H  32.31400 49.28500 30.04500
H  36.88700 49.88500 31.41000
H  37.57700 48.33700 30.84300
H  38.29300 48.21600 32.78400
H  36.66200 47.53700 33.26700
H  32.99800 54.38900 26.98300
H  33.83100 53.53700 28.37000
H  32.19800 53.09100 27.73000
H  32.95700 54.74300 25.00600
H  33.77800 55.55700 23.64100
H  34.79200 55.13400 25.08300
H  36.86700 49.52200 21.59700
H  36.42700 46.68600 21.66000
H  34.02400 48.79300 21.66200
H  34.82000 47.78900 20.46900
H  34.87300 49.50400 20.36600
H  39.00000 47.14400 22.77800
H  38.77500 48.45600 21.61800
H  38.14300 45.84700 20.32000
H  39.54700 45.69600 21.36400
H  39.61800 46.88700 20.05300
H  38.77900 43.42300 25.10200
H  37.15600 42.75900 25.01600
H  38.19100 42.33900 26.40100
H  37.51800 45.65100 30.73400
H  34.58400 45.46600 33.43600
H  35.65200 44.14400 34.01200
H  34.35100 43.76700 32.89900

