158

Mg 26.01200 0.89000 29.26800
C  27.69300 0.56300 32.19200
C  23.05500 1.42700 30.88600
C  24.57400 0.92000 26.16800
C  29.14900 0.18400 27.61100
N  25.32700 0.66600 31.36100
C  26.28700 0.79700 32.32900
C  25.53700 1.21400 33.69100
C  24.14500 1.37000 33.23700
C  24.13500 1.18900 31.74300
C  23.17100 0.41100 34.01200
C  26.14700 2.46600 34.30600
C  26.85900 2.24900 35.65600
H  26.44200 3.11100 36.89300
N  24.14000 1.09100 28.61300
C  23.03800 1.33400 29.44500
C  21.86100 1.36900 28.59400
C  22.25100 1.23100 27.29000
C  23.69600 1.08100 27.31500
C  20.48400 1.50600 29.24600
C  21.47700 1.45200 25.97300
O  21.91000 1.23000 24.85500
C  20.01200 1.85300 26.09300
N  26.74700 0.67000 27.19000
C  25.96100 0.85400 26.11000
C  26.73900 0.58500 24.81400
C  28.23600 0.59300 25.25100
C  28.08400 0.55200 26.79100
C  26.34000 -0.66300 23.94600
C  29.16200 1.80000 24.83200
C  29.74000 1.64100 23.47500
N  27.99500 0.20800 29.73600
C  29.19000 0.06000 28.95200
C  30.26800 -0.18700 29.83200
C  29.69800 0.04600 31.11300
C  28.33100 0.26600 31.03100
C  31.62700 -0.66100 29.56700
C  30.02500 0.12700 32.56100
O  31.04700 0.06400 33.21800
C  28.73400 0.44000 33.27100
C  28.50100 -0.67300 34.27000
O  27.86800 -1.72300 34.05600
O  28.88300 -0.26000 35.53600
C  28.45100 -1.13900 36.65100
H  22.19200 1.88100 31.37800
H  24.17900 0.91400 25.15000
H  30.10700 0.02600 27.11200
H  25.67700 0.35200 34.34300
H  23.81700 2.37300 33.51200
H  23.66700 -0.49400 34.36200
H  22.35200 0.20900 33.32200
H  22.85400 0.89100 34.93700
H  25.37200 3.18100 34.58300
H  26.93200 2.82800 33.64300
H  27.89200 2.56200 35.50400
H  26.90800 1.18300 35.87800
H  19.79600 0.76900 28.83400
H  20.05700 2.50100 29.11700
H  20.32200 1.18500 30.27500
H  19.41700 1.11700 26.63300
H  19.49000 2.05200 25.15700
H  19.86600 2.76400 26.67400
H  26.61200 1.36300 24.06000
H  28.71000 -0.34700 24.96900
H  25.62000 -1.31000 24.44700
H  27.22700 -1.18600 23.59000
H  25.79900 -0.26600 23.08700
H  30.02800 2.03600 25.45000
H  28.52900 2.68400 24.75600
H  29.55500 0.66600 23.02500
H  30.80700 1.86400 23.49300
H  29.32300 2.35200 22.76200
H  32.24700 0.06400 29.04000
H  31.65800 -1.57100 28.97000
H  32.09000 -0.94800 30.51100
H  28.99300 1.39200 33.73600
H  28.71400 -2.17900 36.45400
H  27.37400 -1.06100 36.79800
H  28.99200 -0.81000 37.53800
Mg 26.85300 50.13100 26.09400
C  24.79900 51.26700 28.94500
C  29.28000 49.28100 28.39500
C  28.64200 49.14100 23.48400
C  24.46500 51.69800 24.08600
N  26.91100 50.08300 28.40600
C  25.94500 50.53600 29.35800
C  26.50900 50.28900 30.76700
C  28.01500 49.99400 30.58600
C  28.11100 49.78400 29.05700
C  29.06900 50.90500 31.32400
C  25.60400 49.19900 31.50800
C  25.00700 49.50900 32.88400
H  25.62800 50.39400 33.98800
N  28.68900 49.27000 25.94900
C  29.55000 49.02600 26.97800
C  30.67000 48.23500 26.43000
C  30.53100 48.21700 25.01100
C  29.26600 48.89500 24.74800
C  31.73900 47.54500 27.21700
C  31.38400 47.46300 23.87800
O  31.08700 47.53400 22.69000
C  32.45000 46.49200 24.20400
N  26.50700 50.43400 24.14500
C  27.45400 49.85100 23.27600
C  26.85500 49.91100 21.86000
C  25.57000 50.80600 21.91400
C  25.46800 51.00500 23.43300
C  27.78700 50.42500 20.71700
C  24.25100 50.30700 21.32800
C  23.73600 48.93000 21.76600
N  25.01300 51.19600 26.42200
C  24.22000 51.78600 25.45700
C  23.04400 52.36100 26.03900
C  23.26100 52.14900 27.44400
C  24.47400 51.41400 27.61800
C  21.97700 52.97500 25.19700
C  22.69900 52.50800 28.69700
O  21.71500 53.24100 28.92100
C  23.66200 51.84700 29.71200
C  24.02800 52.94400 30.63200
O  24.93300 53.77900 30.38500
O  23.32800 52.94400 31.81200
C  23.75100 54.02200 32.76100
H  30.01200 48.95200 29.13500
H  29.15800 48.76800 22.59800
H  23.69800 52.08600 23.41200
H  26.40500 51.29100 31.18500
H  28.21200 49.05300 31.09900
H  28.44500 51.75700 31.59500
H  29.81300 51.22400 30.59300
H  29.45700 50.33800 32.17000
H  26.23900 48.33500 31.70400
H  24.88900 48.95500 30.72300
H  24.94300 48.50400 33.30000
H  23.97700 49.83700 32.74400
H  31.95000 48.09500 28.13400
H  32.68100 47.76000 26.71200
H  31.56400 46.47200 27.30300
H  33.35000 47.06800 24.41800
H  32.55500 45.85000 23.32900
H  32.27300 45.89400 25.09700
H  26.53800 48.89600 21.61900
H  25.83300 51.80000 21.55100
H  28.70200 50.80200 21.17400
H  27.29800 51.22600 20.16300
H  28.10200 49.65500 20.01300
H  24.26300 50.09400 20.25900
H  23.52500 51.11600 21.40900
H  22.65800 49.04500 21.87400
H  24.21700 48.60500 22.68800
H  23.81100 48.18400 20.97400
H  21.34400 52.20400 24.75700
H  22.48300 53.59000 24.45300
H  21.50400 53.68500 25.87500
H  22.96700 51.12500 30.14100
H  24.17200 54.90000 32.27200
H  24.30900 53.59400 33.59500
H  22.78800 54.29300 33.19300

