158

Mg 47.46500 24.85300 27.74900
C  48.09300 27.26400 30.16300
C  46.65400 22.76900 30.36400
C  46.47400 22.59100 25.55600
C  48.67900 26.98100 25.24700
N  47.22300 25.07600 29.99800
C  47.51500 26.17500 30.74600
C  47.26500 25.96500 32.26700
C  47.05100 24.41500 32.32900
C  47.07900 24.04800 30.81700
C  48.07200 23.56400 33.19100
C  46.18100 26.91000 33.02300
C  45.48200 26.40000 34.31000
H  45.55400 27.37900 35.45300
N  46.81300 22.91600 27.95700
C  46.54100 22.14000 29.09400
C  46.10100 20.76800 28.80400
C  45.89900 20.84000 27.38000
C  46.44300 22.11400 26.90000
C  45.79000 19.67900 29.82600
C  45.24800 19.70100 26.49800
O  45.15700 19.82000 25.26200
C  44.60600 18.54000 27.16800
N  47.67900 24.73800 25.67900
C  47.02000 23.79500 24.99600
C  47.33700 24.02600 23.51800
C  47.83400 25.46800 23.46600
C  48.07700 25.76400 24.86400
C  48.19400 22.96900 22.74500
C  46.91900 26.50900 22.63500
C  47.64900 27.30500 21.58100
N  48.38000 26.64300 27.71300
C  48.81600 27.42500 26.59600
C  49.35900 28.70800 27.05900
C  49.04900 28.68600 28.48400
C  48.45800 27.44800 28.77400
C  50.23400 29.77400 26.24400
C  49.26200 29.43900 29.73000
O  49.90900 30.40200 29.98500
C  48.52900 28.53300 30.91300
C  49.51600 28.22500 32.01900
O  50.56100 27.67400 31.93000
O  49.07800 28.89600 33.08700
C  49.72600 28.60200 34.37000
H  46.49300 22.15500 31.25300
H  46.15800 21.99700 24.69600
H  48.99500 27.74200 24.53100
H  48.18200 26.16200 32.82300
H  46.05000 24.29900 32.74600
H  47.56700 22.96400 33.94900
H  48.82100 24.23400 33.61200
H  48.56200 22.88500 32.49300
H  45.39600 27.15000 32.30600
H  46.64600 27.85200 33.31300
H  46.00200 25.49300 34.61700
H  44.46500 26.13400 34.02000
H  46.35600 18.75300 29.72100
H  44.71100 19.52100 29.83800
H  45.86500 20.12500 30.81700
H  43.80400 18.84700 27.83900
H  45.40700 18.09400 27.75700
H  44.27500 17.83300 26.40700
H  46.29500 24.02000 23.19700
H  48.85000 25.48000 23.07000
H  48.70600 22.26500 23.40000
H  48.89500 23.43300 22.05100
H  47.63200 22.38200 22.01900
H  46.45500 27.28100 23.24900
H  46.12900 25.88100 22.22300
H  47.72900 26.80600 20.61500
H  48.66200 27.40400 21.96900
H  47.09800 28.24500 21.56100
H  49.83300 29.97200 25.25000
H  51.23100 29.35500 26.10500
H  50.24500 30.62600 26.92400
H  47.75100 29.21100 31.26400
H  49.37500 27.64100 34.74500
H  49.56200 29.42400 35.06700
H  50.79900 28.45100 34.25500
Mg -5.38100 25.85600 26.43100
C  -3.89900 27.03100 29.40600
C  -7.34000 23.83700 28.26100
C  -6.21200 24.35300 23.55600
C  -3.08800 27.77700 24.63800
N  -5.52700 25.41700 28.62100
C  -4.90100 26.09000 29.61200
C  -5.52100 25.67700 30.90800
C  -6.46800 24.55000 30.56300
C  -6.49300 24.60500 29.08400
C  -6.03100 23.11100 31.04200
C  -6.13100 26.87600 31.70800
C  -5.84200 26.98600 33.25200
H  -5.29100 25.65400 33.92800
N  -6.64900 24.37100 25.92500
C  -7.48500 23.77500 26.84100
C  -8.39300 22.91000 26.16400
C  -8.13000 23.02300 24.78700
C  -6.91300 23.95000 24.67200
C  -9.24800 21.97800 26.89300
C  -8.77300 22.39400 23.62700
O  -8.46000 22.58500 22.45700
C  -9.94600 21.44400 23.82400
N  -4.74300 26.06400 24.47400
C  -5.21700 25.33200 23.39300
C  -4.39400 25.42500 22.13800
C  -3.69500 26.82900 22.44900
C  -3.81400 26.94400 23.98300
C  -3.36700 24.33800 21.90600
C  -4.32100 28.08700 21.74000
C  -3.81100 28.46000 20.33400
N  -3.89900 27.25700 26.88100
C  -2.99400 27.95800 26.05900
C  -2.16800 28.89100 26.87100
C  -2.54000 28.51400 28.15600
C  -3.49400 27.53500 28.17100
C  -1.23100 29.91900 26.40700
C  -2.20100 28.70000 29.56700
O  -1.35300 29.49500 30.01600
C  -3.11500 27.88800 30.43100
C  -2.25900 27.14900 31.36100
O  -1.63600 26.15500 31.01000
O  -2.28200 27.77900 32.58300
C  -1.64400 27.01700 33.63800
H  -8.04000 23.20300 28.81100
H  -6.43600 23.84400 22.61600
H  -2.43400 28.48500 24.12500
H  -4.60600 25.41300 31.43800
H  -7.42500 24.60800 31.08100
H  -5.32600 23.08900 31.87400
H  -5.40000 22.74500 30.23200
H  -6.97200 22.58600 31.20600
H  -7.21700 26.83500 31.62500
H  -5.78600 27.77800 31.20300
H  -6.81000 27.11100 33.73800
H  -5.17800 27.80600 33.52400
H  -10.13200 21.61200 26.37200
H  -9.76000 22.51400 27.69200
H  -8.76600 21.13000 27.38000
H  -9.53700 20.57900 24.34500
H  -10.35700 20.95800 22.93900
H  -10.72900 21.97600 24.36500
H  -4.93700 25.62800 21.21500
H  -2.64800 26.68500 22.18100
H  -3.81000 23.43500 21.48500
H  -2.87800 24.08000 22.84500
H  -2.57300 24.55300 21.19100
H  -4.36700 28.92500 22.43500
H  -5.38800 27.89200 21.63000
H  -3.78500 27.65000 19.60400
H  -2.76200 28.69900 20.51000
H  -4.21100 29.34000 19.83100
H  -1.56200 30.86500 25.97700
H  -0.58400 29.41300 25.69100
H  -0.66900 30.16500 27.30800
H  -3.68900 28.66100 30.94200
H  -2.02800 27.47500 34.55000
H  -0.57300 27.08700 33.44800
H  -1.89400 25.95700 33.67400

