158

Mg 53.65700 24.19900 44.59800
C  51.17900 26.48500 43.87300
C  51.62300 21.61900 43.68200
C  56.41800 22.25700 44.14800
C  55.80000 26.96100 45.08100
N  51.71600 24.07100 43.71000
C  50.81900 25.12700 43.62100
C  49.41000 24.71800 43.15800
C  49.59300 23.19800 43.57100
C  51.08200 22.96900 43.67900
C  48.86100 22.74100 44.86700
C  49.20600 25.08000 41.70000
C  48.23600 24.21200 40.90600
H  48.00700 24.62800 39.44000
N  53.97800 22.21600 43.99600
C  52.98600 21.32400 43.69600
C  53.57600 19.99200 43.60400
C  54.93600 20.17300 43.75700
C  55.12900 21.61000 43.89700
C  52.75100 18.73200 43.39700
C  56.04300 19.05000 43.76800
O  55.74800 17.87400 43.58600
C  57.55800 19.21000 43.98800
N  55.82600 24.60800 44.58500
C  56.70100 23.55900 44.55300
C  58.20500 24.06700 44.87000
C  57.97900 25.58300 45.08900
C  56.44000 25.75300 44.85800
C  58.70800 23.45300 46.17900
C  58.96400 26.44400 44.22900
C  58.82900 26.32100 42.70900
N  53.58300 26.34500 44.69400
C  54.46800 27.29100 44.98900
C  53.80400 28.57700 45.05900
C  52.45500 28.31000 44.64300
C  52.40100 26.95200 44.34900
C  54.46300 29.80400 45.64300
C  51.10300 28.93000 44.58500
O  50.64800 30.04100 44.82500
C  50.27100 27.80000 43.87800
C  50.14500 28.37600 42.46700
O  51.07200 28.62800 41.73300
O  48.82600 28.69500 42.17200
C  48.51900 29.02900 40.74200
H  50.93600 20.77000 43.66000
H  57.28200 21.60200 44.27300
H  56.45800 27.80900 45.28000
H  48.65600 25.28100 43.70800
H  49.28000 22.49600 42.79800
H  48.00900 22.11100 44.61300
H  48.43100 23.62300 45.34100
H  49.56000 22.26500 45.55600
H  50.15800 25.11200 41.17000
H  48.69600 26.04400 41.69900
H  47.29200 24.06000 41.43000
H  48.74400 23.25200 40.81400
H  51.88800 18.94100 42.76400
H  52.42500 18.43900 44.39500
H  53.20200 17.82700 42.99100
H  58.08100 18.25400 43.99400
H  57.69000 19.60900 44.99400
H  58.01600 19.92200 43.30200
H  58.89700 23.99200 44.03100
H  58.12500 25.95000 46.10600
H  57.99700 22.73100 46.58300
H  58.79900 24.21100 46.95600
H  59.72100 23.12600 45.94700
H  59.99300 26.15500 44.44400
H  58.85700 27.46600 44.59400
H  58.49000 27.25000 42.25000
H  58.13600 25.58000 42.31200
H  59.87200 26.21500 42.41100
H  55.53400 29.70700 45.82300
H  53.87500 30.14400 46.49600
H  54.30200 30.64500 44.96900
H  49.25400 27.73400 44.26500
H  49.36400 29.11600 40.05900
H  47.97100 29.95500 40.56700
H  47.86400 28.22500 40.40600
Mg 48.02800 35.41700 27.65000
C  46.34200 33.54000 30.13300
C  48.42200 37.95400 29.69700
C  49.72400 36.90000 25.15100
C  47.29800 32.68800 25.38900
N  47.44300 35.68800 29.66900
C  46.94700 34.76500 30.57900
C  47.03900 35.37500 32.00000
C  47.24100 36.82100 31.72800
C  47.81900 36.85400 30.32100
C  45.98000 37.74100 32.03300
C  48.14500 34.67800 32.79900
C  47.91200 34.41500 34.24600
H  46.91600 35.26700 35.05500
N  48.80400 37.21700 27.39100
C  48.87100 38.15100 28.40500
C  49.53300 39.34300 27.92000
C  50.09000 38.99000 26.62700
C  49.46800 37.69300 26.28700
C  49.78800 40.51100 28.79300
C  51.10500 39.66300 25.66400
O  51.49600 39.14000 24.64000
C  51.71800 40.98900 26.03200
N  48.17900 34.98300 25.47100
C  49.06100 35.68200 24.77800
C  49.37200 35.06800 23.37300
C  48.56900 33.65100 23.46500
C  47.97600 33.80200 24.87000
C  49.06000 35.90200 22.08900
C  49.52600 32.44000 23.33200
C  49.18300 31.43100 22.15500
N  46.93700 33.58600 27.63500
C  46.73500 32.54100 26.66600
C  45.93300 31.50800 27.25700
C  45.77100 31.85700 28.57700
C  46.40500 33.12500 28.79700
C  45.52700 30.23300 26.59300
C  45.10400 31.50000 29.83800
O  44.40900 30.56100 30.09000
C  45.21900 32.74700 30.76300
C  45.50900 32.36200 32.15000
O  46.40600 31.58600 32.48700
O  44.52200 32.81100 32.92900
C  44.49100 32.33100 34.32500
H  48.72900 38.65300 30.47800
H  50.41800 37.20400 24.36400
H  47.20200 31.80700 24.75100
H  46.05600 35.19800 32.43800
H  48.11600 37.17100 32.27500
H  45.71200 37.70400 33.08900
H  45.13400 37.28200 31.52200
H  45.96400 38.71400 31.54300
H  49.10600 35.14100 32.57700
H  48.39100 33.77100 32.24700
H  48.85100 34.44100 34.79900
H  47.57800 33.37800 34.28000
H  50.78100 40.94400 28.66700
H  49.61000 40.37800 29.86000
H  49.27000 41.39800 28.42800
H  50.90900 41.71600 25.95200
H  52.48100 41.22600 25.29100
H  52.31100 40.90500 26.94200
H  50.44300 34.87000 23.31800
H  47.78600 33.59100 22.70900
H  48.23700 35.42600 21.55800
H  49.93700 35.87900 21.44300
H  48.76900 36.87300 22.49000
H  49.59000 31.89500 24.27300
H  50.52500 32.79500 23.08000
H  48.40900 31.82700 21.49800
H  48.78600 30.53800 22.63700
H  50.08600 31.10200 21.64200
H  44.74300 29.79400 27.21100
H  46.35800 29.54900 26.42700
H  44.95900 30.57800 25.72800
H  44.29100 33.28000 30.55700
H  44.02100 31.35700 34.45600
H  43.79500 32.93900 34.90300
H  45.38400 32.34600 34.95000

