158

Mg 54.49400 24.18600 45.43600
C  51.71200 26.26500 44.92100
C  52.70900 21.46600 44.25700
C  57.25700 22.43700 45.56500
C  56.28100 27.12900 46.31500
N  52.44200 23.99900 44.59800
C  51.53100 24.96000 44.37800
C  50.25400 24.36200 43.73800
C  50.49700 22.81500 44.01700
C  51.98600 22.75800 44.21700
C  49.94700 22.23600 45.30000
C  50.25700 24.76000 42.19200
C  48.94400 25.13800 41.44000
H  48.44900 24.18000 40.27400
N  54.85000 22.16900 45.02700
C  54.03000 21.22200 44.52000
C  54.78000 19.96100 44.41600
C  56.09000 20.19600 44.93000
C  56.07500 21.64000 45.24000
C  54.04300 18.64100 44.01000
C  57.18400 19.12300 45.13900
O  56.89800 18.00200 44.74400
C  58.51900 19.48900 45.61600
N  56.55200 24.73900 45.79900
C  57.47300 23.73300 45.87500
C  58.82800 24.35300 46.31700
C  58.52900 25.89400 46.31900
C  57.01300 25.87600 46.24400
C  59.33000 23.62700 47.61600
C  59.06200 26.86000 45.08100
C  60.54100 26.63700 44.70800
N  54.17100 26.28300 45.60400
C  54.97400 27.34900 46.03000
C  54.20600 28.50300 46.10900
C  52.94800 28.16000 45.67000
C  52.91700 26.77100 45.40700
C  54.67400 29.79500 46.50100
C  51.62100 28.75400 45.40300
O  51.15800 29.84100 45.61800
C  50.79700 27.51900 44.82300
C  50.35900 27.89700 43.44200
O  51.20500 28.26000 42.60800
O  48.98700 27.81400 43.27400
C  48.49800 28.30200 41.99600
H  52.00500 20.67600 43.98900
H  58.22300 21.94300 45.68400
H  56.80300 28.03200 46.64000
H  49.38200 24.68400 44.30600
H  50.25100 22.18100 43.16600
H  49.08100 22.78400 45.67200
H  50.65300 22.11100 46.12100
H  49.61100 21.22300 45.07600
H  50.66800 23.88700 41.68500
H  50.90800 25.61800 42.02100
H  49.09000 26.05000 40.86100
H  48.18700 25.29400 42.20800
H  53.56700 18.82700 43.04700
H  53.28600 18.15300 44.62500
H  54.74100 17.83100 43.79700
H  59.13000 20.07300 44.92800
H  59.05700 18.58900 45.91700
H  58.34000 20.00000 46.56200
H  59.55100 24.21000 45.51300
H  58.63500 26.34800 47.30500
H  59.74900 24.37400 48.29000
H  60.08200 22.85300 47.46500
H  58.51700 23.21800 48.21600
H  58.77100 27.87300 45.36100
H  58.54900 26.74000 44.12700
H  60.54900 26.14600 43.73500
H  61.00300 26.04700 45.50000
H  61.15000 27.51700 44.49800
H  54.19400 30.01300 47.45500
H  54.36600 30.35500 45.61800
H  55.73600 30.03000 46.55700
H  49.95300 27.27100 45.46600
H  49.09800 28.01900 41.13100
H  48.63400 29.38400 41.99900
H  47.46000 28.14900 41.69900
Mg 47.74000 24.50900 28.08600
C  48.41600 26.80900 30.55600
C  46.62100 22.28600 30.45900
C  47.25800 22.35700 25.64800
C  49.12400 26.84000 25.69700
N  47.64000 24.62800 30.33000
C  47.84600 25.68100 31.12400
C  47.54100 25.36600 32.55000
C  47.02600 23.86400 32.50600
C  47.14300 23.52100 31.01100
C  47.92700 22.81000 33.30300
C  46.55700 26.32200 33.27300
C  45.82900 25.69600 34.49000
H  45.54100 26.60400 35.66400
N  46.99200 22.56800 28.06300
C  46.50900 21.85400 29.15100
C  46.04000 20.57500 28.63000
C  46.12200 20.57800 27.15700
C  46.80600 21.84200 26.88500
C  45.53100 19.47500 29.50200
C  45.52300 19.63000 26.13600
O  45.41100 19.85800 24.98800
C  44.79400 18.44000 26.67500
N  48.09200 24.60600 25.98700
C  47.85200 23.57300 25.18100
C  48.17200 23.87900 23.68600
C  48.54000 25.45700 23.66700
C  48.68800 25.62800 25.17100
C  49.26200 22.94600 23.06300
C  47.58800 26.43000 23.02800
C  47.78000 26.67300 21.51100
N  48.43300 26.51200 28.02500
C  48.98900 27.29300 27.02200
C  49.41900 28.52100 27.55700
C  49.24200 28.38100 28.98300
C  48.61100 27.13500 29.13100
C  50.21600 29.54800 26.85700
C  49.55800 28.99100 30.21100
O  50.11700 30.02900 30.55300
C  48.88300 28.07400 31.31400
C  49.77000 27.78200 32.55100
O  50.73300 27.04800 32.47200
O  49.37900 28.42300 33.69000
C  50.30800 28.28000 34.82800
H  46.31200 21.52700 31.18000
H  46.96600 21.64400 24.87400
H  49.49300 27.46900 24.88400
H  48.47700 25.29200 33.10400
H  46.00500 23.76500 32.87400
H  47.36700 22.27600 34.07100
H  48.81700 23.29400 33.70400
H  48.34200 22.13000 32.55900
H  45.82400 26.61800 32.52300
H  47.18500 27.14100 33.62400
H  46.45100 24.84400 34.76400
H  44.88000 25.44800 34.01400
H  44.54400 19.10100 29.23300
H  45.52600 19.86500 30.52000
H  46.30000 18.71300 29.37300
H  45.42800 17.99300 27.44100
H  44.79400 17.78600 25.80200
H  43.79000 18.74100 26.97100
H  47.26700 23.77000 23.09000
H  49.56900 25.56800 23.32400
H  49.85000 22.40000 23.80000
H  49.91400 23.48200 22.37300
H  48.91900 22.12700 22.43100
H  47.62700 27.36500 23.58700
H  46.55500 26.10200 23.14400
H  46.77900 26.61300 21.08400
H  48.49100 25.95600 21.09900
H  48.20900 27.67100 21.41900
H  50.04000 29.82800 25.81900
H  51.25100 29.22700 26.97400
H  50.23500 30.41700 27.51500
H  48.00800 28.56200 31.74300
H  50.04200 27.48500 35.52500
H  50.27300 29.17700 35.44600
H  51.33600 28.21600 34.47100

