158

Mg 8.88600 2.85300 27.02600
C  10.12700 1.48300 30.05000
C  6.96100 4.90000 28.75600
C  7.34100 3.61100 24.15800
C  10.67100 0.22500 25.31600
N  8.39000 2.88200 29.24200
C  9.14500 2.47900 30.29500
C  8.70700 3.09100 31.64900
C  7.64000 4.13300 31.17600
C  7.62900 3.98200 29.57400
C  6.22700 4.13800 31.87300
C  9.95800 3.58200 32.40000
C  9.92500 4.56000 33.59500
H  10.49000 3.98500 34.89800
N  7.39600 4.12200 26.53100
C  6.71000 4.89700 27.38400
C  5.80100 5.75400 26.64900
C  5.95200 5.40200 25.27700
C  6.89900 4.33100 25.25800
C  4.95700 6.80600 27.31200
C  5.22500 5.88500 24.08200
O  5.41300 5.50400 22.93800
C  4.18500 6.86000 24.28200
N  9.00700 1.99600 25.06600
C  8.30900 2.59300 24.00400
C  8.73700 2.01300 22.67100
C  9.65700 0.81200 23.11600
C  9.83800 1.07200 24.59100
C  7.63700 1.70600 21.54900
C  10.94200 0.67900 22.23800
C  10.93600 -0.27100 21.07600
N  10.19700 1.23900 27.53200
C  10.85700 0.34300 26.70200
C  11.69900 -0.54600 27.56400
C  11.46300 -0.14900 28.90500
C  10.46700 0.90500 28.82200
C  12.69700 -1.47900 27.08000
C  11.78600 -0.39100 30.25800
O  12.54900 -1.25700 30.74300
C  10.86900 0.57500 31.07700
C  9.99000 -0.21600 31.99100
O  8.96400 -0.79900 31.63400
O  10.48700 -0.18100 33.29900
C  9.51000 -0.73300 34.17100
H  6.43300 5.58400 29.42200
H  6.82600 3.83100 23.22100
H  11.18400 -0.61800 24.85000
H  8.19400 2.39500 32.31400
H  8.08400 5.10700 31.37900
H  6.39400 4.65300 32.81900
H  5.92000 3.11600 32.09300
H  5.43600 4.68500 31.35900
H  10.66700 4.08300 31.74200
H  10.41800 2.65500 32.74500
H  8.85600 4.71600 33.74300
H  10.47800 5.42300 33.22500
H  3.92100 6.48300 27.21600
H  5.07800 7.71500 26.72300
H  5.26800 7.05900 28.32600
H  3.72300 7.26700 23.38200
H  4.47500 7.79800 24.75600
H  3.45100 6.43400 24.96500
H  9.23600 2.91500 22.31500
H  8.96800 -0.02000 22.97000
H  6.71900 1.33100 22.00200
H  7.94700 1.00000 20.77800
H  7.35600 2.64200 21.06700
H  11.80400 0.45300 22.86600
H  11.13200 1.69500 21.89200
H  11.79000 -0.94700 21.11200
H  11.06200 0.23800 20.12100
H  10.00300 -0.83500 21.05200
H  12.95700 -1.18400 26.06300
H  12.41200 -2.52100 26.93500
H  13.56500 -1.43900 27.73800
H  11.45800 1.12100 31.81300
H  8.58400 -0.22600 33.90100
H  9.65400 -0.32600 35.17200
H  9.45200 -1.82000 34.13600
Mg 47.94700 15.83900 28.67200
C  45.77800 15.63800 31.39700
C  50.25600 17.61700 30.68300
C  49.71900 16.46800 25.94000
C  45.24200 14.63500 26.63900
N  47.95500 16.60600 30.79200
C  47.00500 16.32500 31.71000
C  47.44400 16.78900 33.13000
C  48.80400 17.52200 32.88400
C  49.06100 17.18800 31.36700
C  48.92900 19.06800 33.32400
C  47.57900 15.63300 34.10700
C  46.69800 15.56500 35.37000
H  46.50500 16.91100 36.10700
N  49.91200 16.74200 28.41100
C  50.61500 17.45000 29.35600
C  51.74700 17.94200 28.69300
C  51.64300 17.66000 27.27300
C  50.37200 16.92100 27.15000
C  52.84600 18.75900 29.38400
C  52.58700 17.87000 26.06400
O  52.31300 17.50100 24.92600
C  53.86000 18.60400 26.25400
N  47.57400 15.60300 26.57900
C  48.47500 15.87500 25.65500
C  48.01100 15.46000 24.25400
C  46.69000 14.73500 24.59500
C  46.45300 15.01500 26.07000
C  47.95600 16.58700 23.14800
C  46.57500 13.29100 24.07700
C  46.95400 12.23900 25.10400
N  45.92300 15.18900 28.85900
C  44.98700 14.72200 27.99600
C  43.75800 14.30700 28.74900
C  44.03800 14.61800 30.10500
C  45.32300 15.16300 30.11900
C  42.45900 13.86700 28.20300
C  43.56300 14.56100 31.47300
O  42.49400 14.12900 31.81700
C  44.70800 15.21700 32.33600
C  44.01300 16.36900 33.12300
O  43.80100 17.51300 32.85600
O  43.51400 15.83600 34.29800
C  42.79800 16.56500 35.18500
H  50.98900 18.07400 31.35100
H  50.27200 16.73000 25.03500
H  44.54500 14.16700 25.94200
H  46.78400 17.57200 33.50400
H  49.61600 16.94900 33.33200
H  48.01400 19.52700 33.69800
H  49.19200 19.59800 32.40800
H  49.70500 19.25600 34.06500
H  48.60900 15.64000 34.46300
H  47.46700 14.70800 33.54200
H  47.32400 15.04000 36.09100
H  45.78700 15.00000 35.17400
H  53.83600 18.36200 29.16100
H  52.78700 18.65400 30.46700
H  52.83700 19.79500 29.04300
H  53.56900 19.63800 26.43800
H  54.57500 18.56200 25.43200
H  54.43000 18.37400 27.15500
H  48.76000 14.77200 23.86100
H  45.94400 15.26500 24.00300
H  48.58800 16.23100 22.33500
H  48.33500 17.57100 23.42700
H  46.94300 16.60900 22.74800
H  47.17700 13.22400 23.17100
H  45.54200 13.10200 23.78300
H  46.14600 11.54300 25.32600
H  47.28900 12.55500 26.09200
H  47.84700 11.79300 24.66600
H  42.24600 14.46200 27.31400
H  41.63900 14.01700 28.90500
H  42.36900 12.84200 27.84400
H  45.05500 14.54600 33.12300
H  42.91800 17.64700 35.24500
H  43.16400 16.28500 36.17300
H  41.74200 16.38200 34.98600

