158

Mg 26.00700 1.49700 29.78500
C  27.97400 1.08700 32.68000
C  23.27200 2.02100 31.90900
C  24.08900 1.30800 27.17900
C  28.75400 0.45100 27.84200
N  25.63900 1.48000 32.11100
C  26.69400 1.47600 33.03200
C  26.16700 1.79400 34.38500
C  24.59800 1.95800 34.25700
C  24.44600 1.84400 32.65200
C  23.81800 0.83200 34.95300
C  26.87100 3.07600 35.03700
C  27.71000 2.90700 36.30900
H  27.22500 3.85800 37.44600
N  23.93300 1.79200 29.54800
C  22.98000 1.90000 30.50600
C  21.68700 2.07400 29.83500
C  21.95100 1.97900 28.47600
C  23.37700 1.67000 28.34600
C  20.37300 2.35800 30.62600
C  20.95300 2.23500 27.34300
O  21.17900 2.36700 26.11600
C  19.51700 1.98900 27.67400
N  26.44600 1.02100 27.73300
C  25.42800 1.08800 26.85800
C  25.91500 0.75400 25.46600
C  27.43900 0.46500 25.59900
C  27.61500 0.63100 27.12900
C  25.31600 -0.48600 24.78400
C  28.32900 1.46600 24.75200
C  29.04400 0.80900 23.52300
N  28.05700 0.87300 30.14000
C  28.98900 0.46500 29.23900
C  30.24800 0.25300 29.98100
C  29.94700 0.43400 31.35000
C  28.59500 0.79900 31.34400
C  31.50000 -0.19600 29.38700
C  30.44900 0.42200 32.64700
O  31.64100 0.27900 33.01600
C  29.21700 0.85400 33.59600
C  28.85700 -0.13400 34.65300
O  28.45500 -1.25900 34.39600
O  29.22700 0.32800 35.85600
C  29.22800 -0.67900 36.96600
H  22.42000 2.26500 32.54800
H  23.49400 1.30700 26.26300
H  29.56700 -0.01500 27.28000
H  26.34500 0.88900 34.96500
H  24.28900 2.96300 34.54300
H  23.88200 -0.06500 34.33700
H  22.78500 1.17800 34.92000
H  24.16500 0.54100 35.94500
H  26.03600 3.71000 35.33600
H  27.43900 3.46800 34.19300
H  28.73700 3.19200 36.08300
H  27.61100 1.89100 36.69200
H  20.02300 3.27100 30.14500
H  20.50300 2.49400 31.70000
H  19.72700 1.48900 30.49300
H  18.98100 1.93800 26.72600
H  19.08500 2.86000 28.16600
H  19.40700 1.08800 28.27900
H  25.56700 1.55700 24.81600
H  27.62500 -0.58000 25.35100
H  26.04100 -1.13100 24.28800
H  24.67300 -0.09900 23.99300
H  24.81500 -1.09500 25.53700
H  29.09500 1.96300 25.34800
H  27.68700 2.27900 24.41500
H  28.81400 1.34800 22.60300
H  28.61000 -0.18900 23.45700
H  30.12400 0.93800 23.58300
H  31.72000 0.23400 28.40900
H  31.32600 -1.26900 29.30100
H  32.39600 -0.17900 30.00800
H  29.44000 1.82800 34.03000
H  28.28900 -0.42300 37.45800
H  30.10000 -0.51500 37.59900
H  29.23200 -1.72900 36.67300
Mg 46.26100 3.67400 48.22400
C  44.57500 6.62900 47.18000
C  43.37900 1.92000 47.62800
C  48.09200 0.94600 48.35300
C  49.22300 5.74100 48.31000
N  44.26400 4.23600 47.44100
C  43.78900 5.51500 47.05000
C  42.31200 5.47100 46.64700
C  41.95700 3.98800 46.99500
C  43.26500 3.32900 47.39500
C  40.73400 3.85700 47.94800
C  41.94900 5.99500 45.22500
C  40.59800 6.86500 45.21500
H  39.66100 6.77900 44.07800
N  45.79600 1.64700 48.05400
C  44.60200 1.14000 47.78800
C  44.67200 -0.27100 47.70100
C  46.05800 -0.64500 47.84000
C  46.76000 0.66800 48.13500
C  43.40400 -1.11800 47.27000
C  46.57900 -2.03000 47.54400
O  45.88300 -2.93100 47.12100
C  48.02300 -2.29200 47.88200
N  48.42200 3.47500 48.33300
C  48.83900 2.20000 48.38200
C  50.37800 2.19900 48.68600
C  50.78900 3.70800 48.44500
C  49.39900 4.37200 48.38700
C  50.67800 1.64500 50.10900
C  51.40500 4.05400 47.01300
C  52.92200 4.08600 46.96300
N  46.79200 5.73900 48.01800
C  48.04400 6.44700 48.03600
C  47.78300 7.90000 47.87600
C  46.43700 7.91800 47.47200
C  45.91900 6.64500 47.56800
C  48.88300 8.86500 47.75200
C  45.42300 8.86200 46.98400
O  45.52100 10.03800 46.71100
C  44.22900 8.02400 46.85000
C  43.16600 8.52800 47.73700
O  43.07600 8.35800 48.97500
O  42.20100 9.22000 47.02700
C  41.21500 10.02200 47.74000
H  42.45300 1.41800 47.34200
H  48.74600 0.07800 48.45300
H  50.08600 6.40300 48.40500
H  41.88300 6.01800 47.48700
H  41.73700 3.36000 46.13200
H  40.24800 4.83000 48.02100
H  40.99600 3.43400 48.91800
H  40.07800 3.18700 47.39200
H  41.65900 5.23200 44.50300
H  42.77800 6.53000 44.76300
H  40.89400 7.90900 45.31300
H  40.05900 6.64900 46.13800
H  43.82100 -1.90100 46.63600
H  42.66200 -0.59700 46.66400
H  42.94900 -1.63600 48.11300
H  48.66600 -1.66100 47.26800
H  48.27400 -3.34300 47.73600
H  48.20900 -2.10000 48.93900
H  50.90300 1.58200 47.95700
H  51.25000 4.24200 49.27500
H  49.79000 1.32900 50.65500
H  51.35100 2.28900 50.67600
H  51.34000 0.79400 49.94600
H  51.05200 4.97800 46.55600
H  51.10700 3.25000 46.33800
H  53.13200 3.49000 46.07500
H  53.32300 3.52800 47.81000
H  53.24900 5.12500 46.98800
H  49.47100 8.62800 46.86600
H  49.57300 8.61600 48.55900
H  48.49600 9.88000 47.84400
H  43.76100 8.15200 45.87400
H  40.43200 9.38200 48.14800
H  40.95000 10.69400 46.92400
H  41.72900 10.54600 48.54500

