158

Mg 46.84700 16.86300 28.04800
C  45.10100 16.20400 31.10500
C  49.10300 18.58200 30.02700
C  48.34300 17.90200 25.28000
C  44.16800 15.69200 26.34900
N  46.98600 17.33900 30.32800
C  46.27800 16.83700 31.42200
C  46.85400 17.38400 32.82200
C  48.00200 18.32700 32.31800
C  48.07300 18.03200 30.81000
C  48.01500 19.82700 32.82900
C  47.24500 16.15600 33.65600
C  46.55300 16.06100 35.06300
H  46.73300 17.21300 36.05900
N  48.49400 17.97200 27.69500
C  49.32100 18.51200 28.62400
C  50.50500 19.04200 27.96700
C  50.39300 18.87600 26.57600
C  49.06100 18.22600 26.43600
C  51.72200 19.51600 28.73900
C  51.30300 19.24200 25.44500
O  51.09900 19.09500 24.23100
C  52.53800 20.02200 25.73000
N  46.45000 16.68000 26.11400
C  47.09900 17.33300 25.11600
C  46.29700 17.20100 23.79200
C  45.10300 16.24600 24.07700
C  45.22500 16.22100 25.61200
C  45.96100 18.60500 23.24700
C  45.35000 14.82400 23.49300
C  44.59200 14.54600 22.23200
N  45.09000 15.94700 28.50600
C  44.09300 15.59300 27.72300
C  42.92800 15.15900 28.50400
C  43.30200 15.34800 29.87400
C  44.63300 15.82800 29.79800
C  41.65200 14.62000 27.89300
C  42.87300 15.22700 31.22300
O  41.82500 14.80900 31.64400
C  44.04700 15.82600 32.10300
C  43.50600 17.00500 32.81400
O  43.15300 18.00900 32.18200
O  43.24600 16.72200 34.13500
C  42.82100 17.91700 34.88400
H  49.83500 19.08300 30.66400
H  48.80300 18.11900 24.31300
H  43.35400 15.25500 25.76700
H  46.08200 17.98400 33.30400
H  48.85500 17.78600 32.72900
H  48.52700 20.14200 33.73800
H  46.96400 20.00400 33.05800
H  48.12200 20.46300 31.95000
H  48.29600 16.12000 33.94300
H  46.97300 15.23100 33.14800
H  47.00500 15.18700 35.53200
H  45.48200 15.86100 35.09400
H  52.59400 18.88600 28.56600
H  51.62000 19.51700 29.82400
H  51.92500 20.53800 28.41900
H  53.17100 19.64200 26.53200
H  52.34300 21.01600 26.13200
H  53.21300 20.18600 24.88900
H  46.97500 16.84000 23.01900
H  44.13000 16.66300 23.81700
H  46.49100 19.32000 23.87700
H  44.88600 18.78200 23.20700
H  46.30300 18.70300 22.21700
H  44.99200 14.07700 24.20200
H  46.43400 14.72500 23.42900
H  44.06000 13.61400 22.42400
H  45.24300 14.39300 21.37100
H  43.94800 15.36600 21.91500
H  40.95100 14.48700 28.71700
H  41.90600 13.65500 27.45500
H  41.25100 15.38100 27.22400
H  44.34400 15.12300 32.88100
H  41.89200 18.31100 34.47200
H  43.55700 18.71400 34.77600
H  42.55100 17.76700 35.93000
Mg 16.75100 51.54200 26.40400
C  18.67500 49.99900 29.02000
C  14.36000 52.30400 28.60100
C  15.03000 52.45100 23.72700
C  19.38500 50.30900 24.13600
N  16.59600 51.16600 28.52600
C  17.48800 50.63300 29.41500
C  17.02500 50.84000 30.89600
C  15.51100 51.32300 30.68700
C  15.47200 51.64100 29.16000
C  14.41500 50.34800 31.17400
C  17.99500 51.88500 31.61600
C  18.45700 51.52700 32.97300
H  17.36000 50.76900 33.89800
N  14.98700 52.31600 26.17300
C  14.12600 52.64200 27.24000
C  12.99000 53.33000 26.69800
C  13.20000 53.43700 25.28700
C  14.49900 52.79100 24.98100
C  11.88500 53.78900 27.58300
C  12.45500 54.21400 24.26300
O  12.82800 54.39400 23.10000
C  11.10400 54.87800 24.67000
N  17.21900 51.32800 24.25300
C  16.25300 51.81200 23.39000
C  16.57200 51.26100 21.97600
C  18.10200 50.99600 22.04500
C  18.33300 50.93400 23.58200
C  15.62800 50.11300 21.58400
C  19.09900 51.99500 21.35500
C  18.76200 53.50100 21.54000
N  18.64700 50.48900 26.53100
C  19.60600 50.07900 25.57000
C  20.69200 49.34500 26.15800
C  20.35400 49.31900 27.51900
C  19.10600 49.94100 27.68200
C  22.01600 48.77100 25.46200
C  20.83200 48.83500 28.74300
O  21.86300 48.21800 28.90400
C  19.86700 49.36000 29.82400
C  19.38300 48.27100 30.51800
O  18.99100 47.27300 29.98900
O  19.45600 48.45500 31.88200
C  18.93400 47.31600 32.62000
H  13.61700 52.58500 29.35100
H  14.35100 52.69600 22.90700
H  20.11400 49.95400 23.40500
H  17.06400 49.92000 31.47800
H  15.28400 52.18000 31.32000
H  13.90900 50.59400 32.10800
H  14.86100 49.36500 31.32400
H  13.76000 50.28200 30.30500
H  17.48300 52.84200 31.71200
H  18.91900 52.06400 31.06600
H  18.78100 52.38800 33.55800
H  19.24200 50.79500 32.78400
H  11.18000 52.98900 27.81000
H  11.38500 54.69200 27.23200
H  12.28600 54.03500 28.56600
H  10.37200 54.17800 25.07300
H  10.77700 55.34100 23.73900
H  11.34200 55.66400 25.38800
H  16.50600 52.12700 21.31700
H  18.32600 50.08900 21.48300
H  15.17200 50.46100 20.65700
H  14.85000 49.92200 22.32300
H  16.23900 49.34800 21.10400
H  18.93900 51.76400 20.30200
H  20.10000 51.66100 21.62700
H  19.64400 54.14000 21.51300
H  18.50600 53.60600 22.59400
H  18.02400 53.90600 20.84700
H  22.21500 49.06200 24.43000
H  21.86000 47.70300 25.31200
H  22.91500 48.90900 26.06200
H  20.34000 50.01200 30.55800
H  17.94300 46.96600 32.33100
H  18.83100 47.64700 33.65400
H  19.70400 46.54500 32.58100

