158

Mg -2.20900 16.93400 26.88600
C  -2.91300 14.68100 29.57600
C  -2.59800 19.50600 29.20600
C  -1.97600 19.07500 24.35500
C  -2.46600 14.21400 24.72100
N  -2.91800 17.08900 29.13300
C  -3.00100 16.00000 30.09400
C  -3.07300 16.41300 31.59400
C  -3.00000 17.98900 31.36400
C  -2.85000 18.19400 29.79900
C  -4.14100 18.84700 32.00300
C  -1.79800 15.93300 32.39000
C  -1.31900 16.72500 33.63200
H  -1.16000 15.89800 34.94400
N  -2.30200 18.94200 26.73800
C  -2.39100 19.81700 27.80100
C  -2.21800 21.17100 27.35300
C  -2.13600 21.10000 25.92900
C  -2.16000 19.68700 25.63900
C  -2.15200 22.29500 28.33300
C  -2.04800 22.19500 24.88400
O  -2.12800 22.05200 23.64700
C  -1.86400 23.61000 25.36200
N  -2.20000 16.61900 24.82300
C  -2.03800 17.70100 23.99500
C  -1.98600 17.23400 22.55900
C  -2.06800 15.66000 22.67400
C  -2.26200 15.46000 24.16600
C  -3.07300 17.64800 21.54300
C  -0.90400 14.86200 22.03600
C  -1.22600 13.90100 20.90100
N  -2.49900 14.85100 27.05400
C  -2.59800 13.92900 26.05200
C  -2.91300 12.64600 26.58900
C  -3.00200 12.87600 27.98400
C  -2.75400 14.23600 28.19900
C  -2.89600 11.35300 25.85700
C  -3.29400 12.26700 29.26300
O  -3.64500 11.09800 29.51600
C  -3.06000 13.37900 30.32600
C  -1.90100 12.92300 31.13300
O  -0.73500 13.29300 31.10700
O  -2.46600 11.99300 32.00300
C  -1.60800 11.43800 33.02700
H  -2.62000 20.34300 29.90700
H  -1.75100 19.63900 23.44800
H  -2.71700 13.35600 24.09400
H  -4.00400 16.12600 32.08300
H  -2.04400 18.30900 31.77800
H  -4.83000 18.16600 32.50300
H  -4.45100 19.42100 31.13000
H  -3.64900 19.49700 32.72700
H  -0.94200 15.73700 31.74400
H  -1.98300 14.90200 32.69000
H  -1.95700 17.59000 33.81500
H  -0.31300 17.12300 33.49900
H  -1.53700 23.08500 27.90100
H  -1.57000 22.04100 29.21900
H  -3.11600 22.71900 28.61500
H  -1.78200 24.10800 24.39600
H  -1.00500 23.72200 26.02300
H  -2.73700 24.01900 25.87200
H  -1.04100 17.53400 22.10500
H  -2.99500 15.30800 22.22200
H  -3.12700 18.72000 21.35000
H  -4.01000 17.29900 21.97600
H  -3.00200 17.18600 20.55800
H  -0.42000 14.24700 22.79500
H  -0.22800 15.65300 21.70900
H  -0.99600 12.89700 21.25900
H  -0.53300 14.14300 20.09600
H  -2.20400 14.06400 20.44800
H  -2.73900 10.64600 26.67200
H  -1.99300 11.23000 25.25800
H  -3.73500 11.30000 25.16200
H  -3.99900 13.38100 30.88000
H  -1.67700 10.35300 32.95300
H  -2.14900 11.57600 33.96300
H  -0.56600 11.75800 32.99600
Mg 26.96200 50.86100 26.77100
C  25.04100 51.86300 29.44300
C  29.57600 50.21500 28.95500
C  28.93200 50.04400 24.10900
C  24.54400 52.05500 24.63400
N  27.29900 51.13600 28.89200
C  26.27700 51.37400 29.76700
C  26.73300 51.24400 31.26200
C  28.26200 50.92900 31.08000
C  28.42800 50.75200 29.56500
C  29.26000 51.98900 31.58100
C  25.85600 50.14800 31.97100
C  25.40100 50.41900 33.42900
H  26.50500 50.85100 34.38200
N  29.04900 50.11500 26.57000
C  29.92400 49.97900 27.62200
C  31.13300 49.44000 26.99400
C  31.02900 49.51200 25.60600
C  29.66000 49.85100 25.36200
C  32.28400 48.95400 27.95700
C  32.15200 49.33100 24.55200
O  32.02000 49.53600 23.36500
C  33.47800 48.81900 25.07100
N  26.78800 51.14100 24.64500
C  27.65900 50.62400 23.79000
C  27.12600 50.65500 22.37900
C  25.73700 51.39900 22.45300
C  25.66400 51.49700 23.96900
C  28.01800 51.33400 21.23100
C  24.66300 50.54100 21.69700
C  23.95300 49.41200 22.46300
N  25.14100 51.83100 26.92400
C  24.31200 52.25200 25.95900
C  23.10800 52.78400 26.55400
C  23.33600 52.70400 27.94400
C  24.56300 52.05000 28.13500
C  21.84600 53.36200 25.86600
C  22.73200 52.88200 29.25000
O  21.60700 53.33900 29.46800
C  23.84800 52.42900 30.32300
C  24.22300 53.54500 31.24700
O  25.02600 54.42200 30.92000
O  23.49300 53.45000 32.39800
C  23.78200 54.58400 33.34900
H  30.31800 49.95900 29.71500
H  29.36800 49.76200 23.14800
H  23.71100 52.27400 23.96200
H  26.53600 52.15700 31.82300
H  28.52400 49.95800 31.50100
H  28.75100 52.74900 32.17300
H  29.60300 52.60500 30.74900
H  30.11000 51.57100 32.12200
H  26.27200 49.14100 32.01000
H  24.96500 50.00800 31.36000
H  24.96200 49.55500 33.92800
H  24.57800 51.13300 33.39400
H  33.14000 49.62200 27.86400
H  32.62500 47.93000 27.80600
H  31.90500 48.87200 28.97500
H  34.03900 49.39200 25.80900
H  34.11800 48.76000 24.19100
H  33.14700 47.86000 25.47000
H  26.94000 49.63500 22.04200
H  25.76900 52.46200 22.21500
H  27.48300 51.95400 20.51300
H  28.31900 50.48300 20.62100
H  28.92600 51.84300 21.55300
H  25.18000 50.03500 20.88100
H  24.00800 51.16500 21.08900
H  24.12600 49.15900 23.50900
H  24.22600 48.49600 21.94100
H  22.93900 49.78100 22.31000
H  21.41800 54.14500 26.49200
H  21.13500 52.54700 25.73200
H  22.20300 53.78400 24.92600
H  23.52100 51.63200 30.99000
H  23.92200 55.46200 32.71800
H  24.71100 54.29000 33.83700
H  22.97500 54.73100 34.06800

