158

Mg 17.53600 -1.16300 27.73300
C  16.65500 0.66400 30.68200
C  19.35000 -3.17900 29.74700
C  18.62600 -2.67000 24.96100
C  15.82800 1.10600 25.84200
N  17.91400 -1.27200 30.01200
C  17.55500 -0.31000 30.93500
C  17.97200 -0.76900 32.35800
C  19.08200 -1.79800 31.94000
C  18.74700 -2.12900 30.49200
C  20.56700 -1.21600 31.99400
C  16.90600 -1.39500 33.32300
C  17.19500 -1.76300 34.79900
H  18.55700 -1.61200 35.37400
N  18.68600 -2.80100 27.38600
C  19.39300 -3.45600 28.37600
C  20.14400 -4.55200 27.75600
C  19.88700 -4.45200 26.39400
C  18.98700 -3.26000 26.16300
C  21.03700 -5.55500 28.65200
C  20.44700 -5.27400 25.25700
O  20.04300 -5.17700 24.07200
C  21.28700 -6.45500 25.65500
N  17.37800 -0.74600 25.64600
C  17.91500 -1.54900 24.64000
C  17.52300 -1.12100 23.19000
C  16.53600 0.06000 23.59000
C  16.50600 0.10200 25.13600
C  18.76400 -0.66000 22.26900
C  15.15900 0.05200 22.82800
C  15.11000 0.60900 21.43500
N  16.38200 0.46800 28.08000
C  15.73900 1.29200 27.25000
C  14.87700 2.20700 28.01800
C  15.16500 1.91600 29.32100
C  16.14900 0.95600 29.35700
C  13.88800 3.13200 27.43600
C  14.90700 2.45100 30.66000
O  14.17100 3.35600 31.05700
C  15.81500 1.54800 31.59700
C  16.60900 2.46000 32.44900
O  17.73500 2.77200 32.05200
O  15.82700 3.05800 33.37000
C  16.45500 4.14200 33.99900
H  20.02500 -3.80300 30.33800
H  18.94700 -3.18700 24.05500
H  15.31300 1.92700 25.33800
H  18.34900 0.08500 32.92000
H  19.06000 -2.72500 32.51300
H  20.66500 -0.23300 32.45400
H  20.91700 -1.14000 30.96500
H  21.26000 -1.80000 32.60100
H  16.58000 -2.28700 32.78800
H  16.01000 -0.77800 33.25000
H  16.95100 -2.81900 34.91600
H  16.49000 -1.16600 35.37800
H  20.85800 -6.57300 28.30500
H  20.73300 -5.56200 29.69800
H  22.10800 -5.36000 28.60200
H  22.05700 -6.14100 26.36000
H  21.79800 -6.67500 24.71800
H  20.63400 -7.27100 25.96600
H  16.92000 -1.96500 22.85600
H  16.92500 1.03700 23.30300
H  18.54100 0.31700 21.84000
H  18.68100 -1.46300 21.53700
H  19.69300 -0.83700 22.81000
H  14.57900 0.70800 23.47800
H  14.81800 -0.96300 23.03000
H  14.67100 1.60700 21.42300
H  14.52100 -0.14000 20.90500
H  16.11900 0.70300 21.03500
H  14.39400 3.63300 26.61100
H  13.59500 3.88300 28.16900
H  12.98800 2.68000 27.02000
H  15.17500 1.03200 32.31300
H  15.62300 4.69100 34.44200
H  16.99400 4.82100 33.33800
H  17.17200 3.84100 34.76200
Mg 0.73200 43.12800 26.13800
C  2.87400 43.43600 28.80300
C  -1.89400 42.46500 28.26500
C  -1.11000 42.56700 23.51600
C  3.62500 43.33300 23.98800
N  0.58500 42.97400 28.28700
C  1.58100 43.18300 29.15300
C  1.01600 43.15700 30.59500
C  -0.42200 42.60100 30.48200
C  -0.63300 42.73200 28.93700
C  -0.67400 41.23700 31.15500
C  1.02500 44.54100 31.32700
C  1.24200 44.52100 32.83400
H  0.93700 43.20400 33.67700
N  -1.23300 42.59500 25.90400
C  -2.15400 42.39600 26.89700
C  -3.41400 42.03900 26.32900
C  -3.20000 42.01000 24.88900
C  -1.76600 42.35800 24.73400
C  -4.69500 41.79400 27.08900
C  -4.15400 41.65800 23.78100
O  -3.93100 41.52700 22.58500
C  -5.59200 41.39700 24.10400
N  1.17700 43.10800 24.00500
C  0.19100 42.90800 23.16600
C  0.67900 43.01400 21.71200
C  2.18200 43.39100 21.84300
C  2.36300 43.28600 23.35800
C  0.40000 41.74800 20.88300
C  2.52100 44.74300 21.15800
C  2.26900 45.99000 22.11100
N  2.87700 43.27200 26.37700
C  3.86400 43.34600 25.39600
C  5.13100 43.54800 26.05800
C  4.82300 43.60100 27.43000
C  3.38600 43.45200 27.47800
C  6.41700 43.69600 25.34200
C  5.40000 43.77300 28.74900
O  6.54600 43.93700 29.12900
C  4.12700 43.61200 29.72400
C  4.43900 42.44100 30.55300
O  4.71000 41.34400 30.14600
O  4.46400 42.80000 31.92400
C  4.99400 41.80200 32.80200
H  -2.80300 42.23900 28.82700
H  -1.68100 42.40100 22.60100
H  4.43500 43.45900 23.26600
H  1.58500 42.46600 31.21600
H  -1.08800 43.33900 30.92700
H  -1.40600 41.25400 31.96200
H  0.23800 40.77000 31.53000
H  -1.19000 40.59600 30.44000
H  0.11300 45.05900 31.03100
H  1.86800 45.17800 31.06200
H  0.56900 45.28400 33.22400
H  2.18800 44.95800 33.15400
H  -5.43900 42.53600 26.79900
H  -4.65900 41.82900 28.17800
H  -4.96900 40.75300 26.91700
H  -5.68700 40.63800 24.88100
H  -6.00600 40.88400 23.23500
H  -6.02400 42.38000 24.28700
H  0.13100 43.89600 21.38100
H  2.81400 42.56700 21.51300
H  1.28700 41.38100 20.36600
H  -0.30900 41.89800 20.06900
H  0.11300 40.99900 21.62100
H  1.99500 44.89600 20.21600
H  3.57800 44.63300 20.91700
H  1.70100 46.74300 21.56400
H  3.19100 46.47700 22.42600
H  1.76600 45.85000 23.06800
H  6.39500 43.67800 24.25300
H  7.01500 42.82900 25.62300
H  6.79900 44.65000 25.70600
H  4.10600 44.46300 30.40400
H  4.14500 41.41300 33.36400
H  5.71400 42.21600 33.50800
H  5.42800 40.95100 32.27800

