158

Mg 3.79400 -0.55300 43.41700
C  7.20300 0.04100 43.10400
C  3.12400 2.22800 41.59300
C  0.50600 -1.59200 43.07000
C  4.52600 -3.73700 44.67500
N  5.06500 0.87600 42.52200
C  6.45900 1.02000 42.48000
C  6.95600 2.24500 41.77400
C  5.56600 3.07300 41.76800
C  4.47200 2.01900 41.96800
C  5.39400 4.20200 42.82800
C  7.61000 1.99300 40.39700
C  7.27500 0.71200 39.60000
H  6.25200 0.78900 38.47000
N  2.03900 0.29000 42.46800
C  1.96600 1.49000 41.88900
C  0.63000 1.79900 41.56300
C  -0.23400 0.73800 42.02900
C  0.76600 -0.29700 42.55600
C  0.18300 3.08100 40.99900
C  -1.75700 0.65800 42.02200
O  -2.44100 1.56400 41.55900
C  -2.57700 -0.44900 42.49600
N  2.65900 -2.37500 43.82600
C  1.34900 -2.53000 43.58200
C  0.88100 -4.00300 43.95900
C  2.25500 -4.72200 44.29300
C  3.23600 -3.53300 44.25500
C  -0.11900 -4.10600 45.21000
C  2.67900 -5.91300 43.28700
C  2.89300 -7.19300 44.05200
N  5.42700 -1.60300 44.06100
C  5.58200 -2.84200 44.60200
C  6.99400 -3.13300 45.03700
C  7.66900 -2.04100 44.45400
C  6.69200 -1.11400 43.87300
C  7.51400 -4.31900 45.75200
C  9.02000 -1.46600 44.12200
O  10.16400 -1.80000 44.37400
C  8.75100 -0.11400 43.28000
C  9.37800 1.07000 43.92700
O  9.86000 2.02400 43.29700
O  9.21900 1.12000 45.28600
C  9.55900 2.32100 45.98800
H  3.03900 3.16200 41.03300
H  -0.51400 -1.92200 43.27600
H  4.66400 -4.71100 45.15000
H  7.70900 2.70700 42.41200
H  5.54200 3.62300 40.82700
H  5.20400 5.19400 42.41700
H  6.36500 4.36200 43.29900
H  4.57300 4.08100 43.53400
H  8.69700 1.92200 40.43500
H  7.48200 2.83100 39.71100
H  6.73700 0.05900 40.28800
H  8.22500 0.23000 39.36900
H  1.00100 3.46900 40.39100
H  0.08300 3.84400 41.77100
H  -0.66500 3.08300 40.31500
H  -2.47800 -0.73000 43.54500
H  -2.19400 -1.27200 41.89300
H  -3.63900 -0.30000 42.30300
H  0.49000 -4.48800 43.06500
H  2.28300 -5.09200 45.31800
H  0.14500 -5.03900 45.70900
H  -1.17800 -4.12200 44.95500
H  0.02500 -3.27700 45.90200
H  3.49700 -5.62700 42.62500
H  1.84500 -6.06800 42.60200
H  3.31400 -7.95900 43.40100
H  1.99400 -7.47600 44.60100
H  3.68300 -7.05500 44.79100
H  8.57600 -4.35700 45.99100
H  7.23700 -5.14900 45.10200
H  6.90600 -4.46100 46.64500
H  9.27400 -0.06200 42.32500
H  9.24100 2.10500 47.00800
H  8.88500 3.11300 45.66200
H  10.61700 2.55000 45.85700
Mg 47.60800 15.97700 28.61800
C  45.34800 15.61300 31.30700
C  49.33400 18.16300 30.52000
C  49.50500 16.70800 25.87900
C  45.50000 13.99900 26.59400
N  47.36000 16.67000 30.65500
C  46.40600 16.43400 31.68400
C  46.80200 17.06800 32.97000
C  47.88900 18.07500 32.55300
C  48.19800 17.62800 31.13100
C  47.49500 19.61300 32.69000
C  47.26400 16.16800 34.17100
C  47.57300 16.98300 35.48500
H  48.60600 16.37000 36.47800
N  49.20000 17.24300 28.28300
C  49.81200 18.01500 29.22200
C  50.97000 18.79700 28.63800
C  51.04400 18.35700 27.24800
C  49.88900 17.36900 27.06100
C  51.78000 19.80300 29.42500
C  51.94700 18.81800 26.09900
O  51.96400 18.24000 25.00500
C  52.67000 20.06000 26.22800
N  47.50800 15.38100 26.57800
C  48.43600 15.78700 25.63600
C  48.30700 14.99200 24.29900
C  47.22000 13.91800 24.67800
C  46.74100 14.43600 26.06100
C  47.92000 15.96900 23.10600
C  47.74000 12.47000 24.64000
C  48.88900 12.04300 23.71700
N  45.82600 15.07400 28.85200
C  45.00600 14.38300 27.92700
C  43.77400 13.96800 28.56100
C  43.91900 14.36800 29.87500
C  45.11600 15.03600 30.02600
C  42.62600 13.24300 28.02600
C  43.24800 14.41100 31.15900
O  42.12700 14.00700 31.49500
C  44.19700 15.13700 32.21400
C  43.47000 16.19300 32.86800
O  42.73300 16.99700 32.30300
O  43.86000 16.28800 34.19400
C  43.12200 17.36000 34.92000
H  49.92100 18.89200 31.08300
H  50.13400 16.72100 24.98600
H  44.95100 13.31000 25.94900
H  46.00300 17.67900 33.38900
H  48.81100 17.98200 33.12700
H  46.44800 19.81400 32.91900
H  47.77600 20.24800 31.85100
H  48.05900 19.95400 33.55800
H  48.24600 15.80900 33.86500
H  46.63200 15.32500 34.45200
H  46.61300 17.02700 36.00000
H  47.95400 17.99100 35.32100
H  51.48300 19.97700 30.45900
H  51.82900 20.85300 29.13700
H  52.82400 19.49200 29.46400
H  52.00700 20.90500 26.41300
H  53.09200 20.28100 25.24700
H  53.56100 19.94300 26.84500
H  49.31200 14.62600 24.09000
H  46.36400 14.00000 24.00800
H  46.95900 15.68000 22.67900
H  48.69300 15.93700 22.33900
H  47.87200 17.04200 23.29200
H  46.90400 11.79600 24.45800
H  48.15300 12.25100 25.62400
H  48.58800 11.17200 23.13400
H  49.76000 11.72500 24.28800
H  49.33200 12.78300 23.05000
H  42.96600 12.82000 27.08100
H  41.81500 13.96000 27.89200
H  42.19200 12.52000 28.71700
H  44.58000 14.44500 32.96400
H  43.55600 17.29400 35.91800
H  42.03700 17.32000 35.01600
H  43.36400 18.33900 34.50500

