158

Mg -1.98100 16.98000 27.23700
C  -2.51500 14.86800 29.93500
C  -2.64300 19.61500 29.18700
C  -1.85900 18.95500 24.36300
C  -2.14000 14.16300 25.03100
N  -2.46800 17.22700 29.29200
C  -2.48100 16.21400 30.24900
C  -2.63400 16.84700 31.73300
C  -2.75100 18.40800 31.44500
C  -2.73600 18.42700 29.86500
C  -4.04600 19.07300 31.94600
C  -1.51200 16.31000 32.70100
C  -1.18000 17.29300 33.86000
H  -0.41300 16.68100 35.07100
N  -2.17900 18.99300 26.84500
C  -2.41000 19.93900 27.82300
C  -2.23600 21.28500 27.22300
C  -2.02200 21.11100 25.81000
C  -1.96600 19.60400 25.60700
C  -2.44900 22.59900 28.00300
C  -1.75000 22.20500 24.84200
O  -1.42800 21.97600 23.73700
C  -1.69700 23.72800 25.26400
N  -2.09500 16.61800 25.01500
C  -1.92200 17.62300 24.07100
C  -2.05000 17.12500 22.61000
C  -1.99100 15.59100 22.81600
C  -2.04100 15.43200 24.34300
C  -3.34100 17.63300 21.81800
C  -0.69900 14.88100 22.16600
C  0.70500 15.23900 22.65300
N  -2.14500 14.90600 27.37600
C  -2.20100 13.88900 26.45600
C  -2.38700 12.66700 27.11300
C  -2.54600 12.90400 28.49200
C  -2.33900 14.31800 28.57400
C  -2.54500 11.33900 26.38900
C  -2.70900 12.33700 29.81600
O  -2.85600 11.18000 30.15500
C  -2.76900 13.61900 30.82800
C  -1.64900 13.31000 31.85000
O  -0.45900 13.57100 31.64400
O  -2.04100 12.82300 33.08800
C  -1.08400 12.75600 34.23600
H  -2.65600 20.43900 29.90300
H  -1.85600 19.63400 23.50800
H  -2.31000 13.26900 24.42900
H  -3.56300 16.42200 32.11300
H  -1.83600 18.90900 31.76300
H  -3.68900 19.91400 32.54100
H  -4.66400 18.38700 32.52400
H  -4.73600 19.46300 31.19700
H  -0.59100 16.08500 32.16500
H  -1.85300 15.44200 33.26500
H  -2.01500 17.94900 34.10500
H  -0.48500 17.98700 33.38500
H  -1.71600 23.37500 27.78100
H  -2.45300 22.35400 29.06500
H  -3.42800 22.96700 27.69600
H  -1.77000 24.39600 24.40600
H  -0.74200 23.90000 25.76000
H  -2.56300 23.97700 25.87700
H  -1.11500 17.33900 22.09200
H  -2.90700 15.14200 22.43100
H  -3.89100 18.12600 22.62000
H  -3.88800 16.79800 21.38100
H  -3.09600 18.28000 20.97500
H  -0.89800 15.12000 21.12200
H  -0.93400 13.81600 22.16100
H  0.68700 16.15700 23.24000
H  1.47400 15.25300 21.88000
H  1.08400 14.43800 23.28700
H  -2.73600 11.51100 25.33000
H  -3.21000 10.62300 26.87200
H  -1.55900 10.87500 26.38100
H  -3.66200 13.61300 31.45400
H  -0.53800 13.69800 34.30200
H  -0.33400 11.98400 34.06800
H  -1.52900 12.50300 35.19800
Mg -5.48900 24.51800 27.04300
C  -4.18900 26.12900 29.88400
C  -7.33200 22.44500 29.07500
C  -6.67700 23.03500 24.23900
C  -3.46500 26.56600 24.97200
N  -5.74000 24.37900 29.16800
C  -5.13700 25.15700 30.17100
C  -5.78700 24.77900 31.52900
C  -6.44900 23.43900 31.31800
C  -6.54400 23.34300 29.77000
C  -5.81100 22.20000 31.92700
C  -6.76800 25.93400 32.01800
C  -6.99200 26.22100 33.58800
H  -6.60400 25.21500 34.66900
N  -6.96900 23.06000 26.68800
C  -7.64400 22.38000 27.63500
C  -8.57500 21.49100 26.99200
C  -8.48500 21.72100 25.62000
C  -7.31600 22.61100 25.43100
C  -9.48200 20.55600 27.81700
C  -9.31900 21.05700 24.43600
O  -9.09700 21.31700 23.27800
C  -10.31800 19.99000 24.91500
N  -5.01400 24.64500 24.91200
C  -5.69400 23.89100 23.94000
C  -5.10600 24.20900 22.54700
C  -4.07900 25.42500 22.89100
C  -4.22100 25.61800 24.35600
C  -4.45000 23.01700 21.84600
C  -4.27600 26.69200 21.97500
C  -2.98200 27.26700 21.39500
N  -3.88600 25.91500 27.32600
C  -3.37300 26.82000 26.38800
C  -2.58700 27.82000 27.12100
C  -2.85800 27.56000 28.51000
C  -3.70900 26.39300 28.60700
C  -1.71300 28.94300 26.50900
C  -2.53800 28.06900 29.81800
O  -1.82100 28.95900 30.21900
C  -3.44400 27.16000 30.76800
C  -2.58700 26.50600 31.79600
O  -1.56200 25.90300 31.55900
O  -3.22800 26.68600 33.00000
C  -2.48700 26.11200 34.13700
H  -7.76700 21.63400 29.66400
H  -7.13400 22.56400 23.36700
H  -3.00800 27.40400 24.44200
H  -4.98100 24.68100 32.25700
H  -7.50100 23.39200 31.60000
H  -5.31300 22.54900 32.83200
H  -5.09100 21.86500 31.18100
H  -6.43600 21.33400 32.14600
H  -7.74500 25.62700 31.64500
H  -6.53000 26.94200 31.67900
H  -8.04600 26.48700 33.66700
H  -6.53500 27.19900 33.74000
H  -10.52300 20.52000 27.49500
H  -9.52400 20.80900 28.87700
H  -9.13200 19.52400 27.83800
H  -11.09700 20.49200 25.49000
H  -9.77200 19.20500 25.43900
H  -10.73000 19.56600 24.00000
H  -5.91800 24.64500 21.96500
H  -3.05100 25.07100 22.80300
H  -3.45900 23.33300 21.52000
H  -5.11800 22.65400 21.06500
H  -4.15900 22.22600 22.53700
H  -4.79100 27.47500 22.53200
H  -5.02300 26.56700 21.19100
H  -3.05300 27.58600 20.35500
H  -2.25200 26.45800 21.39600
H  -2.51800 28.04500 22.00100
H  -0.83500 28.60100 25.96100
H  -1.61600 29.65300 27.33000
H  -2.36800 29.42800 25.78500
H  -4.18500 27.72600 31.33300
H  -1.44300 26.42400 34.17700
H  -2.43300 25.03200 34.00300
H  -3.01600 26.30600 35.07100

