158

Mg 5.73300 54.63900 40.93000
C  5.25900 51.22200 41.21900
C  8.81000 54.15600 39.76400
C  5.74200 57.89300 39.93100
C  2.27400 55.06700 41.89700
N  6.78100 52.81600 40.18400
C  6.48100 51.54100 40.55200
C  7.62900 50.66200 40.04900
C  8.81300 51.57600 40.29300
C  8.12500 52.96000 40.16000
C  9.62700 51.40200 41.61400
C  7.49800 50.19400 38.50200
C  6.51600 50.96100 37.50000
H  7.10300 51.88800 36.42900
N  7.11900 55.90600 40.02900
C  8.39600 55.47400 39.59500
C  9.01700 56.58600 38.81500
C  8.00400 57.64000 38.73400
C  6.88800 57.19600 39.62600
C  10.31400 56.57800 38.16900
C  8.15400 58.96300 37.87700
O  9.17700 59.21200 37.28400
C  7.16800 60.06900 37.96500
N  4.26200 56.34400 41.00900
C  4.54100 57.55800 40.59700
C  3.39600 58.49400 40.86800
C  2.40900 57.63700 41.63400
C  2.95000 56.26000 41.51800
C  3.68800 59.91200 41.45900
C  0.91100 57.73900 41.03700
C  0.14000 59.14800 41.08700
N  4.02100 53.42200 41.49800
C  2.76800 53.72800 41.84900
C  2.07100 52.43400 42.08600
C  3.05800 51.46000 41.93900
C  4.21400 52.09000 41.46700
C  0.64400 52.19700 42.57900
C  3.25600 50.07500 42.12100
O  2.50400 49.20800 42.53900
C  4.64000 49.80500 41.47100
C  4.45100 49.15900 40.15200
O  3.57400 49.40700 39.33200
O  5.32500 48.10100 40.13300
C  5.03900 47.07000 39.12300
H  9.87400 54.05000 39.54200
H  5.67800 58.93400 39.60800
H  1.29100 55.31000 42.30800
H  7.69700 49.74900 40.64100
H  9.58900 51.44900 39.53800
H  9.55400 52.22300 42.32700
H  10.67000 51.19900 41.37100
H  9.26300 50.52200 42.14300
H  7.22400 49.13900 38.46700
H  8.52000 50.27000 38.13100
H  5.76900 51.52600 38.05700
H  5.88900 50.20400 37.02900
H  10.92400 57.31900 38.68700
H  10.24900 56.86100 37.11800
H  10.73200 55.57400 38.24700
H  6.29700 59.66700 37.44700
H  7.63200 60.89400 37.42400
H  7.00200 60.52600 38.94100
H  2.83600 58.73400 39.96400
H  2.29400 57.91200 42.68200
H  3.19800 60.00700 42.42700
H  3.19100 60.63800 40.81500
H  4.77500 59.99000 41.49500
H  0.30900 56.97200 41.52500
H  0.93600 57.37900 40.00800
H  -0.93200 59.02900 40.93000
H  0.60600 59.85400 40.39900
H  0.35400 59.46300 42.10800
H  0.75600 51.74300 43.56400
H  0.10200 51.54000 41.89900
H  0.04600 53.09200 42.75100
H  5.31800 49.22200 42.09400
H  5.45800 46.10700 39.41400
H  5.61300 47.34700 38.23800
H  3.96500 46.99200 38.95400
Mg -10.91900 16.66400 40.50700
C  -7.44200 16.53000 40.52500
C  -10.66700 20.07600 39.91700
C  -14.34300 16.89000 39.92000
C  -10.99700 13.26800 40.09500
N  -9.30900 18.08900 40.38200
C  -7.96700 17.84900 40.39800
C  -7.12900 19.08500 40.16400
C  -8.16300 20.22200 40.54000
C  -9.46900 19.42600 40.22300
C  -8.10000 20.75800 42.08300
C  -6.63300 19.08900 38.70100
C  -5.08700 19.00800 38.43900
H  -4.68200 18.23000 37.21800
N  -12.33500 18.35300 40.03500
C  -12.06500 19.65600 39.86600
C  -13.22400 20.50300 39.68600
C  -14.31900 19.58700 39.91400
C  -13.71900 18.19300 39.95200
C  -13.09200 22.02100 39.35900
C  -15.76600 19.97600 39.88900
O  -15.93700 21.20100 39.84900
C  -16.96300 19.07300 40.01300
N  -12.43900 15.30300 40.12900
C  -13.72800 15.59000 39.91400
C  -14.59600 14.38500 39.76800
C  -13.49900 13.22400 39.67300
C  -12.23700 13.97100 40.01700
C  -15.71400 14.26800 40.84900
C  -13.44000 12.62400 38.23100
C  -12.70300 11.19000 38.10900
N  -9.56000 15.16700 40.56100
C  -9.74000 13.79500 40.33800
C  -8.40100 13.11900 40.23400
C  -7.52400 14.18200 40.28500
C  -8.23200 15.34200 40.48700
C  -8.13300 11.69600 40.00300
C  -6.09600 14.46700 40.24500
O  -5.11300 13.70300 40.04500
C  -6.03100 15.96700 40.55800
C  -5.22600 16.08600 41.81400
O  -5.34800 15.39500 42.83500
O  -4.36700 17.21000 41.66300
C  -3.58300 17.56900 42.88000
H  -10.52100 21.14300 39.73500
H  -15.43500 16.89200 39.93600
H  -11.05200 12.20000 39.87500
H  -6.24800 19.26600 40.78000
H  -8.02900 21.08300 39.88600
H  -8.93700 20.35500 42.65300
H  -7.98300 21.83800 42.16700
H  -7.15000 20.50400 42.55300
H  -6.99700 20.01600 38.25800
H  -7.01200 18.24900 38.11900
H  -4.61300 18.57200 39.31800
H  -4.61900 19.97900 38.27800
H  -13.12700 22.03600 38.27000
H  -12.13000 22.46700 39.61400
H  -13.80700 22.70200 39.82200
H  -17.82300 19.71900 40.18800
H  -16.87200 18.36600 40.83700
H  -16.94600 18.62100 39.02100
H  -15.11900 14.40800 38.81200
H  -13.57400 12.50200 40.48600
H  -15.93000 13.20000 40.79800
H  -16.62600 14.72900 40.46800
H  -15.28800 14.45600 41.83400
H  -12.84100 13.33500 37.66100
H  -14.41600 12.46500 37.77300
H  -12.94600 10.76700 39.08300
H  -11.65700 11.22500 37.80400
H  -13.20300 10.44600 37.48900
H  -8.25100 11.10100 40.90900
H  -7.09200 11.55300 39.71400
H  -8.72000 11.15500 39.26000
H  -5.37900 16.27700 39.74100
H  -2.72100 18.03300 42.39900
H  -3.22800 16.68400 43.40800
H  -3.92400 18.31300 43.59900

