158

Mg 2.61100 -1.32000 43.59100
C  5.97400 -0.46100 43.19300
C  1.86400 1.59600 41.81300
C  -0.41400 -2.54100 43.05700
C  3.71600 -4.49700 44.73300
N  3.78700 0.34300 42.71100
C  5.10900 0.47400 42.67900
C  5.55000 1.67500 41.78200
C  4.26800 2.45200 41.52500
C  3.22300 1.39300 42.02600
C  4.17600 3.83000 42.16500
C  6.15700 1.14000 40.45500
C  6.88100 2.23500 39.63300
H  6.24700 2.73200 38.42000
N  0.94600 -0.47200 42.82600
C  0.82700 0.79100 42.25500
C  -0.51100 1.12600 42.10500
C  -1.24300 -0.01100 42.50100
C  -0.29300 -1.10800 42.79700
C  -1.01700 2.44400 41.62300
C  -2.77500 -0.21100 42.61900
O  -3.58600 0.64300 42.23300
C  -3.42700 -1.37400 43.21900
N  1.87200 -3.39000 43.56000
C  0.48100 -3.50200 43.45000
C  0.18000 -5.03700 43.72000
C  1.56300 -5.65600 44.29500
C  2.41100 -4.44100 44.21800
C  -1.06200 -5.36800 44.69200
C  2.19700 -6.80300 43.43800
C  2.81300 -7.93000 44.30800
N  4.40600 -2.21100 44.16400
C  4.66300 -3.47000 44.57000
C  6.09500 -3.53200 44.87000
C  6.67200 -2.38500 44.39700
C  5.61300 -1.62800 43.87000
C  6.82500 -4.64900 45.52400
C  7.93300 -1.57600 44.21800
O  9.09500 -1.70200 44.62900
C  7.44500 -0.28900 43.40200
C  7.80300 0.83600 44.25000
O  7.17700 1.15900 45.22500
O  8.92900 1.48600 43.81400
C  9.37000 2.73200 44.56400
H  1.63800 2.55300 41.33600
H  -1.42100 -2.96100 43.04200
H  4.16600 -5.44100 45.04500
H  6.29300 2.24100 42.34500
H  4.01000 2.65800 40.48600
H  5.04500 4.06800 42.77900
H  3.27900 3.91500 42.77800
H  4.04400 4.56200 41.36800
H  5.37000 0.75900 39.80400
H  6.83900 0.30300 40.59800
H  7.82600 1.76200 39.36800
H  7.14900 3.06900 40.28100
H  -0.62200 2.56500 40.61400
H  -0.62800 3.10300 42.39900
H  -2.10400 2.42800 41.69700
H  -4.49900 -1.20000 43.30600
H  -3.17100 -1.66400 44.23800
H  -3.19100 -2.18800 42.53500
H  -0.02800 -5.27800 42.67700
H  1.47700 -5.98200 45.33200
H  -1.33000 -4.61700 45.43600
H  -0.95700 -6.30100 45.24500
H  -1.84200 -5.53000 43.94800
H  3.00200 -6.50200 42.76800
H  1.37400 -7.20000 42.84500
H  3.84300 -8.20500 44.07900
H  2.14600 -8.78800 44.23200
H  2.70700 -7.69600 45.36800
H  6.99900 -5.49800 44.86400
H  6.34500 -5.03500 46.42400
H  7.85200 -4.30900 45.65900
H  7.96000 -0.23800 42.44200
H  10.41700 2.64200 44.85500
H  9.00300 2.78800 45.58800
H  9.29100 3.70000 44.07100
Mg 31.12600 58.45200 40.29600
C  28.18800 56.88500 39.44400
C  32.84500 55.58600 39.40200
C  33.96800 60.20100 39.86700
C  29.26600 61.38600 40.54300
N  30.60600 56.46300 39.47400
C  29.32100 56.03900 39.24800
C  29.37300 54.55100 38.83800
C  30.76000 54.13900 39.28000
C  31.48500 55.49500 39.37600
C  30.73900 53.45600 40.66100
C  29.07300 54.37600 37.31800
C  27.78000 53.77500 36.80000
H  27.04600 54.59100 35.74900
N  33.15400 57.94100 39.74300
C  33.64500 56.70600 39.43100
C  35.07500 56.78100 39.17300
C  35.40000 58.14400 39.28600
C  34.16300 58.80600 39.69000
C  35.89100 55.54000 38.81000
C  36.76000 58.75100 39.11800
O  37.72000 58.05300 38.81500
C  37.00800 60.16300 39.51800
N  31.56400 60.46800 40.27500
C  32.82000 60.96500 40.12600
C  32.77800 62.53600 40.03200
C  31.24600 62.88100 40.08300
C  30.61600 61.53500 40.44000
C  33.70600 63.36900 40.94200
C  30.60800 63.54300 38.75900
C  29.84800 64.87600 38.93800
N  29.05300 59.05800 40.22400
C  28.43700 60.25000 40.45600
C  27.03300 60.07600 40.34400
C  26.88200 58.75700 39.96000
C  28.15300 58.16600 39.95600
C  26.04900 61.18700 40.49700
C  25.94700 57.78300 39.47300
O  24.75700 57.97400 39.21200
C  26.72900 56.45000 39.26800
C  26.05600 55.45700 40.18900
O  26.13200 55.41500 41.37900
O  25.35900 54.55200 39.47200
C  24.57800 53.53900 40.18200
H  33.35500 54.63800 39.21900
H  34.74800 60.92500 39.62000
H  28.71800 62.28900 40.81800
H  28.64200 53.98400 39.41400
H  31.16800 53.51400 38.48600
H  30.01400 52.64500 40.72900
H  30.52900 54.15800 41.46700
H  31.72300 53.01000 40.81000
H  29.86000 53.77200 36.86600
H  29.26800 55.28800 36.75200
H  27.15600 53.75200 37.69300
H  28.04600 52.77900 36.44600
H  36.25400 55.79400 37.81500
H  35.36000 54.59200 38.73500
H  36.69400 55.44700 39.54200
H  36.67800 60.81900 38.71300
H  38.08800 60.30800 39.53500
H  36.69700 60.44000 40.52600
H  33.04000 62.71100 38.98800
H  31.00000 63.54100 40.91500
H  33.97300 62.70000 41.76000
H  33.18900 64.12800 41.52900
H  34.45600 63.98200 40.44200
H  29.91600 62.87800 38.24200
H  31.39400 63.78200 38.04300
H  29.94400 65.20800 39.97200
H  28.85500 64.81500 38.49300
H  30.38100 65.64100 38.37300
H  25.04700 60.84900 40.76100
H  26.04700 61.74000 39.55800
H  26.33500 61.73400 41.39500
H  26.66900 56.06700 38.24900
H  23.82200 53.83800 40.90900
H  25.29900 52.93200 40.72900
H  24.14600 52.87800 39.43100

