158

Mg 35.31200 1.77000 29.74500
C  32.91600 2.46900 32.18200
C  37.78100 2.43300 32.23000
C  37.76800 1.53300 27.42400
C  32.95600 2.24900 27.30700
N  35.31000 2.20200 31.93100
C  34.23500 2.42000 32.68400
C  34.60300 2.48700 34.15900
C  36.11000 2.66400 34.13300
C  36.46300 2.35900 32.68600
C  36.58900 4.15200 34.51200
C  33.98200 1.34800 35.05300
C  33.04000 1.85600 36.19400
H  33.60700 3.10200 36.93800
N  37.49000 1.77200 29.83200
C  38.30400 2.18500 30.92800
C  39.66200 1.84700 30.61200
C  39.69900 1.67500 29.17500
C  38.30100 1.56300 28.71000
C  40.80500 1.87600 31.62100
C  40.93200 1.56300 28.25300
O  40.81900 1.34700 27.05300
C  42.33300 1.53700 28.77500
N  35.38000 1.71800 27.65600
C  36.46600 1.61800 26.94100
C  36.08900 1.57500 25.42700
C  34.52900 1.62800 25.45200
C  34.25000 1.85300 26.88100
C  36.82400 2.63600 24.54200
C  33.82800 0.36500 24.93100
C  32.53100 0.50900 24.14600
N  33.34500 2.22800 29.69800
C  32.53500 2.28400 28.62500
C  31.20000 2.64500 29.13400
C  31.31600 2.66600 30.48900
C  32.61000 2.42400 30.80300
C  29.97300 2.84400 28.32500
C  30.52000 2.79100 31.70300
O  29.34700 3.07300 31.99300
C  31.58500 2.77900 32.87000
C  31.59000 4.12800 33.48800
O  32.11100 5.15200 33.09000
O  30.75700 4.18600 34.59000
C  30.41000 5.49900 35.15700
H  38.51800 2.67300 32.99900
H  38.41400 1.70500 26.56000
H  32.21200 2.31600 26.51000
H  34.17000 3.41200 34.54100
H  36.57100 1.96600 34.83200
H  35.76100 4.76100 34.87700
H  37.16600 4.56800 33.68700
H  37.18800 3.95500 35.40200
H  34.88400 0.85700 35.41900
H  33.45300 0.63000 34.42600
H  32.87100 1.12300 36.98300
H  31.99800 2.10400 35.99400
H  41.56400 2.59300 31.30800
H  41.25000 0.88100 31.61300
H  40.51100 2.12900 32.64000
H  42.36700 0.83600 29.60800
H  42.56600 2.51600 29.19500
H  43.12200 1.19700 28.10400
H  36.43400 0.60700 25.06300
H  34.20300 2.54900 24.96800
H  37.59100 2.04700 24.03900
H  37.44500 3.33200 25.10600
H  36.27100 3.17500 23.77300
H  33.81900 -0.25100 25.83000
H  34.51100 -0.24800 24.34300
H  31.80200 -0.27700 24.34700
H  32.71300 0.42300 23.07500
H  32.11300 1.48200 24.40200
H  29.54100 3.84500 28.32700
H  29.39200 2.13200 28.91100
H  30.11600 2.46000 27.31500
H  31.23400 2.00200 33.55000
H  29.52300 5.44600 35.78800
H  30.29900 6.17100 34.30600
H  31.15900 5.95600 35.80400
Mg 47.34200 34.42300 27.34800
C  46.08100 32.57600 30.18800
C  47.29400 37.12000 29.22200
C  47.95500 35.96300 24.53700
C  46.82100 31.44300 25.48000
N  46.76800 34.77000 29.45000
C  46.40900 33.90900 30.48000
C  46.59800 34.60600 31.87100
C  46.62900 36.08300 31.44600
C  46.91000 35.99100 29.91400
C  45.37500 36.87400 31.77600
C  47.94700 34.08500 32.47800
C  47.94600 33.99800 34.06000
H  47.15200 35.06000 34.81200
N  47.59100 36.30500 27.00900
C  47.67000 37.26200 27.90200
C  48.01400 38.50100 27.22300
C  48.21300 38.14700 25.80500
C  47.87100 36.70700 25.69800
C  48.06400 39.85600 27.97400
C  48.59100 38.99900 24.61200
O  48.81700 38.62200 23.49300
C  48.86700 40.48100 24.91100
N  47.45900 33.76100 25.20200
C  47.75800 34.65800 24.30300
C  48.25000 33.93300 22.97200
C  47.78600 32.43700 23.25600
C  47.34700 32.46800 24.69200
C  47.56800 34.54300 21.70100
C  48.93900 31.33900 23.20600
C  48.45400 29.87700 22.99500
N  46.65400 32.37100 27.66400
C  46.43100 31.35600 26.82000
C  45.89000 30.19300 27.51400
C  45.71200 30.60100 28.87200
C  46.10900 31.94400 28.85400
C  45.61400 28.86400 26.93400
C  45.32900 30.21200 30.21400
O  44.98500 29.08500 30.60000
C  45.43900 31.56400 31.08100
C  45.91600 31.34500 32.38600
O  47.08100 31.06400 32.80400
O  44.87800 31.45200 33.26200
C  45.13900 31.17300 34.66700
H  47.32500 37.98100 29.89200
H  48.26100 36.35900 23.56600
H  46.70900 30.45500 25.02900
H  45.70300 34.29900 32.41200
H  47.42500 36.57300 32.00700
H  45.22200 36.66500 32.83500
H  44.65000 36.43000 31.09400
H  45.79800 37.85800 31.57400
H  48.71700 34.81400 32.22500
H  48.25100 33.12100 32.07100
H  48.97700 34.11000 34.39400
H  47.58900 33.02300 34.39200
H  47.76300 40.68900 27.34000
H  49.08200 40.11500 28.26400
H  47.42000 39.93400 28.85100
H  49.51200 40.60600 25.78100
H  47.91000 40.98200 25.05500
H  49.35900 40.87500 24.02200
H  49.32300 34.08100 22.84900
H  46.95900 32.15600 22.60300
H  47.64200 35.62900 21.64300
H  46.49800 34.33900 21.65300
H  48.04900 34.24300 20.77000
H  49.30800 31.23800 24.22600
H  49.83700 31.58300 22.63800
H  48.85400 29.43800 22.08000
H  47.40200 30.06200 22.78000
H  48.59200 29.27200 23.89100
H  46.23100 28.67100 26.05600
H  44.58300 28.76300 26.59400
H  45.77100 28.05200 27.64300
H  44.42000 31.93400 31.19100
H  45.06800 32.18500 35.06600
H  46.00500 30.56900 34.93800
H  44.22300 30.70800 35.03200

