158

Mg 46.69300 44.58300 44.38700
C  43.25500 44.72400 43.60300
C  46.82600 41.39700 42.97300
C  50.08000 44.92600 44.22900
C  46.41600 48.03600 45.29800
N  45.21700 43.25300 43.45800
C  43.91500 43.52200 43.22400
C  43.24400 42.37600 42.39900
C  44.33300 41.22100 42.58000
C  45.59600 41.99100 43.08500
C  44.09700 40.05700 43.56900
C  43.05200 42.86300 40.91300
C  41.75200 42.34300 40.23900
H  41.89600 41.90400 38.72500
N  48.30200 43.23100 43.87300
C  48.09600 41.97500 43.36700
C  49.37200 41.38600 43.21500
C  50.37100 42.36600 43.49200
C  49.61800 43.58400 43.94300
C  49.62300 39.97500 42.73800
C  51.83400 42.25100 43.23000
O  52.31500 41.27900 42.67000
C  52.80700 43.26800 43.53300
N  48.03900 46.33200 44.62600
C  49.42400 46.11300 44.66400
C  50.13700 47.33600 45.15000
C  48.99300 48.37700 45.43900
C  47.74400 47.57600 45.11400
C  50.98200 46.96700 46.37600
C  49.23100 49.78300 44.77000
C  49.25400 50.97200 45.68200
N  45.14700 46.13000 44.49400
C  45.21100 47.43000 44.93200
C  43.85400 48.01300 45.01800
C  43.09500 46.96600 44.43100
C  43.89400 45.85700 44.22500
C  43.42700 49.41800 45.41300
C  41.78600 46.66700 43.91400
O  40.77400 47.38200 43.84700
C  41.78000 45.23600 43.37700
C  40.72900 44.42700 44.02200
O  39.86700 43.90600 43.41200
O  40.96200 44.18000 45.34400
C  40.02400 43.15900 45.85900
H  46.89000 40.36900 42.60900
H  51.17100 44.93400 44.24400
H  46.14300 49.07400 45.50200
H  42.28400 42.14500 42.86100
H  44.78800 40.86200 41.65700
H  43.41900 40.36700 44.36500
H  44.98600 39.61600 44.02000
H  43.58300 39.28600 42.99600
H  43.92400 42.61300 40.30800
H  43.01600 43.95000 40.98600
H  41.07000 43.18900 40.32600
H  41.42600 41.56000 40.92400
H  50.58400 39.53700 43.00800
H  49.53400 40.05600 41.65500
H  48.81600 39.25800 42.88900
H  52.77800 43.41800 44.61300
H  52.61000 44.18200 42.97200
H  53.79000 42.90400 43.23400
H  50.70700 47.79400 44.34200
H  48.71000 48.54100 46.47900
H  51.11500 45.89200 46.50000
H  50.52200 47.31200 47.30200
H  52.01900 47.25200 46.20100
H  48.42600 49.87600 44.04100
H  50.21400 49.89500 44.31400
H  48.51600 51.67900 45.30400
H  50.21500 51.48600 45.65500
H  49.14300 50.70900 46.73400
H  43.51500 50.13100 44.59300
H  43.93200 49.78600 46.30700
H  42.35600 49.27300 45.55400
H  41.46600 45.23800 42.33400
H  40.25400 43.00100 46.91300
H  40.12100 42.22900 45.29900
H  38.98500 43.48400 45.90100
Mg -9.05100 41.13500 42.30500
C  -8.30500 37.72200 41.48700
C  -6.39500 41.95900 40.06300
C  -10.13500 44.30600 42.06300
C  -11.94600 40.07300 43.78400
N  -7.59700 39.95400 40.94500
C  -7.46300 38.60400 40.80000
C  -6.30700 38.23500 39.80600
C  -5.51300 39.62600 39.73200
C  -6.60000 40.57800 40.20500
C  -4.30400 39.71300 40.63500
C  -6.79900 37.60800 38.51200
C  -6.03200 36.37000 37.97900
H  -4.96500 36.51100 36.79600
N  -8.29800 42.98100 41.27000
C  -7.13300 43.08000 40.48100
C  -6.94700 44.48300 40.09100
C  -8.03900 45.19400 40.72800
C  -8.91000 44.19100 41.30200
C  -5.89600 45.03300 39.20200
C  -8.19100 46.69400 40.76500
O  -7.26900 47.37100 40.36900
C  -9.41600 47.41600 41.27700
N  -10.80500 41.95700 42.74100
C  -10.93600 43.34200 42.69200
C  -12.32300 43.68900 43.23800
C  -12.78500 42.37500 43.96800
C  -11.75000 41.40700 43.50300
C  -12.48200 45.00600 44.08300
C  -14.25700 41.90100 43.76600
C  -15.09300 41.67300 44.98300
N  -9.92100 39.32400 42.71000
C  -11.08300 39.02100 43.39800
C  -11.16100 37.57500 43.68200
C  -10.08800 37.04400 42.86600
C  -9.41700 38.14200 42.31900
C  -12.14700 36.79800 44.51400
C  -9.42300 35.76800 42.46900
O  -9.72600 34.63000 42.68900
C  -8.33800 36.19100 41.48400
C  -7.03500 35.63000 41.97000
O  -6.57500 36.04000 43.01400
O  -6.38300 34.71100 41.09400
C  -4.99400 34.30500 41.46700
H  -5.55800 42.25300 39.42600
H  -10.61600 45.28500 42.09600
H  -12.77900 39.78900 44.43000
H  -5.57300 37.57400 40.26600
H  -5.28500 39.90000 38.70200
H  -4.64500 39.94800 41.64300
H  -3.63900 40.46300 40.20700
H  -3.69100 38.82300 40.78100
H  -6.68900 38.37600 37.74700
H  -7.87800 37.47800 38.59500
H  -6.83500 35.70800 37.65400
H  -5.48300 35.83500 38.75400
H  -5.12500 45.43600 39.85800
H  -6.29100 45.90400 38.67900
H  -5.42500 44.40000 38.44900
H  -9.41600 48.49600 41.13100
H  -9.43700 47.22500 42.35000
H  -10.40300 47.09200 40.94900
H  -12.86200 43.92500 42.32000
H  -12.52900 42.46800 45.02300
H  -11.51700 45.33200 44.47200
H  -13.22300 44.86700 44.87000
H  -12.90400 45.79900 43.46600
H  -14.25100 40.98200 43.18000
H  -14.72900 42.61100 43.08700
H  -15.22400 40.60100 45.12900
H  -16.08000 42.11100 44.83500
H  -14.72100 42.06100 45.93100
H  -11.73100 35.83800 44.81900
H  -13.03600 36.66900 43.89600
H  -12.46300 37.43800 45.33800
H  -8.66000 35.87700 40.49100
H  -5.04200 33.54700 42.24900
H  -4.44500 35.14400 41.89400
H  -4.44900 33.94400 40.59500

