158

Mg -2.66200 16.88400 26.46700
C  -2.93000 14.86700 29.28800
C  -2.96600 19.65600 28.63200
C  -2.74600 19.00000 23.71900
C  -2.90500 14.20000 24.33300
N  -2.63200 17.21800 28.73900
C  -2.95700 16.22000 29.69300
C  -3.12000 16.81700 31.10000
C  -2.97900 18.37300 30.85200
C  -2.89300 18.44000 29.29700
C  -4.13700 19.27200 31.52700
C  -2.01200 16.17200 32.13600
C  -1.33600 17.09700 33.18200
H  -0.96400 16.46600 34.49900
N  -2.74500 19.04500 26.20000
C  -2.95500 20.02000 27.21400
C  -3.00200 21.31900 26.60900
C  -2.73500 21.11100 25.19000
C  -2.73400 19.66800 24.94000
C  -3.17900 22.62500 27.37800
C  -2.55400 22.15800 24.14400
O  -2.00300 22.05900 23.07700
C  -3.05900 23.49300 24.44100
N  -2.93000 16.61500 24.36800
C  -2.86900 17.62600 23.45700
C  -2.84500 17.13200 21.96300
C  -2.86300 15.55500 22.15100
C  -2.94200 15.38800 23.71600
C  -4.03200 17.73800 21.08100
C  -1.81800 14.74800 21.24300
C  -2.44600 13.90300 20.18700
N  -2.93300 14.93500 26.75100
C  -2.96800 13.97300 25.70600
C  -3.15500 12.71800 26.34300
C  -3.04600 13.00000 27.72700
C  -2.95400 14.38300 27.93000
C  -3.27600 11.41800 25.66600
C  -3.10400 12.37500 29.02200
O  -3.06900 11.21100 29.31800
C  -3.09700 13.59300 30.08700
C  -2.00100 13.36100 31.02900
O  -0.80500 13.58500 30.83100
O  -2.46500 12.77200 32.14700
C  -1.45500 12.19500 33.10300
H  -2.99500 20.53000 29.28700
H  -2.71700 19.60500 22.81000
H  -2.96900 13.40800 23.58400
H  -4.03100 16.47900 31.59300
H  -2.05000 18.79300 31.23800
H  -4.88400 18.69100 32.06900
H  -4.63400 19.73100 30.67100
H  -3.79600 20.05500 32.20300
H  -1.26100 15.86900 31.40600
H  -2.35700 15.28200 32.66300
H  -2.02000 17.93500 33.31500
H  -0.43500 17.50900 32.72700
H  -4.17900 23.02100 27.20000
H  -2.38700 23.35300 27.19700
H  -3.16300 22.49000 28.45900
H  -4.08700 23.55600 24.79700
H  -2.91000 24.01500 23.49500
H  -2.34600 23.96100 25.12000
H  -1.87600 17.29600 21.49200
H  -3.81800 15.24000 21.73000
H  -3.83800 17.93000 20.02500
H  -4.30600 18.66000 21.59200
H  -4.99300 17.22700 21.13800
H  -1.24400 14.13600 21.93900
H  -1.17300 15.44900 20.71200
H  -2.22200 12.93300 20.63000
H  -1.95600 14.14900 19.24400
H  -3.52100 14.05500 20.08900
H  -4.27600 11.21600 25.28400
H  -3.06500 10.60800 26.36400
H  -2.52000 11.34000 24.88400
H  -4.04300 13.59700 30.62900
H  -0.65800 12.87500 33.40300
H  -0.96400 11.31200 32.69200
H  -1.97400 11.75900 33.95600
Mg 40.87100 9.75300 30.43900
C  42.98200 11.51800 32.90800
C  39.04800 8.61000 32.94300
C  39.12300 8.17100 28.17500
C  42.91600 11.08200 28.07800
N  41.05700 9.99900 32.61200
C  41.84900 10.85400 33.41100
C  41.46300 10.74100 34.88500
C  40.41700 9.64100 34.86200
C  40.14100 9.40900 33.38900
C  40.66200 8.34200 35.70800
C  40.88400 12.12300 35.39700
C  40.12300 12.16900 36.72800
H  40.68600 13.05400 37.92300
N  39.39900 8.54800 30.53700
C  38.71600 8.21900 31.68400
C  37.59700 7.32400 31.25700
C  37.79200 7.02600 29.92700
C  38.82400 7.88300 29.50900
C  36.51800 6.78100 32.22300
C  37.02600 6.02900 29.01000
O  37.41400 5.67600 27.87300
C  35.69500 5.38600 29.57100
N  41.02200 9.62300 28.36400
C  40.10000 9.01600 27.62200
C  40.15300 9.38800 26.15100
C  41.48200 10.20200 26.12600
C  41.86300 10.32800 27.57600
C  40.05500 8.26500 25.08200
C  41.29500 11.65000 25.52700
C  42.37200 12.08300 24.53700
N  42.60600 11.01200 30.39900
C  43.29000 11.39900 29.34600
C  44.47900 12.17000 29.73100
C  44.39500 12.28000 31.20000
C  43.20100 11.54200 31.49900
C  45.60200 12.58600 28.86700
C  45.05900 12.81300 32.40100
O  46.08800 13.41200 32.53600
C  44.06600 12.43400 33.59300
C  44.69100 11.70500 34.70100
O  45.34300 10.62800 34.67600
O  44.34300 12.33400 35.89000
C  44.70000 11.56300 37.08500
H  38.38100 8.29400 33.74900
H  38.51500 7.63700 27.44100
H  43.36600 11.52800 27.18900
H  42.28000 10.49300 35.56200
H  39.45800 10.07600 35.14200
H  41.65700 8.30100 36.15100
H  40.53300 7.42100 35.13900
H  39.89500 8.21900 36.47300
H  40.24900 12.46200 34.57900
H  41.75300 12.76100 35.55700
H  39.93700 11.19100 37.17200
H  39.21700 12.73400 36.50800
H  36.43300 5.69600 32.18000
H  35.48200 6.97100 31.94100
H  36.74300 7.01100 33.26500
H  34.83600 5.99200 29.86000
H  35.94400 4.63200 30.31700
H  35.33400 4.82300 28.71000
H  39.41300 10.18000 26.03300
H  42.25400 9.68000 25.56200
H  39.08600 8.34500 24.58900
H  40.16800 7.26700 25.50600
H  40.77600 8.41100 24.27800
H  41.35100 12.31400 26.39000
H  40.26400 11.79300 25.20200
H  42.67600 13.07800 24.86100
H  41.98600 12.27600 23.53600
H  43.23800 11.42500 24.47000
H  46.44500 11.92000 29.05300
H  45.88400 13.59500 29.16600
H  45.36600 12.41400 27.81700
H  43.52100 13.32700 33.89900
H  43.86300 11.89200 37.70100
H  45.62800 11.97800 37.47800
H  44.58800 10.49000 37.24400

