158

Mg 0.86000 7.79800 27.09400
C  1.26200 9.81300 29.84000
C  1.04400 4.97700 29.16100
C  0.90300 5.91900 24.29600
C  0.72200 10.64700 25.08000
N  1.09600 7.49800 29.26600
C  1.07900 8.47300 30.20200
C  1.15800 7.87700 31.64100
C  1.24600 6.35900 31.43600
C  1.08600 6.23500 29.87100
C  2.44900 5.54200 32.02800
C  -0.14000 8.33200 32.36800
C  -0.03600 8.38500 33.92800
H  1.12700 7.70900 34.67200
N  1.12000 5.70000 26.80300
C  1.12200 4.72300 27.73200
C  0.89600 3.43500 27.01000
C  0.94700 3.66600 25.56500
C  0.98100 5.18200 25.52400
C  0.79500 2.07600 27.73200
C  1.05600 2.72800 24.39400
O  1.16300 3.08400 23.22700
C  1.17000 1.30000 24.70100
N  0.88600 8.22000 24.98200
C  0.88200 7.26000 24.05000
C  0.67500 7.77100 22.62600
C  0.57900 9.27500 22.83900
C  0.72100 9.45800 24.42500
C  1.70800 7.20800 21.66200
C  -0.69000 9.87400 22.23200
C  -1.88800 9.83700 23.13300
N  0.94500 9.87200 27.34600
C  0.88200 10.94800 26.46500
C  1.23000 12.17000 27.08600
C  1.34100 11.80900 28.45600
C  1.28300 10.38300 28.53000
C  1.44800 13.50700 26.46600
C  1.65200 12.28000 29.79600
O  1.98900 13.40800 30.06600
C  1.58200 11.02300 30.75500
C  2.76800 10.98000 31.68400
O  3.89600 10.59300 31.39800
O  2.40900 11.36900 32.94800
C  3.32000 11.43500 34.06500
H  0.98700 4.05100 29.73700
H  0.77200 5.42100 23.33300
H  0.60100 11.55400 24.48400
H  2.11800 8.26500 31.98100
H  0.37900 5.85100 31.85900
H  3.15200 6.24600 32.47400
H  3.00000 4.98700 31.26900
H  2.09000 4.82400 32.76500
H  -1.00400 7.79300 31.98000
H  -0.34400 9.33900 32.00300
H  -0.99000 7.96000 34.24000
H  -0.11700 9.44100 34.18400
H  1.67800 1.44700 27.83600
H  -0.05400 1.50300 27.35700
H  0.60100 2.27100 28.78700
H  1.86000 1.14000 25.52900
H  1.45700 0.74800 23.80600
H  0.15800 0.94100 24.89300
H  -0.36100 7.55400 22.36400
H  1.38200 9.91500 22.47100
H  2.47400 7.93500 21.39100
H  1.15400 6.83800 20.80000
H  2.18700 6.31000 22.05200
H  -1.02000 9.40600 21.30400
H  -0.58100 10.94000 22.03200
H  -2.28600 10.82000 23.38600
H  -1.75400 9.20100 24.00900
H  -2.58700 9.38300 22.43100
H  2.27600 13.92700 27.03700
H  0.54300 14.11300 26.50700
H  1.76700 13.28800 25.44800
H  0.75100 11.38100 31.36300
H  4.31300 11.37200 33.62100
H  3.15500 10.63800 34.79000
H  3.27400 12.38600 34.59600
Mg 36.54700 48.79400 25.25700
C  36.49400 46.83900 28.18800
C  34.59400 51.04500 26.76800
C  36.17600 50.33900 22.23600
C  38.15200 46.12200 23.62900
N  35.58800 48.90700 27.22800
C  35.83300 48.07300 28.30800
C  35.48900 48.73300 29.66300
C  34.72200 50.02200 29.21000
C  34.97500 49.99400 27.63600
C  33.17100 50.02400 29.53500
C  36.70400 48.83000 30.64500
C  36.69600 48.07400 31.99800
H  35.36000 47.95400 32.66900
N  35.48200 50.46400 24.55200
C  34.73800 51.26200 25.36900
C  34.20700 52.38200 24.59700
C  34.67600 52.32000 23.26000
C  35.50700 51.00600 23.27000
C  33.38800 53.44600 25.30200
C  34.46600 53.18100 22.10400
O  35.21900 52.96500 21.13100
C  33.53200 54.37700 22.11100
N  37.08500 48.30200 23.24500
C  36.84400 49.12800 22.17400
C  37.50200 48.59600 20.88300
C  38.22100 47.32300 21.41900
C  37.89600 47.32900 22.86000
C  36.56500 48.37400 19.58700
C  39.79000 47.27700 21.30300
C  40.35300 46.90000 19.93100
N  37.29500 46.92800 25.77700
C  37.87700 45.95100 25.00500
C  38.15300 44.73600 25.85400
C  37.61600 45.07000 27.12900
C  37.14200 46.39400 26.99900
C  38.68700 43.39800 25.36800
C  37.42700 44.56200 28.45700
O  37.76000 43.51400 28.98900
C  36.73500 45.72500 29.27100
C  35.42600 45.17600 29.77400
O  34.44100 45.26800 29.09800
O  35.53900 44.49700 30.93500
C  34.28200 43.83700 31.37900
H  34.02200 51.76500 27.35800
H  36.12800 50.93100 21.31900
H  38.55200 45.17000 23.27300
H  34.82000 48.06600 30.20700
H  35.23200 50.89700 29.61200
H  32.84700 49.16900 30.12800
H  32.45700 50.07600 28.71300
H  33.04300 50.93800 30.11500
H  37.01500 49.84700 30.88300
H  37.44800 48.38300 29.98600
H  37.21100 48.75500 32.67500
H  37.29100 47.16500 31.90100
H  32.32700 53.23300 25.43500
H  33.49700 54.35900 24.71700
H  33.84300 53.70000 26.25900
H  32.52000 53.97900 22.17700
H  33.44700 54.76500 21.09600
H  33.75200 55.26300 22.70700
H  38.38100 49.15700 20.56500
H  37.79400 46.45900 20.91100
H  35.57100 48.79100 19.74800
H  36.43300 47.30800 19.40700
H  36.93000 48.94500 18.73300
H  40.15700 46.63700 22.10500
H  40.26400 48.22300 21.56300
H  41.02900 47.70000 19.62900
H  39.64100 46.72300 19.12500
H  40.90600 45.97300 20.08700
H  39.41700 43.56600 24.57700
H  37.91800 42.65700 25.14900
H  39.31400 42.95700 26.14300
H  37.40900 46.08500 30.05000
H  33.94400 43.09900 30.65100
H  33.47500 44.56400 31.47100
H  34.39400 43.45500 32.39400

