158

Mg 40.67000 41.33800 27.74900
C  39.74300 43.88300 29.92600
C  41.36100 39.39500 30.64600
C  42.07100 39.02100 25.75600
C  40.58200 43.50700 25.09200
N  40.59400 41.64900 30.00000
C  40.07100 42.74200 30.61800
C  39.96600 42.56100 32.15900
C  40.62800 41.13100 32.36000
C  40.92100 40.68700 30.92800
C  41.69200 41.05700 33.49000
C  38.53200 42.68400 32.61800
C  38.02700 41.86200 33.83700
H  37.31000 42.58500 34.97700
N  41.46500 39.42900 28.15200
C  41.70400 38.83600 29.37100
C  42.19300 37.41100 29.21500
C  42.33400 37.29100 27.75400
C  41.92600 38.54900 27.18400
C  42.41300 36.50900 30.23000
C  42.73300 36.02500 26.98100
O  42.66500 35.98000 25.74200
C  42.98500 34.76000 27.73300
N  41.09000 41.21500 25.67400
C  41.66100 40.11400 25.07800
C  41.67800 40.22200 23.52700
C  41.15600 41.69000 23.41000
C  40.92100 42.19600 24.77500
C  43.07200 39.92800 22.93600
C  39.88800 41.55400 22.50900
C  38.49700 41.15400 23.04800
N  40.26900 43.36700 27.46200
C  40.20700 44.09400 26.30600
C  39.80000 45.41400 26.58900
C  39.63400 45.41600 28.00600
C  39.91400 44.12800 28.49500
C  39.63900 46.54000 25.56700
C  39.31800 46.21600 29.14700
O  39.06800 47.42500 29.26700
C  39.41800 45.29900 30.43000
C  40.47800 45.79800 31.37000
O  41.67600 45.68500 31.18000
O  39.80300 46.34700 32.42200
C  40.63600 46.67600 33.59000
H  41.39600 38.71200 31.49800
H  42.57000 38.31600 25.08700
H  40.56400 44.00300 24.11900
H  40.61200 43.32400 32.59300
H  39.89500 40.41900 32.73800
H  41.41200 40.27700 34.19700
H  41.90800 42.00300 33.98800
H  42.66300 40.75300 33.09700
H  37.95900 42.52200 31.70500
H  38.29300 43.74100 32.74300
H  38.93000 41.46900 34.30300
H  37.36700 41.01100 33.66800
H  42.23400 36.73400 31.28100
H  43.49500 36.40900 30.30800
H  42.02400 35.49800 30.11200
H  42.11200 34.43400 28.30000
H  43.90300 34.86000 28.31200
H  43.18000 33.94300 27.03900
H  40.96900 39.45100 23.22300
H  41.88900 42.25500 22.83400
H  42.97600 39.02600 22.33300
H  43.78900 39.83300 23.75100
H  43.41500 40.79700 22.37500
H  40.16300 40.86400 21.71100
H  39.74700 42.46600 21.92800
H  38.10400 40.22600 22.63200
H  37.87200 41.99600 22.75000
H  38.54700 41.08000 24.13400
H  38.74100 47.12600 25.76100
H  39.73900 46.21600 24.53100
H  40.44600 47.26300 25.68700
H  38.46300 45.39900 30.94600
H  41.24700 45.78600 33.74200
H  39.99900 46.87000 34.45300
H  41.28200 47.53100 33.39100
Mg 9.05600 47.02000 25.04100
C  6.99600 47.07100 27.90000
C  11.62400 48.28000 26.92700
C  10.87000 47.42500 22.25500
C  6.04900 47.02000 23.01400
N  9.26500 47.62000 27.18300
C  8.34800 47.40900 28.15600
C  8.95700 47.80200 29.51300
C  10.18500 48.62000 29.07500
C  10.43600 48.09100 27.67300
C  9.89300 50.13800 29.06100
C  9.25800 46.53200 30.37300
C  9.59500 46.76100 31.83000
H  9.00200 45.69400 32.78400
N  11.08800 47.48200 24.70900
C  11.97700 47.96000 25.60900
C  13.27900 48.02000 24.94400
C  13.13000 47.59300 23.55900
C  11.63600 47.47300 23.42200
C  14.63000 48.40600 25.65400
C  14.14200 47.42500 22.54400
O  13.85600 47.16400 21.38900
C  15.63900 47.69500 22.76600
N  8.48600 47.23100 22.92900
C  9.48700 47.44000 22.04700
C  8.88800 47.68100 20.68100
C  7.36200 47.35900 20.88000
C  7.25400 47.21200 22.38600
C  9.06500 49.18900 20.29500
C  6.76800 46.15400 20.20500
C  5.66700 46.42900 19.19700
N  6.93800 46.98300 25.35400
C  5.87300 46.95500 24.46600
C  4.65100 46.73200 25.27100
C  4.98500 46.77000 26.63600
C  6.42700 46.83400 26.64400
C  3.25000 46.87600 24.68400
C  4.51200 46.75800 28.06200
O  3.40100 46.95600 28.56500
C  5.90000 46.94600 28.89300
C  5.97900 45.69700 29.70000
O  6.33600 44.58300 29.26000
O  5.34700 45.91300 30.91600
C  5.27900 44.75000 31.74700
H  12.34800 48.74000 27.60300
H  11.43600 47.56600 21.33300
H  5.10400 47.21700 22.50300
H  8.23900 48.41400 30.06000
H  11.08200 48.35600 29.63500
H  10.13000 50.67700 29.97800
H  8.84200 50.35800 28.87300
H  10.57300 50.61500 28.35500
H  10.20600 46.21800 29.93800
H  8.47900 45.80600 30.13500
H  9.33600 47.73600 32.24300
H  10.67400 46.65800 31.93900
H  14.39800 48.50900 26.71400
H  14.79900 49.42900 25.31700
H  15.41800 47.68800 25.42800
H  15.93900 48.53700 23.38900
H  16.10300 47.84300 21.79000
H  15.87700 46.74100 23.23800
H  9.39500 47.09200 19.91600
H  6.71600 48.21600 20.69000
H  9.37200 49.65600 21.23100
H  8.23100 49.78100 19.91900
H  9.91900 49.29100 19.62600
H  6.25000 45.50000 20.90600
H  7.55500 45.64100 19.65200
H  5.44600 47.47900 19.00700
H  4.76200 45.91000 19.51200
H  6.02300 46.17000 18.20000
H  2.74800 47.82200 24.89000
H  2.66400 46.13900 25.23300
H  3.22700 46.55500 23.64300
H  5.68800 47.81900 29.51100
H  6.20400 44.18100 31.84800
H  4.46700 44.13700 31.35600
H  4.95900 45.00900 32.75600

