158

Mg 17.17200 51.28900 25.77600
C  18.83600 50.27300 28.58900
C  14.46500 52.08100 27.69700
C  15.59000 52.47600 22.99800
C  19.77400 50.04300 23.80900
N  16.69100 51.13600 27.91200
C  17.52700 50.74900 28.87100
C  16.91200 51.04800 30.27100
C  15.44800 51.40600 30.02600
C  15.54700 51.60700 28.47700
C  14.41700 50.27000 30.39700
C  17.70800 52.16400 31.09500
C  17.99800 51.84900 32.52500
H  17.13400 52.51600 33.59500
N  15.28700 52.25000 25.41100
C  14.33100 52.45200 26.33700
C  13.16200 53.06600 25.73400
C  13.48500 53.28100 24.35800
C  14.86100 52.66800 24.21500
C  11.87500 53.40600 26.52700
C  12.59300 53.93800 23.26900
O  12.94600 53.98800 22.06000
C  11.33000 54.54900 23.59200
N  17.68700 51.36000 23.76800
C  16.84300 51.89300 22.79200
C  17.39200 51.63300 21.36800
C  18.84900 51.21500 21.71100
C  18.82000 50.82300 23.16800
C  16.59200 50.66400 20.52100
C  19.94700 52.21400 21.32000
C  21.02100 51.57600 20.45500
N  18.93700 50.34600 26.07900
C  19.88200 49.80200 25.16900
C  21.05400 49.27800 25.90000
C  20.70800 49.47400 27.21300
C  19.40400 50.06700 27.29600
C  22.31400 48.67400 25.24900
C  21.16900 49.31500 28.56100
O  22.23200 48.86400 29.03900
C  19.96300 49.87000 29.52600
C  19.63100 48.79400 30.51400
O  19.09600 47.69900 30.22900
O  20.09100 49.16100 31.74500
C  19.95300 48.25300 32.89100
H  13.55900 52.15700 28.30100
H  14.93700 52.66900 22.14500
H  20.58500 49.73900 23.14400
H  17.06000 50.19200 30.92800
H  15.25900 52.38800 30.45800
H  13.38400 50.61500 30.34700
H  14.56300 49.88900 31.40700
H  14.57000 49.48400 29.65700
H  16.99100 52.98300 31.15500
H  18.67600 52.37300 30.64000
H  19.04800 52.12300 32.63100
H  18.03900 50.77400 32.70000
H  11.86400 54.49400 26.45800
H  11.87500 53.12700 27.58100
H  11.03600 52.98000 25.97700
H  10.87500 55.08300 22.75700
H  11.70100 55.39900 24.16400
H  10.58500 53.96000 24.12800
H  17.31200 52.53100 20.75600
H  19.03900 50.25000 21.24000
H  16.52200 51.10300 19.52600
H  15.56700 50.65400 20.89200
H  17.05300 49.67700 20.48500
H  20.44600 52.65400 22.18400
H  19.58600 52.96500 20.61800
H  20.65300 51.53000 19.43000
H  21.29400 50.62800 20.91700
H  21.96500 52.10800 20.33800
H  22.00900 48.08700 24.38300
H  22.90200 48.04700 25.92000
H  22.96600 49.51800 25.02900
H  20.39000 50.63500 30.17500
H  19.19400 47.48600 32.73900
H  19.79700 48.91100 33.74600
H  20.96500 47.84900 32.93000
Mg -2.62800 33.78200 25.80300
C  -4.31200 32.46800 28.58700
C  -1.02600 36.08000 27.80800
C  -1.11200 34.94700 23.04000
C  -4.56300 31.54600 23.72800
N  -2.84900 34.39200 27.91700
C  -3.48500 33.55800 28.91300
C  -2.96700 33.86000 30.32000
C  -2.15500 35.28500 30.08400
C  -2.01200 35.30900 28.49800
C  -3.01100 36.52100 30.50200
C  -2.12600 32.79900 31.15600
C  -1.71200 33.24500 32.59000
H  -2.04300 32.36000 33.82300
N  -1.33900 35.33600 25.46900
C  -0.68800 36.11200 26.44500
C  0.34400 36.80700 25.85400
C  0.42300 36.48200 24.49500
C  -0.64800 35.50900 24.30200
C  1.13100 37.88700 26.47400
C  1.39000 36.97600 23.41500
O  1.21000 36.70900 22.21800
C  2.62900 37.76800 23.73900
N  -2.95500 33.37700 23.67800
C  -2.16000 34.00100 22.77900
C  -2.41400 33.55400 21.33900
C  -3.43700 32.42700 21.57700
C  -3.58100 32.31100 23.05300
C  -2.96100 34.74600 20.54500
C  -3.19200 31.02300 20.84700
C  -2.40700 29.88400 21.57900
N  -4.03100 32.18300 26.05000
C  -4.76900 31.41000 25.11900
C  -5.66700 30.49600 25.91800
C  -5.45700 30.85900 27.24800
C  -4.48100 31.88900 27.30300
C  -6.70000 29.53500 25.37800
C  -5.88100 30.52300 28.56900
O  -6.66200 29.67300 29.00600
C  -5.05600 31.58200 29.53000
C  -6.02800 32.16000 30.44900
O  -6.84300 33.08000 30.31000
O  -6.00700 31.37600 31.60200
C  -6.95200 31.69400 32.62700
H  -0.33500 36.55900 28.50400
H  -0.56600 35.21000 22.13100
H  -5.18000 30.93800 23.06300
H  -3.74900 34.09700 31.04100
H  -1.20500 35.35700 30.61400
H  -2.41500 37.00100 31.27800
H  -4.02400 36.20000 30.74400
H  -3.24100 37.37600 29.86700
H  -1.25600 32.47000 30.58900
H  -2.76900 31.93200 31.30600
H  -2.08600 34.23300 32.86000
H  -0.62500 33.30200 32.52600
H  0.78900 38.06800 27.49300
H  1.01000 38.83300 25.94800
H  2.17100 37.57600 26.57300
H  2.47300 38.79700 24.06400
H  3.24800 37.83900 22.84500
H  3.28100 37.18300 24.38800
H  -1.52200 33.17900 20.83800
H  -4.46300 32.64400 21.28200
H  -3.49900 35.44500 21.18500
H  -3.72600 34.39800 19.85100
H  -2.12600 35.17200 19.98800
H  -2.81300 31.18700 19.83800
H  -4.15500 30.59200 20.57300
H  -1.75000 30.16800 22.40100
H  -1.63200 29.55700 20.88600
H  -3.03600 29.06600 21.93100
H  -7.64100 30.02600 25.62700
H  -6.54900 28.54200 25.80300
H  -6.71400 29.47700 24.29000
H  -4.38600 30.89300 30.04400
H  -6.92800 32.77000 32.80200
H  -6.69100 31.31400 33.61500
H  -7.93900 31.29800 32.38900

