158

Mg 25.79600 -8.03000 47.56100
C  27.66600 -5.51600 46.41200
C  23.36100 -7.19700 45.18100
C  24.02300 -10.84100 48.40000
C  28.27500 -8.92400 49.94800
N  25.65000 -6.57100 45.86600
C  26.53000 -5.59800 45.67800
C  26.11800 -4.65500 44.50500
C  24.62600 -5.16800 44.11900
C  24.46100 -6.33700 45.17300
C  23.53300 -4.08100 44.19700
C  27.14000 -4.73500 43.37800
C  27.62000 -3.35100 42.81100
H  27.21600 -3.02200 41.38400
N  23.86400 -8.86900 46.93700
C  23.03100 -8.29300 46.01300
C  21.75500 -9.04100 46.05100
C  21.98800 -10.13700 46.96100
C  23.31600 -10.02000 47.50700
C  20.58500 -8.62900 45.11300
C  20.89100 -11.16400 47.18300
O  19.76900 -10.94300 46.80000
C  21.10400 -12.40200 48.03700
N  26.16900 -9.63500 48.87300
C  25.24000 -10.62700 49.09700
C  25.53900 -11.45900 50.29700
C  27.00500 -11.08000 50.63000
C  27.18200 -9.83600 49.74500
C  24.49400 -11.14900 51.47500
C  28.03400 -12.13400 50.15200
C  28.28900 -13.23500 51.17500
N  27.72600 -7.48900 48.05800
C  28.50900 -7.77600 49.13400
C  29.65200 -6.78800 49.11900
C  29.29500 -5.85800 48.08500
C  28.18300 -6.35900 47.47400
C  30.75000 -6.72100 50.11100
C  29.81300 -4.70700 47.42300
O  30.80700 -4.05500 47.57400
C  28.74100 -4.34700 46.35600
C  28.12300 -3.03000 46.64500
O  27.35300 -2.81800 47.59900
O  28.34100 -2.22000 45.58000
C  27.68000 -0.93800 45.72400
H  22.58800 -6.87000 44.48200
H  23.51900 -11.71500 48.81700
H  28.91100 -9.15000 50.80600
H  26.17500 -3.59300 44.74700
H  24.52300 -5.72000 43.18500
H  22.95300 -4.16700 43.27900
H  24.05900 -3.12800 44.13500
H  22.87200 -4.20600 45.05500
H  26.60700 -5.33100 42.63700
H  28.02000 -5.26200 43.74700
H  28.68300 -3.24500 43.03000
H  27.12900 -2.52700 43.32800
H  20.05800 -9.53000 44.80000
H  20.89800 -8.03000 44.25800
H  19.85400 -8.02500 45.65100
H  21.89800 -13.10900 47.79800
H  20.15200 -12.88600 47.81900
H  21.06100 -12.23100 49.11300
H  25.50900 -12.46200 49.87100
H  27.07300 -10.81900 51.68600
H  23.96600 -12.08600 51.65300
H  23.74600 -10.43400 51.13200
H  25.00800 -10.86700 52.39400
H  28.97300 -11.60800 49.98400
H  27.77000 -12.59500 49.19900
H  29.28700 -13.12200 51.59700
H  28.32500 -14.24100 50.75700
H  27.64200 -13.14200 52.04700
H  30.39000 -7.06500 51.08100
H  31.12400 -5.69900 50.04500
H  31.56800 -7.37100 49.80200
H  29.32100 -4.30700 45.43400
H  26.61400 -1.16100 45.67800
H  28.04900 -0.20200 45.01000
H  28.01300 -0.51800 46.67300
Mg -10.90600 38.62800 42.30100
C  -9.28800 35.50700 41.72400
C  -8.31500 40.20600 40.45600
C  -12.78700 41.48600 42.19000
C  -13.74700 36.87900 43.19700
N  -8.97400 37.93700 41.22900
C  -8.57100 36.62400 41.13400
C  -7.28300 36.50700 40.25500
C  -6.87000 38.02900 40.00300
C  -8.14500 38.76800 40.58000
C  -5.57900 38.47700 40.68700
C  -7.43900 35.63400 38.94600
C  -6.15100 34.88900 38.56000
H  -5.18800 35.53700 37.51000
N  -10.50400 40.60600 41.54400
C  -9.45000 41.01200 40.81700
C  -9.67400 42.33900 40.41800
C  -10.98900 42.74500 40.86100
C  -11.50000 41.62900 41.62200
C  -8.60900 43.07100 39.60800
C  -11.61100 44.09800 40.60100
O  -11.05200 44.85100 39.85000
C  -12.80700 44.57800 41.20500
N  -12.98900 39.15900 42.68700
C  -13.52900 40.36900 42.59300
C  -14.93000 40.35700 43.19700
C  -15.25700 38.81300 43.35400
C  -13.89800 38.20600 43.07300
C  -15.31700 41.16100 44.46700
C  -16.41600 38.24900 42.49200
C  -17.26800 37.25000 43.21800
N  -11.44200 36.61800 42.55200
C  -12.63300 36.08800 42.97400
C  -12.45600 34.63500 43.03900
C  -11.07200 34.35900 42.64300
C  -10.55900 35.60100 42.30400
C  -13.50800 33.70500 43.50200
C  -10.03400 33.35200 42.47400
O  -10.08600 32.15200 42.76900
C  -8.87300 34.04100 41.74200
C  -7.68800 33.64700 42.59800
O  -7.58300 33.94300 43.78300
O  -6.74800 32.93900 41.85900
C  -5.51200 32.65200 42.63200
H  -7.45900 40.66000 39.95300
H  -13.39500 42.38900 42.28300
H  -14.61800 36.25800 43.41700
H  -6.53400 36.07500 40.91900
H  -6.89100 38.21400 38.92900
H  -5.95300 39.07900 41.51500
H  -5.15400 39.20600 39.99700
H  -4.82400 37.71600 40.88500
H  -7.60900 36.46100 38.25700
H  -8.31800 34.98900 38.95300
H  -6.43600 33.96400 38.05800
H  -5.56900 34.58600 39.43000
H  -9.03400 43.60500 38.75900
H  -7.74300 42.54600 39.20600
H  -8.24800 43.78800 40.34600
H  -12.72800 44.26300 42.24600
H  -13.66500 44.17600 40.66800
H  -12.88400 45.66500 41.18100
H  -15.62600 40.69800 42.43000
H  -15.36800 38.59600 44.41700
H  -16.19400 41.76600 44.23900
H  -14.63100 41.99200 44.62600
H  -15.32000 40.57000 45.38300
H  -15.99800 37.74200 41.62300
H  -17.03400 39.03600 42.05900
H  -18.23900 37.73900 43.29700
H  -16.92500 36.93300 44.20300
H  -17.37700 36.33500 42.63600
H  -13.58200 33.88300 44.57500
H  -13.30100 32.64700 43.34400
H  -14.46900 33.94800 43.04900
H  -8.74800 33.64200 40.73500
H  -5.70000 32.51000 43.69600
H  -4.74500 33.41500 42.50300
H  -5.01900 31.80200 42.15900

