158

Mg 49.42400 45.37600 43.00000
C  45.88000 45.47300 42.44700
C  49.28200 42.03500 42.13000
C  52.64700 45.42500 42.77400
C  49.22100 48.87800 43.46300
N  47.79000 43.94900 42.38100
C  46.42700 44.11900 42.27200
C  45.69100 42.86800 42.07600
C  46.77700 41.77100 42.44700
C  48.06600 42.63500 42.29400
C  46.66200 41.05500 43.77900
C  44.97400 42.57500 40.78200
C  45.30600 43.39100 39.48400
H  45.09600 42.74900 38.07800
N  50.85800 43.91300 42.52900
C  50.60000 42.60100 42.26500
C  51.88900 41.90900 42.26100
C  52.85200 42.89700 42.20400
C  52.14800 44.16000 42.49700
C  52.03500 40.40500 42.16400
C  54.27400 42.68300 41.96800
O  54.70500 41.64300 41.58900
C  55.36200 43.67200 42.12700
N  50.70200 46.93800 43.10500
C  52.04400 46.71300 42.95400
C  52.87000 48.03400 42.95500
C  51.67300 49.11800 43.15000
C  50.46500 48.25900 43.34700
C  53.92600 48.17900 44.14900
C  51.51900 50.11700 41.95000
C  52.40700 51.38600 41.99600
N  47.89400 46.91400 43.07900
C  47.97600 48.31500 43.24000
C  46.67500 48.91000 43.11100
C  45.82600 47.85500 42.80800
C  46.60900 46.63200 42.82300
C  46.39800 50.33500 43.13200
C  44.49200 47.52700 42.36600
O  43.56100 48.24600 42.19200
C  44.49400 46.04900 42.03400
C  43.32300 45.46100 42.71100
O  42.49600 44.67400 42.29000
O  43.33400 45.93900 44.03200
C  42.10500 45.71300 44.83400
H  49.17700 40.95100 42.05300
H  53.72900 45.56300 42.82900
H  49.16000 49.95100 43.65800
H  44.91800 42.83400 42.84300
H  46.80400 40.97400 41.70400
H  46.74800 39.98200 43.60800
H  45.74600 41.21900 44.34600
H  47.46600 41.37500 44.44200
H  43.94400 42.74700 41.09100
H  45.08000 41.52100 40.52400
H  46.36700 43.62300 39.57500
H  44.73700 44.32000 39.44000
H  53.08100 40.09800 42.17600
H  51.68800 39.99500 41.21500
H  51.58400 39.98300 43.06100
H  55.28000 44.46900 41.38700
H  56.35300 43.22600 42.20500
H  55.22500 44.30200 43.00600
H  53.27600 48.32800 41.98700
H  51.91500 49.72600 44.02200
H  54.39800 49.15700 44.04800
H  54.69100 47.40700 44.07000
H  53.48700 48.18300 45.14700
H  50.48200 50.41500 41.79500
H  51.62900 49.61000 40.99200
H  52.86800 51.42600 41.00900
H  53.19600 51.40100 42.74800
H  51.73600 52.24000 42.08800
H  47.12500 50.94100 42.59200
H  46.44600 50.60400 44.18800
H  45.37600 50.50800 42.79600
H  44.42700 45.83900 40.96700
H  42.31800 46.04400 45.85000
H  41.63000 44.73200 44.85800
H  41.35600 46.31200 44.31600
Mg -1.63700 33.70200 26.51700
C  -3.85200 32.21600 28.74700
C  -0.51400 35.69500 29.05700
C  0.05600 35.50100 24.23100
C  -3.40700 32.08200 23.75700
N  -2.37000 34.08300 28.54000
C  -3.07100 33.14400 29.34300
C  -2.87300 33.42300 30.85100
C  -2.16500 34.81600 30.84600
C  -1.59900 34.85400 29.42500
C  -3.08600 36.11600 30.96700
C  -2.06100 32.24000 31.48600
C  -1.41800 32.40300 32.92800
H  -1.83600 31.55300 34.16000
N  -0.28500 35.26000 26.60800
C  0.00300 35.96300 27.73600
C  1.06000 36.88800 27.44100
C  1.19700 36.83600 26.04400
C  0.23600 35.91300 25.53700
C  1.79700 37.68700 28.43900
C  2.19300 37.60900 25.20000
O  2.15200 37.66500 23.96600
C  3.36400 38.34300 25.86300
N  -1.67000 33.85700 24.33500
C  -0.80300 34.55700 23.66200
C  -0.84300 34.32000 22.15700
C  -1.65600 32.97500 22.10000
C  -2.38000 32.96900 23.46300
C  -1.29700 35.50600 21.26600
C  -0.71000 31.74700 21.66100
C  -0.06400 30.90700 22.78200
N  -3.42100 32.50600 26.27600
C  -3.91500 31.85100 25.15400
C  -4.93500 30.95300 25.63600
C  -4.96800 31.03900 27.02000
C  -3.97800 31.96900 27.35800
C  -5.84100 30.08500 24.68000
C  -5.63600 30.55900 28.20200
O  -6.60500 29.89200 28.28400
C  -4.86500 31.21600 29.38400
C  -5.81800 31.95500 30.31700
O  -6.46700 32.93200 30.00600
O  -5.93800 31.37400 31.56100
C  -6.88600 31.93000 32.55200
H  -0.16400 36.19200 29.96400
H  0.68100 36.02500 23.50400
H  -3.77700 31.36100 23.02400
H  -3.79200 33.52300 31.42900
H  -1.30900 34.94400 31.50800
H  -2.97000 36.75500 30.09200
H  -2.68500 36.64600 31.83100
H  -4.15500 35.90400 30.99600
H  -1.21900 31.90400 30.88100
H  -2.81500 31.45300 31.50700
H  -1.66200 33.41300 33.25700
H  -0.33100 32.37000 32.99600
H  2.69300 37.21600 28.84400
H  1.18400 37.94500 29.30200
H  2.07000 38.65600 28.02200
H  3.00800 39.34700 26.09600
H  4.17500 38.57100 25.17100
H  3.85900 37.81800 26.67900
H  0.21600 34.07500 22.08200
H  -2.38400 32.96700 21.29000
H  -1.67100 35.12100 20.31800
H  -0.42700 36.15700 21.17700
H  -2.23400 35.90400 21.65500
H  0.16500 32.07100 21.09800
H  -1.28100 31.13200 20.96600
H  1.01300 30.79400 22.66300
H  -0.49800 29.91300 22.67500
H  -0.27600 31.24300 23.79700
H  -6.85100 29.99600 25.08100
H  -5.46800 29.06100 24.69600
H  -5.89300 30.47600 23.66400
H  -4.43100 30.44900 30.02600
H  -6.26300 32.55400 33.19300
H  -7.20000 31.06500 33.13600
H  -7.66600 32.53300 32.08600

