158

Mg 47.13600 16.43800 28.75000
C  45.23500 16.29000 31.71700
C  49.24900 18.46900 30.27900
C  48.54700 17.01000 25.65800
C  44.34800 15.20800 26.99500
N  47.21000 17.28800 30.79100
C  46.44500 16.95600 31.92800
C  47.05700 17.58300 33.09800
C  48.19400 18.50300 32.59500
C  48.25000 18.03400 31.12700
C  48.17100 20.07900 32.83000
C  47.44700 16.53700 34.20500
C  47.16000 16.92400 35.68500
H  47.21300 18.47000 36.20200
N  48.76700 17.38500 28.09000
C  49.55500 18.16600 28.92400
C  50.71200 18.64900 28.18900
C  50.60000 18.06900 26.87100
C  49.25900 17.41400 26.79100
C  51.79100 19.49900 28.74500
C  51.67800 18.07300 25.71100
O  51.48100 17.60500 24.62400
C  52.97500 18.84800 25.90200
N  46.58900 16.08000 26.58700
C  47.34600 16.43000 25.55300
C  46.55800 16.24900 24.25200
C  45.28500 15.43700 24.66300
C  45.43400 15.61500 26.17100
C  46.31300 17.72300 23.68100
C  45.27600 13.85900 24.22500
C  44.30500 13.53800 23.07900
N  45.26100 15.71700 29.15500
C  44.30200 15.18600 28.41500
C  43.17300 14.73000 29.28600
C  43.53700 15.24300 30.52300
C  44.76800 15.80400 30.48900
C  41.84100 14.05600 28.79800
C  43.02900 15.31200 31.83800
O  41.96900 14.96800 32.29700
C  44.16900 15.87300 32.68500
C  43.53100 16.95400 33.52600
O  42.90100 17.92600 33.13100
O  43.81100 16.69400 34.85600
C  43.26000 17.58500 35.91700
H  49.89200 19.10700 30.88900
H  49.09500 17.13500 24.72200
H  43.52000 14.85100 26.37800
H  46.35100 18.20100 33.65300
H  49.12700 18.10900 32.99800
H  47.91800 20.54500 31.87800
H  49.07700 20.48900 33.27600
H  47.40600 20.24300 33.58900
H  48.52500 16.38300 34.27100
H  47.05500 15.54700 33.97300
H  47.83400 16.35600 36.32500
H  46.16700 16.52800 35.89800
H  51.58100 19.68400 29.79900
H  51.67900 20.39200 28.13000
H  52.76100 19.02700 28.58800
H  52.80200 19.81500 26.37500
H  53.44400 18.96000 24.92500
H  53.52800 18.11600 26.49100
H  47.27800 15.73800 23.61300
H  44.33900 15.92100 24.41900
H  45.28700 17.70700 23.31600
H  47.01200 17.96900 22.88100
H  46.30600 18.42700 24.51300
H  45.16000 13.31300 25.16100
H  46.30000 13.61300 23.94700
H  43.96000 14.43500 22.56500
H  43.37000 13.11100 23.44000
H  44.73300 12.83200 22.36800
H  42.10500 13.00300 28.70000
H  41.34600 14.51700 27.94400
H  41.19600 14.16200 29.67000
H  44.55900 15.15000 33.40200
H  42.17300 17.51800 35.92100
H  43.66800 18.56600 35.67200
H  43.66100 17.37700 36.91000
Mg -5.40300 25.09200 25.91100
C  -3.82800 26.21200 28.91200
C  -7.33100 22.99300 28.00800
C  -6.46100 23.33600 23.20700
C  -3.06200 26.78600 24.05400
N  -5.48800 24.66900 28.19700
C  -4.84800 25.32000 29.23500
C  -5.31000 24.85400 30.62300
C  -6.25700 23.65700 30.24300
C  -6.42400 23.79900 28.74600
C  -5.91200 22.25300 30.71800
C  -6.02700 25.96900 31.44800
C  -5.68900 26.16100 32.94800
H  -5.10800 25.00100 33.76800
N  -6.82300 23.48200 25.64700
C  -7.57600 22.84800 26.63900
C  -8.56000 22.01800 26.00300
C  -8.24200 21.99600 24.60700
C  -7.13100 22.95700 24.44100
C  -9.71500 21.38600 26.77600
C  -8.94200 21.12700 23.49800
O  -8.66200 21.25100 22.31300
C  -9.90100 20.00600 23.81800
N  -4.80800 24.97700 23.85800
C  -5.48300 24.26000 22.98800
C  -4.75200 24.51900 21.64800
C  -3.80200 25.69200 21.84100
C  -3.87300 25.85500 23.34500
C  -4.21400 23.17100 21.08100
C  -4.06300 27.02800 21.08600
C  -3.10400 27.34000 19.98600
N  -3.86100 26.34700 26.30100
C  -3.08000 26.96200 25.44200
C  -2.15700 27.85600 26.14000
C  -2.39900 27.54500 27.55500
C  -3.44700 26.63800 27.56500
C  -1.16400 28.85000 25.62000
C  -2.02300 27.90900 28.95100
O  -1.12000 28.70400 29.32200
C  -3.00800 27.16300 29.85300
C  -2.15000 26.34300 30.93700
O  -1.59600 25.29100 30.78000
O  -2.00200 27.11400 32.04300
C  -1.18500 26.53400 33.16400
H  -7.87400 22.22300 28.56100
H  -6.79100 22.74800 22.34800
H  -2.34500 27.38600 23.49000
H  -4.43000 24.43200 31.11000
H  -7.17800 23.82300 30.80100
H  -5.99900 21.65800 29.80900
H  -6.62500 21.90500 31.46600
H  -4.88300 22.30000 31.07400
H  -7.09700 25.80100 31.33000
H  -5.75400 26.84900 30.86600
H  -6.52900 26.57200 33.50700
H  -4.99000 26.99600 32.98300
H  -9.87900 21.85900 27.74400
H  -9.39000 20.39800 27.10500
H  -10.67100 21.41200 26.25300
H  -9.73300 19.35900 22.95700
H  -10.89500 20.36000 24.09200
H  -9.66100 19.51300 24.76000
H  -5.46100 24.89600 20.91100
H  -2.78100 25.33200 21.71100
H  -4.99700 22.42500 21.21700
H  -3.34100 22.76000 21.58700
H  -3.91600 23.36600 20.05100
H  -3.95600 27.86500 21.77600
H  -5.03900 26.96000 20.60600
H  -2.35200 28.06300 20.30200
H  -3.56100 27.77200 19.09600
H  -2.58200 26.41500 19.74200
H  -0.35900 28.79300 26.35200
H  -1.61200 29.83700 25.73600
H  -0.80400 28.70900 24.60100
H  -3.62400 27.87500 30.40300
H  -0.15300 26.88400 33.13900
H  -1.17700 25.44500 33.10200
H  -1.65300 26.72400 34.13000

