158

Mg 8.61300 3.17300 27.39600
C  9.65600 1.78000 30.44500
C  6.24300 5.02900 29.12400
C  7.59300 4.46700 24.55000
C  10.32700 0.71700 25.81200
N  8.03500 3.29200 29.48400
C  8.64400 2.74100 30.55700
C  8.06400 3.16000 31.91800
C  6.90800 4.06200 31.42000
C  7.05200 4.16400 29.86000
C  5.44000 3.84200 31.91000
C  8.99600 3.91800 32.81600
C  8.51900 4.73000 34.02100
H  9.11800 4.55700 35.35700
N  7.06600 4.56200 26.85200
C  6.31600 5.32500 27.76000
C  5.52500 6.23700 26.98600
C  5.93900 6.19900 25.65000
C  6.91800 5.03000 25.56500
C  4.48700 7.16900 27.66900
C  5.61400 7.05700 24.43200
O  6.07900 6.86300 23.28500
C  4.59900 8.15900 24.64900
N  8.86100 2.65500 25.43400
C  8.58900 3.49600 24.44800
C  9.17400 2.97600 23.15000
C  9.87300 1.72200 23.49300
C  9.67200 1.71300 25.01400
C  8.13000 2.74400 22.03400
C  11.34700 1.54300 23.01400
C  11.48500 0.77200 21.66200
N  9.79100 1.58200 27.97100
C  10.43600 0.66800 27.21500
C  11.26200 -0.19900 28.02400
C  10.97700 0.19900 29.31500
C  10.02500 1.26200 29.22000
C  12.18200 -1.26600 27.45700
C  11.21100 0.00600 30.73800
O  11.85200 -0.89100 31.23400
C  10.34300 0.96400 31.53800
C  9.55100 0.05200 32.53800
O  8.73700 -0.80700 32.32300
O  10.10600 0.29900 33.75800
C  9.64800 -0.33400 34.97700
H  5.57300 5.62000 29.75300
H  7.35200 4.90300 23.57800
H  10.91800 -0.04600 25.30200
H  7.66700 2.28300 32.42800
H  7.13400 5.09300 31.69500
H  4.91400 3.33000 31.10500
H  5.02500 4.78000 32.28100
H  5.52900 3.30200 32.85300
H  9.57300 4.62000 32.21300
H  9.76400 3.20100 33.10700
H  7.46400 4.46800 34.09600
H  8.65700 5.76500 33.70800
H  3.55500 7.19200 27.10300
H  4.72500 8.23300 27.66600
H  4.22100 6.89100 28.68900
H  4.35700 8.71200 23.74200
H  5.03300 8.91900 25.29900
H  3.68600 7.68600 25.01100
H  9.85900 3.73100 22.76500
H  9.17600 0.92500 23.23200
H  7.85500 1.71300 21.81000
H  8.63600 3.01300 21.10600
H  7.34500 3.49000 22.15100
H  11.94300 1.20500 23.86100
H  11.66100 2.52800 22.66800
H  10.52200 0.50100 21.22900
H  12.09800 -0.11300 21.83400
H  11.84200 1.48700 20.92100
H  12.29900 -1.14300 26.38000
H  11.94700 -2.30400 27.69400
H  13.14200 -1.07700 27.93700
H  11.13600 1.52800 32.02900
H  9.42700 0.55000 35.57600
H  10.50900 -0.89700 35.33500
H  8.75500 -0.93900 34.82100
Mg 23.50300 -6.57700 46.17000
C  25.93000 -4.40800 44.97800
C  21.20500 -4.92900 44.06700
C  21.19400 -8.84700 46.99800
C  25.89700 -8.38200 47.86300
N  23.69800 -5.07900 44.41400
C  24.75900 -4.21100 44.30700
C  24.42000 -3.11600 43.23400
C  22.83100 -3.14700 43.32600
C  22.56400 -4.47900 43.97600
C  22.16400 -1.88100 44.11200
C  25.15800 -3.33700 41.88300
C  26.01400 -2.16100 41.30900
H  25.41800 -1.37600 40.24200
N  21.44800 -6.84300 45.68800
C  20.74300 -6.00800 44.86200
C  19.37700 -6.46800 44.79900
C  19.28400 -7.63100 45.58900
C  20.64200 -7.87600 46.16400
C  18.28500 -5.92600 43.80800
C  18.04000 -8.56500 45.77400
O  16.96500 -8.27600 45.36400
C  18.14800 -9.97600 46.43300
N  23.59400 -8.39600 47.21700
C  22.45900 -9.13700 47.47200
C  22.84000 -10.44900 48.19600
C  24.45500 -10.32400 48.48100
C  24.64400 -8.93300 47.95000
C  22.03500 -10.97200 49.46100
C  25.29500 -11.39800 47.87400
C  26.57700 -11.81700 48.59100
N  25.43000 -6.47900 46.46400
C  26.32200 -7.25000 47.17400
C  27.66000 -6.72600 47.01400
C  27.53400 -5.54100 46.26200
C  26.17400 -5.45000 45.85800
C  28.86200 -7.27400 47.53700
C  28.32700 -4.37800 45.82800
O  29.47400 -3.98900 45.97000
C  27.27500 -3.60000 44.94000
C  27.24300 -2.24100 45.49100
O  26.51400 -1.80700 46.37900
O  28.19900 -1.51600 44.85000
C  28.20800 -0.02400 45.16200
H  20.49100 -4.24100 43.60900
H  20.63000 -9.71600 47.34500
H  26.69400 -8.91500 48.38500
H  24.77600 -2.12100 43.50200
H  22.35600 -3.15400 42.34500
H  22.83600 -1.07200 43.82600
H  22.11900 -2.00300 45.19400
H  21.20100 -1.59900 43.68600
H  24.46500 -3.69600 41.12200
H  25.79500 -4.21000 42.03000
H  26.86900 -2.73100 40.94600
H  26.46000 -1.49700 42.04900
H  18.24800 -6.32700 42.79500
H  18.40600 -4.85100 43.67200
H  17.27200 -6.04500 44.19300
H  17.24900 -10.58700 46.35800
H  18.43000 -9.79900 47.47000
H  18.95600 -10.47500 45.89800
H  22.75000 -11.17600 47.38900
H  24.58800 -10.40000 49.56000
H  22.69700 -11.11400 50.31400
H  21.55400 -11.93200 49.27800
H  21.26700 -10.26600 49.77700
H  25.51100 -11.00800 46.88000
H  24.71600 -12.31500 47.76100
H  27.34200 -11.21300 48.10400
H  26.71100 -12.89900 48.56000
H  26.56300 -11.47100 49.62400
H  28.80200 -7.54500 48.59100
H  29.69000 -6.58700 47.36300
H  29.08900 -8.16100 46.94600
H  27.65700 -3.51100 43.92300
H  28.91700 0.42200 44.46500
H  28.53300 0.20100 46.17700
H  27.23100 0.45300 45.07300

