158

Mg 25.83900 1.01200 29.13800
C  27.67600 0.56300 32.14200
C  23.04700 1.22500 30.99700
C  24.06300 1.11600 26.33200
C  28.75400 0.11100 27.42900
N  25.38400 0.65000 31.42900
C  26.29200 0.70400 32.40200
C  25.58000 0.81100 33.78300
C  24.04000 0.95800 33.39000
C  24.13300 0.88900 31.84600
C  23.09500 -0.10800 33.88700
C  26.30800 1.97800 34.56000
C  25.56600 2.69400 35.67300
H  26.10000 2.34300 37.14100
N  23.75900 1.11400 28.72500
C  22.81000 1.36300 29.63200
C  21.55900 1.61000 28.90900
C  21.78900 1.51900 27.50200
C  23.21500 1.19000 27.42800
C  20.19800 1.90900 29.63000
C  20.92800 1.81100 26.33600
O  21.26300 1.67300 25.15500
C  19.51500 2.20800 26.53100
N  26.36800 0.68300 27.12600
C  25.42400 0.86800 26.14600
C  26.04600 0.75900 24.75800
C  27.59900 0.59100 25.11600
C  27.62900 0.45000 26.63500
C  25.45000 -0.41900 23.87000
C  28.52400 1.85100 24.65600
C  29.95800 1.38000 24.14000
N  27.84700 0.51200 29.62100
C  28.87600 0.13300 28.81400
C  30.08300 -0.22800 29.56500
C  29.66200 0.05800 30.87800
C  28.30700 0.40200 30.88300
C  31.43100 -0.68700 29.01300
C  30.03700 -0.01100 32.27400
O  31.14700 -0.22400 32.73800
C  28.81500 0.29900 33.16900
C  28.54300 -0.85200 34.10700
O  27.86300 -1.79100 33.89000
O  29.14200 -0.53100 35.30600
C  28.65500 -1.44900 36.38600
H  22.10600 1.40700 31.51900
H  23.54600 1.07400 25.37100
H  29.64700 -0.23000 26.90100
H  25.72100 -0.18800 34.19400
H  23.60300 1.91700 33.66900
H  23.60700 -0.82600 34.52700
H  22.66800 -0.73500 33.10500
H  22.30700 0.31800 34.50900
H  26.50400 2.80700 33.88000
H  27.26100 1.64100 34.96900
H  24.53000 2.36000 35.73100
H  25.66300 3.75200 35.42900
H  19.60300 1.00000 29.54100
H  19.68400 2.75100 29.16600
H  20.30500 2.15200 30.68700
H  19.11000 2.47300 25.55400
H  19.48000 3.03000 27.24600
H  18.99200 1.31200 26.86400
H  25.85700 1.70000 24.24200
H  28.06000 -0.35900 24.84500
H  24.99400 -1.15400 24.53300
H  26.25000 -0.81100 23.24200
H  24.71000 0.06300 23.23000
H  28.60800 2.46800 25.55000
H  28.06300 2.54800 23.95600
H  30.72300 1.77600 24.80700
H  30.18500 1.81500 23.16600
H  30.00600 0.29100 24.15300
H  31.94700 0.13900 28.52300
H  31.31300 -1.31300 28.12800
H  32.19900 -1.09300 29.67000
H  28.89900 1.21000 33.76200
H  28.81400 -2.49500 36.12300
H  27.57500 -1.39800 36.52400
H  29.06300 -1.22500 37.37100
Mg 47.74700 15.86000 28.47500
C  45.91500 15.97100 31.52400
C  50.21000 17.41300 30.09700
C  49.19800 16.44900 25.50900
C  44.91500 14.72600 26.94100
N  47.97300 16.80500 30.54600
C  47.10500 16.57500 31.61700
C  47.77500 17.14600 32.89100
C  49.10300 17.88400 32.33500
C  49.17100 17.27000 30.93700
C  49.16400 19.44100 32.36200
C  48.03900 15.99400 33.87700
C  47.45300 16.17800 35.29600
H  47.03900 17.56200 35.79200
N  49.51800 16.67000 27.91300
C  50.46100 17.23500 28.72000
C  51.58300 17.57300 27.86300
C  51.34500 17.17300 26.52800
C  49.93500 16.80700 26.60200
C  52.85400 18.13900 28.45100
C  52.20300 17.30300 25.27500
O  51.81100 17.16700 24.11000
C  53.58500 17.79200 25.45300
N  47.04000 15.84400 26.51300
C  47.92100 15.95400 25.42100
C  47.24000 15.61300 24.03700
C  45.84300 15.05900 24.51000
C  45.86200 15.24800 26.06900
C  47.28900 16.71800 22.93800
C  45.53800 13.63300 24.06900
C  46.45400 12.55500 24.55300
N  45.90200 15.28400 29.04800
C  44.90600 14.70600 28.29400
C  43.90700 14.24900 29.16800
C  44.23600 14.70000 30.43200
C  45.42900 15.37800 30.29400
C  42.69000 13.39700 28.80500
C  43.80000 14.81800 31.83100
O  42.78700 14.30600 32.34000
C  44.84000 15.69900 32.60000
C  44.17200 16.89800 33.19300
O  44.12700 18.00600 32.78000
O  43.59200 16.42000 34.32700
C  42.69700 17.40800 34.90500
H  50.99900 17.94200 30.63600
H  49.77000 16.44800 24.57900
H  44.02500 14.21500 26.56600
H  47.04300 17.86400 33.26200
H  49.97000 17.59000 32.92600
H  49.98800 19.78900 32.98400
H  48.22800 19.98000 32.51200
H  49.53400 19.69100 31.36800
H  49.11400 15.82400 33.92700
H  47.69500 15.01000 33.55900
H  48.21000 15.80100 35.98400
H  46.65300 15.44500 35.40100
H  52.85300 18.70600 29.38200
H  53.18700 18.88700 27.73200
H  53.62700 17.38000 28.57100
H  54.18400 17.61700 24.55900
H  54.00900 17.09500 26.17600
H  53.64800 18.85400 25.69300
H  47.90800 14.90600 23.54600
H  45.02900 15.66600 24.11500
H  47.90400 17.55100 23.27800
H  46.30300 17.05500 22.61700
H  47.78200 16.31800 22.05200
H  45.38400 13.64100 22.99000
H  44.52000 13.44500 24.41200
H  46.50000 11.83200 23.73900
H  45.99200 12.04600 25.39900
H  47.44000 12.94600 24.80600
H  42.94100 12.44900 28.32800
H  42.04000 13.88200 28.07800
H  42.14200 13.27400 29.73900
H  45.10900 15.07400 33.45100
H  41.76700 17.55500 34.35600
H  43.13700 18.40400 34.96200
H  42.58400 17.15400 35.95900

