158

Mg 49.33900 45.42500 43.37600
C  45.95900 46.00100 42.48100
C  48.96500 42.18100 42.48400
C  52.66500 45.18400 43.55600
C  49.65700 49.09600 43.70900
N  47.63300 44.30800 42.61900
C  46.33800 44.65900 42.43700
C  45.49700 43.46200 42.04500
C  46.43700 42.29200 42.26300
C  47.76000 42.98900 42.45000
C  46.04200 41.36300 43.38600
C  45.03400 43.43600 40.47900
C  46.10600 43.71900 39.33900
H  46.23000 42.69000 38.20800
N  50.67700 43.83600 43.08100
C  50.28400 42.60800 42.65000
C  51.47300 41.75100 42.65200
C  52.61600 42.54800 43.12200
C  52.05100 43.90900 43.25500
C  51.46400 40.23000 42.27800
C  54.06500 42.05600 43.40600
O  54.25000 40.82000 43.37300
C  55.28900 42.97600 43.66300
N  50.91500 47.00700 43.61000
C  52.22000 46.50900 43.69300
C  53.15000 47.73000 44.01200
C  52.23000 48.95800 43.82000
C  50.80900 48.32600 43.79000
C  53.71000 47.61600 45.42900
C  52.44800 49.84200 42.52100
C  53.03000 51.25800 42.74500
N  48.11300 47.28700 43.13600
C  48.36200 48.60600 43.31400
C  47.11600 49.37300 43.04400
C  46.11900 48.41000 42.68500
C  46.81000 47.14800 42.77700
C  46.92700 50.89900 43.06900
C  44.73900 48.15600 42.42300
O  43.83100 48.92600 42.33800
C  44.66900 46.59300 42.11400
C  43.47700 45.96900 42.78900
O  42.50000 45.54000 42.24400
O  43.54000 46.32000 44.15800
C  42.31000 46.07600 44.89900
H  48.75300 41.12500 42.30500
H  53.74200 45.07900 43.70400
H  49.72000 50.18400 43.78500
H  44.60100 43.54700 42.65900
H  46.58000 41.74100 41.33400
H  45.35100 41.93800 44.00200
H  46.94800 40.96800 43.84600
H  45.44800 40.50200 43.07900
H  44.23000 44.17100 40.42500
H  44.51700 42.51100 40.22300
H  47.06800 43.77600 39.84800
H  45.94400 44.70900 38.91300
H  50.51400 40.01500 41.78900
H  51.44900 39.56900 43.14400
H  52.30500 40.03400 41.61300
H  55.14900 43.81700 42.98400
H  56.18100 42.43000 43.35500
H  55.34200 43.15400 44.73700
H  54.00900 47.67200 43.34300
H  52.34000 49.52300 44.74500
H  53.56300 48.45500 46.10800
H  54.78700 47.56700 45.26800
H  53.32800 46.68700 45.85100
H  51.53000 49.92900 41.93900
H  53.13800 49.24800 41.92200
H  53.36400 51.28800 43.78200
H  52.34000 52.06600 42.50000
H  53.91800 51.43700 42.13900
H  47.40100 51.53000 43.82100
H  45.85700 51.04000 42.92100
H  47.43300 51.18700 42.14700
H  44.48200 46.43400 41.05200
H  41.97500 45.04000 44.86100
H  41.55300 46.78200 44.55700
H  42.52800 46.37700 45.92400
Mg -5.97000 24.96000 26.32100
C  -4.29600 26.43200 28.96200
C  -7.72200 22.86600 28.59800
C  -7.47400 23.30400 23.77100
C  -4.16400 26.82800 24.06300
N  -6.04000 24.71400 28.54900
C  -5.25900 25.48100 29.40700
C  -5.58600 25.13000 30.87900
C  -6.59200 23.83000 30.73400
C  -6.83400 23.78900 29.16300
C  -5.94300 22.50300 31.22000
C  -6.27200 26.35000 31.63500
C  -5.90800 26.66300 33.10500
H  -5.40000 25.53600 33.89800
N  -7.44100 23.40500 26.27000
C  -8.07700 22.70200 27.20000
C  -9.14300 21.87900 26.72300
C  -9.05300 22.08200 25.27400
C  -7.90500 22.97800 25.07400
C  -9.94800 20.94100 27.57400
C  -9.93400 21.43300 24.25700
O  -9.83600 21.71400 23.06600
C  -11.05900 20.47300 24.55800
N  -5.77800 25.04800 24.21400
C  -6.51500 24.20900 23.43200
C  -6.00400 24.41700 21.96400
C  -5.12300 25.70900 21.99200
C  -4.98000 25.86300 23.47500
C  -5.10200 23.16100 21.54300
C  -5.95400 26.84400 21.34700
C  -5.31700 27.53500 20.10500
N  -4.43200 26.25500 26.43800
C  -3.82900 27.02400 25.42500
C  -2.90600 27.98000 26.05100
C  -3.02500 27.70000 27.43600
C  -4.04500 26.75200 27.56800
C  -2.05200 28.98900 25.34000
C  -2.60500 28.16000 28.72800
O  -1.86300 29.08800 29.01500
C  -3.30600 27.27100 29.79100
C  -2.25100 26.40600 30.36400
O  -1.37400 25.81000 29.74000
O  -2.38200 26.37400 31.75800
C  -1.36800 25.54400 32.45800
H  -8.25700 22.29700 29.36100
H  -7.92300 22.79700 22.91500
H  -3.63600 27.49200 23.37700
H  -4.65300 24.87300 31.38000
H  -7.49400 24.08500 31.29000
H  -5.05900 22.71100 31.82300
H  -5.65200 21.90500 30.35700
H  -6.63700 21.93700 31.84200
H  -7.35100 26.21400 31.56100
H  -6.17200 27.24300 31.01700
H  -6.77300 27.02100 33.66300
H  -5.09900 27.39200 33.06200
H  -9.72800 19.89200 27.37900
H  -11.00100 21.07800 27.33000
H  -9.79200 21.23700 28.61200
H  -11.50900 20.16900 23.61300
H  -11.77900 20.99400 25.18900
H  -10.72200 19.55800 25.04500
H  -6.84300 24.54300 21.28000
H  -4.11500 25.59400 21.59500
H  -4.06600 23.45500 21.37700
H  -5.46600 22.88100 20.55400
H  -5.12600 22.35500 22.27500
H  -6.08600 27.65900 22.05900
H  -6.92500 26.52300 20.97000
H  -6.07100 27.52800 19.31800
H  -4.44100 26.97800 19.77300
H  -4.91600 28.53700 20.25900
H  -2.44500 30.00500 25.37300
H  -1.97300 28.73000 24.28400
H  -1.00900 28.93000 25.65100
H  -3.58700 27.94500 30.60000
H  -1.78300 25.28000 33.43100
H  -0.53100 26.22700 32.60500
H  -1.01700 24.72200 31.83400

