158

Mg -1.74100 17.33000 26.62400
C  -1.94800 14.87000 29.31800
C  -2.22200 19.84100 28.99000
C  -1.90800 19.48600 24.05900
C  -1.82200 14.63900 24.35600
N  -2.13900 17.25200 28.95000
C  -2.02200 16.19200 29.84300
C  -2.00100 16.75300 31.32500
C  -2.14200 18.32400 31.05800
C  -2.12600 18.50700 29.54500
C  -3.33900 19.01500 31.83600
C  -0.74200 16.21900 32.12900
C  -0.23400 17.06000 33.25800
H  0.05400 16.32400 34.54000
N  -2.06700 19.39300 26.56200
C  -2.19800 20.20900 27.64400
C  -2.23600 21.58000 27.12400
C  -1.95300 21.48000 25.71200
C  -1.98800 20.07900 25.40100
C  -2.50300 22.84300 28.03500
C  -1.59700 22.59600 24.67600
O  -1.42500 22.49400 23.44300
C  -1.57100 23.93300 25.17800
N  -1.84000 17.10500 24.54600
C  -1.83700 18.13600 23.67100
C  -1.68400 17.73000 22.23700
C  -1.64100 16.14900 22.36100
C  -1.80800 15.94200 23.85700
C  -2.87200 18.25900 21.40800
C  -0.33300 15.61700 21.82000
C  0.96800 15.87200 22.63100
N  -1.82800 15.21400 26.77400
C  -1.82400 14.25900 25.76700
C  -1.91100 12.96200 26.27800
C  -1.91700 13.14000 27.67000
C  -1.92100 14.53700 27.98800
C  -2.12100 11.68600 25.55700
C  -2.00600 12.41300 28.97600
O  -2.18900 11.26100 29.27300
C  -1.84700 13.55300 30.06100
C  -0.48000 13.34600 30.72100
O  0.60500 13.76300 30.31000
O  -0.56200 12.57200 31.94400
C  0.64500 12.27400 32.72000
H  -2.37600 20.63600 29.72300
H  -2.05400 20.13900 23.19600
H  -1.72100 13.84300 23.61500
H  -2.84500 16.31100 31.85500
H  -1.32800 18.84800 31.55800
H  -4.33100 18.92400 31.39400
H  -3.06100 20.03600 32.09900
H  -3.51300 18.56100 32.81200
H  0.00900 16.23700 31.33900
H  -0.90800 15.21100 32.50900
H  -0.91200 17.89800 33.42300
H  0.74900 17.45400 33.00300
H  -2.72900 22.62000 29.07800
H  -3.33600 23.37200 27.57200
H  -1.57100 23.40600 28.08400
H  -1.48400 24.77200 24.48900
H  -0.73700 23.88700 25.87800
H  -2.56100 24.06700 25.61500
H  -0.77100 18.15900 21.82400
H  -2.44600 15.73900 21.75000
H  -3.72600 18.45800 22.05500
H  -3.10500 17.46600 20.69700
H  -2.59700 19.14100 20.83000
H  -0.10300 16.09000 20.86500
H  -0.45900 14.56100 21.58200
H  0.81200 16.00500 23.70200
H  1.56400 16.73200 22.32300
H  1.58100 14.97600 22.53600
H  -2.13300 10.93000 26.34200
H  -1.39600 11.41600 24.78900
H  -3.14200 11.72000 25.17900
H  -2.63800 13.40800 30.79600
H  1.46700 12.94200 32.46400
H  1.00200 11.27500 32.46800
H  0.39400 12.29300 33.78100
Mg -12.35900 16.01500 41.87000
C  -9.44600 14.10500 41.40500
C  -11.11200 18.65900 40.27900
C  -15.60100 17.18700 41.72600
C  -14.00600 12.75200 42.50400
N  -10.49000 16.32100 40.95100
C  -9.33900 15.50500 40.92600
C  -8.13400 16.25200 40.30900
C  -8.73800 17.64600 40.03400
C  -10.16800 17.61000 40.54000
C  -7.93100 18.93100 40.43700
C  -7.39300 15.62200 39.12000
C  -5.85900 15.54300 39.07000
H  -5.18500 16.36300 37.93700
N  -13.19500 17.76300 41.22600
C  -12.50500 18.73200 40.57100
C  -13.29900 19.88200 40.34300
C  -14.66200 19.43200 40.63600
C  -14.53900 18.07800 41.23000
C  -12.79900 21.31200 39.89300
C  -15.93800 20.17200 40.39800
O  -15.89700 21.25200 39.87500
C  -17.27500 19.65300 40.79800
N  -14.47700 15.06400 42.04400
C  -15.54500 15.88300 42.13800
C  -16.84800 15.12500 42.49800
C  -16.32900 13.61500 42.76200
C  -14.86100 13.80200 42.29200
C  -17.63000 15.65700 43.70400
C  -17.04000 12.42700 41.97600
C  -17.10000 12.45900 40.41500
N  -11.83200 13.87600 42.16300
C  -12.62000 12.75500 42.41900
C  -11.69400 11.57900 42.57700
C  -10.43000 12.10500 42.15300
C  -10.59800 13.46400 41.91400
C  -12.02100 10.18800 42.84700
C  -9.02800 11.74700 41.87000
O  -8.41100 10.75300 42.16000
C  -8.36100 13.03300 41.27500
C  -7.14500 13.28600 42.09400
O  -7.18400 13.55400 43.30000
O  -5.98400 13.17800 41.31700
C  -4.90000 13.66600 42.15400
H  -10.68100 19.56900 39.85700
H  -16.65500 17.45900 41.64400
H  -14.54800 11.81200 42.62500
H  -7.47800 16.37300 41.17100
H  -8.98100 17.80300 38.98300
H  -6.95000 18.49500 40.62700
H  -8.28000 19.27300 41.41100
H  -7.86000 19.79800 39.77900
H  -7.63700 16.09400 38.16900
H  -7.73200 14.58800 39.06300
H  -5.64400 14.48900 38.88900
H  -5.27300 15.68800 39.97800
H  -12.70700 21.35800 38.80700
H  -11.78300 21.42000 40.27300
H  -13.41600 22.10600 40.31300
H  -17.51100 18.76100 40.21700
H  -17.99900 20.41500 40.50800
H  -17.25500 19.47100 41.87200
H  -17.55400 15.08700 41.66900
H  -16.40700 13.31700 43.80800
H  -18.68400 15.58100 43.43800
H  -17.32100 16.68300 43.90700
H  -17.49700 15.05200 44.60000
H  -18.04000 12.32000 42.39700
H  -16.73900 11.39100 42.12800
H  -16.48300 13.31800 40.15000
H  -18.06000 12.68700 39.95100
H  -16.65700 11.53900 40.03200
H  -12.55300 9.75300 42.00100
H  -12.61100 10.29700 43.75800
H  -11.09400 9.61700 42.88300
H  -8.23500 12.90400 40.20000
H  -4.89400 14.70400 42.48900
H  -4.04200 13.59800 41.48500
H  -4.74400 13.08900 43.06500

