158

Mg 16.82900 51.87200 26.55000
C  18.71800 50.73600 28.99900
C  14.47100 52.82700 28.97600
C  15.08300 53.35400 24.21700
C  19.30300 51.04900 24.15800
N  16.60400 51.74500 28.68700
C  17.57400 51.32000 29.51100
C  17.28000 51.45800 31.08600
C  15.76200 51.88100 30.97000
C  15.61200 52.24200 29.50500
C  14.79400 50.82300 31.53300
C  18.34500 52.43700 31.87700
C  18.30200 52.17900 33.43800
H  17.18200 51.47900 34.16800
N  14.91600 52.81500 26.58000
C  14.11800 53.11400 27.64300
C  12.87800 53.86800 27.16100
C  13.05300 54.07500 25.76000
C  14.36000 53.36200 25.43300
C  11.67200 54.26100 27.97500
C  12.16300 54.70000 24.69700
O  12.48200 54.64400 23.50400
C  10.90000 55.54800 25.03000
N  17.16500 52.06700 24.48000
C  16.25200 52.71900 23.76400
C  16.69300 53.16400 22.35400
C  17.96300 52.26400 22.25600
C  18.23100 51.85400 23.72000
C  15.67700 52.98400 21.20400
C  19.24100 52.87400 21.50400
C  19.73700 52.02000 20.29400
N  18.49600 50.82800 26.46400
C  19.43000 50.62700 25.45800
C  20.50400 49.83200 26.02200
C  20.27500 49.92500 27.40700
C  19.08100 50.54600 27.61700
C  21.64600 49.22400 25.30400
C  20.81600 49.48400 28.67400
O  21.74900 48.71900 28.89300
C  19.88500 50.12200 29.76300
C  19.50500 49.05300 30.66100
O  18.66600 48.13900 30.46600
O  20.14700 49.11200 31.83000
C  19.49500 48.34800 32.93800
H  13.71300 53.10900 29.71000
H  14.86700 54.13300 23.48300
H  20.08400 50.80200 23.43600
H  17.35300 50.50800 31.61600
H  15.55800 52.82000 31.48600
H  15.19600 50.10700 32.25000
H  14.32000 50.30300 30.70000
H  13.94300 51.28100 32.03700
H  17.98400 53.41700 31.56500
H  19.38000 52.31400 31.55600
H  18.52900 53.11800 33.94200
H  19.16600 51.51400 33.45600
H  10.80400 53.62200 27.81500
H  11.31900 55.28800 27.87800
H  11.90100 54.13000 29.03300
H  10.26000 55.50100 24.14800
H  11.11500 56.60600 25.18000
H  10.37200 55.06400 25.85200
H  17.01300 54.20000 22.46700
H  17.75600 51.36100 21.68100
H  14.92700 52.26300 21.52900
H  16.19900 52.74600 20.27700
H  15.14400 53.91900 21.03100
H  20.02600 52.83800 22.26000
H  19.07700 53.91800 21.23600
H  19.43400 52.56000 19.39700
H  19.38400 50.99000 20.25500
H  20.82600 52.04700 20.33600
H  21.46100 48.19400 24.99700
H  22.54900 49.28600 25.91200
H  21.70800 49.67400 24.31300
H  20.45400 50.84000 30.35400
H  18.45700 48.65600 33.06000
H  20.02000 48.57500 33.86600
H  19.52100 47.27900 32.72600
Mg -5.55300 26.18100 25.61000
C  -3.81200 27.59900 28.33300
C  -7.12700 24.04100 27.76900
C  -6.63500 24.59900 22.95000
C  -3.69900 28.44100 23.46700
N  -5.52800 25.95700 27.78900
C  -4.72200 26.60500 28.69200
C  -5.14600 26.30400 30.09800
C  -5.96800 24.94200 29.92700
C  -6.29400 25.01600 28.40900
C  -5.20900 23.62900 30.27300
C  -6.09000 27.37800 30.65400
C  -5.70600 27.92800 32.06200
H  -4.97000 27.06400 33.08700
N  -6.65900 24.49000 25.41800
C  -7.28500 23.79900 26.38400
C  -8.10600 22.71500 25.83700
C  -7.96800 22.83600 24.42700
C  -7.07400 24.01300 24.20400
C  -8.96000 21.74900 26.65700
C  -8.65000 22.00000 23.35400
O  -8.44500 22.23500 22.18400
C  -9.64700 20.88900 23.66900
N  -5.15700 26.49400 23.46400
C  -5.83300 25.72900 22.58000
C  -5.56800 26.17300 21.07800
C  -4.70300 27.43400 21.33900
C  -4.52500 27.51000 22.82500
C  -4.83600 25.04500 20.34300
C  -5.29500 28.74000 20.67200
C  -4.37000 29.49500 19.72700
N  -3.97700 27.64900 25.82900
C  -3.37600 28.47900 24.81900
C  -2.46400 29.45000 25.46800
C  -2.55200 29.07200 26.82600
C  -3.50800 28.05100 27.02200
C  -1.67000 30.52200 24.74100
C  -2.01800 29.34000 28.14900
O  -1.22200 30.16300 28.59800
C  -2.80000 28.38900 29.16500
C  -1.75200 27.55000 29.80700
O  -1.26200 26.50900 29.38600
O  -1.24500 28.18600 30.90000
C  -0.40100 27.43000 31.74100
H  -7.75000 23.48900 28.47600
H  -7.15400 24.19800 22.07700
H  -3.32800 29.16500 22.73900
H  -4.27000 26.16000 30.73200
H  -6.89400 24.99100 30.50000
H  -4.21300 23.91900 30.61000
H  -5.17600 22.93600 29.43200
H  -5.73000 23.05200 31.03700
H  -7.14500 27.13400 30.78200
H  -6.01200 28.21700 29.96300
H  -6.56200 28.40600 32.53900
H  -5.16500 28.86700 31.94800
H  -8.62300 20.79200 26.25900
H  -10.02500 21.87800 26.46300
H  -8.78300 21.84800 27.72800
H  -10.23500 20.52200 22.82800
H  -10.38300 21.31900 24.34800
H  -9.09600 20.10100 24.18300
H  -6.49700 26.42300 20.56600
H  -3.73200 27.22500 20.89200
H  -4.39600 24.22100 20.90400
H  -4.14200 25.36500 19.56600
H  -5.68300 24.65300 19.77900
H  -5.61100 29.46700 21.42000
H  -6.21900 28.59000 20.11500
H  -5.00600 30.21300 19.20800
H  -3.90200 28.90900 18.93600
H  -3.60800 30.02800 20.29600
H  -2.02400 30.61900 23.71500
H  -0.60200 30.30800 24.71400
H  -1.71300 31.56000 25.07200
H  -3.36600 28.90600 29.94000
H  -0.42200 26.36000 31.53500
H  -0.75600 27.54300 32.76500
H  0.61100 27.76200 31.50900

