158

Mg 40.85200 9.02200 28.74800
C  42.12300 9.99300 31.87300
C  38.50000 7.07700 30.50400
C  39.79000 7.65700 25.76900
C  43.51900 10.50200 27.20200
N  40.29700 8.68100 30.93500
C  40.97800 9.20000 32.00400
C  40.31400 8.78700 33.35600
C  39.18200 7.74000 32.95200
C  39.17100 7.90700 31.34000
C  39.32200 6.28700 33.47700
C  39.76800 9.95200 34.20400
C  40.25900 9.98700 35.68300
H  40.51600 11.33400 36.37700
N  39.24900 7.62700 28.23400
C  38.41500 7.01100 29.07100
C  37.50800 6.17200 28.27500
C  37.90400 6.31100 26.89000
C  39.03700 7.18500 26.90900
C  36.39400 5.30100 28.89800
C  37.24600 5.75500 25.68000
O  37.69100 5.95000 24.51700
C  36.06400 4.79100 25.72800
N  41.56500 9.00800 26.85000
C  40.90300 8.45500 25.73700
C  41.56800 8.91400 24.40800
C  42.69100 9.85300 24.87000
C  42.55600 9.84100 26.40000
C  42.07200 7.66900 23.60000
C  42.65400 11.26900 24.26200
C  41.30900 11.99700 24.20800
N  42.50800 10.07700 29.29400
C  43.54800 10.56000 28.59000
C  44.48500 11.21100 29.48900
C  43.97100 11.05700 30.77400
C  42.80100 10.32300 30.65400
C  45.72100 11.85200 29.07200
C  44.10600 11.35600 32.10300
O  45.02200 12.02700 32.57800
C  42.98700 10.66600 32.94400
C  43.81500 9.73800 33.84200
O  44.21000 8.64800 33.48400
O  44.03900 10.31300 35.08600
C  45.01000 9.59600 35.95400
H  37.69600 6.56300 31.03400
H  39.35400 7.36400 24.81200
H  44.30200 11.07700 26.70300
H  41.04800 8.17200 33.87600
H  38.22500 8.12700 33.30200
H  38.93400 5.59000 32.73400
H  38.61500 6.27000 34.30600
H  40.38000 6.16800 33.71300
H  38.68100 9.88500 34.19200
H  39.92900 10.90600 33.70200
H  41.06000 9.27200 35.86900
H  39.50100 9.48700 36.28700
H  35.41500 5.61400 28.53600
H  36.41800 5.32600 29.98700
H  36.48700 4.25700 28.59800
H  36.25200 3.94900 26.39300
H  35.85000 4.54900 24.68800
H  35.19800 5.35100 26.08200
H  40.69300 9.17100 23.81100
H  43.62400 9.32700 24.66300
H  42.87500 7.98200 22.93200
H  41.33400 7.16000 22.98000
H  42.34700 6.90300 24.32500
H  43.15600 11.20200 23.29700
H  43.24400 11.85500 24.96800
H  40.57300 11.62700 24.92100
H  40.83000 11.92200 23.23200
H  41.46400 13.05700 24.41000
H  45.59600 12.37500 28.12400
H  46.55400 11.15500 28.97100
H  45.92500 12.56000 29.87500
H  42.43700 11.40200 33.53000
H  44.67600 8.62000 36.30700
H  45.30900 10.26200 36.76300
H  45.86500 9.29100 35.35000
Mg -6.59900 25.08300 25.11800
C  -5.08100 26.50600 27.96700
C  -8.29000 22.99200 27.24500
C  -7.54400 23.24900 22.42400
C  -5.03300 27.40100 23.22700
N  -6.51900 24.70100 27.30200
C  -5.93500 25.47900 28.30700
C  -6.46200 25.02600 29.74600
C  -7.15000 23.69700 29.38300
C  -7.34200 23.75500 27.88000
C  -6.36500 22.45300 29.90400
C  -7.62400 26.11200 30.23200
C  -7.37200 26.70600 31.68500
H  -6.85800 25.67600 32.73400
N  -7.72900 23.33200 24.86900
C  -8.46800 22.75400 25.88000
C  -9.33400 21.73100 25.30400
C  -9.03400 21.69700 23.85400
C  -8.04900 22.77600 23.59600
C  -10.17800 20.88000 26.20400
C  -9.67700 20.89700 22.76100
O  -9.45400 21.15300 21.59000
C  -10.74100 19.90000 23.05500
N  -6.54400 25.38900 23.09700
C  -6.94000 24.49200 22.17400
C  -6.38500 24.93400 20.85000
C  -6.04700 26.39000 21.07100
C  -5.81600 26.44400 22.55100
C  -5.24000 24.04600 20.37800
C  -7.09100 27.45700 20.49600
C  -6.46700 28.31500 19.40100
N  -5.33100 26.71800 25.41900
C  -4.75500 27.56200 24.58700
C  -3.94300 28.56900 25.33800
C  -4.06800 28.12800 26.71600
C  -4.93500 26.99100 26.66900
C  -3.20400 29.74300 24.84700
C  -3.66800 28.51100 28.05700
O  -2.89700 29.33000 28.50200
C  -4.34800 27.34100 28.96900
C  -3.31000 26.62800 29.63800
O  -2.42400 25.94000 29.21100
O  -3.21100 27.10200 30.93200
C  -2.29700 26.54700 31.97300
H  -8.97400 22.45800 27.90800
H  -7.89300 22.78100 21.50100
H  -4.58000 28.09600 22.51700
H  -5.66600 24.92000 30.48300
H  -8.11300 23.56600 29.87600
H  -5.41000 22.70100 30.36700
H  -6.16500 21.78000 29.07100
H  -7.02900 21.90600 30.57300
H  -8.60900 25.64700 30.28500
H  -7.69200 26.96400 29.55500
H  -8.27100 27.07600 32.17700
H  -6.81700 27.64200 31.62200
H  -10.95700 20.36800 25.63800
H  -10.67100 21.43800 27.00000
H  -9.42500 20.24400 26.66800
H  -10.38300 19.16200 23.77300
H  -11.12000 19.47500 22.12700
H  -11.56800 20.52500 23.39200
H  -6.94700 24.84100 19.92100
H  -5.07200 26.57200 20.61800
H  -4.53300 24.69000 19.85400
H  -5.58600 23.40600 19.56700
H  -4.63900 23.51100 21.11300
H  -7.34400 28.14200 21.30500
H  -8.03700 27.01900 20.17900
H  -6.82900 28.05700 18.40600
H  -5.37800 28.34000 19.35600
H  -6.71400 29.37500 19.46000
H  -3.64600 29.98500 23.88000
H  -2.14500 29.48700 24.84900
H  -3.29100 30.59000 25.52700
H  -4.89600 27.76800 29.80900
H  -1.31000 26.48200 31.51400
H  -2.72500 25.60600 32.32000
H  -2.20600 27.27400 32.78000

