158

Mg -10.22100 17.39400 40.73300
C  -6.78400 17.19000 40.90900
C  -9.84800 20.76800 40.16100
C  -13.56500 17.52600 40.09100
C  -10.28600 13.98600 40.55200
N  -8.52400 18.78900 40.45800
C  -7.26700 18.47600 40.68600
C  -6.29800 19.68800 40.46500
C  -7.31200 20.90400 40.72100
C  -8.66000 20.11900 40.49800
C  -7.27700 21.44800 42.11800
C  -5.59900 19.72200 39.06100
C  -4.09400 19.46200 39.03400
H  -3.50900 18.65000 37.92700
N  -11.52100 18.91400 40.18900
C  -11.16600 20.27000 39.96400
C  -12.30500 21.01700 39.59400
C  -13.45300 20.14800 39.74000
C  -12.86900 18.78300 39.95400
C  -12.19800 22.49400 39.13800
C  -14.91300 20.56800 39.66300
O  -15.19900 21.73300 39.50200
C  -15.99200 19.61400 39.60600
N  -11.72800 15.93000 40.47600
C  -13.01500 16.23200 40.36700
C  -13.80900 14.92800 40.22700
C  -12.77700 13.80300 40.17500
C  -11.51900 14.65100 40.39300
C  -14.94500 14.73900 41.26700
C  -12.81500 13.08100 38.86100
C  -12.69600 11.54900 39.03400
N  -8.86900 15.86400 40.76200
C  -9.00600 14.47900 40.76800
C  -7.81400 13.79200 40.87700
C  -6.92700 14.92300 40.97900
C  -7.63100 16.07500 40.92500
C  -7.63300 12.32800 40.87700
C  -5.45800 15.15200 41.04300
O  -4.58300 14.30400 41.08100
C  -5.38600 16.69200 41.19100
C  -4.95900 17.15600 42.55700
O  -3.88000 17.70800 42.72100
O  -5.92300 17.00400 43.48700
C  -5.63600 17.60500 44.82000
H  -9.83700 21.85700 40.07600
H  -14.62300 17.39400 39.85100
H  -10.32200 12.89500 40.53200
H  -5.51200 19.70100 41.22100
H  -7.19300 21.68000 39.96500
H  -6.90600 22.46700 42.00200
H  -6.55800 20.93800 42.75900
H  -8.29300 21.47700 42.51100
H  -5.68300 20.66400 38.52000
H  -6.26000 19.06000 38.50100
H  -3.73100 19.36800 40.05700
H  -3.68800 20.43800 38.76800
H  -12.13200 23.12600 40.02400
H  -13.13900 22.76300 38.65900
H  -11.26000 22.69700 38.62000
H  -16.04400 18.94600 38.74700
H  -16.94000 20.14600 39.67900
H  -15.90800 19.08900 40.55800
H  -14.23000 15.07500 39.23200
H  -13.00300 13.19100 41.04800
H  -15.12300 15.63900 41.85600
H  -14.78600 13.92800 41.97700
H  -15.83500 14.58800 40.65600
H  -11.99000 13.47500 38.26700
H  -13.76900 13.33000 38.39600
H  -11.67500 11.22600 38.82800
H  -13.37300 11.00100 38.37900
H  -12.88100 11.34500 40.08900
H  -7.94000 11.94300 39.90500
H  -8.33000 11.84600 41.56200
H  -6.62000 11.95700 41.03200
H  -4.66600 16.98800 40.42700
H  -4.80400 17.14700 45.35400
H  -6.59600 17.47700 45.32000
H  -5.42100 18.67100 44.74800
Mg -5.78500 25.77100 25.71700
C  -4.69500 27.34500 28.72800
C  -7.64700 23.50100 27.86000
C  -6.41700 23.89100 23.11800
C  -3.34300 27.61600 24.02500
N  -6.03900 25.33000 28.07400
C  -5.54700 26.20600 28.99200
C  -6.10700 25.80100 30.37700
C  -7.05100 24.60200 30.13300
C  -6.91700 24.43000 28.60000
C  -6.63100 23.25600 30.81000
C  -6.81700 26.98800 31.10400
C  -6.39800 27.32600 32.54700
H  -5.85900 26.26700 33.54100
N  -6.95000 24.00000 25.43900
C  -7.64800 23.23600 26.44600
C  -8.40500 22.16600 25.78300
C  -8.01400 22.17600 24.40600
C  -7.06900 23.36000 24.27300
C  -9.36400 21.22600 26.50100
C  -8.40800 21.32700 23.19900
O  -7.98800 21.47300 22.00600
C  -9.38600 20.25400 23.38800
N  -5.02000 25.79500 23.76600
C  -5.47900 24.87600 22.82900
C  -4.79200 25.12600 21.44900
C  -3.74400 26.26300 21.81000
C  -4.07500 26.68900 23.25400
C  -4.05400 23.81300 20.89500
C  -3.69800 27.47100 20.96300
C  -2.30300 27.70700 20.22000
N  -4.22100 27.15600 26.23200
C  -3.38800 27.87800 25.39600
C  -2.82800 28.97000 26.08800
C  -3.32600 28.81500 27.38700
C  -4.17800 27.68500 27.44300
C  -1.87000 30.00900 25.53500
C  -3.20300 29.28500 28.78500
O  -2.45400 30.17200 29.17400
C  -4.04000 28.36800 29.61600
C  -2.98600 27.70200 30.53400
O  -2.26000 26.76900 30.19900
O  -3.10000 28.21000 31.80200
C  -2.16100 27.60400 32.81500
H  -8.37700 22.93600 28.44300
H  -6.52300 23.33600 22.18400
H  -2.57200 28.25000 23.58200
H  -5.27300 25.50000 31.01000
H  -8.09700 24.75700 30.39600
H  -6.06900 23.41400 31.73000
H  -6.00500 22.59800 30.20800
H  -7.51100 22.70900 31.14800
H  -7.87400 26.72300 31.10400
H  -6.73000 27.94100 30.58200
H  -7.08800 27.96000 33.10400
H  -5.46600 27.87100 32.40200
H  -9.27100 21.29000 27.58500
H  -9.07600 20.23000 26.16700
H  -10.37800 21.44600 26.16500
H  -9.84400 20.07000 22.41600
H  -10.13900 20.47600 24.14500
H  -8.82900 19.39600 23.76300
H  -5.55500 25.46900 20.75000
H  -2.71300 25.90800 21.79800
H  -4.63600 23.37600 20.08400
H  -3.80800 23.17700 21.74600
H  -3.20800 24.07900 20.26200
H  -3.78200 28.42000 21.49100
H  -4.46800 27.34100 20.20300
H  -1.56000 27.25200 20.87400
H  -2.24200 28.78300 20.05400
H  -2.21200 27.11200 19.31100
H  -2.16200 30.37200 24.55000
H  -0.86000 29.60800 25.44800
H  -1.81800 30.86900 26.20300
H  -4.68100 28.93200 30.29300
H  -1.31200 28.28800 32.82100
H  -1.82100 26.59700 32.57400
H  -2.65100 27.52400 33.78600

