158

Mg 35.10700 2.59300 29.81100
C  32.73900 3.69600 32.29100
C  37.56300 2.95300 32.14200
C  37.42400 2.16500 27.30300
C  32.56400 3.05800 27.42800
N  35.11100 3.40900 31.87400
C  34.09000 3.65600 32.74300
C  34.45900 3.66900 34.24300
C  36.03400 3.64200 34.09800
C  36.29800 3.35900 32.60200
C  36.68400 4.96400 34.57500
C  33.94100 2.36600 34.92900
C  33.83100 2.34900 36.50600
H  34.41800 3.55800 37.25300
N  37.15300 2.38200 29.71700
C  38.00700 2.54200 30.84400
C  39.36200 2.18400 30.34300
C  39.34200 1.95600 28.93400
C  37.92200 2.21700 28.60200
C  40.51300 2.29100 31.26800
C  40.50800 1.71600 27.98200
O  40.40300 1.67700 26.74700
C  41.93600 1.57000 28.50400
N  34.94500 2.52100 27.65100
C  36.05700 2.31700 26.86300
C  35.67700 2.40400 25.34100
C  34.14200 2.57500 25.42700
C  33.81400 2.77700 26.92900
C  36.30800 3.59300 24.49000
C  33.34400 1.39700 24.90700
C  33.69000 -0.01800 25.31700
N  33.02800 3.21600 29.81300
C  32.16000 3.30000 28.75900
C  30.82800 3.70900 29.29300
C  31.07800 3.83200 30.70600
C  32.37600 3.46900 30.97400
C  29.70200 3.97700 28.35500
C  30.35400 4.09700 31.92100
O  29.25900 4.59100 32.14700
C  31.40500 3.93100 33.04100
C  31.53700 5.10200 33.90100
O  31.84300 6.24700 33.61400
O  31.02600 4.80800 35.19800
C  30.96300 5.79400 36.24900
H  38.32600 3.08700 32.91100
H  38.11500 1.93800 26.48800
H  31.74000 3.09600 26.71400
H  34.07000 4.56000 34.73500
H  36.51200 2.88500 34.71900
H  36.94500 5.51500 33.67100
H  37.53300 4.94800 35.25900
H  35.96100 5.67500 34.97500
H  34.58800 1.56800 34.56500
H  32.94200 2.09500 34.58600
H  34.26500 1.38300 36.76100
H  32.80100 2.21600 36.83800
H  41.26500 2.94900 30.83300
H  40.87000 1.27300 31.42200
H  40.24600 2.73500 32.22700
H  42.06800 1.39500 29.57100
H  42.48600 2.43800 28.13700
H  42.23600 0.71900 27.89200
H  35.88300 1.42300 24.91300
H  33.88400 3.43900 24.81500
H  36.66400 3.18900 23.54200
H  37.12500 3.98000 25.10000
H  35.60600 4.38800 24.24200
H  33.46100 1.50000 23.82800
H  32.26200 1.51500 24.96900
H  34.05000 -0.59200 24.46300
H  32.76400 -0.46300 25.68200
H  34.46900 0.05100 26.07600
H  29.07800 3.08400 28.32600
H  29.89400 4.23000 27.31300
H  29.13800 4.84900 28.68600
H  31.01500 3.05600 33.56100
H  30.02900 6.35100 36.17200
H  31.84300 6.43700 36.25500
H  30.99100 5.19700 37.16100
Mg 47.86700 34.26100 25.47200
C  46.23200 32.75100 28.26200
C  48.24200 37.13000 27.21000
C  49.39000 35.45000 22.77600
C  47.21200 31.18600 23.73600
N  47.26900 34.84300 27.57000
C  46.71900 34.08200 28.50700
C  46.86400 34.81000 29.89700
C  47.28400 36.29500 29.51000
C  47.60600 36.12300 27.95600
C  46.35100 37.45300 29.93400
C  48.11500 34.19400 30.75200
C  47.81900 34.15800 32.30700
H  47.01700 35.29900 32.94800
N  48.69700 36.05100 25.04200
C  48.71200 37.14400 25.87300
C  49.45700 38.20600 25.20700
C  49.78100 37.79000 23.92900
C  49.30800 36.35700 23.85700
C  49.69800 39.59400 25.78200
C  50.50900 38.47300 22.87600
O  50.72400 37.93500 21.77400
C  50.78300 39.96100 22.87200
N  48.32600 33.36200 23.52300
C  48.98500 34.12400 22.64500
C  49.17100 33.31600 21.33100
C  48.59900 31.93300 21.69700
C  47.97800 32.11800 23.04600
C  48.54000 33.88500 20.06000
C  49.61200 30.74400 21.49800
C  50.59800 30.57200 22.68900
N  46.88600 32.41500 25.86900
C  46.66300 31.21900 25.06500
C  45.89800 30.24700 25.79700
C  45.66500 30.82400 27.05500
C  46.34700 32.09800 27.00700
C  45.47700 28.93600 25.35900
C  45.18300 30.57600 28.40700
O  44.72000 29.63600 29.01400
C  45.40000 31.92300 29.10900
C  45.79000 31.65500 30.54000
O  46.87500 31.30600 30.98800
O  44.65300 31.92800 31.29800
C  44.70100 31.78300 32.73700
H  48.29600 38.02200 27.83700
H  50.05500 35.72500 21.95500
H  46.84300 30.30600 23.20400
H  45.92300 34.90100 30.43900
H  48.22000 36.59300 29.98200
H  46.92400 38.28500 30.34200
H  45.54700 37.11500 30.58800
H  45.76300 37.82600 29.09500
H  49.04300 34.74100 30.58700
H  48.17700 33.14000 30.47900
H  48.84000 34.16200 32.69000
H  47.32800 33.20600 32.50800
H  49.43900 39.53600 26.83900
H  48.94900 40.29100 25.40600
H  50.71100 39.99300 25.83300
H  51.29100 40.17900 21.93200
H  51.45000 40.19900 23.70000
H  49.80900 40.43900 22.97400
H  50.25000 33.29000 21.18200
H  47.75900 31.61000 21.08200
H  47.96700 34.79000 20.26000
H  47.84400 33.16800 19.62400
H  49.34600 34.18200 19.39000
H  50.25800 30.93100 20.64100
H  48.98400 29.86900 21.32600
H  50.69600 29.51200 22.92600
H  50.33800 31.12600 23.59100
H  51.58600 30.92500 22.39300
H  46.16600 28.51700 24.62600
H  44.44000 28.94900 25.02500
H  45.52100 28.25300 26.20700
H  44.41200 32.37600 29.18400
H  45.28500 30.90500 33.01200
H  43.69700 31.65600 33.14300
H  45.05300 32.71400 33.18000

