158

Mg 8.08500 3.00700 27.77400
C  9.51900 1.66300 30.61700
C  6.63300 5.48600 29.78200
C  6.70900 4.21300 24.95900
C  9.46100 0.26000 25.93100
N  8.00500 3.49500 29.88400
C  8.72900 2.78600 30.87600
C  8.46500 3.41500 32.24300
C  7.52900 4.63600 32.00500
C  7.39400 4.57300 30.42200
C  6.22300 4.82700 32.85900
C  9.74300 3.84700 33.07300
C  9.56800 4.72000 34.31900
H  10.49700 4.41700 35.47700
N  6.90300 4.68300 27.44400
C  6.42400 5.55900 28.35200
C  5.55900 6.50200 27.62600
C  5.46100 6.09900 26.28100
C  6.40400 4.97600 26.13200
C  4.90400 7.69500 28.27900
C  4.64000 6.75900 25.14100
O  4.77400 6.39100 23.98500
C  3.61700 7.82500 25.38000
N  7.94600 2.31900 25.80700
C  7.37800 3.03300 24.77700
C  7.56200 2.35900 23.42200
C  8.35500 1.09000 23.73500
C  8.65200 1.22700 25.20600
C  6.28800 2.04300 22.65200
C  9.67900 1.00600 22.96600
C  9.39500 0.89900 21.44300
N  9.20900 1.32400 28.12900
C  9.70700 0.34900 27.30800
C  10.71600 -0.40500 28.03300
C  10.61700 0.03100 29.35900
C  9.67700 1.08400 29.37600
C  11.52200 -1.51600 27.42800
C  11.10100 -0.22500 30.68600
O  11.92600 -0.96400 31.19900
C  10.41200 0.88300 31.53900
C  9.72700 0.10200 32.56200
O  8.97700 -0.82500 32.29800
O  9.99300 0.61100 33.82100
C  9.39000 -0.09500 34.94900
H  6.25600 6.34200 30.34500
H  6.39300 4.56400 23.97400
H  9.91900 -0.59000 25.42100
H  8.00000 2.63300 32.84300
H  8.27400 5.42500 32.09700
H  6.45000 5.51900 33.66900
H  5.92000 3.89700 33.33900
H  5.39800 5.10000 32.20100
H  10.35200 4.48500 32.43200
H  10.34900 2.98300 33.34800
H  8.55600 4.62700 34.71300
H  9.64600 5.79300 34.14400
H  4.93600 8.62900 27.71700
H  5.36200 7.89200 29.24900
H  3.86500 7.37800 28.37000
H  4.25700 8.70500 25.44800
H  3.05300 7.72300 26.30700
H  2.87000 7.80800 24.58600
H  8.26500 2.97100 22.85600
H  7.73600 0.19500 23.68100
H  6.17200 0.99300 22.38200
H  6.37900 2.72300 21.80500
H  5.46200 2.24600 23.33400
H  10.12000 0.07100 23.31000
H  10.35100 1.82200 23.23200
H  9.74100 1.76500 20.87900
H  8.34200 0.69100 21.25300
H  9.98800 0.13900 20.93400
H  12.53500 -1.51900 27.83100
H  11.52500 -1.58900 26.34000
H  11.11200 -2.47500 27.74500
H  11.18900 1.52000 31.96100
H  8.95000 0.70800 35.54000
H  10.09400 -0.68000 35.54200
H  8.44900 -0.62400 34.79300
Mg 47.34200 44.37700 43.13000
C  43.92700 43.58000 43.09300
C  47.95700 41.12400 42.68000
C  50.48100 45.32400 42.65700
C  46.34000 47.86100 42.95200
N  46.12300 42.57800 42.70100
C  44.79500 42.46400 42.80000
C  44.24400 41.06300 42.65100
C  45.55200 40.29100 43.05600
C  46.63900 41.37100 42.72200
C  45.45400 39.64300 44.50000
C  43.62100 40.70200 41.32400
C  43.81400 41.55700 40.06200
H  43.65300 40.89800 38.69500
N  49.09400 43.30200 42.70500
C  49.09700 41.98200 42.56700
C  50.52100 41.63900 42.25900
C  51.27100 42.86700 42.18100
C  50.33600 43.93000 42.43400
C  50.98700 40.17800 41.96900
C  52.75000 42.99800 41.93600
O  53.45600 42.00700 41.96700
C  53.35900 44.35500 41.98100
N  48.25100 46.31700 42.69000
C  49.57700 46.43800 42.79900
C  49.99500 47.93500 42.84500
C  48.70600 48.67100 42.85900
C  47.68400 47.52400 42.89600
C  50.88700 48.40200 44.00500
C  48.49500 49.77500 41.74900
C  48.30200 51.14900 42.41000
N  45.54300 45.55500 43.11700
C  45.31700 46.92100 43.03300
C  43.89900 47.11700 42.81800
C  43.35400 45.83500 43.05500
C  44.37400 44.90800 43.05300
C  43.12200 48.42700 42.48600
C  42.09400 45.16400 43.13600
O  40.99300 45.72800 43.26700
C  42.39100 43.62400 43.04800
C  41.81400 43.10900 44.25200
O  42.19300 43.38300 45.35300
O  40.69200 42.36200 43.99200
C  39.78300 42.04200 45.11400
H  48.18100 40.07800 42.90200
H  51.48300 45.75800 42.63900
H  46.04500 48.90800 42.85500
H  43.43900 40.87800 43.36100
H  45.85000 39.49600 42.37200
H  44.45400 39.49200 44.90600
H  46.08100 40.09500 45.26900
H  45.78500 38.62100 44.31300
H  42.55800 40.52600 41.48500
H  44.08800 39.75700 41.04400
H  44.69900 42.19200 40.11700
H  43.00100 42.28200 40.10100
H  51.19400 40.24400 40.90100
H  50.10700 39.56500 42.16200
H  51.88100 39.88500 42.51800
H  52.82800 44.98000 41.26300
H  54.43500 44.34300 41.80200
H  53.36000 44.74400 43.00000
H  50.44700 48.07500 41.86300
H  48.46100 49.03200 43.85900
H  50.63500 49.27200 44.61100
H  51.92100 48.53700 43.68900
H  50.84400 47.55500 44.69000
H  47.65700 49.54600 41.09100
H  49.31600 49.81900 41.03400
H  48.59800 51.08200 43.45700
H  47.29100 51.52200 42.24700
H  48.93100 51.89400 41.92100
H  42.76900 48.42000 41.45500
H  43.77800 49.29500 42.54700
H  42.28200 48.48600 43.17700
H  41.93700 43.30200 42.11100
H  40.13400 41.09900 45.53400
H  38.74100 42.03100 44.79600
H  39.85000 42.79800 45.89700

