158

Mg 44.80400 5.37300 46.94800
C  42.96900 8.31000 46.89100
C  41.92100 3.62500 46.02500
C  46.67500 2.66700 46.49000
C  47.77900 7.38500 47.18200
N  42.72300 5.93600 46.40500
C  42.18600 7.17600 46.53700
C  40.72600 7.28400 46.13800
C  40.45900 5.76300 45.83400
C  41.72500 5.05300 46.25400
C  39.12700 5.09200 46.43800
C  40.15200 8.37900 45.15700
C  40.74100 8.29600 43.69400
H  39.93600 7.78000 42.45700
N  44.36000 3.40400 46.48900
C  43.13700 2.86500 46.17400
C  43.31300 1.40700 45.91400
C  44.64800 1.12000 46.07000
C  45.31100 2.44900 46.38700
C  42.25300 0.51400 45.47600
C  45.31200 -0.25200 45.93300
O  44.65800 -1.26700 45.69600
C  46.80600 -0.53400 45.83700
N  46.93900 5.10200 46.64600
C  47.39900 3.82400 46.54400
C  48.92200 3.95400 46.51800
C  49.38000 5.47000 46.64200
C  47.93900 5.99700 46.84500
C  49.71000 2.97700 47.37700
C  50.01000 6.06900 45.35600
C  51.23700 5.35000 44.77100
N  45.32000 7.38100 47.12600
C  46.54500 8.08300 47.22300
C  46.26400 9.51300 47.43300
C  44.89100 9.67800 47.27200
C  44.35200 8.36100 47.07400
C  47.28300 10.55300 47.62700
C  43.78600 10.57200 47.34400
O  43.82200 11.78800 47.60300
C  42.48700 9.73000 46.98000
C  41.56600 9.95300 48.09500
O  41.75600 9.63800 49.27600
O  40.43800 10.51800 47.59800
C  39.26300 10.68100 48.54600
H  41.02900 3.11200 45.66000
H  47.40300 1.85500 46.54300
H  48.69800 7.95200 47.35000
H  40.26600 7.63300 47.06300
H  40.46400 5.59000 44.75800
H  39.49600 4.71500 47.39200
H  38.58200 4.24900 46.01300
H  38.52300 5.97900 46.62800
H  40.13300 9.40900 45.51200
H  39.09300 8.21800 44.95100
H  41.55000 7.57700 43.82500
H  41.17200 9.28900 43.57400
H  42.55400 0.12400 44.50400
H  41.25500 0.93300 45.34400
H  42.06400 -0.35800 46.10100
H  47.00400 -1.55100 45.49600
H  47.12700 -0.41100 46.87100
H  47.21100 0.24400 45.19000
H  49.09700 3.65400 45.48500
H  49.98000 5.74800 47.50900
H  50.23100 2.25800 46.74400
H  49.02900 2.44600 48.04300
H  50.50400 3.46100 47.94400
H  50.37700 7.06800 45.59300
H  49.25400 6.19100 44.58100
H  51.01200 5.05500 43.74600
H  51.51700 4.52100 45.42200
H  52.07100 6.05200 44.78100
H  47.68300 10.71400 48.62800
H  46.94500 11.51800 47.24900
H  48.16900 10.31100 47.03900
H  42.03400 10.13200 46.07400
H  38.48900 10.03000 48.14100
H  38.95000 11.72100 48.44900
H  39.44000 10.49600 49.60600
Mg 1.69400 42.35600 25.22000
C  3.23400 42.49500 28.25700
C  -1.16900 41.34900 26.87900
C  0.06600 42.43900 22.24700
C  4.65200 43.25100 23.59500
N  1.14900 41.85000 27.32800
C  1.89500 42.07500 28.41400
C  1.17100 41.84000 29.71600
C  -0.24400 41.45900 29.21900
C  -0.14200 41.57500 27.70500
C  -0.83900 40.14000 29.80000
C  1.20300 43.03000 30.60300
C  2.03700 43.08700 31.99400
H  1.08200 43.16900 33.24100
N  -0.29500 41.91400 24.66900
C  -1.28400 41.48600 25.48600
C  -2.48500 41.39700 24.64700
C  -2.12700 41.71300 23.27700
C  -0.72700 42.02100 23.33300
C  -3.81100 40.85100 25.16500
C  -3.02500 41.82600 22.04800
O  -2.55700 41.93400 20.93100
C  -4.46300 41.80700 22.34500
N  2.29300 42.59900 23.17700
C  1.39700 42.74500 22.16400
C  2.14400 43.21100 20.87500
C  3.59400 43.53600 21.36700
C  3.49300 43.15900 22.82500
C  2.08000 42.14500 19.73900
C  3.85600 45.03500 21.27900
C  4.04300 45.56400 19.86000
N  3.60000 42.66300 25.76500
C  4.71600 42.99100 25.02300
C  5.87400 43.12000 25.88400
C  5.30800 42.96000 27.17900
C  3.96500 42.71000 27.04000
C  7.36000 43.33800 25.54200
C  5.69000 42.99700 28.56200
O  6.76200 43.29800 28.98900
C  4.36300 42.64500 29.37100
C  4.72600 41.31900 30.05300
O  4.94400 40.26500 29.51200
O  4.94200 41.54100 31.41700
C  5.19000 40.32900 32.23100
H  -2.05600 41.12100 27.47400
H  -0.43400 42.48700 21.27800
H  5.58900 43.64000 23.19400
H  1.62100 41.02700 30.28700
H  -0.93200 42.23300 29.55900
H  -0.29200 39.79600 30.67800
H  -0.86100 39.30200 29.10200
H  -1.83600 40.37100 30.17300
H  0.18300 43.13200 30.97200
H  1.51400 43.84800 29.95200
H  2.74400 43.90700 31.87000
H  2.57700 42.14800 32.10700
H  -4.54200 41.63200 24.95700
H  -3.83100 40.84400 26.25500
H  -4.01700 39.88300 24.70900
H  -4.94500 42.12000 21.41900
H  -4.77000 42.47800 23.14600
H  -4.77500 40.76400 22.40100
H  1.71700 44.12600 20.46500
H  4.34500 43.02400 20.76500
H  1.38300 41.33500 19.95300
H  3.11000 41.79600 19.67300
H  1.87700 42.48100 18.72200
H  4.81900 45.09200 21.78500
H  3.11500 45.65400 21.78600
H  3.36900 46.41300 19.74500
H  3.81600 44.80500 19.11100
H  5.06500 45.82600 19.58600
H  7.86500 43.96500 26.27700
H  7.49400 43.70300 24.52400
H  7.95700 42.44100 25.70500
H  4.19100 43.43800 30.09900
H  6.26500 40.14700 32.20100
H  4.50900 39.54700 31.89900
H  4.88900 40.41700 33.27500

