158

Mg 29.78700 58.48800 39.52600
C  27.12700 56.30800 38.46500
C  32.00500 56.06700 38.63700
C  32.25700 60.78400 39.59700
C  27.40900 60.90900 40.12100
N  29.50700 56.48000 38.64900
C  28.40400 55.71600 38.34800
C  28.70000 54.22900 38.14600
C  30.23100 54.12800 38.43600
C  30.66100 55.66000 38.67300
C  30.59700 53.20400 39.63500
C  28.36200 53.76900 36.68800
C  29.01500 54.46100 35.45000
H  28.20100 55.05600 34.37200
N  31.91900 58.46300 39.18600
C  32.62200 57.28500 38.85500
C  33.99100 57.61000 38.84400
C  34.11700 59.02600 39.24200
C  32.75100 59.51200 39.33400
C  35.10300 56.52300 38.61400
C  35.42600 59.61300 39.53600
O  36.44400 58.93800 39.40300
C  35.46300 60.99400 39.86600
N  29.83500 60.55900 39.71300
C  30.95800 61.28100 39.84000
C  30.74400 62.70900 40.33300
C  29.19000 62.77800 40.37200
C  28.78700 61.28700 40.08400
C  31.50100 63.00500 41.62500
C  28.48200 63.75000 39.39300
C  27.42400 64.73200 39.92400
N  27.66000 58.68600 39.49100
C  26.85700 59.71200 39.80400
C  25.56000 59.33200 39.54600
C  25.60600 58.00100 39.03600
C  26.86400 57.63800 38.98200
C  24.31300 60.20500 39.60500
C  24.77200 56.89300 38.56800
O  23.59800 56.86200 38.50400
C  25.73200 55.71200 38.25100
C  25.34300 54.51300 39.08200
O  25.14700 54.39600 40.28300
O  25.18300 53.50300 38.18300
C  24.49600 52.37300 38.75500
H  32.64800 55.19200 38.52100
H  32.96800 61.61000 39.52400
H  26.75600 61.73100 40.42000
H  28.07300 53.61700 38.79300
H  30.87700 53.76500 37.63700
H  29.69800 52.86900 40.15300
H  31.06400 53.84200 40.38600
H  31.28800 52.44100 39.27800
H  27.29100 53.77000 36.48700
H  28.74900 52.75000 36.71600
H  29.82700 53.80300 35.13900
H  29.53400 55.34500 35.81800
H  34.72600 55.53000 38.37000
H  35.72200 56.39400 39.50200
H  35.68900 56.94500 37.79800
H  34.84300 61.13000 40.75200
H  35.10300 61.56400 39.01000
H  36.44100 61.41600 40.09600
H  30.99700 63.45900 39.58400
H  28.88400 63.08400 41.37300
H  32.04000 63.94700 41.52600
H  32.15800 62.17200 41.87400
H  30.91400 63.25500 42.50900
H  27.94900 63.11000 38.68900
H  29.21800 64.34900 38.85600
H  26.40500 64.53400 39.59100
H  27.64300 65.77100 39.67700
H  27.38700 64.71500 41.01300
H  23.80500 60.10100 38.64700
H  24.49300 61.26600 39.77900
H  23.69000 59.91800 40.45200
H  25.70400 55.32000 37.23400
H  25.14500 51.60600 39.17700
H  23.89200 52.04300 37.91000
H  23.78100 52.51300 39.56600
Mg 17.09600 52.00200 26.55000
C  19.42200 50.76000 28.90500
C  15.06400 52.82200 29.12100
C  14.89500 53.22700 24.32000
C  19.28900 50.89700 24.02600
N  17.22400 51.80000 28.78600
C  18.29000 51.31300 29.50500
C  18.10700 51.57300 30.94800
C  16.57800 51.86800 31.02900
C  16.26300 52.20800 29.60200
C  15.80300 50.61500 31.43600
C  18.94400 52.79600 31.45200
C  19.11000 52.88000 32.98800
H  18.07400 52.24100 33.87400
N  15.16300 52.81800 26.66800
C  14.55900 53.13900 27.82000
C  13.30200 53.89700 27.61800
C  13.19000 54.00000 26.15900
C  14.44300 53.32400 25.63000
C  12.43900 54.46000 28.68700
C  12.17900 54.70600 25.30900
O  12.15800 54.55200 24.07500
C  11.19200 55.65400 25.86400
N  16.96600 51.84400 24.48100
C  16.05300 52.63800 23.81800
C  16.20200 52.44300 22.25900
C  17.68200 51.88000 22.11900
C  18.04500 51.55700 23.61400
C  15.15800 51.43200 21.70100
C  18.74800 52.88200 21.50300
C  20.04800 52.23500 21.06500
N  18.91800 51.05400 26.42500
C  19.70700 50.59000 25.34400
C  20.95200 49.97400 25.78200
C  20.88600 50.08500 27.17800
C  19.61900 50.66500 27.49700
C  21.96200 49.35800 24.83400
C  21.64500 49.85500 28.41000
O  22.73900 49.39900 28.59300
C  20.64700 50.25600 29.63800
C  20.39300 49.14100 30.56100
O  19.93500 48.07300 30.28800
O  20.88200 49.58000 31.80100
C  20.66200 48.60700 32.87600
H  14.38300 53.13900 29.91400
H  14.31700 53.79100 23.58600
H  19.91000 50.54100 23.20200
H  18.37500 50.69900 31.54000
H  16.37200 52.71300 31.68600
H  14.79000 50.46400 31.06400
H  15.78200 50.51500 32.52200
H  16.30800 49.76400 30.97800
H  18.45000 53.70100 31.10000
H  19.90900 52.84800 30.94800
H  19.36200 53.91500 33.22000
H  20.03000 52.33200 33.19500
H  11.65500 53.75700 28.96700
H  12.13000 55.48600 28.48500
H  12.98900 54.61500 29.61500
H  10.58500 56.17300 25.12200
H  11.63000 56.43800 26.48100
H  10.52300 54.97000 26.38800
H  16.13200 53.34700 21.65400
H  17.67900 51.06600 21.39500
H  15.57800 50.51000 21.29900
H  14.71400 52.05200 20.92200
H  14.40500 51.34400 22.48400
H  19.12100 53.66400 22.16400
H  18.32300 53.27100 20.57800
H  20.84000 52.46300 21.77900
H  20.40500 52.71100 20.15100
H  19.83300 51.16800 21.02100
H  22.17400 50.10600 24.06900
H  21.44600 48.51300 24.37900
H  22.87200 49.10700 25.37800
H  21.13600 51.07800 30.15900
H  20.20600 47.64600 32.63600
H  20.08100 48.98200 33.71800
H  21.64100 48.37900 33.29600

