158

Mg -0.98100 7.61800 26.17100
C  -0.30300 9.68400 28.94000
C  -0.53700 4.86300 28.13300
C  -1.36200 5.84800 23.41600
C  -0.46800 10.47500 24.11300
N  -0.58700 7.38100 28.31300
C  -0.50000 8.35300 29.25900
C  -0.43900 7.72200 30.62400
C  -0.28300 6.16000 30.33800
C  -0.48500 6.11000 28.80900
C  1.02400 5.56400 30.84700
C  -1.59600 8.10600 31.53600
C  -1.34700 8.72800 32.96200
H  -0.00900 8.34200 33.76500
N  -1.16300 5.60100 25.90100
C  -1.02300 4.64000 26.77900
C  -1.17200 3.34900 26.13500
C  -1.40400 3.57400 24.70900
C  -1.46100 5.12500 24.63600
C  -1.13200 2.14800 26.99800
C  -1.53100 2.61300 23.57100
O  -1.72400 2.93700 22.43000
C  -1.34000 1.15300 23.85200
N  -0.93600 8.10600 24.01200
C  -1.10900 7.14900 23.19000
C  -1.07600 7.66400 21.68000
C  -0.93600 9.20100 21.87600
C  -0.65500 9.29700 23.39000
C  -0.05700 7.03300 20.76700
C  -2.07400 10.14700 21.47900
C  -3.28800 10.35100 22.39600
N  -0.66600 9.71600 26.41200
C  -0.43300 10.75700 25.49500
C  -0.04200 11.94000 26.19900
C  -0.12000 11.58800 27.48200
C  -0.35500 10.21300 27.66800
C  0.34200 13.25300 25.59600
C  0.15200 12.11800 28.78000
O  0.51300 13.25500 29.11200
C  0.07100 10.92200 29.74900
C  1.38400 10.72400 30.40100
O  2.41300 10.40900 29.87400
O  1.28800 11.20400 31.65800
C  2.44700 11.80900 32.35200
H  -0.55100 3.99700 28.79700
H  -1.49500 5.32800 22.46500
H  -0.23800 11.38400 23.55400
H  0.49500 8.12100 31.02100
H  -1.01300 5.54700 30.86500
H  0.76200 4.95700 31.71400
H  1.65400 6.40000 31.15100
H  1.55800 4.97900 30.09800
H  -2.06500 7.17500 31.85300
H  -2.33200 8.62800 30.92400
H  -2.23000 8.61100 33.59100
H  -1.23500 9.81000 32.89300
H  -1.58100 1.27100 26.53100
H  -1.67500 2.30100 27.93100
H  -0.10600 1.91900 27.28600
H  -1.15000 0.60700 22.92800
H  -2.23300 0.81800 24.38000
H  -0.43200 1.17800 24.45600
H  -2.01800 7.40700 21.19600
H  -0.07700 9.48600 21.26900
H  0.72300 7.77000 20.57900
H  -0.64600 6.67900 19.92100
H  0.22900 6.07800 21.20900
H  -2.44300 9.91000 20.48200
H  -1.56800 11.10700 21.37700
H  -3.00300 11.20000 23.01800
H  -3.59500 9.60900 23.13300
H  -4.11600 10.67900 21.76800
H  0.62500 13.09100 24.55600
H  1.09100 13.67200 26.26900
H  -0.56500 13.85400 25.66100
H  -0.67900 11.15800 30.50400
H  2.62700 11.13800 33.19200
H  2.02200 12.73400 32.74100
H  3.36700 11.93300 31.78100
Mg -12.78800 16.61300 42.16500
C  -9.94600 14.68900 41.36100
C  -11.35600 19.23000 40.81600
C  -15.95100 18.02900 42.31300
C  -14.37300 13.45400 42.96400
N  -10.87900 16.88300 40.95900
C  -9.89400 15.95800 40.80700
C  -8.64900 16.58600 40.13100
C  -9.03700 18.02700 40.17300
C  -10.52800 18.14000 40.74400
C  -8.10700 18.95200 40.92300
C  -8.14700 15.95100 38.79600
C  -6.68600 15.30100 38.78800
H  -5.77700 15.68600 37.60400
N  -13.51600 18.39400 41.63200
C  -12.76500 19.40700 41.13800
C  -13.61100 20.60100 40.98100
C  -14.91600 20.27900 41.45300
C  -14.86300 18.84500 41.82300
C  -13.05300 21.88400 40.36700
C  -16.07200 21.21700 41.42200
O  -15.97500 22.37200 41.01000
C  -17.40000 20.91200 42.00300
N  -14.88000 15.84200 42.63300
C  -15.95600 16.68600 42.62100
C  -17.22100 15.95000 42.81200
C  -16.75100 14.45100 43.09000
C  -15.24500 14.54200 42.83900
C  -17.99600 16.62400 43.98900
C  -17.36800 13.28700 42.17900
C  -18.40200 12.33500 42.88000
N  -12.24600 14.53900 42.39700
C  -13.01100 13.40000 42.71200
C  -12.07900 12.26400 42.85900
C  -10.85500 12.73700 42.38200
C  -11.03100 14.09300 42.05600
C  -12.40900 10.89800 43.35300
C  -9.46700 12.39800 42.13500
O  -8.84900 11.34500 42.39900
C  -8.83300 13.58300 41.35200
C  -7.55200 14.00700 42.04700
O  -7.37200 14.48700 43.13800
O  -6.47600 13.34100 41.39800
C  -5.20600 13.34100 41.99800
H  -10.78700 20.09200 40.46100
H  -16.93000 18.51300 42.27700
H  -14.79900 12.46200 43.12600
H  -7.87800 16.47400 40.89400
H  -9.08300 18.37800 39.14200
H  -8.65600 19.12000 41.85000
H  -8.03900 19.93500 40.45600
H  -7.11000 18.52000 41.00300
H  -8.15400 16.73700 38.04100
H  -8.88300 15.20000 38.51000
H  -6.97100 14.24900 38.76400
H  -6.21400 15.50600 39.74900
H  -13.63000 22.37800 39.58600
H  -12.09200 21.61400 39.93000
H  -12.77500 22.56100 41.17500
H  -17.36500 20.55300 43.03200
H  -17.81600 20.15900 41.33500
H  -18.01900 21.80500 41.91500
H  -17.81400 16.06900 41.90500
H  -16.92100 14.13100 44.11800
H  -17.56700 17.56700 44.32700
H  -18.11900 15.92400 44.81600
H  -18.97500 17.01700 43.71500
H  -16.57900 12.75100 41.65200
H  -17.92000 13.77800 41.37700
H  -18.05500 11.30300 42.93000
H  -19.40000 12.46600 42.46100
H  -18.43100 12.61100 43.93400
H  -11.48200 10.33200 43.26400
H  -13.21500 10.46300 42.76100
H  -12.64500 10.86200 44.41600
H  -8.59400 13.22200 40.35200
H  -5.11000 13.89300 42.93300
H  -4.54100 13.70700 41.21600
H  -4.80200 12.34300 42.16800

