158

Mg 9.08900 3.92200 27.59000
C  10.44600 2.42900 30.31600
C  7.36900 6.20600 29.68500
C  8.22400 5.72900 24.92500
C  10.51500 1.52400 25.54200
N  8.73600 4.08300 29.73800
C  9.56300 3.46900 30.71300
C  9.19700 3.96400 32.12400
C  8.13500 5.10800 31.88600
C  8.00500 5.14500 30.31900
C  6.77600 4.83400 32.59900
C  10.42100 4.45600 33.03500
C  10.05900 5.11500 34.31000
H  10.44500 4.46400 35.65200
N  7.93500 5.68700 27.31600
C  7.29600 6.41700 28.24200
C  6.61100 7.59200 27.61500
C  6.96500 7.52200 26.25300
C  7.75900 6.29400 26.13900
C  5.78600 8.66600 28.34900
C  6.73600 8.57000 25.10200
O  7.02000 8.31400 23.95500
C  6.02400 9.84900 25.35100
N  9.20700 3.60400 25.48400
C  8.83700 4.51200 24.57100
C  8.98100 3.98200 23.16700
C  9.69400 2.63000 23.37900
C  9.90800 2.60600 24.89100
C  7.66000 4.04200 22.39500
C  11.06300 2.36700 22.60600
C  11.09300 1.14400 21.69500
N  10.28200 2.23100 27.78000
C  10.82500 1.37500 26.91300
C  11.75800 0.49500 27.62600
C  11.64300 0.82300 28.93000
C  10.75500 1.97700 28.98300
C  12.58000 -0.60900 26.92800
C  12.02900 0.49600 30.24400
O  12.75100 -0.38800 30.60600
C  11.32200 1.50000 31.18300
C  10.55000 0.93700 32.23800
O  9.34400 0.65800 32.18400
O  11.40800 0.66000 33.27500
C  10.75900 0.43700 34.51100
H  6.92200 7.10400 30.11600
H  7.76300 6.21500 24.06200
H  11.06700 0.85700 24.87600
H  8.82800 3.07700 32.63800
H  8.54400 5.98600 32.38700
H  5.96600 4.79800 31.86900
H  6.70500 5.69900 33.25700
H  6.86500 3.90300 33.15900
H  10.98400 5.05300 32.31700
H  11.18500 3.71000 33.25300
H  8.97700 5.21500 34.39600
H  10.59200 6.05200 34.14600
H  6.09700 9.68600 28.12100
H  5.90100 8.60000 29.43100
H  4.70600 8.53900 28.27700
H  5.90800 10.27100 24.35300
H  6.67500 10.51200 25.92200
H  5.06100 9.76400 25.85600
H  9.61600 4.64700 22.58200
H  8.91600 1.92800 23.07800
H  7.62800 4.79500 21.60800
H  6.77400 4.21500 23.00500
H  7.55100 3.11200 21.83700
H  11.93100 2.21400 23.24700
H  11.21000 3.27600 22.02200
H  11.94400 1.23900 21.02100
H  10.21500 0.97300 21.07200
H  11.23100 0.25300 22.30700
H  11.87800 -1.30600 26.47000
H  13.21100 -1.19100 27.60000
H  13.07500 -0.05900 26.12800
H  12.11800 2.13900 31.56400
H  11.27300 1.07000 35.23500
H  10.96600 -0.60900 34.73700
H  9.71500 0.72700 34.62800
Mg -9.87900 16.83500 41.66900
C  -6.22900 16.57800 41.77700
C  -9.46700 20.33700 41.51700
C  -12.90700 16.77700 40.70700
C  -9.75700 13.26500 41.63700
N  -8.16400 18.23200 41.52500
C  -6.77200 17.90300 41.65200
C  -5.99400 19.15700 41.53800
C  -6.97300 20.24800 42.03000
C  -8.28200 19.59200 41.58900
C  -7.03100 20.55800 43.56200
C  -5.57000 19.34700 40.07900
C  -4.09100 18.83400 39.69500
H  -3.90900 18.03100 38.42300
N  -11.01900 18.36000 41.15800
C  -10.70000 19.71800 41.16900
C  -11.90000 20.37800 40.83200
C  -12.96000 19.41500 40.70800
C  -12.37100 18.07000 40.81500
C  -11.92700 21.93300 40.57700
C  -14.41100 19.71800 40.49400
O  -14.77700 20.82400 40.14100
C  -15.46100 18.66600 40.32300
N  -11.11500 15.17000 41.04100
C  -12.36400 15.51300 40.80100
C  -13.19000 14.24800 40.55700
C  -12.20100 13.07800 41.01300
C  -10.98400 13.83300 41.27900
C  -14.50800 14.26200 41.25400
C  -12.07500 11.97600 40.02100
C  -12.89400 10.67500 40.26700
N  -8.31400 15.15000 41.80900
C  -8.43600 13.78300 41.91500
C  -7.15600 13.11400 42.13300
C  -6.26500 14.18700 42.13400
C  -6.99000 15.38400 41.83300
C  -6.81500 11.72400 42.23300
C  -4.87500 14.58000 42.28000
O  -3.86600 13.97200 42.55900
C  -4.78300 16.10100 42.02000
C  -4.07500 16.80200 43.10200
O  -3.05900 17.46200 42.99400
O  -4.66200 16.63800 44.36100
C  -4.01800 17.22900 45.53500
H  -9.33800 21.42200 41.52900
H  -13.89400 16.71500 40.24200
H  -9.81500 12.19200 41.83300
H  -5.14900 19.12200 42.22600
H  -6.85000 21.15800 41.44200
H  -6.15300 20.32900 44.16600
H  -7.85200 20.05100 44.06700
H  -7.09300 21.62800 43.76400
H  -5.68800 20.41800 39.91200
H  -6.22000 18.72500 39.46300
H  -3.70000 18.32800 40.57700
H  -3.58100 19.78800 39.56200
H  -12.00700 22.47300 41.52000
H  -12.87600 22.30200 40.19000
H  -11.12200 22.35900 39.97900
H  -15.50900 18.06400 39.41600
H  -16.47100 19.07800 40.31100
H  -15.37300 17.99900 41.18000
H  -13.36700 14.25100 39.48100
H  -12.48500 12.63900 41.96900
H  -15.35500 14.39300 40.58100
H  -14.46600 15.05500 42.00000
H  -14.73200 13.33200 41.77600
H  -11.02000 11.73700 39.88600
H  -12.42800 12.34400 39.05700
H  -13.31100 10.71400 41.27400
H  -12.29800 9.77900 40.09500
H  -13.69000 10.57400 39.52900
H  -5.90400 11.62200 42.82400
H  -6.47100 11.39900 41.25100
H  -7.60700 11.03000 42.51300
H  -4.21300 16.22100 41.09800
H  -3.09300 16.66600 45.66000
H  -4.61900 17.12300 46.43800
H  -3.82800 18.29500 45.41100

