158

Mg -9.39000 39.16400 40.39300
C  -8.00900 36.09400 39.08500
C  -6.32100 40.54300 39.72600
C  -10.96000 42.20400 40.29400
C  -12.60600 37.71900 40.03700
N  -7.34900 38.27900 39.65500
C  -7.01800 37.09000 39.22000
C  -5.56800 36.92800 38.85700
C  -5.02200 38.36800 39.39400
C  -6.29200 39.11800 39.68200
C  -4.05400 38.46600 40.56900
C  -5.22900 36.60600 37.38900
C  -5.75700 37.30100 36.10200
H  -6.58300 36.43200 35.10200
N  -8.66900 41.13200 40.23200
C  -7.39300 41.47700 39.97800
C  -7.31700 42.89900 39.80500
C  -8.58800 43.37400 40.21400
C  -9.47600 42.22400 40.29900
C  -6.15300 43.58800 39.41400
C  -8.92200 44.80500 40.49200
O  -8.12100 45.62900 40.12500
C  -10.16300 45.29800 41.24100
N  -11.57500 39.85000 40.29600
C  -11.92700 41.14600 40.32000
C  -13.38500 41.35400 40.50300
C  -13.96800 39.91400 40.31900
C  -12.65500 39.11000 40.27900
C  -13.74300 42.18000 41.74200
C  -14.77500 39.77500 39.00900
C  -14.14800 39.14400 37.77600
N  -10.14500 37.21200 39.98600
C  -11.45700 36.84400 39.85500
C  -11.55300 35.46500 39.58700
C  -10.19800 35.14900 39.28100
C  -9.41400 36.26800 39.46200
C  -12.84700 34.62800 39.55000
C  -9.31000 34.04100 38.95500
O  -9.56400 32.87000 38.76000
C  -7.81800 34.60700 38.78000
C  -6.95800 33.87000 39.67400
O  -7.18800 33.83800 40.88800
O  -5.79800 33.50300 38.98800
C  -4.76600 32.68200 39.62300
H  -5.34100 41.01400 39.62800
H  -11.53900 43.12900 40.32700
H  -13.61400 37.30000 40.05200
H  -5.11100 36.23500 39.56300
H  -4.52800 38.93700 38.60700
H  -3.30900 37.69400 40.37600
H  -4.41200 38.21100 41.56600
H  -3.61700 39.45000 40.74100
H  -5.24900 35.51600 37.39900
H  -4.14800 36.73600 37.33100
H  -4.98500 37.86400 35.57800
H  -6.52600 37.97000 36.48800
H  -6.39400 44.19400 38.54100
H  -5.37700 42.89200 39.09400
H  -5.82500 44.20700 40.24900
H  -10.72300 44.62400 41.88800
H  -10.84500 45.76900 40.53300
H  -9.80900 46.02400 41.97200
H  -13.69500 42.03000 39.70600
H  -14.61800 39.62000 41.14300
H  -14.47700 41.76200 42.43200
H  -14.11300 43.19100 41.56800
H  -12.86600 42.38400 42.35600
H  -15.06300 40.78200 38.70600
H  -15.58000 39.10800 39.31700
H  -13.09000 39.40500 37.79600
H  -14.60700 39.61600 36.90700
H  -14.16600 38.07600 37.55900
H  -12.61800 33.59800 39.27800
H  -13.50800 34.99200 38.76400
H  -13.28000 34.70600 40.54800
H  -7.40000 34.45200 37.78500
H  -5.29500 32.09300 40.37100
H  -3.95300 33.20300 40.12800
H  -4.42100 31.96500 38.87800
Mg -2.36200 34.53600 26.60600
C  -4.21300 32.78600 29.20000
C  -1.20700 36.51400 29.03500
C  -0.84500 36.16000 24.17900
C  -4.04500 32.47300 24.30200
N  -2.79800 34.76600 28.95300
C  -3.42200 33.83300 29.75800
C  -3.21900 34.22000 31.20100
C  -2.39700 35.53400 31.08100
C  -2.06100 35.64200 29.57500
C  -3.13100 36.79200 31.61600
C  -2.54700 33.09600 32.03300
C  -3.34200 32.36200 33.15000
H  -3.39300 33.23500 34.39800
N  -1.20700 36.13900 26.56800
C  -0.74300 36.80000 27.70500
C  0.20300 37.82600 27.32700
C  0.33500 37.72500 25.94300
C  -0.62000 36.64800 25.48000
C  0.91100 38.68900 28.35400
C  1.28000 38.46100 25.01400
O  1.26300 38.34400 23.80600
C  2.34500 39.32900 25.57500
N  -2.73000 34.46700 24.51600
C  -1.72600 35.15400 23.78400
C  -1.68400 34.60800 22.35100
C  -2.61900 33.38700 22.36000
C  -3.19700 33.38300 23.77900
C  -1.98500 35.64500 21.28700
C  -1.87300 32.05900 22.06300
C  -2.69500 30.81000 21.61400
N  -4.03400 33.13500 26.69900
C  -4.54700 32.34200 25.63100
C  -5.42900 31.32900 26.17500
C  -5.32900 31.43900 27.56200
C  -4.45900 32.58800 27.83000
C  -6.18500 30.17800 25.44800
C  -5.72300 30.88600 28.80800
O  -6.59100 30.02000 28.99700
C  -5.06700 31.77900 29.91600
C  -6.25700 32.36700 30.59900
O  -6.73600 33.43800 30.29400
O  -6.63400 31.70300 31.68500
C  -7.59800 32.20600 32.61800
H  -0.80800 37.18600 29.79800
H  -0.14700 36.44000 23.38700
H  -4.41200 31.76900 23.55200
H  -4.23100 34.37200 31.57700
H  -1.44000 35.53600 31.60200
H  -4.08800 36.49100 32.04300
H  -3.32500 37.46700 30.78200
H  -2.54700 37.34200 32.35500
H  -1.64800 33.53800 32.46300
H  -2.12800 32.40800 31.29900
H  -2.75100 31.47500 33.38200
H  -4.31900 32.04400 32.78500
H  1.99200 38.68500 28.21000
H  0.65100 38.51600 29.39800
H  0.56900 39.69700 28.11900
H  3.00100 39.62400 24.75600
H  3.02700 38.70700 26.15500
H  1.94200 40.11400 26.21500
H  -0.64000 34.32600 22.21400
H  -3.39300 33.60800 21.62400
H  -1.15700 35.72800 20.58400
H  -2.08100 36.60200 21.79900
H  -2.97500 35.45600 20.87100
H  -1.39900 31.69400 22.97400
H  -1.01600 32.14800 21.39500
H  -2.38700 30.50800 20.61300
H  -3.74700 31.09500 21.59000
H  -2.56200 30.04400 22.37800
H  -5.91100 29.23600 25.92200
H  -5.91300 30.24300 24.39400
H  -7.25600 30.36300 25.53800
H  -4.49500 31.20400 30.64500
H  -7.03200 32.85000 33.29100
H  -8.12000 31.42100 33.16500
H  -8.32400 32.78900 32.05200

