158

Mg 17.25400 -1.54400 28.04800
C  15.99700 0.55300 30.55100
C  19.22100 -3.05400 30.43500
C  18.94100 -3.06600 25.48600
C  15.55900 0.37900 25.64500
N  17.46700 -1.27600 30.27500
C  16.86400 -0.42200 31.10500
C  17.12600 -0.75200 32.62700
C  18.40600 -1.69400 32.51200
C  18.39800 -2.03000 30.94800
C  19.67800 -0.98000 33.00300
C  15.91000 -1.58000 33.15900
C  15.58700 -1.24700 34.54400
H  16.44100 -0.35900 35.49500
N  18.67400 -3.05000 28.00300
C  19.37100 -3.53500 29.10500
C  20.25300 -4.52700 28.62000
C  20.26300 -4.48500 27.17100
C  19.22700 -3.52600 26.82400
C  21.20100 -5.24000 29.53600
C  21.18800 -5.20000 26.16000
O  21.20300 -5.08600 24.97800
C  22.39900 -6.02400 26.70200
N  17.49500 -1.20600 25.82900
C  18.11200 -2.02000 25.00200
C  17.99500 -1.66800 23.53200
C  16.68800 -0.75400 23.65100
C  16.57200 -0.41600 25.13200
C  19.23300 -0.91200 22.95700
C  15.45000 -1.39700 23.06700
C  14.88400 -0.79600 21.72700
N  16.00800 0.05200 28.08900
C  15.31500 0.65700 26.97600
C  14.47000 1.77600 27.52700
C  14.66700 1.68300 28.93600
C  15.69700 0.72100 29.19500
C  13.61700 2.76900 26.72900
C  14.41800 2.37400 30.24200
O  13.75400 3.36300 30.50800
C  15.30300 1.63700 31.29900
C  16.11800 2.62000 32.07100
O  17.23400 2.96200 31.88700
O  15.36200 3.05700 33.14400
C  15.93300 4.14100 33.97800
H  19.79400 -3.55400 31.21800
H  19.50400 -3.60600 24.72300
H  15.01400 0.92300 24.87100
H  17.35900 0.24100 33.00900
H  18.29000 -2.60900 33.09400
H  19.41000 -0.04700 33.49800
H  20.58100 -0.97400 32.39100
H  20.06500 -1.48600 33.88700
H  16.10700 -2.64900 33.08100
H  15.04100 -1.34800 32.54300
H  15.48700 -2.16300 35.12600
H  14.61400 -0.77100 34.43200
H  21.11900 -6.30400 29.31300
H  20.91700 -4.98300 30.55600
H  22.17800 -4.78600 29.37300
H  23.10000 -5.29100 27.10300
H  22.87800 -6.61500 25.92100
H  21.97400 -6.66600 27.47300
H  17.88200 -2.56200 22.91900
H  16.95600 0.15900 23.11900
H  20.17700 -1.12200 23.46100
H  19.08200 0.16700 22.99800
H  19.43900 -1.25300 21.94300
H  14.64500 -1.45000 23.80000
H  15.75400 -2.41200 22.81200
H  15.09200 0.26400 21.57800
H  13.81700 -0.94400 21.56700
H  15.29500 -1.29800 20.85200
H  12.70100 2.18700 26.61700
H  14.13200 3.09600 25.82600
H  13.48600 3.69700 27.28500
H  14.74900 1.18400 32.12100
H  16.25700 4.95300 33.32600
H  16.75800 3.73800 34.56500
H  15.18800 4.58000 34.64100
Mg 53.37400 23.93500 44.55200
C  50.96100 26.28300 43.69200
C  51.40200 21.38900 43.30800
C  56.07200 21.70900 44.66800
C  55.33600 26.53000 45.56300
N  51.38800 23.86200 43.49400
C  50.57500 24.96400 43.34600
C  49.30300 24.47800 42.62900
C  49.39100 22.91500 42.92200
C  50.79400 22.70300 43.32000
C  48.41900 22.41000 43.97100
C  49.11900 24.69900 41.09800
C  50.34100 25.02800 40.24900
H  50.01500 25.58100 38.83700
N  53.67700 21.80900 44.02900
C  52.73100 20.97400 43.51100
C  53.32400 19.66200 43.26300
C  54.67200 19.74100 43.73600
C  54.85200 21.06800 44.27200
C  52.64500 18.56400 42.52500
C  55.56200 18.51600 43.69600
O  55.30200 17.52200 43.04900
C  56.77800 18.46600 44.48200
N  55.43400 24.17500 44.94000
C  56.31500 23.08000 44.94000
C  57.66700 23.55200 45.44700
C  57.49200 25.08600 45.60000
C  56.03000 25.29500 45.38100
C  58.16500 22.87400 46.75400
C  58.49400 25.87900 44.63900
C  59.56300 26.74900 45.34500
N  53.22900 25.98900 44.71000
C  54.09500 26.90700 45.16000
C  53.43100 28.18900 45.19900
C  52.16600 28.02300 44.60100
C  52.13600 26.63500 44.37400
C  53.98100 29.45900 45.74800
C  50.90500 28.66200 44.23500
O  50.49900 29.83300 44.31400
C  50.03800 27.50800 43.57200
C  49.73500 28.08600 42.17100
O  50.50900 28.36100 41.28200
O  48.36000 28.15500 42.12800
C  47.60700 28.29700 40.89900
H  50.67800 20.59800 43.10100
H  56.97400 21.12600 44.46800
H  55.97100 27.34100 45.92600
H  48.46700 24.95600 43.14000
H  49.25800 22.28300 42.04400
H  48.01200 23.21900 44.57700
H  48.87300 21.76500 44.72300
H  47.52600 22.02600 43.47700
H  48.41900 25.53300 41.03300
H  48.61800 23.81200 40.71100
H  50.84900 24.06700 40.17600
H  51.01100 25.81600 40.59400
H  53.15700 18.24200 41.61800
H  51.61400 18.83900 42.30200
H  52.59200 17.66300 43.13600
H  56.91300 17.40400 44.68700
H  56.74500 18.98500 45.44000
H  57.59800 18.92200 43.92700
H  58.52400 23.44400 44.78200
H  57.80200 25.33900 46.61400
H  57.90000 21.81700 46.74400
H  57.74600 23.43300 47.59000
H  59.23900 22.97700 46.90700
H  57.82800 26.58600 44.14300
H  59.01200 25.27600 43.89300
H  59.73000 26.46600 46.38500
H  59.52000 27.82700 45.18700
H  60.55400 26.56800 44.93000
H  55.05400 29.56400 45.58800
H  53.79800 29.45200 46.82200
H  53.58700 30.38500 45.32800
H  49.14000 27.39800 44.18000
H  48.26500 28.18100 40.03800
H  47.07500 29.23900 41.03600
H  46.82800 27.53800 40.82600

