158

Mg 25.70800 0.80600 29.60400
C  27.55900 0.53000 32.47300
C  22.77400 0.96700 31.40500
C  23.98900 0.74100 26.64900
C  28.61900 0.27000 27.72100
N  25.24100 0.76200 31.72100
C  26.19900 0.79100 32.73600
C  25.52400 0.90700 34.09800
C  24.04400 0.76000 33.77000
C  23.97400 0.81600 32.19600
C  23.35000 -0.47600 34.38200
C  25.92200 2.20400 34.93000
C  26.46700 1.91300 36.38700
H  26.05100 2.88500 37.52600
N  23.77700 0.83400 29.12100
C  22.64300 0.92300 30.02500
C  21.39300 1.13200 29.30400
C  21.70800 1.07900 27.93000
C  23.22500 0.83000 27.85100
C  19.93800 1.04200 29.95900
C  20.78900 1.16200 26.66900
O  21.25400 1.05300 25.50100
C  19.33100 1.39900 26.89100
N  26.25100 0.63300 27.48100
C  25.35100 0.65000 26.46400
C  26.03800 0.72300 25.12000
C  27.60200 0.56500 25.51400
C  27.46800 0.48800 27.00800
C  25.46400 -0.26800 24.09600
C  28.44300 1.75000 25.10400
C  29.93600 1.46700 24.62200
N  27.71600 0.59000 30.03000
C  28.77000 0.35700 29.14800
C  29.97300 0.10400 29.93600
C  29.51400 0.22000 31.25600
C  28.17300 0.39700 31.24100
C  31.29900 -0.31000 29.41300
C  29.94900 0.15100 32.58600
O  31.09200 -0.08900 33.01700
C  28.70500 0.45400 33.46100
C  28.64300 -0.80100 34.42600
O  28.32200 -1.93800 34.15200
O  29.07600 -0.46300 35.69300
C  28.74900 -1.38100 36.82200
H  21.84400 0.83700 31.96100
H  23.43200 1.10500 25.78300
H  29.42100 -0.06200 27.05800
H  25.86500 -0.00400 34.59100
H  23.46000 1.61700 34.10300
H  22.93200 -1.19700 33.68000
H  22.51900 -0.20600 35.03500
H  24.11300 -1.01100 34.94600
H  24.99400 2.74000 35.12500
H  26.69000 2.86900 34.53400
H  27.54900 1.88200 36.25800
H  26.26200 0.90800 36.75800
H  19.34500 0.23200 29.53400
H  19.24100 1.84700 29.72400
H  19.87500 0.83900 31.02800
H  18.78100 1.76100 26.02200
H  19.14000 2.12300 27.68300
H  18.74800 0.50100 27.09500
H  25.89300 1.73100 24.73300
H  28.09600 -0.29400 25.06000
H  24.74900 -1.04200 24.37500
H  26.25200 -0.91400 23.70900
H  24.89600 0.33600 23.38800
H  28.45400 2.64000 25.73400
H  27.97500 2.24100 24.25100
H  30.24000 0.42100 24.58000
H  30.67800 1.94100 25.26600
H  30.05200 1.81200 23.59500
H  31.36500 -1.34900 29.09000
H  31.97700 -0.18600 30.25800
H  31.68900 0.29200 28.59200
H  28.84900 1.31900 34.10900
H  28.39300 -2.38300 36.58100
H  28.02800 -0.85000 37.44300
H  29.67300 -1.41500 37.40100
Mg 54.25100 23.20000 44.33100
C  51.98900 25.77400 43.43400
C  51.73700 20.85600 43.54700
C  56.59200 20.90400 44.40300
C  56.64200 25.72100 44.81100
N  52.08200 23.23100 43.47500
C  51.49900 24.44900 43.25300
C  50.10400 24.09800 42.60300
C  49.82100 22.60100 43.05100
C  51.26700 22.21200 43.37700
C  48.90500 22.31100 44.22800
C  50.09600 24.26400 41.05700
C  48.81300 24.88500 40.44400
H  48.31800 24.11300 39.14500
N  54.21500 21.20700 43.93500
C  53.07000 20.42200 43.73100
C  53.51000 19.01900 43.86100
C  54.91800 19.04100 44.04800
C  55.31800 20.44600 44.10600
C  52.60500 17.84600 43.56700
C  55.76400 17.81100 44.15400
O  55.22200 16.70400 44.05500
C  57.26700 17.81700 44.60800
N  56.43000 23.32900 44.28900
C  57.05000 22.21300 44.56400
C  58.53000 22.50600 44.72300
C  58.55200 24.05900 44.92000
C  57.17300 24.43500 44.65600
C  59.18700 21.71100 45.88500
C  59.64200 24.75900 44.03200
C  60.57800 25.71500 44.84900
N  54.36100 25.31200 44.28900
C  55.32200 26.20600 44.61600
C  54.82400 27.58700 44.55700
C  53.48500 27.47400 44.14700
C  53.28100 26.07300 43.91300
C  55.58000 28.79300 44.94100
C  52.27300 28.17300 43.84700
O  52.03400 29.37600 43.84900
C  51.27100 27.14500 43.22700
C  51.20400 27.55600 41.78300
O  52.14100 27.34500 40.99700
O  50.02300 28.12500 41.48700
C  49.74400 28.56200 40.13500
H  50.94000 20.12700 43.38300
H  57.50000 20.29700 44.42300
H  57.32800 26.48100 45.19100
H  49.36200 24.78400 43.01300
H  49.52400 21.95700 42.22300
H  48.31000 21.41800 44.03800
H  48.21400 23.15100 44.29800
H  49.49500 22.24900 45.14200
H  50.27400 23.30900 40.56200
H  50.96100 24.91300 40.91800
H  48.98900 25.91500 40.13600
H  47.98900 24.96700 41.15200
H  52.76600 16.88600 44.05700
H  52.68100 17.58600 42.51100
H  51.61000 18.18700 43.85300
H  57.81000 18.32300 43.80900
H  57.70200 16.82100 44.52200
H  57.36900 18.28000 45.58900
H  58.98500 22.22900 43.77200
H  58.71700 24.22900 45.98400
H  59.45900 20.71200 45.54500
H  58.40000 21.55000 46.62200
H  60.02000 22.21400 46.37600
H  59.13400 25.33800 43.26100
H  60.25800 23.93900 43.66400
H  60.41000 26.77700 44.66600
H  61.62000 25.44200 44.68200
H  60.39400 25.57900 45.91500
H  56.50100 28.99500 44.39500
H  55.70900 28.76100 46.02300
H  54.90100 29.62300 44.74700
H  50.28100 27.17700 43.68200
H  48.89400 28.02800 39.71000
H  50.59000 28.66400 39.45500
H  49.28700 29.55000 40.19000

