158

Mg 2.12400 -0.30200 43.89000
C  5.58800 0.39400 43.27500
C  1.37500 2.48800 42.08200
C  -1.12000 -1.07800 44.09300
C  2.99700 -3.51100 44.85300
N  3.35500 1.22200 42.86000
C  4.74500 1.34100 42.63200
C  5.12100 2.48000 41.74000
C  3.75300 3.28900 41.58100
C  2.75100 2.29800 42.30700
C  3.73700 4.68900 42.29600
C  5.65100 1.96500 40.32600
C  6.99000 2.37400 39.94700
H  7.04200 3.26000 38.71100
N  0.33400 0.59700 43.25600
C  0.28400 1.72400 42.50000
C  -1.06500 2.05500 42.25000
C  -1.84600 0.99600 42.80400
C  -0.89000 0.08500 43.35600
C  -1.45200 3.17200 41.28100
C  -3.37500 0.97100 42.66600
O  -3.87700 1.91800 42.10900
C  -4.27200 -0.08500 43.17700
N  1.14300 -1.94700 44.48700
C  -0.17400 -1.93800 44.60300
C  -0.58500 -3.32600 45.01900
C  0.59600 -4.19100 44.76100
C  1.67900 -3.13500 44.69700
C  -1.22000 -3.41500 46.44000
C  0.57000 -5.05600 43.42900
C  -0.18900 -6.46400 43.45500
N  3.87800 -1.28700 44.28000
C  4.08600 -2.59000 44.71000
C  5.45200 -2.78700 44.82900
C  6.10800 -1.57200 44.36300
C  5.05800 -0.77000 44.02100
C  6.04900 -4.00300 45.35600
C  7.42400 -0.99700 44.14000
O  8.56500 -1.44200 44.36900
C  7.17400 0.41500 43.47200
C  7.59600 1.43300 44.57000
O  7.20500 1.47600 45.72100
O  8.09800 2.57500 43.95200
C  8.16100 3.91400 44.62100
H  1.16100 3.45300 41.61900
H  -2.17200 -1.33900 44.22400
H  3.07900 -4.53600 45.22000
H  5.81400 3.14600 42.25500
H  3.46700 3.46500 40.54400
H  4.68100 5.09000 42.66600
H  3.10000 4.64800 43.18000
H  3.08200 5.43000 41.83800
H  4.83400 2.09900 39.61700
H  5.68600 0.89600 40.53700
H  7.56700 1.47300 39.73700
H  7.45200 3.00900 40.70300
H  -2.17600 2.83100 40.54000
H  -0.61400 3.63100 40.75600
H  -1.94700 3.92600 41.89300
H  -5.28900 0.22500 42.93700
H  -4.11200 0.10300 44.23900
H  -4.04200 -1.10500 42.86700
H  -1.45600 -3.55900 44.40700
H  0.76500 -4.94800 45.52700
H  -0.48100 -3.67300 47.20000
H  -2.03000 -4.13900 46.52900
H  -1.62000 -2.42400 46.65100
H  1.55800 -5.16900 42.98200
H  0.08400 -4.36700 42.73900
H  -0.26200 -6.73100 44.50900
H  0.45900 -7.18500 42.95600
H  -1.14400 -6.46600 42.93100
H  5.36500 -4.45300 46.07600
H  6.89800 -3.78900 46.00500
H  6.35000 -4.72500 44.59700
H  7.76000 0.58500 42.56900
H  9.03500 3.83000 45.26700
H  7.27500 4.09500 45.23000
H  8.22600 4.63400 43.80600
Mg 47.08400 24.47000 28.48700
C  47.90900 26.55700 31.20900
C  46.34600 21.94300 30.75600
C  46.65800 22.49400 25.91700
C  48.10800 27.04100 26.35600
N  47.15500 24.31300 30.69800
C  47.34400 25.33800 31.64600
C  47.00400 24.84300 33.10900
C  46.72600 23.33800 32.87600
C  46.71400 23.15000 31.37700
C  47.82300 22.49600 33.54100
C  45.85000 25.64700 33.89600
C  46.18600 26.35900 35.24500
H  45.03500 26.56200 36.26600
N  46.74600 22.45500 28.35800
C  46.32400 21.61300 29.35700
C  46.00300 20.35200 28.71900
C  46.26100 20.51000 27.31400
C  46.56100 21.90200 27.19800
C  45.59800 19.09500 29.51900
C  46.06900 19.47200 26.21200
O  46.19300 19.67800 25.00600
C  45.75700 17.97500 26.53700
N  47.62600 24.67100 26.37600
C  47.20700 23.68100 25.57500
C  47.37100 24.08200 24.07900
C  47.39100 25.62300 24.24100
C  47.70400 25.83400 25.70000
C  48.67300 23.40400 23.47100
C  46.13900 26.45800 23.88500
C  44.90900 26.27700 24.79100
N  47.70600 26.40800 28.65700
C  48.17200 27.32900 27.71400
C  48.50800 28.60700 28.27300
C  48.38900 28.34400 29.68500
C  47.99200 26.94100 29.83500
C  49.05900 29.96200 27.70300
C  48.50000 28.99800 30.97900
O  48.68300 30.16500 31.38300
C  48.22900 27.84900 31.97500
C  49.48300 27.57700 32.76200
O  50.50200 27.10300 32.26100
O  49.22600 27.85700 34.06200
C  50.29300 27.79200 35.07800
H  46.11900 21.16700 31.49000
H  46.52200 21.83400 25.05700
H  48.23500 27.94700 25.75900
H  48.03500 24.96000 33.44400
H  45.73000 23.16400 33.28500
H  48.68400 22.24200 32.92200
H  47.25700 21.58500 33.73600
H  48.23900 22.79700 34.50200
H  45.07200 24.95300 34.21400
H  45.22400 26.29500 33.28300
H  46.63100 27.31800 34.98000
H  46.97800 25.74100 35.66900
H  44.62400 18.68900 29.24400
H  45.55600 19.13800 30.60700
H  46.19000 18.25100 29.16600
H  45.70500 17.39200 25.61700
H  44.73700 17.87800 26.90700
H  46.46600 17.60500 27.27800
H  46.45300 23.72600 23.61000
H  48.21200 25.98200 23.62100
H  48.44200 22.56000 22.82100
H  49.46000 23.24000 24.20700
H  48.93900 24.16600 22.73900
H  45.80800 26.14100 22.89600
H  46.42200 27.51100 23.88500
H  44.88900 25.46700 25.52100
H  44.06300 26.20000 24.10800
H  44.95400 27.18600 25.39000
H  48.55900 30.22300 26.77100
H  50.11200 29.91300 27.42400
H  48.98600 30.85400 28.32500
H  47.46800 28.14800 32.69500
H  49.88000 27.20600 35.89900
H  50.41800 28.75200 35.57700
H  51.25100 27.46000 34.67800

