158

Mg 2.20000 -1.01500 43.79900
C  5.41200 -0.38300 42.88500
C  0.99400 1.68700 42.01800
C  -1.09300 -2.06800 44.37900
C  3.17400 -4.20100 45.13700
N  3.08600 0.25500 42.27700
C  4.48200 0.45100 42.19100
C  4.77100 1.74200 41.35700
C  3.35000 2.31800 41.05900
C  2.40000 1.44200 41.95900
C  3.18400 3.74900 41.40900
C  5.74500 1.55000 40.17400
C  6.91800 2.59600 39.98400
H  6.92700 3.37100 38.62600
N  0.27900 -0.16000 43.38900
C  0.02200 0.99100 42.68100
C  -1.42700 1.21000 42.62500
C  -2.04900 0.17100 43.37200
C  -0.97700 -0.73000 43.77200
C  -2.07300 2.27200 41.83000
C  -3.55900 0.11000 43.61600
O  -4.25500 0.97800 43.06100
C  -4.19900 -0.89600 44.55700
N  1.27200 -2.86000 44.73300
C  -0.10100 -2.97400 44.81000
C  -0.45900 -4.27600 45.63700
C  0.84500 -5.12300 45.60100
C  1.84000 -4.03100 45.10200
C  -1.06100 -3.98000 46.99200
C  0.94000 -6.49900 44.86800
C  -0.05300 -7.61600 45.24400
N  3.94300 -2.10100 44.12800
C  4.16100 -3.33500 44.61600
C  5.56900 -3.59500 44.62100
C  6.16500 -2.40400 44.07400
C  5.06500 -1.56100 43.69300
C  6.29100 -4.94000 45.06000
C  7.42200 -1.68000 43.74000
O  8.64100 -2.02800 43.79500
C  6.90000 -0.25200 43.04600
C  7.27300 1.00300 43.77600
O  6.59800 1.49500 44.69900
O  8.49800 1.53400 43.33100
C  8.85000 2.74800 44.06400
H  0.56400 2.59000 41.58100
H  -2.09500 -2.45800 44.57000
H  3.52900 -5.16900 45.49700
H  5.29000 2.40700 42.04800
H  3.10300 2.14500 40.01100
H  4.10200 4.33400 41.35300
H  3.02100 3.91500 42.47400
H  2.44600 4.14900 40.71400
H  5.01400 1.63800 39.37000
H  6.12900 0.54200 40.32300
H  7.90600 2.14400 40.07900
H  6.84400 3.33900 40.77900
H  -2.98000 1.94300 41.32400
H  -1.48000 2.68800 41.01500
H  -2.41600 3.07500 42.48300
H  -5.16400 -0.56200 44.93500
H  -3.58300 -0.94100 45.45600
H  -4.33200 -1.83400 44.01800
H  -1.27100 -4.78900 45.12000
H  0.96600 -5.30400 46.66900
H  -1.39200 -2.94200 46.96100
H  -0.32800 -4.18100 47.77300
H  -1.90100 -4.62900 47.23800
H  1.97100 -6.83100 44.99400
H  0.79600 -6.39900 43.79200
H  -0.45000 -7.98900 44.29900
H  -0.69900 -7.43900 46.10400
H  0.56600 -8.40900 45.66200
H  5.94800 -5.23800 46.05100
H  7.34700 -4.72300 45.21900
H  6.16600 -5.58200 44.18800
H  7.26700 -0.13600 42.02600
H  9.69100 3.26400 43.60100
H  9.04100 2.48900 45.10600
H  8.07700 3.51300 44.13800
Mg 40.66500 8.41300 28.84900
C  42.56100 9.45700 31.65500
C  38.63700 6.73200 31.20300
C  39.11700 7.01700 26.32000
C  43.09500 9.63900 26.70500
N  40.67900 8.04800 31.15500
C  41.43700 8.77200 32.04800
C  40.98400 8.64400 33.46700
C  39.84100 7.57800 33.31000
C  39.66100 7.43900 31.77900
C  40.21000 6.23600 33.92100
C  40.57000 9.91300 34.15200
C  39.63800 9.90900 35.38800
H  40.12600 10.87200 36.47700
N  39.01000 7.18000 28.77300
C  38.35800 6.55700 29.79700
C  37.41400 5.67300 29.27900
C  37.39400 5.84200 27.80700
C  38.55000 6.69200 27.58200
C  36.39500 4.88400 30.03800
C  36.40800 5.18400 26.83500
O  36.50000 5.31000 25.62600
C  35.11600 4.44800 27.35200
N  41.07800 8.31200 26.77200
C  40.26300 7.70800 25.87000
C  40.78700 7.81800 24.41500
C  42.10300 8.59700 24.62800
C  42.16300 8.85900 26.14400
C  40.83800 6.36500 23.78000
C  42.28200 9.85500 23.78900
C  41.24800 10.90000 23.78400
N  42.41000 9.42700 29.08300
C  43.32000 9.84400 28.12800
C  44.46500 10.41800 28.84100
C  44.14700 10.42300 30.18200
C  42.93300 9.76100 30.31300
C  45.59700 10.93400 28.19200
C  44.58700 10.75400 31.49800
O  45.57900 11.34000 31.82800
C  43.59500 10.24600 32.47900
C  44.19200 9.45100 33.55000
O  44.43900 8.26500 33.54100
O  44.51100 10.32300 34.55000
C  44.98000 9.75800 35.79100
H  38.02700 6.23000 31.95600
H  38.54000 6.59900 25.49300
H  43.87600 9.95100 26.00800
H  41.87400 8.29000 33.98600
H  38.92100 7.96100 33.75300
H  39.87200 5.33800 33.40300
H  39.72600 6.07200 34.88400
H  41.25000 6.15300 34.23800
H  39.97000 10.44900 33.41700
H  41.39200 10.54700 34.48500
H  39.68800 8.89300 35.77900
H  38.62100 10.21600 35.14800
H  36.66600 4.99400 31.08800
H  36.43900 3.82000 29.80500
H  35.41900 5.33100 29.84500
H  34.53900 5.09700 28.00900
H  35.43200 3.48900 27.76200
H  34.42100 4.28500 26.52800
H  40.01100 8.49300 24.05300
H  42.86900 7.82500 24.56100
H  40.11500 6.30000 22.96700
H  40.65200 5.51300 24.43300
H  41.77500 6.17900 23.25700
H  42.24500 9.58600 22.73400
H  43.18800 10.42700 23.98900
H  41.77700 11.84500 23.90800
H  40.78600 10.63400 24.73400
H  40.49900 10.94100 22.99300
H  46.07000 11.42300 29.04400
H  45.46100 11.59800 27.33800
H  46.26600 10.09400 28.00800
H  42.99100 11.02900 32.93800
H  44.26400 10.07700 36.54900
H  45.94800 10.15500 36.09800
H  44.96900 8.66900 35.76400

