158

Mg 54.23300 24.12300 45.06000
C  51.45000 26.15400 44.03700
C  52.21000 21.32600 43.98400
C  56.91900 22.34100 44.98600
C  55.80700 27.04900 45.87700
N  52.13700 23.79000 44.13700
C  51.19600 24.79700 43.87400
C  49.85100 24.21900 43.37100
C  50.00100 22.71900 43.84000
C  51.54000 22.55800 44.00300
C  49.28400 22.40200 45.15400
C  49.73500 24.24300 41.76100
C  51.03300 24.41600 40.94300
H  51.96300 23.25900 40.87800
N  54.54300 22.07100 44.55000
C  53.66700 21.06300 44.22400
C  54.40100 19.82700 44.05900
C  55.74700 20.17000 44.25000
C  55.81200 21.54800 44.61200
C  53.72000 18.42000 43.88400
C  57.02700 19.15100 44.03000
O  56.79300 17.95200 43.68400
C  58.47900 19.46700 44.35800
N  56.17300 24.68200 45.16100
C  57.11900 23.70300 45.22900
C  58.35200 24.20500 45.93800
C  58.05100 25.75000 45.98400
C  56.60600 25.86900 45.63900
C  58.58600 23.60000 47.34300
C  59.04100 26.63200 45.08400
C  58.62900 26.79100 43.62500
N  53.72400 26.23000 45.13500
C  54.48800 27.26700 45.60400
C  53.65000 28.50600 45.60100
C  52.49600 28.07000 44.97600
C  52.61800 26.68600 44.66700
C  54.05700 29.94300 46.06300
C  51.23100 28.53800 44.58100
O  50.66400 29.66800 44.74200
C  50.50600 27.35500 43.91300
C  50.03900 27.76000 42.60000
O  50.74200 28.15200 41.69200
O  48.62400 27.83400 42.57400
C  48.13800 28.24600 41.22900
H  51.71500 20.40700 43.66400
H  57.91700 21.90100 45.03400
H  56.53400 27.82000 46.13900
H  49.02300 24.80600 43.76700
H  49.67000 22.00500 43.08600
H  49.91700 21.84800 45.84800
H  48.34600 21.87900 44.96700
H  49.03000 23.32800 45.67100
H  49.10200 25.07300 41.44300
H  49.34000 23.27500 41.45200
H  51.56900 25.31500 41.24700
H  50.59700 24.67200 39.97700
H  53.58000 18.30500 42.81000
H  52.67000 18.41400 44.17800
H  54.27900 17.56300 44.26000
H  59.07400 18.58200 44.13600
H  58.47500 19.69500 45.42400
H  58.84500 20.17800 43.61700
H  59.16800 24.06500 45.22900
H  58.15700 26.15800 46.98900
H  57.89600 22.78200 47.55100
H  58.58300 24.28300 48.19300
H  59.61500 23.24200 47.37900
H  59.99100 26.10100 45.03000
H  59.22600 27.64200 45.45100
H  59.39600 26.37200 42.97300
H  58.63900 27.85800 43.40600
H  57.63000 26.44200 43.36600
H  54.15800 30.57800 45.18300
H  55.03700 29.92800 46.54100
H  53.33900 30.27800 46.81200
H  49.71700 27.07400 44.61000
H  48.62800 27.75000 40.39200
H  48.18800 29.33200 41.14400
H  47.11400 27.87100 41.24000
Mg 49.01100 36.26100 28.14100
C  46.61500 34.86400 30.39600
C  49.58900 38.67400 30.37000
C  51.00500 37.51800 25.83200
C  48.03000 33.71800 25.88800
N  48.18100 36.59200 30.17200
C  47.26100 35.90500 30.88900
C  47.06700 36.55300 32.32000
C  47.79200 38.01100 32.11300
C  48.60000 37.73200 30.81600
C  46.78100 39.17500 31.82500
C  47.77600 35.85900 33.52300
C  49.02100 34.94700 33.25300
H  50.40800 35.38000 33.77500
N  50.21100 37.80000 28.13200
C  50.37800 38.67500 29.13600
C  51.31900 39.64100 28.75100
C  51.93200 39.25500 27.53900
C  51.07400 38.14900 27.14600
C  51.63700 40.80300 29.76100
C  53.04400 39.86800 26.70500
O  53.45000 39.39500 25.62100
C  53.80400 41.06700 27.19500
N  49.44300 35.69300 26.14400
C  50.24700 36.47200 25.40000
C  50.35000 35.99900 23.91500
C  49.70300 34.55100 24.00000
C  49.02000 34.59400 25.41400
C  49.52100 36.96500 22.97400
C  50.76000 33.38900 23.95000
C  50.97000 32.74700 22.56800
N  47.64800 34.62300 28.04700
C  47.34200 33.71000 27.12100
C  46.34500 32.73200 27.56600
C  46.00000 33.27600 28.80200
C  46.82300 34.33000 29.10500
C  45.85500 31.57200 26.81400
C  45.02900 33.12000 29.84900
O  44.02300 32.39100 29.92500
C  45.48400 34.05900 31.02800
C  45.84600 33.21000 32.12300
O  46.51100 32.14500 32.05400
O  45.30600 33.66100 33.34200
C  45.03600 32.59700 34.34600
H  49.70400 39.44400 31.13600
H  51.55500 37.96700 25.00100
H  47.79000 32.96200 25.13700
H  45.99100 36.58900 32.49200
H  48.45200 38.33100 32.91900
H  47.04500 40.12900 32.28200
H  45.77400 38.85000 32.08700
H  46.74200 39.33900 30.74800
H  47.09900 35.28500 34.15600
H  48.10200 36.65700 34.19000
H  49.18400 34.89300 32.17700
H  48.84000 33.91600 33.55700
H  52.34700 41.52500 29.35800
H  52.14300 40.33300 30.60400
H  50.79000 41.39500 30.10700
H  53.12200 41.90800 27.31900
H  54.62100 41.26400 26.50100
H  54.23700 40.70700 28.12900
H  51.37200 35.77300 23.60900
H  48.91300 34.44400 23.25600
H  48.87800 37.58300 23.60100
H  49.04200 36.38900 22.18300
H  50.22200 37.62900 22.46900
H  50.39900 32.63600 24.65100
H  51.61800 33.88300 24.40500
H  50.16100 33.09600 21.92700
H  50.81600 31.66900 22.61100
H  51.96900 32.89600 22.15700
H  46.62100 30.79800 26.77400
H  45.40300 31.99600 25.91700
H  45.09500 31.11500 27.44800
H  44.59600 34.59500 31.36200
H  45.86400 32.44800 35.04000
H  44.75100 31.65700 33.87300
H  44.13900 32.71100 34.95400

