158

Mg 44.10400 3.57200 47.35000
C  42.31200 6.58500 47.11100
C  41.13900 1.86200 46.97900
C  45.91600 0.64800 47.10600
C  47.07800 5.39400 47.31000
N  41.93600 4.18400 47.01600
C  41.46900 5.45100 47.07000
C  39.97200 5.52200 46.93700
C  39.61000 3.95500 47.07500
C  40.95100 3.25900 47.01400
C  38.76700 3.47500 48.20300
C  39.46600 6.20500 45.58900
C  39.91500 5.64100 44.28500
H  40.91600 6.53200 43.50300
N  43.59300 1.51900 47.19900
C  42.30800 1.06200 47.05100
C  42.38600 -0.39700 46.88100
C  43.72800 -0.79400 46.79100
C  44.48400 0.43600 47.04400
C  41.12300 -1.21400 46.54600
C  44.28100 -2.20000 46.54200
O  43.43100 -3.06200 46.74600
C  45.71800 -2.48700 46.20200
N  46.16500 3.11600 47.10600
C  46.68100 1.90300 47.18300
C  48.18000 1.94900 47.16400
C  48.52700 3.43200 47.50700
C  47.17900 4.03100 47.20600
C  48.84400 0.85900 47.95800
C  49.74900 4.02300 46.70700
C  50.96900 4.53800 47.52600
N  44.64200 5.50400 47.34000
C  45.86400 6.11800 47.37200
C  45.69700 7.52800 47.48300
C  44.29700 7.80300 47.39500
C  43.70900 6.48800 47.27500
C  46.77700 8.52300 47.70100
C  43.25000 8.83100 47.38900
O  43.33100 10.00600 47.44400
C  41.88500 8.07500 47.11200
C  40.88700 8.47300 48.19200
O  40.76200 7.78300 49.21800
O  40.05400 9.57600 47.88100
C  38.82200 9.73800 48.66500
H  40.21500 1.31600 46.77800
H  46.56200 -0.23100 47.07800
H  47.96000 5.98600 47.56400
H  39.45200 6.14300 47.66600
H  38.97900 3.67100 46.23300
H  39.30900 2.98900 49.01400
H  38.11300 2.67100 47.86600
H  38.22700 4.24400 48.75500
H  39.59700 7.28600 45.64000
H  38.37700 6.23700 45.58900
H  39.02800 5.35900 43.71700
H  40.43000 4.72200 44.56300
H  40.23700 -0.79800 47.02500
H  41.21500 -2.19600 47.01000
H  41.04000 -1.37000 45.47000
H  45.97300 -1.97200 45.27600
H  45.92000 -3.55800 46.20400
H  46.42800 -2.08400 46.92400
H  48.43400 1.74000 46.12400
H  48.81100 3.44500 48.56000
H  49.82800 1.20000 48.28200
H  48.96300 -0.01200 47.31400
H  48.35200 0.52800 48.87300
H  49.30500 4.80900 46.09600
H  50.09400 3.20300 46.07600
H  50.78800 4.65300 48.59500
H  51.06200 5.58300 47.23000
H  51.85300 3.93100 47.33500
H  46.59100 8.86900 48.71800
H  46.79000 9.35600 46.99800
H  47.76200 8.08100 47.84900
H  41.69800 8.37400 46.08000
H  38.25600 10.60700 48.33000
H  39.10000 9.83300 49.71400
H  38.24800 8.82000 48.53800
Mg 48.34100 14.67800 28.03400
C  46.52000 14.96700 31.08300
C  50.63900 16.75200 29.43200
C  50.17500 14.38000 25.19000
C  45.77400 12.82000 26.76900
N  48.57700 15.72600 29.97000
C  47.74700 15.68900 31.08000
C  48.26900 16.39600 32.31700
C  49.35100 17.24000 31.63400
C  49.58400 16.53900 30.31700
C  48.89600 18.74800 31.37000
C  48.68200 15.40600 33.45600
C  47.94100 15.58800 34.78000
H  48.68400 15.39100 36.09400
N  50.19600 15.33500 27.49100
C  51.01500 16.18000 28.16900
C  52.31100 16.35500 27.45800
C  52.12100 15.78500 26.18300
C  50.75100 15.13400 26.23000
C  53.46900 17.11500 28.05800
C  53.07100 15.65100 24.93800
O  52.90000 14.93200 23.98100
C  54.30500 16.50800 24.96300
N  47.91900 13.83100 26.20800
C  48.86600 13.78400 25.16100
C  48.30600 13.01800 23.93500
C  47.00000 12.41400 24.53700
C  46.85700 13.04400 25.90000
C  48.13900 13.92800 22.63900
C  47.01300 10.84500 24.48600
C  48.18300 10.14600 25.17700
N  46.52800 14.06600 28.69300
C  45.58200 13.26400 28.04500
C  44.39800 13.10600 28.91700
C  44.72700 13.67800 30.09100
C  46.01600 14.23700 29.95300
C  43.31600 12.19500 28.60000
C  44.27200 13.94200 31.51100
O  43.26500 13.53100 32.13900
C  45.50600 14.68600 32.23900
C  44.80600 15.84900 32.79600
O  44.64200 16.90400 32.23900
O  44.53000 15.62300 34.09900
C  44.05700 16.84700 34.76400
H  51.34300 17.45100 29.88700
H  50.53400 14.38900 24.15800
H  44.99800 12.19600 26.32000
H  47.48600 17.02600 32.73900
H  50.29400 17.16300 32.17700
H  48.53300 18.75300 30.34200
H  49.74800 19.41100 31.51200
H  48.11400 19.06700 32.05900
H  49.76600 15.49700 33.53000
H  48.47100 14.34800 33.29800
H  47.19200 14.81800 34.96700
H  47.37000 16.51600 34.77900
H  53.36000 18.19800 28.11800
H  54.43900 16.89800 27.61100
H  53.45200 16.82800 29.10900
H  54.88600 16.54400 24.04100
H  54.99500 16.04400 25.66700
H  54.01800 17.53800 25.17600
H  48.98300 12.18100 23.76300
H  46.10400 12.61800 23.95100
H  48.51700 13.41800 21.75300
H  48.72000 14.84600 22.72500
H  47.10800 14.22800 22.45100
H  46.91900 10.54200 23.44300
H  46.09800 10.54300 24.99500
H  47.93900 9.47800 26.00300
H  48.88800 10.75700 25.74100
H  48.87600 9.72500 24.44900
H  42.73400 11.85500 29.45600
H  43.58000 11.28800 28.05600
H  42.66700 12.83200 27.99900
H  45.86900 14.02400 33.02500
H  43.29400 17.35200 34.17200
H  44.82500 17.61900 34.70500
H  43.77900 16.79600 35.81700

