158

Mg 0.66500 8.26700 26.73400
C  1.07700 10.31200 29.62100
C  0.66500 5.48200 28.90700
C  0.91400 6.34900 24.11700
C  1.15900 11.09600 24.73300
N  0.86400 7.95100 29.00800
C  0.89200 8.98300 29.97400
C  0.74800 8.32600 31.36200
C  0.84600 6.78700 31.11800
C  0.80100 6.67800 29.61300
C  2.18400 6.20800 31.65600
C  -0.51100 8.86800 32.05700
C  -0.94200 8.04400 33.28200
H  -0.01200 7.83700 34.41200
N  0.64500 6.13900 26.54100
C  0.69200 5.19700 27.51600
C  0.69600 3.91500 26.84100
C  0.83400 4.15600 25.49400
C  0.76200 5.55800 25.28500
C  0.77200 2.62200 27.57700
C  0.90800 3.18800 24.29600
O  0.90000 3.54800 23.12600
C  0.86300 1.72900 24.52700
N  0.98900 8.65300 24.77300
C  0.96800 7.69100 23.81400
C  1.07000 8.34000 22.42600
C  0.87600 9.84900 22.65300
C  1.01900 9.89300 24.12900
C  2.41300 7.88300 21.80700
C  -0.41400 10.35700 22.14800
C  -0.42000 11.64400 21.25100
N  0.96300 10.30000 27.05000
C  1.18400 11.34900 26.12100
C  1.35000 12.57300 26.79600
C  1.26200 12.21600 28.20900
C  1.09800 10.82900 28.28200
C  1.40900 13.90900 26.13900
C  1.32600 12.73600 29.56200
O  1.48100 13.85900 29.98900
C  1.15600 11.47200 30.53100
C  2.24900 11.57400 31.58400
O  3.49100 11.50800 31.41500
O  1.71300 11.86600 32.79800
C  2.63900 11.86400 33.93300
H  0.74700 4.64700 29.60600
H  0.84100 5.78000 23.18800
H  1.13600 11.97400 24.08500
H  1.65200 8.60000 31.90600
H  -0.01600 6.21300 31.45600
H  2.04000 5.20300 32.05200
H  2.47100 6.78900 32.53300
H  2.92500 6.24200 30.85800
H  -1.31100 9.08200 31.34900
H  -0.06400 9.72800 32.55700
H  -1.48400 7.12800 33.04800
H  -1.62600 8.68600 33.83700
H  -0.09200 2.01600 27.30700
H  0.63900 2.68300 28.65700
H  1.64900 2.00400 27.37900
H  0.78500 1.16300 23.59900
H  -0.09900 1.58900 25.02000
H  1.78900 1.50100 25.05300
H  0.26200 8.01200 21.77200
H  1.68700 10.35000 22.12500
H  2.95400 8.79600 21.56000
H  2.27000 7.25600 20.92700
H  2.89200 7.30200 22.59500
H  -0.98500 10.53300 23.06000
H  -1.05900 9.69800 21.56800
H  0.61900 11.93700 21.10200
H  -0.95000 12.42400 21.79800
H  -0.88800 11.48800 20.27900
H  0.47000 14.43400 26.31500
H  1.59800 13.96700 25.06700
H  2.11500 14.52600 26.69500
H  0.27200 11.64200 31.14500
H  3.66300 11.56300 33.71000
H  2.19500 11.07200 34.53500
H  2.71400 12.80700 34.47500
Mg 24.34000 -5.47600 46.00700
C  26.59000 -3.17400 44.41300
C  21.96400 -4.41900 43.67800
C  22.24800 -7.82000 47.02400
C  26.97100 -6.88000 47.72100
N  24.38600 -4.12400 44.08300
C  25.33500 -3.16900 43.84700
C  24.85700 -2.18700 42.76600
C  23.30700 -2.34500 42.89600
C  23.18600 -3.71700 43.65200
C  22.58600 -1.13200 43.60800
C  25.49100 -2.44600 41.32800
C  26.10300 -1.29300 40.50700
H  25.78200 -1.39200 38.99900
N  22.44400 -6.13400 45.37900
C  21.65800 -5.58600 44.43900
C  20.39000 -6.36700 44.30700
C  20.35900 -7.28700 45.30800
C  21.73200 -7.17000 45.88700
C  19.38600 -5.88600 43.34100
C  19.18400 -8.25400 45.69700
O  18.15300 -8.24900 45.02300
C  19.21300 -9.05800 46.91800
N  24.52400 -7.15700 47.16500
C  23.50500 -7.94000 47.58800
C  24.03400 -9.07100 48.49000
C  25.47000 -8.66400 48.81800
C  25.69700 -7.51800 47.83900
C  23.22200 -9.47300 49.77000
C  26.53800 -9.84000 48.82900
C  27.35700 -9.84800 50.14000
N  26.32700 -5.13600 46.10200
C  27.27900 -5.74300 46.89500
C  28.57600 -5.04100 46.75700
C  28.29900 -3.97400 45.78600
C  26.97800 -4.15400 45.41600
C  29.78300 -5.43000 47.46000
C  28.88700 -2.76600 45.15600
O  29.99900 -2.24200 45.31400
C  27.76500 -2.22500 44.08100
C  27.45400 -0.82700 44.36900
O  26.68800 -0.32000 45.16200
O  28.28700 -0.03700 43.56100
C  28.29300 1.36100 43.92400
H  21.12600 -3.95400 43.15400
H  21.60700 -8.53500 47.54400
H  27.74900 -7.42000 48.26500
H  25.18100 -1.20800 43.11700
H  22.81100 -2.51200 41.94000
H  23.32000 -0.33200 43.70600
H  22.23300 -1.49500 44.57300
H  21.73800 -0.71400 43.06500
H  24.75900 -2.96700 40.71100
H  26.35100 -3.08700 41.51900
H  27.18900 -1.34200 40.42400
H  25.76700 -0.33600 40.90700
H  18.68400 -5.21100 43.83100
H  18.83400 -6.77100 43.02600
H  19.75200 -5.48000 42.39900
H  18.27200 -9.56700 47.12700
H  19.39600 -8.36900 47.74200
H  20.04000 -9.75800 46.79500
H  24.09000 -9.91200 47.79900
H  25.38900 -8.24400 49.82000
H  22.35600 -8.81100 49.77700
H  23.83000 -9.49600 50.67400
H  22.73800 -10.41500 49.51100
H  27.23500 -9.81200 47.99100
H  25.98400 -10.77600 48.89000
H  28.43200 -9.81900 49.96300
H  27.12000 -10.62100 50.87100
H  27.27300 -8.85400 50.57900
H  29.57000 -5.44800 48.52900
H  30.53400 -4.71500 47.12500
H  30.02700 -6.47400 47.26100
H  28.15300 -2.35800 43.07100
H  28.30000 1.56500 44.99500
H  27.42100 1.91200 43.57300
H  29.20200 1.81200 43.52600

