158

Mg -0.90500 16.96500 26.86700
C  -1.31200 14.56200 29.46300
C  -1.71800 19.41500 28.94700
C  -0.64700 18.98600 24.23100
C  -0.62900 14.13100 24.63600
N  -1.43700 16.92700 29.06300
C  -1.52800 15.93700 29.95200
C  -1.84500 16.47300 31.39300
C  -1.98000 18.03800 31.14000
C  -1.70100 18.17000 29.64600
C  -3.27300 18.74700 31.52800
C  -0.71100 16.09900 32.41500
C  -0.39800 16.89700 33.73100
H  -0.28200 16.08500 35.10500
N  -1.10200 18.93600 26.64000
C  -1.52300 19.77200 27.61700
C  -1.72900 21.06300 27.05900
C  -1.25100 21.02500 25.72800
C  -0.99100 19.57600 25.48000
C  -2.09700 22.26300 27.87600
C  -1.01900 22.16900 24.75700
O  -0.56500 22.01000 23.64700
C  -1.44800 23.61700 25.17900
N  -0.90100 16.61100 24.70200
C  -0.55900 17.66900 23.90000
C  -0.23200 17.19700 22.43400
C  -0.07900 15.63200 22.59400
C  -0.57000 15.40500 24.03600
C  -1.31800 17.67300 21.38500
C  1.34300 15.11000 22.36700
C  2.37500 15.56400 23.43300
N  -0.99800 14.83200 26.97900
C  -0.91000 13.82800 25.99400
C  -1.00900 12.51500 26.58600
C  -1.20000 12.77100 27.94500
C  -1.13500 14.15000 28.15700
C  -0.89400 11.19400 25.99200
C  -1.45500 12.10800 29.14300
O  -1.57500 10.91000 29.41000
C  -1.53600 13.22800 30.23300
C  -0.55800 12.84300 31.35900
O  0.59700 13.09600 31.33900
O  -1.24200 12.26400 32.38200
C  -0.48400 11.73200 33.50600
H  -2.02000 20.23400 29.60200
H  -0.49000 19.66200 23.38700
H  -0.55900 13.22700 24.02700
H  -2.78500 15.98400 31.65300
H  -1.18300 18.64000 31.57800
H  -3.72900 19.27100 30.68800
H  -3.03400 19.51100 32.26800
H  -3.97100 18.08400 32.03800
H  0.21900 16.02000 31.85300
H  -0.96900 15.12800 32.83700
H  -1.25800 17.56300 33.81000
H  0.46400 17.51300 33.47600
H  -2.89700 22.83200 27.40100
H  -1.19000 22.85600 27.76000
H  -2.27500 22.07400 28.93500
H  -2.52300 23.62900 25.35600
H  -1.33500 24.27000 24.31400
H  -0.82000 23.97200 25.99600
H  0.74300 17.56700 22.11800
H  -0.67500 15.10200 21.85100
H  -0.88000 18.43200 20.73600
H  -2.19400 18.15000 21.82400
H  -1.72900 16.93800 20.69300
H  1.68900 15.45500 21.39200
H  1.32600 14.02200 22.31100
H  3.05900 14.79200 23.78300
H  1.94800 15.84600 24.39600
H  2.97300 16.41100 23.09800
H  -0.67500 10.52400 26.82300
H  -0.07800 11.29700 25.27700
H  -1.77900 10.89300 25.43200
H  -2.59000 13.23800 30.51200
H  -0.54600 10.64400 33.50300
H  -1.08900 11.94000 34.39000
H  0.52100 12.10500 33.70200
Mg 36.28500 49.56600 24.83700
C  36.51800 47.85900 27.86400
C  35.22700 52.32000 26.46200
C  36.00100 51.05400 21.85000
C  37.43900 46.61700 23.19800
N  35.84200 49.98900 26.91200
C  36.14400 49.18100 27.99300
C  35.81600 49.93200 29.31100
C  35.47800 51.35900 28.87300
C  35.46000 51.23500 27.29800
C  34.16200 51.93600 29.45000
C  36.89600 49.92600 30.48500
C  36.42100 49.42600 31.83600
H  34.93400 49.38400 32.34600
N  35.68000 51.44900 24.21100
C  35.22600 52.47300 25.02900
C  34.90200 53.61500 24.20400
C  35.08400 53.22800 22.87200
C  35.57200 51.85600 22.92000
C  34.57500 55.04500 24.74700
C  34.79500 54.07700 21.59500
O  34.79000 53.65800 20.42600
C  34.61600 55.61000 21.69700
N  36.36600 48.83600 22.73400
C  36.33500 49.72300 21.76600
C  36.75000 49.12700 20.41700
C  37.32100 47.72100 20.78700
C  36.99200 47.70200 22.33900
C  35.55200 48.95500 19.43500
C  38.83900 47.48700 20.48900
C  39.92000 48.33500 21.25200
N  36.78300 47.59300 25.39800
C  37.26000 46.51800 24.62300
C  37.54400 45.39600 25.53800
C  37.22300 45.88000 26.81600
C  36.87500 47.21700 26.69400
C  38.09900 44.05500 25.24200
C  37.10200 45.56100 28.20500
O  37.31100 44.53400 28.82600
C  36.68900 46.81900 28.96600
C  35.36700 46.44300 29.69900
O  34.31000 46.47800 29.17400
O  35.69800 45.88700 30.91900
C  34.60100 45.41700 31.81000
H  34.80200 53.19000 26.96600
H  35.94000 51.56900 20.88900
H  37.82200 45.71800 22.71000
H  34.90400 49.46500 29.68200
H  36.36000 51.97100 29.06600
H  34.46500 52.39400 30.39100
H  33.47100 51.14000 29.72700
H  33.59200 52.61500 28.81600
H  37.29800 50.90100 30.76100
H  37.71100 49.25500 30.21400
H  36.99800 50.01800 32.54600
H  36.74600 48.39500 31.97100
H  33.67200 55.49200 24.32900
H  35.43200 55.71200 24.65500
H  34.19000 54.95900 25.76300
H  33.70300 55.69900 22.28600
H  34.39700 56.18500 20.79700
H  35.50800 55.98800 22.19600
H  37.47200 49.75100 19.89000
H  36.61400 46.99800 20.38100
H  34.79500 49.72300 19.59000
H  35.00400 48.02800 19.60300
H  35.90200 49.08200 18.41100
H  38.98700 47.50700 19.41000
H  38.96400 46.41700 20.65100
H  39.46900 48.72600 22.16400
H  40.23300 49.07700 20.51800
H  40.62400 47.58200 21.60700
H  38.23000 43.45900 26.14500
H  39.07500 44.19100 24.77600
H  37.63000 43.42600 24.48600
H  37.48100 47.17500 29.62400
H  34.62500 44.32800 31.75600
H  33.62200 45.72500 31.44400
H  34.75300 45.82100 32.81100

