158

Mg 55.29000 23.59400 44.66600
C  53.14400 26.19200 43.71700
C  52.93300 21.23200 43.67400
C  57.65600 21.23200 44.73400
C  57.75900 26.14300 45.32500
N  53.32900 23.76500 43.73200
C  52.61700 24.94100 43.45400
C  51.25200 24.57800 42.82100
C  51.11600 23.02800 43.19900
C  52.55300 22.60600 43.59700
C  50.03800 22.72700 44.32600
C  51.04900 24.82400 41.29100
C  49.73300 25.37500 40.90200
H  49.00900 24.61600 39.86000
N  55.25300 21.47600 44.31500
C  54.21200 20.70400 43.96200
C  54.59700 19.28200 43.95600
C  55.98100 19.23900 44.31200
C  56.34200 20.67900 44.51900
C  53.69000 18.15300 43.57400
C  56.71900 18.01200 44.53300
O  56.19700 16.96000 44.35400
C  58.20300 17.98600 45.00100
N  57.42500 23.68900 44.93400
C  58.13800 22.58400 44.86200
C  59.64600 22.87200 45.10800
C  59.63100 24.40700 45.51900
C  58.18300 24.78900 45.15300
C  60.46200 21.95800 46.15900
C  60.84800 25.25500 44.95700
C  61.70700 26.00800 46.00000
N  55.38400 25.71200 44.73800
C  56.42100 26.60600 45.05100
C  55.88000 27.95400 45.08100
C  54.63100 27.83700 44.48800
C  54.40800 26.47700 44.28600
C  56.57300 29.21800 45.58900
C  53.44100 28.56100 44.18600
O  53.28300 29.75600 44.40000
C  52.47700 27.58200 43.48900
C  52.34400 27.94500 42.05000
O  53.06300 27.70700 41.14400
O  51.19700 28.68600 41.90500
C  50.89200 29.04700 40.53600
H  52.13100 20.53200 43.43200
H  58.34500 20.40600 44.55100
H  58.51600 26.86900 45.63000
H  50.49500 25.14800 43.36000
H  50.82200 22.39400 42.36200
H  49.16300 22.27000 43.86400
H  49.57700 23.62700 44.73200
H  50.55200 22.08900 45.04500
H  50.99300 23.82400 40.86100
H  51.94100 25.29100 40.87500
H  49.89200 26.43800 40.71900
H  49.07400 25.53600 41.75400
H  54.24600 17.40800 43.00500
H  52.98700 18.49400 42.81400
H  53.30900 17.72700 44.50200
H  58.85300 18.42500 44.24300
H  58.57700 17.01400 45.32000
H  58.26800 18.64100 45.87000
H  60.09500 22.61600 44.14800
H  59.58100 24.51500 46.60200
H  59.85900 21.19200 46.64600
H  60.91400 22.61400 46.90300
H  61.22700 21.58600 45.47700
H  60.58100 25.91500 44.13200
H  61.44100 24.56200 44.36000
H  62.70500 25.57000 45.98300
H  61.22900 25.92900 46.97700
H  61.74200 27.06300 45.72800
H  56.77500 29.83500 44.71300
H  57.51000 29.01900 46.11100
H  55.78000 29.72200 46.14200
H  51.48000 27.56400 43.92800
H  50.22200 29.90300 40.60800
H  50.50900 28.23500 39.91700
H  51.78500 29.44200 40.05100
Mg -10.68300 18.20000 40.31200
C  -7.13600 17.93000 40.20100
C  -10.28600 21.38200 39.32800
C  -13.96700 18.20700 39.68500
C  -10.83700 14.65400 40.40800
N  -8.82200 19.53000 39.73800
C  -7.52400 19.23800 39.91300
C  -6.62500 20.38800 39.35300
C  -7.73500 21.53500 39.36700
C  -9.07300 20.81500 39.52200
C  -7.44400 22.63400 40.50100
C  -6.00600 20.10900 37.87800
C  -4.41600 19.90100 37.85200
H  -3.98000 18.73800 36.99700
N  -11.96200 19.62100 39.77700
C  -11.64300 20.89300 39.46500
C  -12.83200 21.73800 39.31300
C  -13.94900 20.84100 39.41000
C  -13.32600 19.44300 39.56900
C  -12.85500 23.15500 39.25200
C  -15.43200 21.23700 39.18100
O  -15.71500 22.42600 38.96400
C  -16.54300 20.29400 39.26000
N  -12.29600 16.64100 40.09800
C  -13.59100 16.94000 39.91800
C  -14.47300 15.64200 40.00000
C  -13.37700 14.50900 40.24900
C  -12.06900 15.31600 40.28600
C  -15.55500 15.66900 41.07700
C  -13.46700 13.32200 39.34500
C  -13.69600 11.94300 40.10800
N  -9.31500 16.57500 40.36000
C  -9.51500 15.21500 40.40100
C  -8.24000 14.50500 40.56000
C  -7.29900 15.56400 40.57300
C  -8.00600 16.76200 40.33900
C  -8.01500 13.06000 40.68600
C  -5.81400 15.85800 40.61700
O  -4.89300 14.99600 40.65200
C  -5.72200 17.43200 40.47500
C  -5.16700 18.10300 41.73300
O  -4.56600 19.16500 41.69800
O  -5.49700 17.40100 42.86900
C  -5.27200 18.10200 44.17500
H  -10.25000 22.36800 38.85900
H  -15.05800 18.20000 39.63800
H  -10.92200 13.56800 40.47600
H  -5.78700 20.62500 40.00900
H  -7.77600 22.10600 38.44000
H  -6.56400 22.33000 41.06800
H  -8.27900 22.62300 41.20200
H  -7.25300 23.62900 40.10000
H  -6.23600 20.99100 37.28000
H  -6.56700 19.30300 37.40700
H  -4.08500 19.62400 38.85300
H  -3.97400 20.77100 37.36600
H  -13.32200 23.75500 38.47000
H  -11.80600 23.45400 39.26300
H  -13.38200 23.43300 40.16400
H  -16.48900 19.66700 38.37000
H  -17.50400 20.77200 39.07100
H  -16.42100 19.67500 40.15000
H  -14.93800 15.60800 39.01500
H  -13.46600 14.07100 41.24300
H  -15.89400 16.67800 41.31300
H  -15.34500 15.21200 42.04300
H  -16.39000 15.13700 40.62100
H  -12.52700 13.19200 38.80800
H  -14.29100 13.50700 38.65600
H  -14.11900 12.08000 41.10400
H  -12.70700 11.48900 40.15600
H  -14.34500 11.34900 39.46400
H  -8.50000 12.72200 41.60200
H  -6.96700 12.78300 40.79400
H  -8.38100 12.56600 39.78600
H  -5.03200 17.68600 39.67000
H  -6.17000 18.40200 44.71400
H  -4.53200 18.89600 44.07600
H  -4.71200 17.33100 44.70500

