158

Mg 2.47800 0.00100 43.37900
C  5.95000 0.27800 43.18600
C  2.13000 3.17400 42.37500
C  -0.84700 -0.69000 42.84800
C  2.87700 -3.38600 44.26500
N  3.86700 1.52100 42.57700
C  5.26300 1.44800 42.74100
C  5.86200 2.81400 42.61400
C  4.60600 3.70000 42.82400
C  3.44300 2.78600 42.54800
C  4.50400 4.40200 44.29400
C  6.71700 3.20200 41.30200
C  6.69600 2.23800 40.09300
H  6.67000 2.92200 38.77400
N  0.87600 1.09100 42.69600
C  0.91400 2.42200 42.44300
C  -0.43700 2.88600 42.13600
C  -1.34800 1.75600 42.10500
C  -0.44500 0.63400 42.51400
C  -0.71200 4.30600 41.71100
C  -2.88700 1.77700 41.92300
O  -3.39200 2.80300 41.57500
C  -3.77800 0.61400 42.07900
N  1.19900 -1.81300 43.40300
C  -0.14700 -1.80100 43.18600
C  -0.67200 -3.31200 43.21700
C  0.45500 -4.02100 44.06100
C  1.60700 -3.06800 43.91300
C  -2.06400 -3.56800 43.75000
C  0.82300 -5.51600 43.55200
C  1.75500 -5.66100 42.27200
N  4.05100 -1.36300 43.63200
C  4.05900 -2.69800 44.00100
C  5.40300 -3.10100 44.30200
C  6.15900 -1.99200 43.98700
C  5.35200 -0.95100 43.56900
C  5.86200 -4.41500 44.89400
C  7.52100 -1.39900 44.10000
O  8.60500 -1.83900 44.39100
C  7.40300 -0.02200 43.37800
C  8.12400 1.01400 44.22500
O  9.05400 1.68000 43.76200
O  7.45600 1.18200 45.40200
C  7.98500 2.31800 46.16600
H  1.98400 4.25200 42.27100
H  -1.92500 -0.78900 42.70700
H  3.00500 -4.43800 44.52900
H  6.51000 3.07000 43.45300
H  4.64700 4.49400 42.07900
H  5.37700 4.17800 44.90700
H  3.71600 3.87200 44.83100
H  4.34800 5.47800 44.22400
H  7.71000 3.13100 41.74600
H  6.59000 4.24400 41.01000
H  5.80600 1.62600 40.24100
H  7.49900 1.50100 40.08300
H  -1.38900 4.41800 40.86400
H  0.18600 4.86300 41.44500
H  -1.10500 4.91400 42.52600
H  -3.70800 0.15700 43.06600
H  -3.55800 -0.09900 41.28400
H  -4.76200 1.07400 41.99400
H  -0.63400 -3.62200 42.17300
H  0.18100 -4.14900 45.10800
H  -2.04000 -4.03200 44.73600
H  -2.73200 -4.08000 43.05700
H  -2.60200 -2.62100 43.79600
H  -0.10900 -6.02000 43.29700
H  1.30300 -6.02200 44.39000
H  2.77100 -6.02000 42.44000
H  1.85300 -4.76200 41.66400
H  1.39400 -6.38100 41.53800
H  5.03200 -5.05800 45.18700
H  6.44900 -4.23300 45.79400
H  6.35100 -4.99700 44.11300
H  7.94400 -0.11100 42.43500
H  7.88800 2.29300 47.25100
H  7.30600 3.12500 45.88900
H  8.98600 2.73300 46.04600
Mg -5.23300 24.32000 26.52200
C  -2.99300 25.99700 28.79700
C  -6.14500 22.26200 29.14600
C  -6.92000 22.54900 24.31500
C  -3.85200 26.30200 23.89000
N  -4.70900 24.21400 28.72600
C  -3.78800 25.00600 29.42600
C  -3.97000 24.71600 30.95000
C  -4.63100 23.31200 30.98300
C  -5.20200 23.24300 29.53500
C  -3.79700 22.13400 31.30000
C  -4.63800 25.97800 31.59800
C  -5.95000 25.72600 32.32700
H  -5.91600 25.09900 33.74100
N  -6.44700 22.72900 26.70800
C  -6.73400 21.98800 27.86000
C  -7.64400 20.91500 27.46600
C  -7.88500 20.97700 26.05900
C  -7.09500 22.14900 25.65500
C  -8.16100 19.91800 28.48500
C  -8.84800 20.13200 25.26000
O  -9.06400 20.34300 24.06500
C  -9.58400 18.93100 25.82500
N  -5.23500 24.39200 24.42400
C  -6.16500 23.58000 23.78200
C  -6.26800 24.00000 22.31300
C  -5.29000 25.13300 22.10600
C  -4.75700 25.32900 23.53600
C  -6.27200 22.87500 21.12800
C  -5.84000 26.39400 21.43800
C  -5.74100 26.55800 19.94100
N  -3.80000 25.85700 26.33000
C  -3.40600 26.57400 25.21200
C  -2.42100 27.63000 25.59600
C  -2.22200 27.43000 27.00100
C  -3.07000 26.31000 27.37300
C  -1.73900 28.60800 24.67000
C  -1.46200 27.80500 28.14000
O  -0.57300 28.66800 28.28600
C  -1.97300 26.99700 29.34100
C  -0.85700 26.31700 30.07900
O  0.03200 25.65700 29.55400
O  -0.88000 26.63300 31.40600
C  0.21600 26.19600 32.24600
H  -6.41000 21.58800 29.96400
H  -7.34900 21.86700 23.57800
H  -3.43600 26.84600 23.04000
H  -2.96400 24.71700 31.37100
H  -5.43600 23.35400 31.71700
H  -4.31900 21.53800 32.04900
H  -2.80800 22.39600 31.67900
H  -3.68000 21.46200 30.45000
H  -4.82200 26.83700 30.95300
H  -3.93500 26.47400 32.26800
H  -6.58000 25.21700 31.59700
H  -6.39000 26.71400 32.46200
H  -9.19600 20.12600 28.75500
H  -7.51400 19.98000 29.36100
H  -8.02500 18.90500 28.10400
H  -8.84700 18.13200 25.91300
H  -10.27000 18.62200 25.03600
H  -10.11900 19.09000 26.76100
H  -7.27600 24.41500 22.34400
H  -4.47700 24.73300 21.50000
H  -7.26000 22.71800 20.69400
H  -6.05600 21.90700 21.57900
H  -5.61300 23.11500 20.29400
H  -5.19200 27.17500 21.83600
H  -6.89000 26.50300 21.71000
H  -4.83900 27.11200 19.68100
H  -6.70500 26.89700 19.56200
H  -5.61400 25.58100 19.47500
H  -1.68700 28.26200 23.63800
H  -0.69200 28.66100 24.97000
H  -2.16600 29.59200 24.86300
H  -2.45400 27.64600 30.07300
H  1.11900 25.82800 31.75800
H  -0.22200 25.42400 32.87900
H  0.51400 27.01400 32.90200

