158

Mg -1.82900 16.92900 26.56800
C  -2.55000 14.75000 29.27100
C  -2.36000 19.54300 28.77800
C  -1.70900 18.97400 23.96100
C  -2.16000 14.26400 24.34600
N  -2.59200 17.06900 28.88600
C  -2.57300 16.09400 29.81100
C  -2.65800 16.73700 31.17300
C  -2.79700 18.24100 30.93500
C  -2.67700 18.30400 29.42000
C  -4.10900 18.77800 31.48300
C  -1.40200 16.32900 31.97100
C  -1.02700 17.08700 33.21200
H  -0.64200 16.25700 34.42300
N  -1.94700 19.00500 26.39700
C  -2.12000 19.89400 27.39600
C  -1.96400 21.23500 26.87600
C  -1.65300 21.06200 25.49600
C  -1.73000 19.63200 25.20800
C  -1.92200 22.48100 27.75000
C  -1.39800 22.11400 24.37200
O  -1.11200 21.77600 23.21500
C  -1.47200 23.57200 24.62600
N  -1.89100 16.66900 24.38500
C  -1.84200 17.64200 23.53600
C  -2.05900 17.12500 22.10300
C  -1.89300 15.60900 22.25700
C  -1.95200 15.46300 23.73900
C  -3.38500 17.49300 21.47500
C  -0.59500 14.99600 21.73800
C  -0.69100 13.91500 20.66300
N  -2.18500 14.87600 26.71700
C  -2.27600 13.96300 25.70300
C  -2.42000 12.62800 26.31600
C  -2.56000 12.93100 27.66500
C  -2.46700 14.29700 27.89200
C  -2.45600 11.36400 25.56600
C  -2.68700 12.32900 28.99900
O  -2.80500 11.17900 29.36300
C  -2.64600 13.47200 30.02600
C  -1.66000 13.23100 31.01300
O  -0.46100 13.49000 30.87900
O  -2.24400 12.61900 32.09000
C  -1.40000 12.35500 33.24800
H  -2.34900 20.32000 29.54500
H  -1.68800 19.53300 23.02300
H  -2.01800 13.41500 23.67300
H  -3.52700 16.29000 31.65800
H  -2.05000 18.89500 31.38400
H  -4.95400 18.09500 31.39600
H  -4.30300 19.63300 30.83600
H  -3.90500 19.14100 32.49000
H  -0.56800 16.32400 31.26800
H  -1.50600 15.27400 32.22300
H  -1.93100 17.66100 33.41600
H  -0.11800 17.60000 32.89800
H  -1.02200 23.04900 27.51100
H  -1.80900 22.28200 28.81600
H  -2.78000 23.13300 27.58700
H  -0.61000 23.99300 25.14200
H  -2.43100 23.72100 25.12300
H  -1.70500 24.12800 23.71800
H  -1.33700 17.58900 21.43100
H  -2.77600 15.11100 21.85500
H  -3.34600 17.53400 20.38600
H  -3.65800 18.46500 21.88500
H  -4.21800 16.80000 21.59900
H  0.01600 14.59000 22.54400
H  0.09800 15.73400 21.33300
H  -0.45900 14.33600 19.68500
H  -1.63500 13.37100 20.68500
H  0.02700 13.10500 20.79500
H  -1.68100 11.32200 24.80100
H  -3.46600 11.23300 25.17800
H  -2.18300 10.55200 26.24000
H  -3.64000 13.53900 30.46800
H  -1.36400 13.06100 34.07800
H  -0.38500 12.10300 32.94000
H  -1.78800 11.43500 33.68400
Mg -1.84500 33.82000 26.94900
C  -3.63800 31.96900 29.42000
C  -0.61600 35.73500 29.58300
C  -0.56000 35.94000 24.67700
C  -3.47100 32.11000 24.50700
N  -2.22300 33.92200 29.15500
C  -2.81100 32.93900 29.91300
C  -2.44600 33.10100 31.45200
C  -1.63500 34.39300 31.43500
C  -1.45400 34.67100 29.97500
C  -2.14500 35.61100 32.15900
C  -1.71500 31.85800 32.09800
C  -2.37400 31.09700 33.26500
H  -1.75800 31.27900 34.59800
N  -0.65600 35.56500 27.11900
C  -0.21800 36.13900 28.29100
C  0.66000 37.23000 27.93500
C  0.56400 37.46500 26.53700
C  -0.21700 36.31000 26.02300
C  1.37100 38.00500 28.95300
C  1.19300 38.55100 25.73900
O  1.08600 38.60800 24.49300
C  1.97700 39.68600 26.49000
N  -2.13300 34.10600 24.88800
C  -1.38600 34.98700 24.12600
C  -1.70800 34.78100 22.59100
C  -2.71700 33.57300 22.62200
C  -2.75000 33.19100 24.07600
C  -2.30200 35.96600 21.70000
C  -2.54500 32.39600 21.56300
C  -1.60200 31.21600 21.92500
N  -3.23800 32.37300 26.87400
C  -3.69600 31.64100 25.82400
C  -4.44700 30.57000 26.25300
C  -4.50900 30.67600 27.68800
C  -3.72000 31.78500 27.99400
C  -5.14800 29.49600 25.41600
C  -5.03100 30.05800 28.86500
O  -5.88200 29.16300 29.14200
C  -4.43000 30.82600 29.96800
C  -5.41900 31.19500 30.97900
O  -6.42900 31.92900 30.81000
O  -5.29100 30.42900 32.12100
C  -6.31200 30.50800 33.18000
H  -0.23000 36.17100 30.50600
H  -0.01700 36.59900 23.99600
H  -4.02500 31.40400 23.88500
H  -3.35700 33.32400 32.00900
H  -0.68700 34.17600 31.92800
H  -1.37600 36.35000 32.38400
H  -2.53000 35.32200 33.13700
H  -3.00300 36.05400 31.65300
H  -0.67800 32.07500 32.35100
H  -1.72000 31.05800 31.35800
H  -2.43100 30.01900 33.11900
H  -3.39600 31.47600 33.24600
H  2.39900 37.92400 28.60000
H  1.31300 37.55300 29.94300
H  0.89800 38.98400 29.03600
H  2.21800 40.39500 25.69700
H  2.95000 39.34900 26.84600
H  1.48500 40.19200 27.32000
H  -0.78800 34.39400 22.15400
H  -3.72800 33.92900 22.42600
H  -2.85600 36.66800 22.32300
H  -2.99600 35.54500 20.97300
H  -1.46500 36.46900 21.21600
H  -2.09200 32.85000 20.68200
H  -3.52600 32.05300 21.23500
H  -0.91000 30.96900 21.11900
H  -2.24500 30.37500 22.18600
H  -0.99600 31.55600 22.76500
H  -4.64300 29.19600 24.49700
H  -6.08100 29.92900 25.05700
H  -5.26700 28.59300 26.01500
H  -3.74100 30.15600 30.48300
H  -5.80500 30.95900 34.03400
H  -6.68800 29.52300 33.45700
H  -7.15500 31.15500 32.94100

