158

Mg 17.48100 52.70300 26.47900
C  19.38000 51.42800 29.17200
C  14.86900 53.17100 28.63800
C  15.70300 53.71000 23.90400
C  20.07000 51.53600 24.31300
N  17.13600 52.39100 28.66300
C  18.14100 52.04000 29.54800
C  17.71200 52.21700 30.99200
C  16.18300 52.63400 30.92500
C  16.05100 52.72600 29.34000
C  15.15100 51.68400 31.64800
C  18.67200 53.15200 31.84800
C  18.86000 52.94100 33.33300
H  17.73000 52.15100 34.07200
N  15.53500 53.29900 26.29400
C  14.59300 53.45800 27.31500
C  13.36100 54.05200 26.85700
C  13.65400 54.27800 25.45300
C  15.04900 53.79200 25.18100
C  12.18200 54.40500 27.79700
C  12.77500 55.00200 24.37500
O  13.18800 55.30200 23.25000
C  11.52200 55.69600 24.89100
N  17.89100 52.73500 24.45300
C  16.93400 53.21700 23.60900
C  17.48000 53.20300 22.17900
C  18.88800 52.55400 22.26600
C  18.93700 52.19700 23.72800
C  16.54800 52.39600 21.17700
C  20.03200 53.50800 21.70400
C  20.17200 54.75700 22.60700
N  19.27800 51.63000 26.65100
C  20.17600 51.31500 25.71100
C  21.28200 50.69200 26.30300
C  20.97700 50.64200 27.66000
C  19.76800 51.28800 27.85600
C  22.38300 49.98500 25.67800
C  21.48800 50.23200 28.94800
O  22.47800 49.57800 29.28700
C  20.50300 50.74600 30.00200
C  19.87300 49.63300 30.81100
O  18.96600 48.93800 30.41800
O  20.44200 49.39500 32.03400
C  19.81200 48.55800 33.00600
H  14.04100 53.48900 29.27500
H  15.19100 54.00100 22.98500
H  20.85000 51.15300 23.65200
H  17.83600 51.21000 31.38800
H  16.03400 53.67200 31.21900
H  14.76400 51.05400 30.84700
H  14.34300 52.21400 32.15300
H  15.62800 51.05600 32.40100
H  18.17000 54.10600 31.68600
H  19.62600 53.25600 31.33100
H  18.96700 53.88700 33.86400
H  19.81600 52.44300 33.49200
H  11.22000 54.53000 27.29800
H  12.51200 55.28900 28.34200
H  12.07200 53.67600 28.59900
H  10.90000 54.88900 25.27800
H  11.14100 56.14400 23.97400
H  11.75400 56.50400 25.58400
H  17.46100 54.24900 21.87400
H  19.09200 51.59700 21.78700
H  16.74200 51.32900 21.28200
H  16.73500 52.87800 20.21700
H  15.50800 52.60900 21.42500
H  19.82200 53.86000 20.69400
H  21.03200 53.07500 21.72000
H  19.64800 55.68600 22.38500
H  21.23000 54.97900 22.47100
H  19.98300 54.43700 23.63200
H  22.93400 50.71000 25.07800
H  21.95000 49.32000 24.93100
H  23.04100 49.32700 26.24500
H  20.93400 51.54100 30.61000
H  19.93000 49.02500 33.98400
H  20.27200 47.57100 33.04400
H  18.73300 48.55100 32.84700
Mg -11.78900 16.90600 41.14600
C  -8.63800 15.17800 40.97500
C  -10.17300 19.59800 39.80500
C  -14.78900 18.19600 40.53500
C  -13.31900 13.78000 42.01100
N  -9.60600 17.34200 40.55400
C  -8.52000 16.53800 40.63900
C  -7.23500 17.23400 40.06800
C  -7.73200 18.68000 39.88100
C  -9.29400 18.56600 40.14900
C  -7.11600 19.71300 40.97000
C  -6.68400 16.60600 38.67400
C  -5.13100 16.79800 38.58100
H  -4.63500 17.15800 37.18300
N  -12.40500 18.72000 40.36300
C  -11.57500 19.69100 39.83200
C  -12.40500 20.78800 39.35000
C  -13.76000 20.44000 39.57000
C  -13.71500 19.07600 40.16100
C  -11.75100 22.08600 38.85400
C  -15.02600 21.28600 39.18800
O  -14.87700 22.36500 38.68900
C  -16.31700 20.86200 39.42300
N  -13.77700 16.07600 41.21600
C  -14.80500 16.91900 41.12600
C  -16.12100 16.13400 41.47300
C  -15.64300 14.82600 42.21300
C  -14.16000 14.85100 41.77900
C  -17.18700 16.89500 42.32600
C  -16.39000 13.47800 41.78300
C  -16.16000 13.03700 40.40500
N  -11.14100 14.90100 41.43600
C  -11.85800 13.74300 41.73000
C  -10.98000 12.59200 41.81900
C  -9.71200 13.14100 41.49700
C  -9.85500 14.52700 41.33900
C  -11.37200 11.13500 42.04100
C  -8.30500 12.78600 41.38600
O  -7.68900 11.76600 41.55800
C  -7.58300 14.03200 40.96300
C  -6.44900 14.21000 41.85000
O  -6.63800 14.53800 43.00500
O  -5.25400 13.90300 41.28000
C  -4.14800 14.08100 42.18900
H  -9.61100 20.47300 39.47200
H  -15.74600 18.70300 40.39900
H  -13.78300 12.86800 42.39400
H  -6.44600 17.20400 40.81900
H  -7.53900 19.10900 38.89700
H  -6.40700 19.11200 41.53900
H  -7.83000 20.16100 41.66100
H  -6.66700 20.53400 40.41100
H  -7.07700 17.08200 37.77600
H  -7.08500 15.59300 38.62500
H  -4.76700 15.80500 38.84500
H  -4.93500 17.48100 39.40800
H  -11.75800 22.14500 37.76500
H  -10.71000 22.23900 39.13900
H  -12.33400 22.87200 39.33300
H  -16.60000 19.92300 38.94600
H  -16.96900 21.62000 38.99000
H  -16.62600 20.78800 40.46600
H  -16.52000 15.83800 40.50300
H  -15.69900 14.89100 43.30000
H  -17.05300 17.97700 42.33200
H  -17.27700 16.49400 43.33600
H  -18.16100 16.73900 41.86300
H  -17.42700 13.70800 42.02800
H  -16.01700 12.75000 42.50400
H  -15.66000 12.06900 40.38700
H  -15.56000 13.74600 39.83500
H  -17.10100 12.87900 39.87700
H  -10.86500 10.85100 42.96200
H  -11.02400 10.55900 41.18300
H  -12.41600 10.86000 42.19200
H  -7.08100 13.87200 40.00800
H  -4.18000 14.96900 42.82100
H  -3.23200 14.24300 41.62300
H  -4.02200 13.22000 42.84500

