158

Mg 24.73300 -5.54700 45.42400
C  26.81300 -3.10300 43.90900
C  22.18100 -4.50200 43.42000
C  23.00600 -8.31200 46.29800
C  27.55500 -6.73500 47.19500
N  24.57500 -3.98500 43.86400
C  25.50700 -3.06400 43.45500
C  24.97100 -2.25200 42.25200
C  23.36800 -2.40700 42.39500
C  23.37200 -3.72800 43.26800
C  22.63800 -1.16600 43.12600
C  25.56400 -2.88700 40.86000
C  26.47900 -1.93200 39.97900
H  26.08200 -2.03400 38.51500
N  22.90000 -6.29100 44.97400
C  21.98200 -5.75900 44.10700
C  20.82100 -6.53100 44.12500
C  20.92800 -7.60000 45.03100
C  22.28300 -7.40400 45.58100
C  19.65100 -6.05200 43.25700
C  19.92300 -8.57400 45.38000
O  18.87000 -8.69100 44.71600
C  20.10500 -9.41800 46.64100
N  25.25700 -7.31900 46.56900
C  24.36700 -8.37900 46.71000
C  25.00200 -9.50200 47.51800
C  26.31700 -8.87000 48.02700
C  26.38300 -7.51700 47.27700
C  24.20800 -10.08800 48.72700
C  27.57000 -9.82600 47.85800
C  28.30600 -10.14100 49.11300
N  26.78200 -5.02400 45.61100
C  27.77500 -5.60700 46.37000
C  29.02500 -4.96600 46.10200
C  28.71900 -3.95600 45.18100
C  27.33300 -4.06900 44.89600
C  30.31100 -5.33100 46.71600
C  29.26200 -2.83200 44.36700
O  30.32100 -2.26400 44.39100
C  28.02400 -2.27200 43.50200
C  27.84300 -0.83400 43.71200
O  27.27400 -0.34000 44.64300
O  28.28500 -0.14700 42.57200
C  28.00600 1.25900 42.40500
H  21.33600 -4.10500 42.85400
H  22.50100 -9.18800 46.71100
H  28.42800 -6.95600 47.81300
H  25.03300 -1.18300 42.45500
H  22.95600 -2.58800 41.40200
H  22.05700 -1.45700 44.00200
H  21.92100 -0.65300 42.48600
H  23.36700 -0.44400 43.49400
H  24.79900 -3.23000 40.16400
H  26.15100 -3.75600 41.15800
H  27.47800 -2.33200 40.15000
H  26.34700 -0.90100 40.30900
H  18.89300 -6.80800 43.05300
H  20.07300 -5.66600 42.32900
H  19.18000 -5.27000 43.85100
H  20.82900 -10.21200 46.46000
H  19.14500 -9.79200 46.99600
H  20.55400 -8.79300 47.41300
H  25.25800 -10.33000 46.85700
H  26.20800 -8.56300 49.06700
H  23.18300 -9.72900 48.81800
H  24.71500 -10.08200 49.69200
H  24.05200 -11.14100 48.49500
H  28.34800 -9.39400 47.22800
H  27.24300 -10.78000 47.44500
H  27.73200 -9.65800 49.90300
H  29.18000 -9.51400 48.94000
H  28.46500 -11.20500 49.29100
H  31.01200 -4.53300 46.47000
H  30.65100 -6.29800 46.34500
H  30.25500 -5.36500 47.80400
H  28.07300 -2.37600 42.41800
H  27.13000 1.53900 42.99000
H  27.84200 1.48500 41.35200
H  28.86000 1.85700 42.72400
Mg 48.12700 16.36300 29.00500
C  46.13900 16.11300 31.88700
C  50.51200 17.84200 30.80500
C  49.77700 16.81400 26.12000
C  45.43900 14.95800 27.19600
N  48.24300 16.97500 31.15700
C  47.38400 16.74200 32.15000
C  47.82300 17.24300 33.43900
C  49.20900 18.01300 33.09000
C  49.34800 17.58800 31.59700
C  49.29900 19.53500 33.23200
C  47.92200 16.26800 34.64800
C  47.31400 16.84700 35.98200
H  47.05400 18.27500 36.22900
N  49.97500 17.19000 28.52400
C  50.77300 17.83700 29.43500
C  52.00800 18.18800 28.74100
C  51.82300 17.99900 27.36100
C  50.52200 17.25700 27.27500
C  53.12300 18.84800 29.41800
C  52.72400 18.39800 26.15600
O  52.43800 17.92700 25.06200
C  54.02900 19.20800 26.29400
N  47.63900 16.00700 26.94500
C  48.48600 16.21700 25.93300
C  48.08900 15.59500 24.61100
C  46.73600 14.86200 25.02900
C  46.60800 15.21000 26.52800
C  47.76000 16.53100 23.45000
C  46.86600 13.28900 24.90400
C  45.83300 12.71700 23.89600
N  46.18100 15.63300 29.40700
C  45.21800 15.15600 28.54700
C  44.05000 14.82200 29.29800
C  44.36600 15.13400 30.59400
C  45.67900 15.63800 30.64300
C  42.81100 14.10300 28.76500
C  43.89800 15.08100 31.90800
O  42.92400 14.58300 32.42700
C  45.02900 15.77000 32.81000
C  44.39600 16.95800 33.50500
O  44.34700 18.10400 33.15500
O  43.79000 16.45900 34.65700
C  42.70100 17.31100 35.27900
H  51.17800 18.46400 31.40800
H  50.37900 16.82300 25.20900
H  44.67700 14.44000 26.61100
H  47.07700 17.99800 33.68700
H  49.99900 17.53400 33.66900
H  49.38200 19.89200 32.20500
H  50.22800 19.60700 33.79700
H  48.37200 19.90300 33.67200
H  48.94300 16.02300 34.94000
H  47.32000 15.39700 34.38700
H  48.07200 16.54000 36.70100
H  46.42100 16.27300 36.23000
H  54.03400 18.33300 29.11500
H  53.10500 18.89800 30.50700
H  53.16400 19.85800 29.01000
H  54.14600 19.75600 27.22900
H  54.20200 19.75200 25.36600
H  54.78500 18.42800 26.38900
H  48.88600 14.89200 24.36800
H  45.82000 15.22200 24.56100
H  48.36300 16.56700 22.54200
H  47.92600 17.55900 23.77100
H  46.74200 16.39400 23.08600
H  46.80400 12.83000 25.89100
H  47.78500 13.08600 24.35500
H  46.48300 12.38400 23.08700
H  45.07300 13.41200 23.54000
H  45.37400 11.88300 24.42500
H  42.58000 13.19900 29.33000
H  42.98300 13.73000 27.75600
H  41.98900 14.81600 28.82900
H  45.26900 15.19800 33.70700
H  42.03500 16.76400 35.94600
H  42.01100 17.65200 34.50700
H  43.21100 18.12300 35.79700

