158

Mg 2.76000 -1.09800 44.19200
C  6.07600 -0.63700 43.45600
C  1.98100 1.39800 41.88400
C  -0.52500 -2.01400 44.54000
C  3.64600 -4.23100 45.71000
N  3.89300 0.10200 42.75200
C  5.24000 0.26600 42.79600
C  5.70600 1.54800 42.05600
C  4.38300 2.07200 41.41100
C  3.32200 1.15100 42.09000
C  4.16600 3.52800 41.75800
C  6.77900 1.30600 40.84500
C  7.67200 2.56600 40.52200
H  7.37800 3.39200 39.23900
N  0.99500 -0.17500 43.49000
C  0.88800 0.69600 42.53000
C  -0.59300 0.89500 42.26400
C  -1.28600 0.11200 43.10000
C  -0.31400 -0.75600 43.76500
C  -1.05900 1.87200 41.19800
C  -2.80600 -0.05100 43.19600
O  -3.60400 0.58800 42.50600
C  -3.50200 -1.06400 43.96600
N  1.70800 -2.84000 45.03700
C  0.34400 -2.93200 45.11000
C  -0.14200 -4.24300 45.66300
C  1.20300 -5.11800 45.84400
C  2.30000 -4.04200 45.49200
C  -0.95100 -4.01800 46.93100
C  1.35600 -6.37500 44.90700
C  2.33400 -7.50600 45.27800
N  4.44400 -2.20700 44.58900
C  4.65800 -3.37200 45.22800
C  6.08500 -3.60800 45.40300
C  6.69600 -2.53800 44.81000
C  5.64900 -1.74500 44.22900
C  6.81700 -4.75800 46.08500
C  7.94600 -1.83100 44.54800
O  9.06100 -2.13100 44.87700
C  7.59200 -0.58900 43.67000
C  7.97100 0.57600 44.41000
O  7.56100 0.69800 45.54300
O  8.68700 1.47500 43.67800
C  9.08700 2.75100 44.40900
H  1.71800 2.16700 41.15500
H  -1.55500 -2.37400 44.51100
H  3.82400 -5.19000 46.20000
H  6.19300 2.31400 42.66000
H  4.45600 1.95000 40.33000
H  4.99000 4.12200 41.36200
H  4.10400 3.63300 42.84100
H  3.23100 3.82600 41.28300
H  6.26100 0.92500 39.96500
H  7.48100 0.52500 41.13600
H  8.66200 2.11200 40.48200
H  7.75300 3.25300 41.36500
H  -0.50600 1.58500 40.30400
H  -0.88000 2.88100 41.57000
H  -2.11100 1.85000 40.91400
H  -4.52000 -0.76300 44.21300
H  -3.16400 -1.10600 45.00100
H  -3.43000 -2.07700 43.57100
H  -0.74000 -4.67700 44.86100
H  1.34500 -5.44200 46.87600
H  -2.01800 -4.15300 46.75800
H  -0.82900 -2.95700 47.14900
H  -0.70900 -4.73900 47.71200
H  1.79400 -5.98800 43.98700
H  0.34100 -6.71300 44.69900
H  1.77000 -8.42300 45.11100
H  2.42800 -7.53100 46.36400
H  3.33800 -7.46800 44.85500
H  6.21500 -5.29600 46.81800
H  7.50200 -4.16300 46.68900
H  7.31200 -5.47600 45.43200
H  7.99100 -0.67700 42.65900
H  9.03000 3.57700 43.70000
H  10.13500 2.68200 44.70000
H  8.32200 2.99800 45.14500
Mg -11.65800 38.40600 42.85300
C  -9.61900 35.80300 41.73900
C  -9.46100 40.60400 41.43600
C  -13.82000 40.99600 43.56300
C  -14.28700 36.11500 43.41300
N  -9.82800 38.11800 41.46900
C  -9.14100 36.96800 41.24800
C  -7.88500 37.18900 40.49100
C  -7.78400 38.77100 40.64700
C  -9.09500 39.20600 41.20300
C  -6.55600 39.31600 41.33400
C  -8.01300 36.80100 38.92900
C  -7.11600 35.65100 38.48600
H  -6.03000 35.82100 37.39400
N  -11.67500 40.53500 42.60400
C  -10.63600 41.21800 42.01500
C  -10.89200 42.64600 42.23200
C  -12.13000 42.84300 42.84900
C  -12.56800 41.43500 43.03200
C  -10.10100 43.74800 41.67100
C  -12.78600 44.15800 43.27000
O  -12.24500 45.25700 43.09400
C  -14.00300 44.13300 44.01200
N  -13.85200 38.49600 43.38000
C  -14.43800 39.74300 43.62300
C  -15.91700 39.57800 44.03600
C  -16.09400 37.95100 43.99200
C  -14.68000 37.45800 43.50800
C  -16.32200 40.04800 45.44200
C  -17.22500 37.57900 42.98800
C  -18.43600 36.92100 43.56900
N  -11.91200 36.34200 42.65700
C  -13.02000 35.55700 42.98300
C  -12.67500 34.20500 42.64200
C  -11.31100 34.27000 42.35100
C  -10.93800 35.59600 42.24900
C  -13.56700 33.05200 42.77100
C  -10.14900 33.44000 41.85500
O  -10.08400 32.27600 41.67400
C  -9.03700 34.44700 41.39800
C  -7.86600 34.17400 42.23400
O  -7.72800 34.42300 43.42400
O  -7.04000 33.33700 41.58900
C  -5.99000 32.60300 42.30500
H  -8.64200 41.27000 41.15700
H  -14.61400 41.69700 43.82800
H  -15.12900 35.45200 43.62200
H  -7.04900 36.71600 41.00500
H  -7.72300 39.19800 39.64600
H  -5.88900 39.91700 40.71600
H  -6.08300 38.47400 41.83900
H  -6.86800 39.95100 42.16400
H  -7.72800 37.69300 38.37000
H  -9.05800 36.58100 38.71500
H  -7.87800 34.95300 38.14000
H  -6.57200 35.33400 39.37600
H  -10.85900 44.20700 41.03600
H  -9.31300 43.46600 40.97200
H  -9.75100 44.51700 42.35900
H  -13.96400 43.46700 44.87400
H  -14.72300 43.82700 43.25400
H  -14.32500 45.14200 44.27100
H  -16.53200 40.16500 43.35300
H  -16.26800 37.47400 44.95600
H  -16.81800 39.41000 46.17400
H  -16.94500 40.93700 45.33900
H  -15.41200 40.33700 45.96700
H  -16.90000 36.89400 42.20600
H  -17.62500 38.50800 42.58300
H  -18.34200 35.83900 43.66000
H  -19.26600 37.15400 42.90200
H  -18.61100 37.34700 44.55700
H  -13.34400 32.54900 43.71200
H  -13.45700 32.30500 41.98500
H  -14.60300 33.38400 42.69600
H  -8.87600 34.33100 40.32600
H  -5.26100 33.25400 42.78700
H  -5.36200 32.24100 41.49100
H  -6.40600 31.91300 43.03900

