158

Mg 16.86600 -2.47700 27.31700
C  16.20800 -0.32000 30.00400
C  18.51100 -4.57900 29.37200
C  17.58600 -4.27600 24.64600
C  15.06700 -0.08700 25.21300
N  17.47200 -2.27600 29.38400
C  17.00600 -1.38700 30.32100
C  17.44500 -1.80400 31.78900
C  18.30700 -3.14500 31.56200
C  18.08400 -3.38400 30.04200
C  19.78300 -3.13100 31.96900
C  16.31700 -2.02900 32.88400
C  16.55500 -1.79700 34.40700
H  18.04700 -1.39000 34.90500
N  17.95700 -4.16600 27.03200
C  18.50700 -4.93600 27.95400
C  18.94400 -6.21600 27.36600
C  18.79400 -6.10300 26.00700
C  18.10900 -4.80700 25.83200
C  19.43400 -7.32900 28.20700
C  19.19500 -7.11900 24.89300
O  19.07700 -6.82900 23.65700
C  19.75900 -8.50600 25.16900
N  16.37300 -2.15300 25.25100
C  16.94000 -3.02700 24.37200
C  16.63600 -2.53400 22.84900
C  15.45200 -1.55700 23.09800
C  15.62300 -1.21500 24.53000
C  17.92800 -1.87700 22.39000
C  14.04100 -2.21300 22.95100
C  13.16000 -1.60600 21.90400
N  15.94500 -0.54800 27.57300
C  15.22100 0.17600 26.65300
C  14.64900 1.27800 27.36400
C  15.04000 1.19000 28.70900
C  15.67400 -0.03500 28.80000
C  13.98000 2.33000 26.71600
C  14.97200 1.76400 30.05500
O  14.44700 2.82000 30.41700
C  15.73100 0.81100 30.94700
C  16.75600 1.58500 31.74000
O  17.87000 1.87300 31.33900
O  16.11100 2.14900 32.87500
C  16.87200 3.26100 33.52300
H  19.00000 -5.25500 30.07600
H  17.91800 -4.83500 23.76900
H  14.36000 0.59600 24.73700
H  18.14100 -1.07300 32.19800
H  17.78100 -3.98000 32.02600
H  19.94300 -3.81100 32.80600
H  20.08100 -2.13200 32.28600
H  20.38400 -3.49000 31.13300
H  16.07200 -3.08200 32.74700
H  15.37000 -1.56600 32.60600
H  16.34200 -2.68000 35.00900
H  15.86600 -0.98800 34.65000
H  20.28600 -7.80600 27.72300
H  18.66700 -8.07800 28.40700
H  19.90600 -6.93700 29.10800
H  19.14700 -9.03800 25.89600
H  20.80100 -8.40400 25.47200
H  19.71800 -9.04500 24.22200
H  16.40100 -3.32300 22.13500
H  15.58000 -0.61800 22.55900
H  17.79800 -0.79600 22.33100
H  18.14700 -2.20700 21.37500
H  18.77600 -2.07400 23.04500
H  13.54100 -2.39100 23.90300
H  14.34100 -3.18900 22.56900
H  12.08900 -1.58600 22.10400
H  13.31900 -2.17500 20.98800
H  13.51500 -0.58500 21.76800
H  13.67800 3.07300 27.45400
H  13.16700 1.95900 26.09100
H  14.72300 2.76300 26.04600
H  15.09300 0.38000 31.71900
H  17.55200 2.75800 34.21100
H  16.25900 3.91000 34.14800
H  17.59400 3.85600 32.96500
Mg 46.86400 24.80000 28.53800
C  47.24600 27.03100 31.27900
C  45.32200 22.62100 30.60100
C  47.47200 22.31000 26.29600
C  48.83100 27.03100 26.55400
N  46.40700 24.82700 30.70300
C  46.63900 25.84700 31.58500
C  46.11900 25.53700 33.01700
C  45.46700 24.06600 32.76000
C  45.74400 23.78000 31.32100
C  46.15000 22.92200 33.58300
C  45.24900 26.61300 33.69700
C  45.65600 27.02500 35.06100
H  44.65900 26.80100 36.27400
N  46.30100 22.84500 28.35600
C  45.50600 22.15600 29.25300
C  45.06200 20.88400 28.74500
C  45.80100 20.78600 27.48200
C  46.55500 22.00700 27.31600
C  44.32700 19.82200 29.59500
C  45.75100 19.68200 26.57200
O  46.35500 19.63800 25.52500
C  44.85400 18.45600 26.81800
N  47.96700 24.70600 26.70400
C  48.04600 23.54500 25.97000
C  48.73700 23.81000 24.65400
C  49.21100 25.30800 24.71600
C  48.64300 25.74400 26.03800
C  49.79100 22.73600 24.29100
C  48.59200 26.14900 23.52900
C  47.12700 26.67000 23.58500
N  47.78500 26.69300 28.77700
C  48.48800 27.44000 27.87400
C  48.85800 28.70800 28.47500
C  48.36500 28.61900 29.86100
C  47.73200 27.36100 29.96200
C  49.77100 29.76200 27.88200
C  48.30000 29.22100 31.17400
O  48.66400 30.32400 31.60500
C  47.58900 28.13500 32.12400
C  48.56900 27.70100 33.22000
O  49.46100 26.86300 33.09500
O  48.39900 28.54700 34.23600
C  49.23000 28.41400 35.49900
H  44.68000 22.00200 31.23100
H  47.65000 21.55100 25.53100
H  49.20800 27.81100 25.89000
H  46.91000 25.36600 33.74800
H  44.43300 23.96200 33.09000
H  46.45900 23.27700 34.56600
H  47.04700 22.52400 33.10900
H  45.47100 22.11400 33.85700
H  44.28100 26.16900 33.92900
H  45.02400 27.53300 33.15800
H  45.95100 28.07400 35.02100
H  46.57800 26.56100 35.41400
H  43.52000 19.36300 29.02400
H  43.97300 20.26800 30.52400
H  45.06100 19.09500 29.94000
H  45.07300 18.16000 27.84300
H  45.06500 17.65600 26.10800
H  43.80900 18.71800 26.65100
H  48.08300 23.66500 23.79400
H  50.29900 25.28200 24.78200
H  50.11000 22.29100 25.23400
H  50.60300 23.11300 23.66800
H  49.45100 21.87400 23.71800
H  48.69600 25.46000 22.69200
H  49.16400 27.03400 23.24900
H  46.56000 26.05700 22.88400
H  47.04900 27.74900 23.45500
H  46.77400 26.48700 24.60000
H  50.42600 29.45600 27.06700
H  50.40000 30.22900 28.64000
H  49.10700 30.51600 27.46000
H  46.78500 28.71600 32.57600
H  49.83100 29.32100 35.56400
H  49.82500 27.50200 35.55600
H  48.59300 28.42400 36.38400

