158

Mg 46.67000 16.73100 28.06000
C  44.70700 16.12100 30.85200
C  48.91800 18.36600 29.94500
C  48.12400 17.93700 25.25100
C  44.02200 15.41100 26.01600
N  46.68000 17.28100 30.11100
C  45.79200 16.93500 31.13500
C  46.36600 17.27500 32.49200
C  47.63700 18.10800 32.13200
C  47.79400 17.85200 30.61100
C  47.73100 19.52600 32.69700
C  46.57200 16.06300 33.51000
C  45.88500 16.16300 34.87200
H  45.43100 17.59500 35.43300
N  48.50000 17.78600 27.68500
C  49.23600 18.42000 28.57900
C  50.33600 19.12600 27.96000
C  50.18900 18.95400 26.55000
C  48.93500 18.15100 26.39500
C  51.30600 19.91100 28.79900
C  50.97200 19.48200 25.33300
O  50.65300 19.24000 24.18600
C  52.11100 20.32600 25.62300
N  46.12100 16.70800 25.94800
C  46.90600 17.27900 25.01900
C  46.33400 17.04700 23.60000
C  45.31700 15.96200 23.80300
C  45.11700 16.01300 25.32700
C  45.84900 18.33800 22.94600
C  45.77700 14.53600 23.33200
C  44.71700 13.94500 22.39200
N  44.84700 15.86200 28.33100
C  43.89300 15.33200 27.41500
C  42.73700 14.87800 28.16300
C  43.09300 15.13700 29.48200
C  44.30900 15.69100 29.52200
C  41.44500 14.27300 27.57200
C  42.54200 15.06000 30.83600
O  41.42400 14.61700 31.21100
C  43.61500 15.67000 31.90200
C  42.90900 16.74300 32.63600
O  42.63800 17.83300 32.11900
O  42.57800 16.37000 33.94000
C  41.50500 17.16200 34.56700
H  49.53900 18.98100 30.60000
H  48.54100 18.31200 24.31400
H  43.22500 15.14300 25.31900
H  45.59100 17.97600 32.80100
H  48.52300 17.60500 32.51900
H  47.90200 20.10900 31.79200
H  48.53000 19.61900 33.43200
H  46.80000 19.96700 33.05400
H  47.65000 15.90400 33.52700
H  46.11000 15.21200 33.01000
H  46.45300 15.70000 35.67800
H  44.94400 15.61400 34.84400
H  51.95000 20.62500 28.28600
H  51.84300 19.19900 29.42500
H  50.70900 20.51500 29.48200
H  51.63600 21.19700 26.07600
H  52.60500 20.70200 24.72700
H  52.78100 19.80100 26.30400
H  47.02700 16.61800 22.87500
H  44.32600 16.24300 23.44600
H  46.42500 19.16000 23.37200
H  44.78200 18.49200 23.10500
H  45.98500 18.16900 21.87800
H  45.94000 14.02300 24.28000
H  46.66200 14.55500 22.69500
H  43.74500 14.43800 22.41300
H  44.51700 12.95700 22.80700
H  45.16600 13.87000 21.40200
H  41.70200 13.21800 27.48000
H  41.34200 14.60200 26.53800
H  40.56800 14.42900 28.19900
H  43.98700 14.84600 32.51000
H  41.12000 18.03800 34.04500
H  41.93800 17.63300 35.45000
H  40.64300 16.58700 34.90600
Mg -11.69900 39.05800 41.79800
C  -9.92000 36.25900 40.64500
C  -9.32700 41.06100 40.50000
C  -13.77200 41.67000 42.45400
C  -14.26300 36.78200 42.71600
N  -10.01300 38.66000 40.47100
C  -9.41100 37.48200 40.18400
C  -8.11700 37.71900 39.36800
C  -7.82800 39.21400 39.59300
C  -9.12600 39.66600 40.26500
C  -6.50100 39.61300 40.21200
C  -8.20800 37.06700 37.96200
C  -6.96700 36.13600 37.65600
H  -6.08000 36.55600 36.58000
N  -11.49100 41.10100 41.59500
C  -10.43300 41.71100 41.05200
C  -10.61900 43.14700 41.27500
C  -11.87000 43.39000 41.87000
C  -12.49900 41.99900 41.97900
C  -9.56600 44.09400 40.81500
C  -12.35000 44.71100 42.30500
O  -11.67500 45.71000 41.97500
C  -13.58600 45.02000 42.99900
N  -13.79900 39.16900 42.20100
C  -14.38300 40.39200 42.50200
C  -15.79500 40.16000 43.01000
C  -16.03400 38.62200 42.74000
C  -14.60200 38.11700 42.52000
C  -16.18400 40.64600 44.46900
C  -17.00100 38.23200 41.62000
C  -18.10100 37.32500 42.09600
N  -12.16900 36.87400 41.65900
C  -13.09100 36.16200 42.32300
C  -12.73200 34.76400 42.34300
C  -11.54000 34.70200 41.64300
C  -11.15600 36.03000 41.28700
C  -13.48700 33.62500 43.04500
C  -10.45900 33.82100 41.14000
O  -10.34500 32.63200 41.12700
C  -9.43400 34.82100 40.36000
C  -8.13600 34.56200 40.99600
O  -7.80200 34.99900 42.11700
O  -7.34700 33.78700 40.10400
C  -6.07000 33.38100 40.60800
H  -8.42400 41.62400 40.25400
H  -14.36300 42.55100 42.71500
H  -14.84000 36.03000 43.25800
H  -7.42600 37.08300 39.92200
H  -7.82400 39.83400 38.69600
H  -6.61200 40.21000 41.11700
H  -5.96500 40.27600 39.53300
H  -5.89000 38.75500 40.49400
H  -8.24300 37.77600 37.13500
H  -9.13700 36.50500 38.06100
H  -7.41300 35.14500 37.57100
H  -6.39400 35.99400 38.57200
H  -8.59100 43.72400 41.13200
H  -9.73100 45.14800 41.03900
H  -9.65500 44.17500 39.73100
H  -14.45300 44.53900 42.54700
H  -13.92500 46.05600 43.00300
H  -13.54300 44.62800 44.01600
H  -16.48100 40.64700 42.31700
H  -16.45300 38.31600 43.69900
H  -15.33700 41.13400 44.95100
H  -16.56400 39.77100 44.99700
H  -17.00400 41.36300 44.42300
H  -16.43500 37.66600 40.88000
H  -17.51000 39.13500 41.28300
H  -19.03900 37.76600 42.43500
H  -17.74500 36.70400 42.91800
H  -18.34500 36.80100 41.17200
H  -13.01300 32.64600 42.96700
H  -14.51900 33.56100 42.69900
H  -13.48900 33.85300 44.11100
H  -9.51000 34.48000 39.32700
H  -5.75600 34.03700 41.41900
H  -5.28800 33.35500 39.84900
H  -6.22700 32.37500 40.99600

