158

Mg -0.01800 7.86700 27.08500
C  0.99000 10.23500 29.64600
C  0.33000 5.52400 29.68300
C  -0.33600 5.65800 24.71300
C  0.43800 10.50100 24.69000
N  0.76700 7.92800 29.37200
C  0.93200 8.99600 30.14800
C  0.91700 8.72200 31.64900
C  0.90500 7.11300 31.65200
C  0.56200 6.80400 30.14500
C  2.19300 6.39600 32.10500
C  -0.38800 9.21300 32.22400
C  -0.76700 8.97800 33.69300
H  0.33500 8.42800 34.61500
N  -0.13800 5.91800 27.22800
C  0.04300 5.09900 28.37900
C  -0.17300 3.80700 27.94700
C  -0.45600 3.80200 26.53500
C  -0.25700 5.18200 26.07300
C  0.02300 2.65200 28.86600
C  -0.66800 2.59700 25.61500
O  -0.86800 2.68000 24.39300
C  -0.77300 1.18800 26.14200
N  0.09200 8.07800 24.95900
C  -0.13900 6.93000 24.19500
C  -0.18300 7.32200 22.70400
C  -0.25700 8.88900 22.78700
C  0.07700 9.22700 24.22400
C  1.03300 6.88200 21.88100
C  -1.54300 9.64600 22.19800
C  -1.19200 10.65400 21.10200
N  0.51700 9.98800 27.11700
C  0.68100 10.91900 26.03700
C  1.05100 12.16300 26.57500
C  1.13600 11.90500 28.00100
C  0.80500 10.55400 28.26500
C  1.24800 13.44900 25.79900
C  1.54800 12.57600 29.29300
O  1.97500 13.76500 29.54600
C  1.40700 11.48200 30.39200
C  2.65700 11.29400 31.15900
O  3.64600 10.58000 30.87700
O  2.62800 12.09700 32.29900
C  3.46900 11.78900 33.46700
H  0.30600 4.87100 30.55800
H  -0.58400 4.96500 23.90600
H  0.61000 11.29200 23.95700
H  1.78300 9.02600 32.23800
H  0.05500 6.83200 32.27400
H  2.66100 6.02600 31.19200
H  1.97000 5.54200 32.74500
H  2.92100 6.98800 32.66000
H  -1.16800 8.68100 31.68000
H  -0.36500 10.28600 32.02900
H  -1.64900 8.33700 33.71400
H  -1.11500 9.89300 34.17300
H  0.91800 2.04200 28.75200
H  -0.80400 1.97100 28.66600
H  -0.03200 2.91400 29.92200
H  -0.99700 0.43400 25.38700
H  -1.61900 1.05200 26.81600
H  0.24000 0.90900 26.43400
H  -1.10100 6.96600 22.23600
H  0.61900 9.30300 22.28700
H  1.85600 6.68400 22.56700
H  1.13500 7.63400 21.09900
H  0.97700 5.90800 21.39400
H  -1.99200 10.16800 23.04400
H  -2.31700 8.99200 21.79700
H  -1.13400 11.59600 21.64700
H  -2.00600 10.72100 20.38100
H  -0.35900 10.35400 20.46700
H  0.32100 13.63800 25.25800
H  2.11000 13.27000 25.15500
H  1.40800 14.24500 26.52600
H  0.61300 11.83000 31.05300
H  2.84400 11.85300 34.35800
H  4.16700 12.62400 33.51500
H  4.01600 10.84700 33.41800
Mg 26.82000 51.38000 25.20500
C  24.86900 52.59900 27.85300
C  28.94400 49.97500 27.64500
C  28.75600 50.44700 22.86800
C  24.59200 52.89400 23.06000
N  26.82600 51.22900 27.36300
C  25.91300 51.83500 28.22900
C  26.24700 51.58800 29.65500
C  27.68200 50.95800 29.62400
C  27.84400 50.63500 28.14100
C  28.88300 51.90100 29.99800
C  25.21200 50.60200 30.27100
C  24.66700 51.07500 31.54000
H  25.57200 51.67600 32.64500
N  28.73200 50.31300 25.21000
C  29.46100 49.89500 26.32600
C  30.68400 49.27700 25.84800
C  30.62800 49.45000 24.41300
C  29.30700 50.03800 24.09900
C  31.71100 48.67100 26.76700
C  31.73900 49.07800 23.32400
O  31.64300 49.17200 22.10500
C  33.04500 48.60400 23.86300
N  26.71900 51.73500 23.19000
C  27.67600 51.23400 22.45500
C  27.33900 51.35500 20.93500
C  25.96700 52.11100 21.00600
C  25.70100 52.30800 22.49700
C  28.40300 52.02100 20.07100
C  24.74300 51.31000 20.38400
C  23.91600 52.09200 19.36600
N  25.11600 52.58300 25.37500
C  24.28400 53.08100 24.41800
C  23.16600 53.80700 25.01900
C  23.38400 53.61000 26.39600
C  24.54200 52.87600 26.53300
C  22.14700 54.73200 24.44000
C  22.89200 54.03900 27.70000
O  21.93800 54.76000 27.98900
C  23.81200 53.31300 28.76300
C  24.38800 54.39600 29.63700
O  25.32300 55.07700 29.39700
O  23.59900 54.59100 30.82200
C  23.86400 55.78900 31.68400
H  29.57800 49.52700 28.41300
H  29.05000 49.92700 21.95400
H  23.92500 53.31800 22.30500
H  26.35100 52.53200 30.18900
H  27.78500 50.08800 30.27300
H  28.52000 52.77500 30.54000
H  29.38300 52.23800 29.09000
H  29.58200 51.32700 30.60700
H  25.59300 49.58400 30.34500
H  24.32900 50.41900 29.65900
H  24.16600 50.29400 32.11200
H  23.76000 51.66000 31.38600
H  31.73700 47.59100 26.62100
H  31.45000 48.92400 27.79500
H  32.66000 49.16300 26.55400
H  33.41100 49.50400 24.35700
H  33.75500 48.30800 23.09000
H  33.02800 47.76500 24.55800
H  27.30800 50.34600 20.52500
H  26.17300 53.10400 20.60500
H  27.99400 52.84000 19.47800
H  28.87800 51.31800 19.38800
H  29.15100 52.31300 20.80800
H  24.01900 50.99700 21.13600
H  25.05700 50.43600 19.81300
H  23.98600 51.64500 18.37500
H  24.24800 53.13000 19.35300
H  22.90100 52.24000 19.73600
H  22.24000 54.52600 23.37400
H  22.41500 55.76200 24.67700
H  21.12700 54.50600 24.74900
H  23.23400 52.57800 29.32300
H  24.86600 55.56800 32.05000
H  23.17000 55.86800 32.52100
H  23.92000 56.72600 31.13000

