158

Mg 53.66900 23.74800 44.79800
C  51.19300 26.26800 44.14900
C  51.53800 21.52800 43.18500
C  56.02700 21.70000 45.19200
C  55.53900 26.26100 46.27100
N  51.69300 23.99800 43.64300
C  50.93900 25.12400 43.41900
C  49.82500 24.71900 42.42800
C  49.76000 23.23400 42.58400
C  51.10300 22.88000 43.08600
C  48.49500 22.60400 43.36200
C  50.23200 25.17900 41.02600
C  49.09100 25.41500 40.08000
H  49.41900 25.86900 38.67100
N  53.75900 21.81500 44.31000
C  52.79100 21.03400 43.78100
C  53.21700 19.66600 43.87400
C  54.49500 19.65700 44.49900
C  54.84900 21.12100 44.74100
C  52.39600 18.56100 43.35300
C  55.33700 18.35500 44.79500
O  54.91000 17.21900 44.51500
C  56.62700 18.35300 45.39600
N  55.62600 24.05200 45.27500
C  56.44700 22.97400 45.41900
C  57.88500 23.37100 45.81600
C  57.65500 24.87600 46.21900
C  56.16900 25.06500 45.91400
C  58.64000 22.58400 46.94000
C  58.62500 25.75600 45.38100
C  59.66300 26.67200 46.17300
N  53.47000 25.90600 45.15200
C  54.29200 26.70300 45.88500
C  53.71000 28.07300 45.94400
C  52.46600 27.92000 45.27200
C  52.35300 26.55100 44.90600
C  54.32600 29.20200 46.73300
C  51.29400 28.64200 44.92200
O  50.97600 29.79700 45.05100
C  50.39800 27.57900 44.22200
C  49.95900 28.12400 42.95900
O  50.68600 28.67300 42.12300
O  48.58600 27.96200 42.80700
C  48.07700 28.80300 41.70600
H  50.86700 20.84500 42.66100
H  56.74000 20.88100 45.30400
H  56.15000 27.08300 46.64900
H  48.87500 25.09800 42.80400
H  49.64900 22.79000 41.59400
H  47.72200 23.36900 43.43700
H  48.80900 22.26400 44.34900
H  48.05400 21.73400 42.87600
H  51.02200 24.55600 40.60700
H  50.77800 26.11900 41.11800
H  48.50100 26.20300 40.54900
H  48.49700 24.50800 39.96800
H  52.38800 18.52800 42.26400
H  51.35400 18.76200 43.60400
H  52.57700 17.62000 43.87300
H  56.46500 18.74600 46.40000
H  57.11700 19.01300 44.68100
H  57.01500 17.34000 45.50100
H  58.47300 23.18100 44.91800
H  57.80400 24.99800 47.29100
H  58.71200 23.08700 47.90400
H  59.61700 22.33100 46.52700
H  58.09300 21.65300 47.08700
H  58.04600 26.52600 44.87100
H  59.07600 25.15600 44.59100
H  60.69500 26.37400 45.99200
H  59.44500 26.88800 47.21900
H  59.57800 27.63800 45.67500
H  54.96900 29.83500 46.12100
H  54.78900 28.76400 47.61700
H  53.41100 29.66500 47.10300
H  49.50600 27.40200 44.82300
H  48.15400 28.34700 40.71900
H  48.50000 29.80600 41.63800
H  47.01700 29.05200 41.75700
Mg -1.91000 34.13100 26.58900
C  -3.28600 31.83900 28.87900
C  -0.69500 35.93500 29.14500
C  -0.91900 36.29700 24.37700
C  -3.65700 32.27700 24.08900
N  -1.89700 33.80200 28.80800
C  -2.50000 32.84500 29.50900
C  -2.31600 33.14700 30.99300
C  -1.75300 34.59700 31.07100
C  -1.40200 34.80800 29.60000
C  -2.62700 35.70800 31.66700
C  -1.55200 32.04100 31.77100
C  -2.19600 31.63900 33.13200
H  -1.21800 31.71000 34.28500
N  -0.86300 35.90800 26.74500
C  -0.42900 36.46000 27.86500
C  0.34700 37.68400 27.46800
C  0.31500 37.76400 26.03200
C  -0.55900 36.65000 25.67000
C  1.01800 38.53600 28.52000
C  0.91100 38.84300 25.12600
O  0.71100 38.76400 23.89500
C  1.69600 39.95400 25.73200
N  -2.36300 34.31700 24.57400
C  -1.69400 35.26600 23.87100
C  -1.62300 34.93200 22.35200
C  -2.51700 33.64200 22.26100
C  -2.85600 33.33100 23.69200
C  -2.36900 36.09700 21.53900
C  -1.83000 32.50000 21.41500
C  -0.42600 32.15500 21.71300
N  -3.30400 32.49300 26.43100
C  -3.85100 31.85700 25.33700
C  -4.68500 30.72000 25.81800
C  -4.52600 30.78000 27.20400
C  -3.60100 31.74100 27.48800
C  -5.57100 29.86300 24.97500
C  -4.86100 30.06400 28.42800
O  -5.57200 29.06200 28.58600
C  -3.96000 30.63500 29.53900
C  -4.91900 31.07700 30.59300
O  -5.40600 32.22400 30.67100
O  -5.11300 30.12900 31.50400
C  -5.75700 30.58900 32.74300
H  -0.32700 36.50400 30.00200
H  -0.52300 36.94300 23.59100
H  -4.01600 31.66500 23.25900
H  -3.32600 33.17400 31.40100
H  -0.86500 34.46000 31.68900
H  -2.34300 36.10000 32.64400
H  -3.60800 35.24000 31.75500
H  -2.65500 36.51400 30.93300
H  -0.54900 32.45400 31.88100
H  -1.33800 31.15100 31.17800
H  -2.42200 30.57800 33.02100
H  -3.08500 32.24700 33.29700
H  0.93000 38.14000 29.53200
H  0.54000 39.51500 28.53500
H  2.05900 38.73800 28.26800
H  1.02600 40.33900 26.50100
H  1.89000 40.73300 24.99500
H  2.64100 39.58900 26.13600
H  -0.61800 34.79400 21.95400
H  -3.53100 33.76800 21.88300
H  -3.11500 35.76000 20.82100
H  -1.61300 36.77600 21.14500
H  -2.95100 36.64900 22.27700
H  -1.85600 32.86000 20.38700
H  -2.39500 31.56800 21.44200
H  -0.17600 32.39200 22.74700
H  0.35600 32.49100 21.03100
H  -0.32700 31.07400 21.61200
H  -5.84200 30.48400 24.12100
H  -6.48400 29.56500 25.49100
H  -5.02600 28.96800 24.67600
H  -3.19300 30.02400 30.01600
H  -6.67900 31.16700 32.69100
H  -5.01700 31.19700 33.26400
H  -6.05700 29.67300 33.25200

