158

Mg 47.45000 45.69200 43.18100
C  44.25400 44.36100 42.78800
C  48.76700 42.42900 43.28700
C  50.51500 46.95100 43.22900
C  46.13600 48.97900 42.73000
N  46.67800 43.69000 42.94600
C  45.25800 43.37800 42.90800
C  45.00900 41.73400 42.99200
C  46.48900 41.21300 43.26200
C  47.38000 42.55000 43.19500
C  46.73300 40.23500 44.41100
C  44.21300 40.89900 41.84200
C  44.60700 41.38700 40.42400
H  44.94000 40.35800 39.34100
N  49.38200 44.79000 43.16400
C  49.65900 43.44600 43.28000
C  51.06600 43.29100 43.13300
C  51.65900 44.61000 43.25400
C  50.54000 45.54900 43.27600
C  51.79800 42.00300 43.05300
C  53.18700 44.93300 43.36000
O  54.03600 44.02500 43.36300
C  53.66100 46.31500 43.58300
N  48.16900 47.62900 43.05300
C  49.46500 47.87000 43.17000
C  49.80700 49.38600 42.92300
C  48.47900 49.96900 42.45800
C  47.51600 48.75400 42.76000
C  50.37300 49.90600 44.28100
C  48.38800 50.58900 40.98700
C  48.52900 52.09000 40.95300
N  45.51300 46.55000 42.77000
C  45.15500 47.93000 42.71200
C  43.66300 47.96000 42.53100
C  43.27200 46.53700 42.47700
C  44.42000 45.79700 42.75100
C  42.76300 49.10700 42.36400
C  42.22800 45.57500 42.18700
O  41.09600 45.74000 41.74600
C  42.81600 44.20500 42.45700
C  42.07100 43.47500 43.48400
O  41.41900 42.46100 43.24700
O  42.30200 43.88000 44.75100
C  41.84200 42.90800 45.78100
H  49.21900 41.44300 43.41400
H  51.47300 47.47200 43.17000
H  45.77900 49.97600 42.46200
H  44.38200 41.53600 43.86200
H  46.92400 40.80300 42.35100
H  47.15600 40.89700 45.16700
H  47.38500 39.40900 44.12600
H  45.72500 39.96100 44.72000
H  43.15400 41.10100 42.00300
H  44.26100 39.82100 42.00100
H  45.43000 42.09900 40.47800
H  43.68900 41.80600 40.01400
H  52.08400 41.71800 44.06500
H  52.58800 42.05700 42.30400
H  51.15400 41.20000 42.69300
H  53.34900 46.88300 42.70600
H  54.74800 46.36000 43.64800
H  53.23700 46.68800 44.51500
H  50.58500 49.55100 42.17700
H  48.26700 50.65400 43.27900
H  51.16800 49.19000 44.48800
H  49.70400 49.91500 45.14100
H  50.89700 50.82400 44.01700
H  47.45500 50.34400 40.48000
H  49.15400 49.99900 40.48200
H  48.11400 52.27100 39.96200
H  49.59200 52.32800 40.98900
H  47.96100 52.48800 41.79300
H  41.99000 48.94800 43.11600
H  42.24700 49.11100 41.40400
H  43.30100 50.05400 42.31700
H  42.85300 43.63700 41.52800
H  40.77000 42.71500 45.73500
H  42.17400 43.38500 46.70300
H  42.30900 41.94600 45.57000
Mg 42.20000 40.97900 26.37300
C  41.43300 43.40900 28.67600
C  42.96600 38.77300 28.90400
C  42.80000 38.80100 24.04900
C  42.15100 43.65000 23.92200
N  42.16200 41.10100 28.56100
C  41.68400 42.18200 29.29600
C  41.74100 41.83000 30.78100
C  42.38300 40.41600 30.84400
C  42.42800 39.99800 29.32700
C  43.71900 40.38900 31.57500
C  40.37200 41.92000 31.54400
C  40.37600 42.78500 32.90200
H  39.67900 42.27000 34.16400
N  42.90700 39.10500 26.47400
C  43.25900 38.35800 27.54700
C  43.63400 36.98100 27.09500
C  43.58600 36.95400 25.70900
C  43.08500 38.32000 25.35000
C  43.91900 35.83500 28.03100
C  44.09500 35.95000 24.70400
O  43.98000 36.03300 23.48800
C  44.68900 34.67100 25.15400
N  42.31700 41.18700 24.23200
C  42.48700 40.06200 23.47900
C  42.70900 40.46100 21.94200
C  42.49000 42.05100 21.98700
C  42.29100 42.35700 23.44800
C  44.11500 40.01800 21.33300
C  41.30500 42.45000 21.17700
C  40.03900 42.91600 21.79700
N  41.86200 43.09600 26.26300
C  41.86500 43.99800 25.21000
C  41.50000 45.29500 25.65000
C  41.22900 45.10100 27.04600
C  41.53300 43.72800 27.35500
C  41.35200 46.57800 24.85900
C  40.89100 45.84900 28.30500
O  40.68400 47.05600 28.57500
C  41.03800 44.69600 29.40600
C  42.15700 45.25100 30.33200
O  43.33300 45.12300 30.00300
O  41.72800 45.79500 31.50000
C  42.81600 46.20600 32.39000
H  43.13200 38.01000 29.66600
H  43.03200 38.11300 23.23400
H  42.26900 44.44300 23.18000
H  42.39100 42.62300 31.15300
H  41.73700 39.71600 31.37400
H  44.47700 40.44700 30.79400
H  43.84000 39.41100 32.04100
H  43.85800 41.18200 32.31000
H  40.24500 40.88900 31.87500
H  39.54300 42.31200 30.95400
H  40.05500 43.80800 32.70600
H  41.37200 42.83000 33.34200
H  44.42700 34.96100 27.62300
H  42.93500 35.43200 28.27300
H  44.41800 36.09900 28.96400
H  45.57400 34.85800 25.76300
H  44.97100 34.07200 24.28800
H  43.88100 34.29800 25.78300
H  41.95400 40.00500 21.30200
H  43.34400 42.57500 21.55700
H  43.89800 39.49200 20.40300
H  44.57300 39.26800 21.97900
H  44.76400 40.82200 20.98600
H  40.95000 41.55800 20.66200
H  41.75900 43.11700 20.44400
H  40.19700 43.88300 22.27500
H  39.83200 42.13900 22.53300
H  39.26200 42.78000 21.04500
H  40.34300 46.98200 24.77500
H  41.86700 46.56500 23.89800
H  41.75600 47.34900 25.51500
H  40.17200 44.70100 30.06800
H  43.36200 45.42900 32.92600
H  42.28300 46.86200 33.07800
H  43.60300 46.78200 31.90300

