158

Mg 30.05100 57.38600 41.13600
C  27.33200 55.76800 39.55900
C  31.98500 54.72100 40.06000
C  32.77300 59.36000 41.55900
C  28.01700 60.27600 41.56600
N  29.69700 55.53300 39.73600
C  28.51100 55.08000 39.33000
C  28.63900 53.63300 38.81000
C  30.18500 53.33700 38.98100
C  30.63500 54.55700 39.69600
C  30.53300 51.99500 39.73400
C  28.11700 53.42400 37.38400
C  28.31100 54.47600 36.30100
H  27.10800 54.52100 35.29100
N  32.10100 57.08900 40.97300
C  32.67500 55.89900 40.52200
C  34.16200 56.01900 40.51600
C  34.41300 57.36600 40.87100
C  33.10500 58.03700 41.23500
C  35.20500 54.94100 40.10200
C  35.74500 57.96400 41.12800
O  36.79300 57.39000 40.90100
C  35.87100 59.28500 41.84600
N  30.28300 59.38000 41.66700
C  31.53700 59.96000 41.74600
C  31.47100 61.49500 41.97800
C  30.00500 61.71600 42.15700
C  29.37000 60.38900 41.83300
C  32.33600 62.03000 43.15900
C  29.41200 63.00800 41.42700
C  30.32200 64.24000 41.39700
N  28.09900 57.87400 40.90100
C  27.40500 59.01200 41.20700
C  26.00300 58.80700 40.89700
C  25.93100 57.59300 40.20800
C  27.21500 57.00000 40.28900
C  24.89300 59.83200 40.99900
C  25.02400 56.68200 39.45000
O  23.88400 56.73500 39.15900
C  25.94100 55.43900 39.19400
C  25.31900 54.31100 39.94200
O  25.81800 53.67000 40.87800
O  24.16700 53.93700 39.25800
C  23.38700 52.76500 39.63600
H  32.55800 53.82400 39.81400
H  33.59600 60.06800 41.67800
H  27.25100 61.05400 41.59500
H  28.06200 53.07600 39.54800
H  30.60000 53.24100 37.97700
H  31.12100 52.15800 40.63700
H  31.06500 51.23400 39.16300
H  29.57600 51.50100 39.89800
H  27.05200 53.22600 37.50800
H  28.53700 52.53700 36.91100
H  29.12100 54.07800 35.68800
H  28.64200 55.36600 36.83600
H  35.86300 55.28200 39.30300
H  34.66700 54.03400 39.82600
H  35.80600 54.79500 41.00000
H  35.58400 60.03600 41.11000
H  36.87700 59.49000 42.21400
H  35.12100 59.19200 42.63100
H  31.90900 61.99800 41.11600
H  29.81500 61.70500 43.23100
H  33.01800 61.24600 43.48900
H  31.73200 62.42400 43.97600
H  32.91000 62.82300 42.68000
H  28.47700 63.24800 41.93400
H  29.08300 62.70200 40.43400
H  30.93800 64.29000 42.29500
H  29.68700 65.12500 41.43400
H  30.88700 64.29800 40.46700
H  25.21100 60.82700 40.68500
H  24.48900 59.80500 42.01100
H  24.08900 59.46800 40.36000
H  25.92400 55.16100 38.14000
H  22.41100 53.10900 39.98000
H  23.82300 52.29200 40.51600
H  23.27700 52.03100 38.83800
Mg -0.41900 43.98000 26.03000
C  1.53100 43.61100 28.84100
C  -3.22400 42.88800 27.96400
C  -2.29200 43.57100 23.21100
C  2.43100 44.50600 24.18200
N  -0.82000 43.26500 28.05400
C  0.15400 43.43600 29.07800
C  -0.44400 43.26400 30.46400
C  -1.90700 42.84500 30.13700
C  -1.97000 42.92600 28.60600
C  -2.28900 41.38000 30.66200
C  -0.27000 44.54300 31.34600
C  0.21800 44.33800 32.80000
H  -0.10600 43.08000 33.51400
N  -2.53500 43.52700 25.64900
C  -3.50800 43.20000 26.58600
C  -4.78000 43.03200 25.88900
C  -4.53000 43.23300 24.54000
C  -3.03700 43.45700 24.36200
C  -6.04700 42.75200 26.57900
C  -5.40900 43.16900 23.36600
O  -5.03000 43.44400 22.20500
C  -6.83500 42.80400 23.61300
N  0.00100 44.06400 24.07700
C  -0.89600 43.91900 23.08700
C  -0.25900 44.10800 21.71400
C  1.09600 44.66600 22.05900
C  1.22800 44.33700 23.57700
C  -0.22900 42.83500 20.89700
C  1.22600 46.16200 21.84300
C  1.31700 46.53100 20.36300
N  1.59700 44.11800 26.42400
C  2.65100 44.39600 25.62200
C  3.84100 44.63500 26.36200
C  3.42400 44.29400 27.67200
C  2.10800 43.95800 27.63700
C  5.08200 45.15200 25.85700
C  3.92700 44.14300 29.03100
O  4.99900 44.29600 29.55900
C  2.60100 43.86200 29.89000
C  2.87100 42.62000 30.78700
O  2.56300 41.45900 30.56000
O  3.70000 42.95100 31.85900
C  4.13300 41.84000 32.77100
H  -4.14800 42.55700 28.44300
H  -2.60800 43.48700 22.16900
H  3.41400 44.63200 23.72300
H  -0.06300 42.34600 30.91400
H  -2.59300 43.57200 30.57200
H  -2.98600 41.71000 31.43200
H  -1.48800 40.93400 31.25100
H  -2.75000 40.68000 29.96500
H  -1.25300 45.01300 31.39000
H  0.43200 45.23000 30.87400
H  -0.23600 45.14700 33.37200
H  1.28100 44.56600 32.87100
H  -6.95400 43.25900 26.25000
H  -6.07200 43.03400 27.63200
H  -6.17600 41.67300 26.66600
H  -7.07500 42.01600 24.32700
H  -7.24500 42.58700 22.62600
H  -7.37400 43.65600 24.02700
H  -0.92800 44.76400 21.15800
H  1.95300 44.23600 21.54000
H  -0.92800 42.09800 21.29300
H  0.69700 42.26100 20.91900
H  -0.54300 43.13200 19.89700
H  2.10500 46.56700 22.34500
H  0.39000 46.68300 22.30900
H  0.63200 47.34100 20.11200
H  1.21900 45.69700 19.66700
H  2.31400 46.91700 20.15100
H  4.93500 45.50200 24.83600
H  5.85300 44.38300 25.90800
H  5.48800 45.91500 26.52100
H  2.57700 44.79600 30.45000
H  4.84600 42.43500 33.34100
H  4.59200 41.06900 32.15200
H  3.39300 41.36200 33.41300

