158

Mg 2.29500 -1.13600 43.38500
C  5.70800 -0.88200 43.04400
C  2.01600 1.48000 41.21400
C  -1.12800 -1.78500 43.21700
C  2.64700 -4.28000 44.79800
N  3.72800 0.00000 42.12600
C  5.05500 0.03200 42.21900
C  5.67300 1.00100 41.22300
C  4.47100 1.95100 41.00500
C  3.32700 1.13400 41.45200
C  4.57500 3.32900 41.82800
C  6.26700 0.33000 39.90800
C  7.35700 1.25900 39.18400
H  6.93900 2.18700 38.06400
N  0.64200 -0.18600 42.48800
C  0.80600 0.87300 41.60000
C  -0.46800 1.37700 41.31800
C  -1.45400 0.53800 42.00500
C  -0.67400 -0.56500 42.61000
C  -0.72100 2.62600 40.39200
C  -2.93100 0.66900 41.81800
O  -3.43600 1.64000 41.23100
C  -3.86300 -0.22300 42.53800
N  0.94800 -2.85800 43.68900
C  -0.46100 -2.91400 43.60100
C  -0.99500 -4.22200 44.10500
C  0.25100 -4.96200 44.72900
C  1.36900 -3.99300 44.30500
C  -2.23000 -4.11800 45.03600
C  0.40000 -6.42800 44.27800
C  -0.51900 -7.44800 45.03600
N  3.83400 -2.28000 43.98300
C  3.83500 -3.52100 44.55200
C  5.24500 -3.92000 44.78000
C  6.00800 -2.82400 44.36100
C  5.12500 -1.94100 43.81800
C  5.66300 -5.18400 45.38100
C  7.37100 -2.26500 44.17400
O  8.43600 -2.71700 44.54000
C  7.24700 -0.96300 43.31700
C  7.71800 0.19100 44.24600
O  7.78300 0.16800 45.45000
O  7.96400 1.35300 43.53500
C  8.22900 2.58600 44.31300
H  1.98900 2.42400 40.66500
H  -2.17900 -2.07700 43.15200
H  2.84800 -5.18600 45.37300
H  6.46800 1.60300 41.66100
H  4.30500 2.00300 39.92900
H  5.41200 3.20300 42.51500
H  3.68200 3.50200 42.42900
H  4.82700 4.12900 41.13200
H  5.43600 0.18600 39.21700
H  6.64000 -0.66200 40.16400
H  8.02700 0.52100 38.74200
H  8.00300 1.81800 39.86100
H  -1.62800 2.37800 39.84200
H  0.03700 2.92200 39.66600
H  -0.97100 3.45700 41.05100
H  -3.90400 -1.15300 41.97100
H  -4.83800 0.24800 42.66500
H  -3.38300 -0.26100 43.51600
H  -1.40700 -4.73100 43.23400
H  0.25800 -4.89100 45.81700
H  -2.31800 -3.10200 45.42000
H  -2.14300 -4.76700 45.90800
H  -3.13100 -4.38200 44.48300
H  1.42400 -6.79300 44.36400
H  0.09900 -6.48900 43.23200
H  -1.04500 -6.96000 45.85700
H  0.12400 -8.25200 45.39500
H  -1.19600 -7.89800 44.31000
H  6.74900 -5.26800 45.40600
H  5.24700 -6.07700 44.91400
H  5.27400 -5.20700 46.39900
H  7.86900 -1.11200 42.43400
H  8.11000 2.60500 45.39700
H  7.48600 3.33800 44.04700
H  9.13500 3.15800 44.11000
Mg 47.17300 24.74200 28.39900
C  48.05100 27.05600 31.13700
C  46.64500 22.44700 30.73300
C  47.46400 22.60400 25.95200
C  47.95500 27.50500 26.18200
N  47.49900 24.74300 30.73400
C  47.67200 25.76100 31.63500
C  47.33600 25.27800 33.09300
C  47.16500 23.75200 32.84300
C  47.00000 23.63300 31.32200
C  48.19500 22.86700 33.38600
C  46.07300 26.13000 33.46400
C  46.16800 26.91400 34.74500
H  45.08600 26.64400 35.88300
N  46.98100 22.76100 28.30700
C  46.64000 22.01300 29.40300
C  46.40300 20.67200 28.93400
C  46.86900 20.63000 27.61300
C  47.11200 21.99900 27.18800
C  45.97700 19.57100 29.85100
C  47.05900 19.44700 26.69900
O  47.37400 19.53900 25.50600
C  46.87200 18.03300 27.23700
N  47.68500 25.03600 26.39500
C  47.77300 23.93000 25.59500
C  48.09800 24.29600 24.12300
C  47.79700 25.88400 24.17400
C  47.81800 26.19600 25.66000
C  49.52200 24.02900 23.61200
C  46.52000 26.42400 23.52900
C  45.21000 25.96100 24.10400
N  47.82500 26.82700 28.57600
C  47.98400 27.77400 27.57600
C  48.37300 29.02400 28.17200
C  48.40500 28.80300 29.52800
C  48.03200 27.46400 29.74800
C  48.69300 30.26400 27.43600
C  48.65300 29.38500 30.89000
O  49.04300 30.54100 31.17300
C  48.41200 28.33400 31.90400
C  49.69800 28.12800 32.61400
O  50.60500 27.47000 32.25700
O  49.45700 28.56000 33.92200
C  50.57700 28.27300 34.93400
H  46.28300 21.70900 31.45200
H  47.49800 21.92900 25.09500
H  48.23100 28.31300 25.50100
H  48.12400 25.51000 33.80900
H  46.32000 23.35700 33.40700
H  48.31800 22.01400 32.71900
H  47.88900 22.37500 34.30900
H  49.16800 23.35800 33.40600
H  45.25400 25.41400 33.52700
H  45.68600 26.74100 32.64800
H  46.06900 27.97100 34.49800
H  47.11900 26.85600 35.27400
H  46.84200 19.11400 30.33100
H  45.30000 18.94200 29.27300
H  45.36000 20.06300 30.60300
H  47.09000 17.32900 26.43400
H  45.79200 18.12500 27.34800
H  47.44700 17.81000 28.13600
H  47.37300 23.73300 23.53500
H  48.55800 26.55700 23.78000
H  49.92000 24.87000 23.04200
H  49.62700 23.17200 22.94700
H  50.29400 23.85900 24.36200
H  46.55300 26.30600 22.44600
H  46.44800 27.51100 23.55700
H  45.35500 25.01900 24.63400
H  44.35400 25.88600 23.43300
H  44.85700 26.62100 24.89700
H  48.55300 31.16000 28.04100
H  48.11800 30.36000 26.51500
H  49.74300 30.05900 27.23200
H  47.64100 28.75400 32.55000
H  51.54600 28.15400 34.45100
H  50.23300 27.39500 35.48100
H  50.60500 29.12600 35.61200

