158

Mg -0.41900 7.58300 26.59900
C  0.72700 9.14200 29.43900
C  -0.55100 4.58000 28.40900
C  -1.13400 5.83100 23.78700
C  0.27500 10.47000 24.73100
N  0.15100 6.92000 28.74000
C  0.41800 7.78000 29.76300
C  0.37000 7.09100 31.12300
C  0.24600 5.57400 30.70400
C  -0.07400 5.69600 29.14900
C  1.55900 4.70000 30.92200
C  -0.95000 7.64000 31.79900
C  -0.65500 8.22800 33.18700
H  -0.36200 7.27700 34.32300
N  -0.90400 5.49600 26.18000
C  -0.85100 4.46600 27.06500
C  -1.15500 3.18300 26.45500
C  -1.26200 3.55300 25.07100
C  -1.13000 5.00400 24.95100
C  -1.40300 1.83500 27.08700
C  -1.41000 2.56400 23.86100
O  -1.33400 2.94100 22.75500
C  -1.45600 1.04900 24.05200
N  -0.25200 8.07300 24.49900
C  -0.76600 7.18900 23.55600
C  -1.01200 7.91600 22.20000
C  -0.76400 9.44100 22.56800
C  -0.13500 9.34900 23.98300
C  -0.26300 7.28900 21.02600
C  -2.08000 10.26500 22.56800
C  -2.61800 10.74100 21.18700
N  0.32400 9.41100 26.90800
C  0.55900 10.50600 26.12100
C  1.10900 11.58400 26.88800
C  1.17000 11.12300 28.16900
C  0.67100 9.76600 28.15300
C  1.40600 12.95700 26.35500
C  1.45300 11.54100 29.57800
O  1.76100 12.65000 29.94900
C  1.04000 10.27300 30.43400
C  2.25300 10.05400 31.22400
O  3.12600 9.21900 30.98400
O  2.28000 10.94400 32.23700
C  3.37900 10.84800 33.18600
H  -0.48500 3.64100 28.96100
H  -1.56100 5.29000 22.94000
H  0.34500 11.21200 23.93300
H  1.32200 7.27300 31.62300
H  -0.52400 5.07500 31.29300
H  1.35000 3.75300 31.41900
H  2.33200 5.11200 31.57000
H  1.91700 4.36200 29.94900
H  -1.67300 6.84200 31.96900
H  -1.33900 8.40700 31.12900
H  -1.62200 8.64400 33.47000
H  0.09000 9.02400 33.21100
H  -2.37200 1.49200 26.72400
H  -1.38600 1.87000 28.17600
H  -0.64500 1.15400 26.70100
H  -1.87700 0.62400 23.14100
H  -2.24200 0.81900 24.77200
H  -0.47900 0.59200 24.20600
H  -2.07600 7.93700 21.96500
H  0.00400 9.83000 21.90000
H  0.41100 7.99400 20.53900
H  -0.94000 6.82300 20.31000
H  0.42500 6.54300 21.42500
H  -1.84200 11.14900 23.16000
H  -2.76200 9.59400 23.09000
H  -2.36600 10.08000 20.35800
H  -2.27200 11.76400 21.03600
H  -3.70200 10.77700 21.30100
H  0.46800 13.32600 25.94200
H  2.27700 12.84100 25.71000
H  1.50800 13.67900 27.16500
H  0.31200 10.56400 31.19200
H  4.36500 10.65300 32.76400
H  3.22000 9.98300 33.82900
H  3.34200 11.67900 33.89000
Mg 34.83800 2.91500 30.04000
C  32.56300 4.22000 32.53900
C  37.35000 3.29200 32.24400
C  36.82000 2.11100 27.56000
C  32.14700 3.13700 27.88800
N  34.91800 3.74300 32.14800
C  33.88100 4.00100 32.98900
C  34.35400 4.12800 34.44900
C  35.91300 4.10500 34.28100
C  36.06300 3.69100 32.81400
C  36.57800 5.42100 34.59600
C  33.85900 2.93700 35.32600
C  33.74400 3.05700 36.84000
H  34.40700 4.29900 37.31800
N  36.84400 2.71800 29.88200
C  37.70300 2.90700 30.91800
C  39.08100 2.61200 30.44000
C  38.92500 2.18800 29.08100
C  37.49100 2.28100 28.77900
C  40.17300 2.75800 31.29000
C  39.98600 1.58600 28.05900
O  39.78200 1.41900 26.84800
C  41.29900 1.01300 28.58800
N  34.59900 3.00100 27.98300
C  35.50100 2.37000 27.14900
C  34.97100 2.32600 25.69600
C  33.44100 2.33100 25.97600
C  33.42500 2.88200 27.36300
C  35.40800 3.43600 24.75400
C  32.60500 1.04000 25.73400
C  31.47900 1.19300 24.64700
N  32.75800 3.48200 30.16600
C  31.79100 3.44900 29.19400
C  30.48900 3.89700 29.78900
C  30.80500 4.13400 31.09100
C  32.19200 4.00200 31.22000
C  29.21800 4.07600 29.03000
C  30.17500 4.61100 32.25500
O  29.05300 4.96500 32.55700
C  31.33700 4.67700 33.27200
C  31.44800 5.99900 33.90600
O  32.19900 6.89200 33.52900
O  30.72300 6.03500 35.11100
C  30.91100 7.23100 35.96900
H  38.20200 3.44800 32.90900
H  37.40100 1.97700 26.64500
H  31.23400 3.15000 27.28900
H  34.10000 5.12400 34.81400
H  36.39800 3.32600 34.87000
H  36.89400 5.36900 35.63800
H  35.91300 6.26100 34.39300
H  37.42800 5.65900 33.95700
H  34.53700 2.10100 35.15600
H  32.89500 2.62200 34.92700
H  34.29000 2.23100 37.29600
H  32.71400 3.01100 37.19200
H  40.28400 3.80700 31.56300
H  41.10700 2.43400 30.82900
H  39.95600 2.14200 32.16200
H  41.34300 0.49000 29.54300
H  41.83700 1.93700 28.80400
H  41.89800 0.41100 27.90400
H  35.11900 1.32700 25.28500
H  32.90600 3.15400 25.50100
H  35.94500 4.16700 25.35800
H  34.61000 3.95900 24.22800
H  36.08300 3.08000 23.97500
H  32.06300 0.80600 26.65000
H  33.22500 0.23500 25.33900
H  31.43800 2.20500 24.24600
H  30.47300 1.02400 25.03100
H  31.77900 0.60100 23.78200
H  28.43700 3.37100 29.31300
H  29.40400 4.08100 27.95600
H  28.82200 5.05900 29.28300
H  31.11000 4.01300 34.10600
H  31.77500 7.04100 36.60600
H  30.07300 7.33600 36.65800
H  30.98400 8.16100 35.40500

