158

Mg 2.35700 -2.03500 45.04700
C  5.69100 -1.05500 44.45100
C  1.32300 0.53800 43.03300
C  -0.68700 -3.30600 45.37300
C  3.70200 -4.97200 46.63100
N  3.41000 -0.52900 43.67800
C  4.77200 -0.24600 43.73600
C  5.10900 0.94000 42.79900
C  3.68400 1.53100 42.51200
C  2.74600 0.45500 43.13700
C  3.35600 2.98500 43.05100
C  5.96400 0.47400 41.55600
C  7.25400 1.32100 41.30600
H  7.93100 1.15100 40.00900
N  0.52600 -1.37600 44.33700
C  0.32500 -0.35700 43.51800
C  -1.04400 -0.37700 43.19800
C  -1.73500 -1.37400 43.96400
C  -0.65400 -2.04900 44.63500
C  -1.58700 0.66300 42.19600
C  -3.17900 -1.71400 43.92700
O  -3.83000 -0.98300 43.24900
C  -3.84200 -2.61300 44.86000
N  1.63800 -3.88800 45.89400
C  0.27300 -4.13400 45.92300
C  0.09700 -5.49300 46.66900
C  1.45500 -6.14000 46.75900
C  2.34100 -4.95400 46.42400
C  -0.70900 -5.26100 48.05800
C  1.76100 -7.41200 45.93400
C  2.64500 -8.49600 46.55600
N  4.25500 -2.87600 45.54000
C  4.61100 -4.08300 46.14000
C  6.07700 -4.10400 46.33700
C  6.52000 -2.90800 45.67500
C  5.42300 -2.22800 45.15800
C  6.92800 -5.17400 46.95200
C  7.69400 -2.23900 45.19600
O  8.89400 -2.50800 45.20900
C  7.16900 -0.93800 44.56000
C  7.51400 0.02000 45.53400
O  7.30200 -0.13400 46.72900
O  7.98600 1.19400 44.90600
C  7.98700 2.43400 45.71300
H  0.82700 1.31200 42.44400
H  -1.71700 -3.64500 45.50300
H  4.00500 -5.83700 47.22500
H  5.58200 1.63600 43.49200
H  3.48200 1.56300 41.44100
H  4.32200 3.38600 43.35900
H  2.63400 2.98400 43.86800
H  2.99400 3.49100 42.15700
H  5.37300 0.31800 40.65400
H  6.33900 -0.51500 41.81800
H  8.00200 1.14300 42.07800
H  6.89800 2.33100 41.50800
H  -1.13800 0.48300 41.21900
H  -1.38600 1.68100 42.53200
H  -2.67400 0.65200 42.11800
H  -3.74200 -3.66400 44.59200
H  -4.89800 -2.35700 44.77700
H  -3.38200 -2.37000 45.81800
H  -0.54200 -6.09400 46.02300
H  1.59400 -6.38000 47.81400
H  -0.97600 -6.12100 48.67100
H  -1.64100 -4.77900 47.76000
H  -0.14700 -4.59700 48.71500
H  2.23100 -7.18300 44.97800
H  0.82200 -7.88500 45.64700
H  3.43100 -8.78000 45.85600
H  2.16100 -9.42800 46.84800
H  3.06100 -8.05500 47.46200
H  7.87800 -4.83700 47.36600
H  7.18400 -5.89600 46.17700
H  6.42700 -5.68400 47.77500
H  7.71300 -0.74500 43.63500
H  9.03300 2.68100 45.89300
H  7.45500 2.29900 46.65500
H  7.45000 3.21400 45.17300
Mg 25.19100 1.18700 29.87600
C  27.31000 1.05100 32.64400
C  22.41100 1.04300 31.89600
C  23.08200 0.99200 27.17300
C  27.82800 0.45600 27.83400
N  24.96400 1.21800 32.05900
C  25.93700 1.15600 33.00200
C  25.26000 1.25600 34.36200
C  23.71000 1.00200 34.09000
C  23.68100 1.07400 32.57200
C  23.15600 -0.25900 34.68200
C  25.67400 2.51000 35.15800
C  26.11400 2.22700 36.60500
H  25.49500 3.17000 37.68600
N  23.03700 1.18900 29.55100
C  22.09400 1.12100 30.53600
C  20.75200 1.09300 29.97000
C  20.93300 1.09100 28.56200
C  22.40400 1.05500 28.35900
C  19.46800 1.09400 30.83300
C  19.86600 1.03000 27.54900
O  20.07800 0.87100 26.35300
C  18.38900 0.74600 27.94400
N  25.38400 0.68700 27.86500
C  24.41100 0.85900 26.92600
C  24.95600 1.01000 25.49300
C  26.54300 0.94800 25.79300
C  26.60200 0.71000 27.24800
C  24.40200 -0.04500 24.58600
C  27.27400 2.24400 25.39400
C  26.93400 3.50100 26.15200
N  27.10400 0.72100 30.14500
C  28.03000 0.42400 29.20800
C  29.30800 0.24100 29.81100
C  29.09600 0.50900 31.23800
C  27.74700 0.84100 31.36400
C  30.60500 -0.24800 28.98600
C  29.71600 0.61400 32.53100
O  30.90900 0.38900 32.80800
C  28.62800 1.05500 33.49500
C  28.65000 0.03300 34.49100
O  28.30400 -1.12700 34.37600
O  29.09900 0.51700 35.72000
C  29.04300 -0.41800 36.86100
H  21.65700 0.89200 32.67200
H  22.43600 1.05700 26.29500
H  28.72500 0.55900 27.22000
H  25.74800 0.38300 34.79400
H  23.04500 1.80000 34.42400
H  22.99800 -1.00000 33.89800
H  22.29700 0.01100 35.29700
H  23.81000 -0.81100 35.35700
H  24.90700 3.28300 35.10400
H  26.47700 3.03100 34.63500
H  27.20000 2.31000 36.62900
H  26.03900 1.15100 36.75700
H  19.77900 0.81000 31.83800
H  18.67900 0.41800 30.50200
H  18.99200 2.07200 30.75600
H  18.53000 -0.08700 28.63200
H  17.87400 0.38900 27.05200
H  17.93700 1.64200 28.37100
H  24.68000 2.03200 25.23400
H  26.91500 0.03400 25.32900
H  23.31900 -0.12200 24.67600
H  24.74600 -1.04400 24.85400
H  24.64800 0.09800 23.53300
H  26.91800 2.43700 24.38200
H  28.36000 2.18200 25.32800
H  25.93300 3.43600 26.57900
H  26.88500 4.36500 25.49000
H  27.65400 3.53100 26.97000
H  31.25900 0.61300 28.84300
H  30.34300 -0.65200 28.00800
H  31.15600 -0.99200 29.56200
H  28.82100 1.98300 34.03400
H  29.91500 -0.17800 37.47000
H  28.94300 -1.48500 36.66300
H  28.17200 -0.19200 37.47600

