158

Mg -2.35000 17.38700 27.70200
C  -2.56800 15.08700 30.27900
C  -2.93300 19.94100 29.72100
C  -2.39700 19.45400 24.85500
C  -2.10700 14.68200 25.34600
N  -2.90800 17.42900 29.73100
C  -2.78700 16.44700 30.68300
C  -2.92400 16.98700 32.18300
C  -3.05800 18.52400 31.94300
C  -2.96000 18.65000 30.36900
C  -4.22300 19.19100 32.65800
C  -1.78200 16.63800 33.24000
C  -1.39200 17.64600 34.40700
H  -1.08100 16.96200 35.67800
N  -2.54400 19.37400 27.36400
C  -2.74200 20.26000 28.37800
C  -2.75600 21.63700 27.86500
C  -2.38600 21.49500 26.46700
C  -2.42200 20.05300 26.14300
C  -3.01100 22.86000 28.64700
C  -1.98300 22.56800 25.45100
O  -1.63800 22.31500 24.27800
C  -1.87900 23.96200 25.88200
N  -2.44600 17.13000 25.40400
C  -2.40900 18.18500 24.54700
C  -2.19300 17.66200 23.05800
C  -1.81300 16.19300 23.29400
C  -2.17300 15.93400 24.75400
C  -3.43100 17.79000 22.22600
C  -0.32100 15.93300 23.03200
C  0.71600 16.46000 24.05100
N  -2.50100 15.32300 27.61700
C  -2.33200 14.36100 26.68700
C  -2.27900 13.09700 27.37000
C  -2.47600 13.28000 28.73300
C  -2.59600 14.66100 28.87400
C  -1.92400 11.79900 26.70600
C  -2.40600 12.60900 29.96300
O  -1.97700 11.52900 30.25900
C  -2.56900 13.73100 31.07200
C  -1.53500 13.63400 32.12200
O  -0.36200 13.98000 32.00100
O  -2.13000 13.16100 33.27600
C  -1.30000 13.17600 34.49200
H  -2.94400 20.74500 30.46000
H  -2.42700 20.07900 23.95900
H  -1.76200 13.89000 24.67800
H  -3.82100 16.54500 32.61800
H  -2.16700 19.12200 32.13300
H  -4.76500 18.52700 33.33100
H  -4.93500 19.42000 31.86500
H  -3.85600 20.11600 33.10200
H  -0.83600 16.49800 32.71700
H  -2.16800 15.74100 33.72500
H  -2.14900 18.41100 34.57800
H  -0.43400 18.08600 34.12700
H  -2.26100 23.65000 28.68800
H  -3.29600 22.50800 29.63800
H  -3.89600 23.30400 28.19200
H  -2.79400 24.27600 26.38400
H  -1.53000 24.58500 25.05800
H  -1.06600 23.97300 26.60700
H  -1.39600 18.28300 22.64800
H  -2.36200 15.45800 22.70500
H  -4.17300 18.42200 22.71400
H  -3.89500 16.84600 21.94100
H  -3.13400 18.29500 21.30600
H  -0.08700 16.38500 22.06800
H  -0.03500 14.93100 22.71200
H  1.59500 16.92300 23.60100
H  1.04500 15.85200 24.89400
H  0.29400 17.33400 24.54800
H  -1.13500 11.82100 25.95300
H  -2.79500 11.35600 26.22400
H  -1.68400 10.99700 27.40400
H  -3.55100 13.66200 31.53800
H  -1.17300 12.15700 34.85700
H  -1.73700 13.81200 35.26200
H  -0.26600 13.50700 34.39700
Mg 35.34800 3.02300 30.31300
C  32.99400 3.95600 32.56600
C  37.72700 2.92400 32.82800
C  37.82600 2.46700 28.02200
C  33.09200 3.54400 27.77600
N  35.38900 3.39400 32.40500
C  34.16900 3.62500 33.20000
C  34.47400 3.70500 34.68800
C  36.08000 3.64700 34.72900
C  36.45800 3.35300 33.22600
C  36.77900 4.92300 35.28300
C  33.77300 2.47100 35.42700
C  33.31800 2.76700 36.82600
H  33.98800 3.89200 37.59600
N  37.53000 2.56400 30.45300
C  38.23500 2.54400 31.61400
C  39.62800 2.10300 31.31900
C  39.62200 1.92600 29.84600
C  38.34300 2.30100 29.35700
C  40.66900 1.90200 32.29300
C  40.67700 1.36100 29.01700
O  40.54300 1.22200 27.82300
C  41.96300 0.97300 29.68200
N  35.46900 2.82900 28.19900
C  36.58200 2.74300 27.46800
C  36.27200 2.77200 25.98100
C  34.78300 3.00900 25.96400
C  34.33300 3.11000 27.40700
C  37.19400 3.74900 25.18300
C  33.93600 1.96100 25.22500
C  33.41900 0.64400 25.90600
N  33.44100 3.62800 30.11800
C  32.58200 3.81200 29.03000
C  31.35100 4.25800 29.42700
C  31.37800 4.28400 30.79800
C  32.72300 3.99100 31.17500
C  30.14500 4.49300 28.51200
C  30.69600 4.55600 32.01800
O  29.52300 4.80100 32.14400
C  31.70800 4.42900 33.23500
C  31.90400 5.69500 33.94900
O  32.52300 6.62900 33.49300
O  31.35100 5.65900 35.17400
C  31.74700 6.80600 36.00100
H  38.37500 2.78800 33.69600
H  38.42600 2.16900 27.16000
H  32.28300 3.73600 27.06800
H  34.07600 4.60700 35.15200
H  36.38400 2.86400 35.42300
H  36.15100 5.81200 35.34500
H  37.66000 5.06300 34.65700
H  37.07900 4.84500 36.32800
H  34.51000 1.67700 35.54800
H  33.03400 2.11100 34.71100
H  33.65600 1.89400 37.38400
H  32.23000 2.71000 36.82800
H  41.63800 2.37700 32.13900
H  40.88800 0.83500 32.34300
H  40.36300 2.21000 33.29300
H  42.68100 0.72000 28.90100
H  41.97600 0.06400 30.28300
H  42.34600 1.93300 30.02600
H  36.40600 1.77200 25.56800
H  34.58400 3.92200 25.40200
H  37.95600 3.24200 24.59200
H  37.71300 4.36400 25.91800
H  36.66900 4.33600 24.42900
H  34.36200 1.56000 24.30500
H  33.08100 2.47200 24.78000
H  32.34500 0.67700 25.72700
H  33.62000 0.52900 26.97100
H  33.63200 -0.23500 25.29700
H  29.66800 3.53800 28.29300
H  30.52400 4.96300 27.60400
H  29.55600 5.20600 29.08800
H  31.30500 3.66000 33.89300
H  31.77500 6.52100 37.05200
H  30.98500 7.58600 35.97300
H  32.73500 7.16300 35.71200

