158

Mg 17.39600 -1.02300 27.34700
C  16.26800 1.11200 29.85500
C  19.25300 -2.64700 29.88100
C  18.84800 -2.70300 24.99600
C  15.70200 1.06600 24.99800
N  17.63200 -0.85000 29.64200
C  17.11900 0.16200 30.38800
C  17.42800 -0.03500 31.90200
C  18.54500 -1.14100 31.82900
C  18.53700 -1.51800 30.39300
C  19.90900 -0.78000 32.37200
C  16.19300 -0.45500 32.80600
C  16.54000 -0.47400 34.29900
H  17.78600 0.16500 34.86600
N  18.83500 -2.52600 27.40700
C  19.36800 -3.19000 28.53300
C  20.11200 -4.33400 28.10000
C  19.94700 -4.38400 26.67000
C  19.24400 -3.14000 26.28400
C  20.82000 -5.31700 28.97500
C  20.48500 -5.37600 25.59300
O  20.40500 -5.20000 24.38300
C  21.24000 -6.55300 26.14900
N  17.48600 -0.65700 25.35000
C  18.09500 -1.59000 24.57200
C  17.84200 -1.32600 23.04700
C  16.88100 -0.05400 23.08000
C  16.66400 0.19500 24.56600
C  19.03400 -1.24300 22.17600
C  15.66500 -0.41000 22.21100
C  14.94500 0.72600 21.58300
N  16.07300 0.65800 27.39200
C  15.46900 1.32400 26.36500
C  14.70300 2.39200 26.88800
C  14.96700 2.36700 28.23200
C  15.81600 1.27600 28.52300
C  13.75500 3.33200 26.15300
C  14.76500 3.04100 29.49600
O  13.97800 3.95100 29.75400
C  15.43900 2.23200 30.57100
C  16.24600 3.16600 31.42300
O  17.43600 3.35700 31.25000
O  15.56000 3.72800 32.51200
C  16.31200 4.47700 33.45800
H  19.75800 -3.12300 30.72300
H  19.15800 -3.26400 24.11200
H  15.20500 1.71500 24.27400
H  17.87300 0.92100 32.17500
H  18.27800 -2.05200 32.36500
H  19.87600 0.08800 33.02900
H  20.52100 -0.44600 31.53300
H  20.26300 -1.57000 33.03400
H  15.82300 -1.43200 32.49500
H  15.44500 0.31500 32.61400
H  16.45300 -1.52500 34.57600
H  15.74700 -0.01400 34.88800
H  21.85900 -5.13900 28.69700
H  20.46700 -6.31600 28.71800
H  20.59400 -5.01600 29.99800
H  22.07600 -6.24100 26.77500
H  21.62800 -7.20100 25.36300
H  20.47800 -7.11100 26.69300
H  17.33500 -2.23900 22.73500
H  17.43400 0.83500 22.77500
H  18.87400 -0.47700 21.41700
H  19.14900 -2.23600 21.74100
H  19.83600 -1.03100 22.88300
H  14.99600 -0.94400 22.88700
H  15.87000 -1.04000 21.34600
H  13.89200 0.50500 21.40400
H  15.46000 0.84300 20.63000
H  15.15100 1.67200 22.08400
H  13.06000 2.85600 25.46100
H  14.32300 4.17600 25.76200
H  13.12900 3.65900 26.98300
H  14.59800 1.86200 31.15700
H  16.52200 5.44900 33.01100
H  17.23600 4.01900 33.81200
H  15.58000 4.69100 34.23700
Mg 42.41300 41.62700 25.65300
C  41.41100 43.87600 28.15900
C  43.62700 39.56700 28.14200
C  43.60200 39.48000 23.27100
C  41.85400 44.10100 23.28700
N  42.36600 41.63600 27.91000
C  42.00400 42.69800 28.66300
C  42.16300 42.39500 30.15200
C  42.91300 41.05100 30.15800
C  43.02400 40.73400 28.64700
C  44.28100 40.87900 30.93300
C  40.79000 42.46800 31.02700
C  40.79100 42.95100 32.45500
H  40.07000 42.06600 33.56100
N  43.43000 39.78200 25.71100
C  43.82500 39.08000 26.84500
C  44.41800 37.81000 26.47800
C  44.36600 37.69600 25.04100
C  43.74400 38.96700 24.62100
C  44.94400 36.75400 27.43300
C  44.83300 36.57000 24.18000
O  44.75900 36.61200 22.96000
C  45.60800 35.49000 24.75700
N  42.76300 41.82500 23.59200
C  43.21300 40.76600 22.82800
C  43.06900 41.05400 21.32300
C  42.55300 42.65000 21.29800
C  42.43500 42.90400 22.79900
C  44.32400 40.79800 20.59300
C  41.08900 42.83600 20.71000
C  40.92700 44.11300 19.87100
N  41.57200 43.53800 25.64600
C  41.48000 44.43300 24.60200
C  40.85600 45.59900 25.10100
C  40.84800 45.44200 26.51200
C  41.39000 44.15500 26.77900
C  40.44800 46.79900 24.30400
C  40.47700 46.08500 27.68300
O  39.93300 47.20100 27.94300
C  40.85900 45.09200 28.83800
C  41.84400 45.72900 29.91200
O  43.01200 45.95300 29.69300
O  41.20700 45.98500 31.13200
C  41.99300 46.43200 32.32000
H  44.03800 38.95700 28.94900
H  43.93400 38.83600 22.45400
H  41.64700 44.87500 22.54500
H  42.82600 43.16700 30.54400
H  42.23000 40.32200 30.59400
H  44.32000 41.69700 31.65200
H  45.16100 40.90000 30.28900
H  44.20400 39.95700 31.50900
H  40.41800 41.44400 31.05400
H  39.98200 42.88000 30.42400
H  40.31400 43.93100 32.47900
H  41.80400 43.18300 32.78400
H  44.75900 37.10700 28.44700
H  46.01800 36.63400 27.29100
H  44.38800 35.82000 27.35000
H  46.54400 35.85100 25.18300
H  45.99900 34.84600 23.96900
H  44.96500 35.02600 25.50400
H  42.28400 40.43900 20.88200
H  43.31200 43.29100 20.84900
H  45.12400 41.16700 21.23400
H  44.36500 41.37000 19.66600
H  44.26300 39.72500 20.40900
H  40.38500 42.85900 21.54100
H  40.82500 41.95200 20.13000
H  41.60100 44.94200 20.08700
H  39.87000 44.33700 20.01400
H  41.15800 43.96800 18.81600
H  40.07700 47.56000 24.99000
H  39.63200 46.50500 23.64400
H  41.29800 47.27400 23.81400
H  39.88100 44.98800 29.31000
H  42.39000 45.57000 32.85600
H  41.38200 47.06400 32.96500
H  42.89800 47.00400 32.11600

