158

Mg -2.00600 16.59400 26.16500
C  -2.29400 14.28100 28.75000
C  -2.41600 19.14200 28.49300
C  -1.97200 18.84600 23.61500
C  -1.83100 14.05000 23.82100
N  -2.34300 16.66400 28.37100
C  -2.39300 15.59400 29.28700
C  -2.70100 15.99900 30.72500
C  -2.92700 17.58800 30.48400
C  -2.62500 17.81900 29.02900
C  -4.30000 18.26000 31.02800
C  -1.55600 15.57500 31.73800
C  -0.98300 16.62300 32.71700
H  -0.43800 16.05500 34.05700
N  -2.17500 18.66000 26.10000
C  -2.30400 19.54600 27.12400
C  -2.49500 20.88200 26.62200
C  -2.21700 20.87600 25.25100
C  -2.07300 19.40200 24.93200
C  -2.99000 21.97800 27.45400
C  -2.11200 22.04800 24.33900
O  -2.00200 21.99600 23.13000
C  -2.04500 23.47700 25.06000
N  -2.03400 16.51600 23.97300
C  -1.87900 17.55700 23.18900
C  -1.83600 17.20800 21.78100
C  -1.57800 15.59600 21.90600
C  -1.82100 15.38100 23.31900
C  -3.12300 17.60000 21.00400
C  -0.21500 14.98300 21.39800
C  -0.23200 14.77000 19.85000
N  -2.05600 14.59500 26.19900
C  -1.91900 13.69300 25.12900
C  -2.11600 12.32000 25.67000
C  -2.23800 12.56800 27.10200
C  -2.20800 13.91600 27.32600
C  -2.24300 11.06200 24.95700
C  -2.42000 11.91400 28.39800
O  -2.31300 10.68500 28.72500
C  -2.48900 13.00300 29.45900
C  -1.59800 12.72500 30.54200
O  -0.36000 12.62000 30.42300
O  -2.34000 12.55500 31.70500
C  -1.47000 12.14200 32.77900
H  -2.47600 19.90300 29.27400
H  -1.92800 19.57700 22.80500
H  -1.83400 13.22000 23.11100
H  -3.65500 15.52600 30.95400
H  -2.01500 18.06500 30.84200
H  -3.94400 18.91300 31.82600
H  -4.97800 17.54100 31.48700
H  -4.98100 18.69100 30.29400
H  -0.67800 15.17000 31.23500
H  -1.90100 14.89800 32.51900
H  -1.69700 17.39700 32.99600
H  -0.15100 17.11500 32.21300
H  -2.19700 22.70600 27.62800
H  -3.35100 21.63400 28.42400
H  -3.86500 22.51300 27.08700
H  -3.04700 23.67900 25.43600
H  -1.85100 24.18900 24.25800
H  -1.29700 23.52900 25.85100
H  -0.98400 17.60200 21.22800
H  -2.46900 15.22000 21.40100
H  -2.75100 18.43100 20.40500
H  -3.94800 17.97500 21.61000
H  -3.60200 16.79100 20.45300
H  -0.01500 14.15600 22.08000
H  0.48500 15.81100 21.50900
H  0.41800 15.46600 19.32000
H  -1.20000 14.78700 19.34900
H  0.18600 13.76600 19.76900
H  -1.36500 11.00400 24.31400
H  -3.13800 11.04100 24.33500
H  -2.22200 10.24100 25.67300
H  -3.43500 13.00900 30.00000
H  -0.60400 12.80000 32.85200
H  -1.25400 11.07600 32.71300
H  -2.04400 12.42500 33.66200
Mg 9.50200 48.07400 25.94400
C  7.37500 48.10300 28.70600
C  12.00500 49.24300 27.98900
C  11.60500 48.05100 23.33600
C  6.77200 47.47600 23.85100
N  9.72100 48.58000 28.10900
C  8.67100 48.52200 29.07400
C  9.19400 48.87800 30.40900
C  10.44800 49.77300 30.11500
C  10.75900 49.20900 28.68000
C  10.37200 51.30300 30.33000
C  9.45600 47.66500 31.40200
C  9.68200 47.94700 32.91100
H  9.34300 46.87200 33.98600
N  11.55300 48.52300 25.71600
C  12.47400 48.90000 26.70100
C  13.82200 48.92500 26.08200
C  13.69600 48.51500 24.70200
C  12.26200 48.32200 24.57700
C  15.07100 49.25900 26.91900
C  14.78200 48.19600 23.68000
O  14.56900 48.00300 22.54200
C  16.20000 48.23400 24.13900
N  9.26200 47.89200 23.90100
C  10.27400 47.93000 23.01200
C  9.91200 47.36600 21.62500
C  8.39700 47.16200 21.81000
C  8.11800 47.47900 23.29100
C  10.38400 48.14500 20.32500
C  7.72100 45.88500 21.20300
C  6.79700 46.13800 19.96500
N  7.46100 47.85000 26.22800
C  6.45900 47.62300 25.24100
C  5.18900 47.45400 25.82100
C  5.50000 47.70200 27.23100
C  6.89100 47.88100 27.40900
C  3.90800 47.23200 25.16700
C  4.97600 47.71400 28.56100
O  3.88900 47.36000 28.89100
C  6.17100 48.14000 29.55300
C  6.12300 47.07700 30.57300
O  6.53700 45.96400 30.44200
O  5.49400 47.60000 31.66900
C  5.45900 46.72700 32.78700
H  12.74600 49.69900 28.64900
H  12.28400 47.88800 22.49700
H  5.91600 47.27000 23.20400
H  8.52400 49.42600 31.07000
H  11.25400 49.56200 30.81800
H  11.13900 51.63900 31.02900
H  9.45700 51.64300 30.81500
H  10.47600 51.72000 29.32800
H  10.50600 47.42700 31.23300
H  8.90700 46.75900 31.14400
H  9.03100 48.75600 33.24300
H  10.61800 48.49400 33.02100
H  14.92700 49.49400 27.97300
H  15.48400 50.16100 26.46800
H  15.78400 48.43500 26.94600
H  16.13800 47.51100 24.95200
H  16.48800 49.27100 24.31400
H  16.95100 47.87800 23.43400
H  10.32300 46.35700 21.57800
H  7.91400 48.04700 21.39500
H  9.64300 48.93000 20.17400
H  10.28100 47.45100 19.49100
H  11.44200 48.37000 20.45600
H  7.04600 45.37000 21.88600
H  8.51200 45.20500 20.88600
H  7.18600 45.48800 19.18200
H  6.83700 47.18500 19.66300
H  5.77400 45.84500 20.20000
H  3.41000 46.45800 25.75200
H  3.92900 46.99600 24.10300
H  3.41500 48.19500 25.29700
H  6.07700 49.14100 29.97500
H  6.06700 45.82300 32.75500
H  4.42100 46.47900 33.01100
H  5.90100 47.33700 33.57500

