158

Mg 17.59300 0.02300 27.31100
C  16.06400 1.92800 29.80600
C  19.06900 -1.90500 29.68700
C  19.15000 -1.72900 24.79600
C  16.00800 1.97700 25.02600
N  17.67300 0.18500 29.48200
C  16.94600 0.99200 30.33200
C  17.19400 0.54800 31.80900
C  18.31600 -0.52400 31.71700
C  18.37400 -0.80700 30.16600
C  19.62100 -0.03900 32.33900
C  15.86400 0.07100 32.56800
C  15.56700 0.70500 33.96900
H  16.65500 1.21000 34.87400
N  18.83800 -1.67200 27.30200
C  19.35000 -2.31000 28.35400
C  20.20500 -3.40600 27.96600
C  20.20900 -3.41000 26.54100
C  19.34200 -2.24100 26.12900
C  20.83100 -4.34600 28.87100
C  20.82400 -4.39600 25.60300
O  20.89800 -4.22700 24.36700
C  21.52600 -5.69100 26.13500
N  17.62900 0.15800 25.29600
C  18.38100 -0.61700 24.46500
C  18.35400 -0.19700 22.97900
C  17.35800 0.98600 23.00900
C  16.94200 1.00000 24.51500
C  19.74200 0.22400 22.43200
C  16.09100 0.74500 22.06500
C  15.65000 1.81900 21.09900
N  16.31600 1.70900 27.32500
C  15.70400 2.36500 26.33800
C  14.69800 3.37700 26.82100
C  14.85500 3.22700 28.22800
C  15.79500 2.18800 28.48000
C  13.85300 4.27000 26.08900
C  14.43800 3.70500 29.53200
O  13.72700 4.65700 29.75900
C  15.30000 2.94900 30.62700
C  16.04000 3.89400 31.40500
O  17.23200 4.17100 31.35000
O  15.28600 4.14200 32.58800
C  15.99900 5.04700 33.49700
H  19.54800 -2.41800 30.52400
H  19.64900 -2.17900 23.93500
H  15.38900 2.57500 24.35400
H  17.48700 1.38700 32.44100
H  17.99300 -1.44800 32.19700
H  20.41000 0.08500 31.59700
H  19.98600 -0.74400 33.08500
H  19.53300 0.94800 32.79500
H  15.71600 -0.99200 32.75400
H  15.06000 0.33200 31.88000
H  15.06100 -0.05500 34.56400
H  14.75800 1.41300 33.79000
H  20.22100 -5.24600 28.79500
H  20.88900 -3.95300 29.88600
H  21.89200 -4.47100 28.65000
H  22.45400 -5.45000 26.65400
H  21.64800 -6.36900 25.29100
H  20.82600 -6.29700 26.71000
H  18.00000 -1.06000 22.41400
H  17.82900 1.95900 22.87100
H  20.46500 0.09000 23.23700
H  19.78600 1.19800 21.94400
H  20.04200 -0.51300 21.68600
H  15.30800 0.37300 22.72600
H  16.36000 -0.11000 21.44400
H  15.91300 1.63400 20.05700
H  16.17500 2.73300 21.37500
H  14.56800 1.88000 21.21800
H  13.50700 3.93700 25.11000
H  14.42300 5.18400 25.92000
H  12.93200 4.56000 26.59500
H  14.60500 2.44200 31.29600
H  15.27400 5.30100 34.27000
H  16.34700 5.88200 32.88900
H  16.81200 4.42000 33.86500
Mg -2.65100 34.84800 26.95500
C  -4.37200 33.56900 29.80500
C  -1.37300 37.26900 29.05000
C  -1.47900 36.21900 24.28500
C  -4.40700 32.59700 25.06100
N  -2.81700 35.33900 29.23800
C  -3.60300 34.72400 30.16300
C  -3.41100 35.22700 31.64400
C  -2.50100 36.47200 31.28800
C  -2.15700 36.36200 29.79900
C  -3.14700 37.90400 31.65100
C  -2.78900 34.19500 32.66200
C  -2.77900 34.61200 34.19300
H  -3.37800 33.64000 35.25600
N  -1.54300 36.48900 26.69200
C  -1.03500 37.37800 27.69400
C  -0.11100 38.32300 27.06000
C  -0.20800 38.00800 25.61300
C  -1.11700 36.87500 25.42500
C  0.64800 39.40300 27.81700
C  0.69300 38.61200 24.49800
O  0.72200 38.29700 23.32500
C  1.65300 39.61700 24.89100
N  -2.94900 34.43100 24.87000
C  -2.34600 35.15700 23.96500
C  -2.42200 34.49000 22.56700
C  -3.27700 33.25800 22.89100
C  -3.62400 33.42400 24.38900
C  -2.94900 35.37800 21.41200
C  -2.54400 31.83800 22.68200
C  -3.28300 30.75200 21.96800
N  -4.15900 33.42400 27.27800
C  -4.67600 32.55500 26.42700
C  -5.60400 31.67300 27.10500
C  -5.52600 32.03800 28.41700
C  -4.61400 33.09700 28.50100
C  -6.43200 30.59600 26.49300
C  -6.02300 31.77600 29.72000
O  -6.84200 30.91500 30.01500
C  -5.30700 32.78000 30.71900
C  -6.33200 33.54400 31.45500
O  -6.91000 34.55300 31.09600
O  -6.55600 32.93100 32.68000
C  -7.60600 33.51500 33.49000
H  -0.86300 38.03400 29.63900
H  -1.05700 36.64500 23.37300
H  -4.92600 31.86000 24.44400
H  -4.39900 35.53600 31.98700
H  -1.59300 36.48500 31.89100
H  -3.07800 38.61300 30.82600
H  -2.60200 38.13200 32.56800
H  -4.23400 37.86000 31.72200
H  -1.76600 34.03400 32.32200
H  -3.42000 33.30600 32.65900
H  -3.10900 35.64600 34.29600
H  -1.72600 34.65300 34.47000
H  1.70500 39.21200 28.00100
H  0.34100 39.69600 28.82100
H  0.50600 40.27100 27.17200
H  1.14900 40.49800 25.29000
H  2.42400 39.83900 24.15400
H  2.25300 39.16400 25.68000
H  -1.40200 34.19500 22.32000
H  -4.19800 33.39800 22.32500
H  -2.93100 36.41000 21.76300
H  -3.97100 35.05800 21.21100
H  -2.43500 35.23300 20.46200
H  -2.36700 31.37800 23.65400
H  -1.52300 31.90900 22.30700
H  -4.26500 31.16500 21.73900
H  -3.51200 29.89300 22.59900
H  -2.79800 30.47000 21.03400
H  -6.93700 30.06100 27.29800
H  -5.89200 29.88600 25.86600
H  -7.14000 31.14000 25.86900
H  -4.64200 32.20400 31.36200
H  -7.51500 34.58500 33.68000
H  -7.63100 32.98300 34.44100
H  -8.59800 33.38600 33.05900

