158

Mg 4.49100 53.55300 42.35500
C  4.29500 50.04100 41.93200
C  7.20400 53.37200 40.01600
C  4.76200 56.81900 42.45300
C  1.58100 53.48100 44.25100
N  5.45200 51.91600 40.94000
C  5.22300 50.54000 41.01100
C  6.06600 49.80200 39.96700
C  7.19200 50.91500 39.63000
C  6.56800 52.14600 40.17200
C  8.53200 50.56400 40.37100
C  5.28900 49.37700 38.67800
C  5.23400 47.84900 38.23400
H  5.81200 47.50800 36.83400
N  5.89400 54.92100 41.44800
C  6.91300 54.64700 40.61900
C  7.69900 55.84700 40.50900
C  7.09400 56.86500 41.21700
C  5.85700 56.25600 41.74900
C  8.92200 55.85000 39.74500
C  7.40500 58.36200 41.16900
O  8.44000 58.74900 40.59100
C  6.61300 59.52700 41.87200
N  3.33200 54.87700 43.15200
C  3.63800 56.20300 43.05000
C  2.61100 57.13000 43.74900
C  1.67100 56.12400 44.44000
C  2.22800 54.68500 43.96400
C  3.38000 57.95600 44.74800
C  0.13800 56.39500 43.94900
C  -0.97400 56.33800 44.97600
N  3.14700 52.03100 42.97300
C  2.05500 52.21900 43.78000
C  1.67900 50.87100 44.17400
C  2.51100 49.98900 43.45900
C  3.37700 50.74900 42.71600
C  0.65800 50.45600 45.30600
C  2.86200 48.61200 43.39000
O  2.44500 47.61900 44.00000
C  4.09700 48.60700 42.33500
C  3.57700 47.71900 41.28800
O  2.78200 48.07900 40.42000
O  3.95900 46.41500 41.51600
C  3.55200 45.32300 40.61700
H  8.03900 53.16200 39.34500
H  4.83100 57.90000 42.58900
H  0.75800 53.49200 44.96900
H  6.49100 48.94700 40.49200
H  7.46200 51.04700 38.58300
H  9.33200 50.58100 39.63100
H  8.51900 49.62000 40.91500
H  8.80300 51.36300 41.06100
H  5.63000 49.91400 37.79300
H  4.27200 49.68200 38.92500
H  4.25000 47.38500 38.30800
H  5.97000 47.47600 38.94600
H  9.09800 56.77400 39.19500
H  9.06100 55.08100 38.98400
H  9.70500 55.89900 40.50200
H  5.70400 59.65200 41.28400
H  7.19800 60.43300 41.71200
H  6.45800 59.42200 42.94600
H  2.15500 57.76700 42.99000
H  1.82200 56.17000 45.51900
H  3.31500 59.02400 44.54100
H  4.39500 57.57700 44.86500
H  2.91500 57.82600 45.72500
H  -0.17100 55.68000 43.18700
H  0.09300 57.31700 43.36900
H  -1.67100 55.55800 44.67100
H  -1.61900 57.20800 45.10300
H  -0.55000 56.05100 45.93900
H  -0.36300 50.48100 44.92400
H  0.67500 50.87400 46.31200
H  0.99300 49.43800 45.50500
H  4.95300 48.18700 42.86300
H  4.34200 44.57300 40.65400
H  3.35100 45.63800 39.59300
H  2.69000 44.88800 41.12300
Mg -10.29100 39.28400 41.63900
C  -8.89500 36.12400 40.93600
C  -7.80500 40.70400 39.86700
C  -12.23500 42.03100 41.32200
C  -13.23300 37.50900 42.57400
N  -8.54900 38.48700 40.56800
C  -8.13800 37.15500 40.40700
C  -6.83500 37.08100 39.63000
C  -6.51500 38.53600 39.29000
C  -7.70300 39.32100 39.93700
C  -5.14200 39.00300 39.82800
C  -6.92000 36.03100 38.38400
C  -5.64500 35.34200 38.07900
H  -4.65800 36.19500 37.18900
N  -9.92100 41.16100 40.96500
C  -8.80600 41.58700 40.32400
C  -8.83300 42.97300 40.08300
C  -10.16200 43.42400 40.53000
C  -10.88900 42.18600 40.92000
C  -7.74100 43.74100 39.36800
C  -10.64600 44.86000 40.63800
O  -10.07000 45.76000 40.16300
C  -11.98400 45.23800 41.40900
N  -12.48300 39.72000 41.82500
C  -12.93300 40.98800 41.76900
C  -14.47800 41.00800 42.20200
C  -14.70900 39.50500 42.51600
C  -13.38600 38.88700 42.34300
C  -14.91600 42.08400 43.25600
C  -15.82900 38.89500 41.64300
C  -15.42800 38.27400 40.34200
N  -10.99800 37.21600 41.82100
C  -12.10300 36.72500 42.37000
C  -11.96500 35.29800 42.56400
C  -10.72700 34.96300 41.97600
C  -10.14800 36.20900 41.58600
C  -12.90700 34.39000 43.33000
C  -9.71900 33.93700 41.86400
O  -9.64400 32.75300 42.15200
C  -8.55900 34.62600 41.05300
C  -7.16700 34.42700 41.76200
O  -6.29900 33.61100 41.46400
O  -7.01200 35.37400 42.77100
C  -5.95200 35.10100 43.76500
H  -7.13000 41.13300 39.12300
H  -12.94400 42.85700 41.24300
H  -14.07500 37.04100 43.08700
H  -6.17000 36.72500 40.41700
H  -6.52900 38.65400 38.20700
H  -5.26300 39.85100 40.50200
H  -4.69300 39.53800 38.99200
H  -4.52200 38.22800 40.28000
H  -7.12900 36.61000 37.48400
H  -7.74600 35.32300 38.31800
H  -5.89500 34.39900 37.59100
H  -5.08100 35.03600 38.96000
H  -7.27200 43.12800 38.59800
H  -7.02700 44.09600 40.11100
H  -8.17700 44.59200 38.84500
H  -12.10200 44.62900 42.30400
H  -12.86000 45.06700 40.78400
H  -12.07000 46.31600 41.54900
H  -14.95700 41.30900 41.27000
H  -14.90200 39.27900 43.56400
H  -15.47200 42.89600 42.78600
H  -14.04400 42.37000 43.84500
H  -15.63000 41.71100 43.99100
H  -16.56400 39.67100 41.42900
H  -16.33200 38.13600 42.24300
H  -16.08400 38.77000 39.62700
H  -15.64400 37.20700 40.40200
H  -14.37800 38.41600 40.08600
H  -12.66000 34.31100 44.38900
H  -12.74400 33.40200 42.89900
H  -13.94300 34.72000 43.25900
H  -8.38500 34.09000 40.12000
H  -4.96000 34.93800 43.34400
H  -6.38600 34.30200 44.36700
H  -5.84700 36.03200 44.32300

