158

Mg 41.86700 7.92200 29.48300
C  43.74600 9.46400 31.86600
C  39.61800 6.76100 31.83600
C  40.42800 6.12500 27.05600
C  44.46300 8.87000 27.12100
N  41.63700 8.27500 31.51500
C  42.50800 8.90300 32.29700
C  42.08300 8.91000 33.79300
C  40.95800 7.87800 33.82300
C  40.64800 7.61000 32.31400
C  40.98900 6.62400 34.76200
C  41.71400 10.39600 34.33100
C  41.00600 10.37800 35.67400
H  41.24400 11.46200 36.78300
N  40.14600 6.80000 29.35900
C  39.39400 6.44600 30.48500
C  38.30400 5.65900 30.01200
C  38.43200 5.51600 28.60900
C  39.73800 6.06800 28.27600
C  37.20900 5.06200 30.95600
C  37.50500 4.85100 27.54300
O  37.83700 4.76100 26.40400
C  36.16700 4.43100 27.91600
N  42.46000 7.50200 27.42400
C  41.55900 6.83000 26.60300
C  41.91000 6.89100 25.13200
C  43.04200 7.95100 25.14200
C  43.36500 8.16600 26.65400
C  42.20900 5.56900 24.31500
C  42.74700 9.23100 24.38000
C  41.78400 10.24500 25.05400
N  43.69400 8.90600 29.45700
C  44.63100 9.13800 28.45900
C  45.76800 9.84900 29.00600
C  45.45500 10.01800 30.35400
C  44.23300 9.38900 30.56700
C  46.88900 10.45000 28.23600
C  45.94700 10.59000 31.60700
O  47.03100 11.11900 31.94200
C  44.75100 10.29800 32.67100
C  45.34900 9.69700 33.85900
O  45.98100 8.63300 33.87500
O  44.99500 10.46200 34.87100
C  45.61600 10.24000 36.13800
H  38.86300 6.43800 32.55500
H  40.03800 5.43300 26.30700
H  45.04000 9.37500 26.34300
H  42.84000 8.43100 34.41400
H  40.02800 8.33500 34.16000
H  40.85800 5.69500 34.20700
H  40.05800 6.68000 35.32600
H  41.84200 6.48300 35.42600
H  41.10200 10.75300 33.50200
H  42.60500 11.00500 34.48300
H  41.07500 9.40300 36.15600
H  39.93100 10.46600 35.51800
H  36.19400 5.38200 30.72200
H  37.38600 5.47200 31.95000
H  37.35100 3.98400 31.03900
H  35.67700 4.01400 27.03600
H  35.52600 5.27300 28.17800
H  36.24300 3.83300 28.82300
H  40.99600 7.27700 24.68100
H  43.84300 7.40200 24.64800
H  43.08500 5.57500 23.66700
H  41.32400 5.45900 23.68900
H  42.34500 4.79000 25.06500
H  42.27200 8.95300 23.44000
H  43.61100 9.84500 24.12500
H  41.05300 10.57200 24.31400
H  42.38300 11.11600 25.32100
H  41.11900 9.76200 25.77000
H  47.37100 9.58800 27.77500
H  47.52100 10.86700 29.02000
H  46.43700 11.12700 27.51100
H  44.17500 11.13800 33.05700
H  44.92400 9.62200 36.70900
H  45.96900 11.19000 36.54000
H  46.53800 9.67100 36.01600
Mg 7.30900 53.94800 40.11600
C  7.09700 50.34800 40.03300
C  10.54900 53.77400 39.43500
C  7.22700 57.22500 39.66900
C  3.79200 54.01000 40.58300
N  8.67500 52.19200 39.68300
C  8.39100 50.85500 39.65300
C  9.70400 50.11300 39.46700
C  10.83200 51.13200 39.55700
C  10.00100 52.43600 39.59000
C  11.76700 51.11400 40.79200
C  9.90200 49.45000 38.15900
C  9.89400 50.15700 36.84200
H  8.41500 50.43100 36.27400
N  8.71500 55.28700 39.56500
C  10.02500 55.02700 39.31900
C  10.69100 56.27600 39.05700
C  9.74000 57.28900 39.14500
C  8.48000 56.61700 39.48300
C  12.04200 56.32100 38.68500
C  10.04700 58.76500 38.91300
O  11.17200 59.20800 38.67300
C  8.90600 59.83500 39.05800
N  5.68800 55.41100 40.11900
C  5.94800 56.72000 40.05000
C  4.77900 57.63300 40.18500
C  3.61700 56.55400 40.41000
C  4.34000 55.21400 40.34300
C  4.93900 58.72700 41.23500
C  2.47600 56.62700 39.35800
C  1.05900 56.97300 39.82400
N  5.81200 52.55100 40.46800
C  4.42200 52.71700 40.62700
C  3.80600 51.39900 40.85100
C  4.88800 50.52100 40.77600
C  6.02700 51.18100 40.39300
C  2.35300 51.09300 41.14900
C  5.25900 49.10900 40.80500
O  4.62100 48.11200 41.11000
C  6.67400 48.93100 40.21200
C  6.50200 48.25400 38.94900
O  5.84200 48.65600 38.03500
O  6.96800 46.96900 39.12200
C  6.73800 46.03300 37.97800
H  11.63000 53.68900 39.30700
H  7.15100 58.31400 39.71100
H  2.70600 53.96700 40.69200
H  9.80400 49.39700 40.28200
H  11.49200 51.00200 38.69800
H  11.49700 50.23100 41.37100
H  11.60300 52.05100 41.32600
H  12.82600 51.13100 40.53500
H  9.10400 48.70800 38.14800
H  10.74900 48.78100 38.30800
H  10.31600 49.59200 36.01000
H  10.50100 51.05100 36.98200
H  12.62000 56.35900 39.60800
H  12.22500 57.14000 37.99000
H  12.26300 55.41500 38.12100
H  8.08400 59.68400 38.35800
H  9.22300 60.82700 38.73700
H  8.68500 59.91200 40.12200
H  4.68800 58.13500 39.22100
H  3.21300 56.57700 41.42200
H  5.96600 58.68300 41.59700
H  4.16100 58.68100 41.99700
H  4.84900 59.60500 40.59600
H  2.32900 55.59900 39.02700
H  2.79500 57.31200 38.57300
H  1.18100 57.77700 40.55000
H  0.65800 56.09500 40.33100
H  0.48800 57.24900 38.93800
H  1.78600 51.99400 41.38000
H  2.35800 50.52700 42.08100
H  2.00400 50.58100 40.25200
H  7.43900 48.49000 40.85000
H  5.72100 46.16200 37.60800
H  6.69700 44.98800 38.28400
H  7.51900 46.06600 37.21800

