158

Mg 46.85700 25.74900 28.28000
C  47.71500 27.97200 30.80000
C  46.09500 23.40500 30.73700
C  46.30200 23.63100 25.86000
C  48.23400 28.04700 25.96400
N  46.85100 25.76600 30.50600
C  47.24600 26.79300 31.34000
C  47.14500 26.37700 32.86000
C  46.64600 24.85900 32.79600
C  46.54000 24.66600 31.21200
C  47.50600 23.79200 33.57000
C  46.14900 27.29600 33.73000
C  45.68400 26.62800 35.06900
H  45.64600 27.58900 36.25300
N  46.27300 23.77300 28.25700
C  46.01200 22.96800 29.41000
C  45.59400 21.68400 28.92700
C  45.52700 21.76000 27.51600
C  46.06700 23.08900 27.13000
C  45.53800 20.46300 29.78200
C  45.14100 20.74700 26.49900
O  45.17100 20.93200 25.27800
C  44.57900 19.42900 26.90000
N  47.45800 25.73000 26.20500
C  46.94700 24.78800 25.41000
C  46.89300 25.16500 23.94300
C  47.44500 26.60300 23.96700
C  47.77200 26.83000 25.42000
C  47.70100 24.13000 22.96900
C  46.45600 27.62500 23.35800
C  46.99500 28.94900 22.70500
N  47.77000 27.64000 28.36400
C  48.26000 28.41600 27.31400
C  48.72200 29.64700 27.87200
C  48.56800 29.47800 29.25500
C  47.90600 28.28200 29.52000
C  49.22300 30.82500 27.07300
C  48.66900 30.24700 30.50200
O  49.13900 31.34900 30.62300
C  48.04800 29.22600 31.59200
C  49.09600 29.01600 32.54600
O  50.06300 28.27300 32.40600
O  48.97000 29.77000 33.70100
C  49.90500 29.65900 34.83100
H  45.69500 22.78400 31.54100
H  46.01700 23.03900 24.98700
H  48.50000 28.74600 25.16800
H  48.13900 26.39200 33.30700
H  45.66300 24.65000 33.21800
H  48.22800 23.23600 32.97200
H  46.79000 23.12000 34.04300
H  48.19800 24.25000 34.27600
H  45.20500 27.67400 33.33600
H  46.66500 28.21300 34.01500
H  46.40000 25.82800 35.25800
H  44.65200 26.29000 34.96800
H  46.21600 19.67800 29.44600
H  44.51700 20.08600 29.71800
H  45.69100 20.71600 30.83000
H  45.18900 18.90600 27.63700
H  44.42100 18.61700 26.19000
H  43.65100 19.76500 27.36100
H  45.85600 25.09100 23.61400
H  48.41600 26.62700 23.47200
H  46.94900 23.92900 22.20700
H  48.01100 23.21600 23.47600
H  48.52600 24.60100 22.43400
H  45.71400 27.91900 24.10000
H  45.86200 27.17300 22.56300
H  46.77900 29.77400 23.38500
H  46.55200 29.16000 21.73200
H  48.07800 28.87000 22.61400
H  48.90000 31.78200 27.48400
H  48.88900 30.82700 26.03500
H  50.31000 30.90000 27.08600
H  47.26000 29.66800 32.20300
H  50.57200 30.51600 34.73400
H  50.55300 28.78500 34.89400
H  49.35000 29.76000 35.76300
Mg 1.35400 43.02800 25.76400
C  3.50700 42.93100 28.53800
C  -1.36300 42.60300 27.87600
C  -0.82700 42.39000 23.11000
C  3.99900 42.93700 23.72800
N  1.10000 42.76700 27.94600
C  2.19000 42.78000 28.89600
C  1.69400 42.73600 30.30400
C  0.13900 42.29100 30.06000
C  -0.09900 42.58300 28.55100
C  -0.32900 40.92500 30.51200
C  1.88300 44.12900 30.96400
C  2.00100 44.17300 32.46600
H  1.70500 42.85800 33.22300
N  -0.87300 42.75300 25.51400
C  -1.76600 42.63500 26.56100
C  -3.04700 42.42400 26.03300
C  -2.94400 42.29500 24.59800
C  -1.53400 42.48200 24.32800
C  -4.23800 42.24700 26.93200
C  -4.01800 42.15700 23.56100
O  -3.73800 42.19400 22.36100
C  -5.43300 41.91700 23.97400
N  1.55400 42.57000 23.81600
C  0.58000 42.50000 22.87000
C  1.15400 42.44100 21.46700
C  2.45000 43.06900 21.67500
C  2.69900 42.76500 23.21300
C  1.13100 40.94400 20.88700
C  2.63000 44.56900 21.36000
C  3.84900 44.95800 20.46500
N  3.41800 42.95300 26.01100
C  4.36700 43.04200 25.08700
C  5.66200 43.19300 25.74100
C  5.36700 43.10700 27.09300
C  3.99800 42.99500 27.23300
C  6.98600 43.24600 25.12200
C  5.88000 43.19100 28.43900
O  7.03800 43.34500 28.73100
C  4.76100 43.01800 29.47000
C  4.92800 41.82000 30.27300
O  4.62100 40.67200 29.94500
O  5.31400 42.17000 31.48600
C  5.45600 41.06900 32.47900
H  -2.06700 42.36300 28.67600
H  -1.43900 42.31000 22.21000
H  4.82200 42.96400 23.01000
H  2.30500 42.05800 30.90000
H  -0.51200 42.97300 30.60900
H  -0.80900 40.33000 29.73500
H  -0.96400 41.16900 31.36500
H  0.53500 40.36300 30.86600
H  1.03700 44.65800 30.52400
H  2.71500 44.64800 30.48800
H  1.34100 44.88700 32.95800
H  3.03700 44.42700 32.68900
H  -4.67600 43.23900 27.04300
H  -3.86500 41.82600 27.86600
H  -4.96900 41.55900 26.50700
H  -5.61700 40.92900 24.39700
H  -6.08500 42.02000 23.10600
H  -5.89900 42.68500 24.59100
H  0.58700 43.08000 20.78900
H  3.30200 42.54800 21.23900
H  0.81800 40.26700 21.68100
H  2.09000 40.74000 20.41100
H  0.40200 40.91000 20.07700
H  2.85100 45.05600 22.31000
H  1.71800 45.01600 20.96500
H  3.48100 45.53200 19.61600
H  4.40600 44.07300 20.15600
H  4.62000 45.46700 21.04400
H  7.65900 42.41800 25.34800
H  7.49800 44.10200 25.56000
H  7.06000 43.44800 24.05400
H  4.81300 43.90500 30.10200
H  6.46500 40.70600 32.28300
H  4.70100 40.28500 32.42100
H  5.49300 41.56700 33.44700

