158

Mg -2.12500 18.09600 26.79900
C  -2.36400 15.86100 29.57100
C  -2.38800 20.73200 28.73900
C  -2.62200 19.89800 24.04100
C  -2.24400 15.04300 24.73800
N  -2.45600 18.17800 28.88300
C  -2.40900 17.23300 29.88100
C  -2.65600 17.93100 31.28300
C  -2.69300 19.43100 30.98600
C  -2.51300 19.47000 29.42100
C  -4.02700 20.05500 31.46700
C  -1.77900 17.50300 32.43800
C  -1.42100 18.52000 33.63600
H  -1.44700 17.85900 35.06700
N  -2.44400 20.10600 26.45900
C  -2.45100 21.03800 27.38000
C  -2.61600 22.37100 26.76300
C  -2.64500 22.20700 25.33300
C  -2.60400 20.66900 25.19400
C  -2.65000 23.63800 27.52900
C  -2.65400 23.12100 24.16500
O  -2.72800 22.75100 22.99500
C  -2.64500 24.67000 24.39700
N  -2.49800 17.51200 24.76300
C  -2.46200 18.55700 23.79500
C  -2.39100 18.05800 22.35000
C  -2.12700 16.49400 22.59200
C  -2.32700 16.30000 24.09400
C  -3.74300 18.37300 21.54700
C  -0.85200 15.90000 21.92300
C  0.57900 16.31200 22.45400
N  -2.13900 15.93300 27.02100
C  -2.21800 14.87100 26.14700
C  -2.23200 13.60500 26.82800
C  -2.35100 14.00500 28.17100
C  -2.26500 15.38900 28.21600
C  -2.33600 12.26600 26.19000
C  -2.47700 13.44900 29.50100
O  -2.54700 12.25600 29.89000
C  -2.41800 14.65900 30.51100
C  -1.18000 14.41500 31.38000
O  -0.05000 14.61100 31.00000
O  -1.50700 14.10400 32.69600
C  -0.34700 13.99400 33.67800
H  -2.43600 21.54800 29.46300
H  -2.75800 20.48200 23.12900
H  -2.17900 14.17400 24.07900
H  -3.63000 17.56300 31.60500
H  -1.96800 20.11800 31.42300
H  -4.47500 20.63500 30.66100
H  -3.77900 20.86500 32.15400
H  -4.73500 19.42500 32.00500
H  -0.87000 17.00000 32.10600
H  -2.19900 16.63700 32.95000
H  -2.23500 19.24500 33.66600
H  -0.54100 19.11600 33.39600
H  -3.50400 24.29600 27.37100
H  -1.76100 24.23200 27.31700
H  -2.43900 23.50900 28.59100
H  -2.91000 24.93800 25.42000
H  -3.20600 25.17600 23.61100
H  -1.60100 24.97400 24.31300
H  -1.52400 18.45400 21.82200
H  -2.92600 15.89700 22.15200
H  -3.49100 18.99100 20.68500
H  -4.47900 18.85500 22.19100
H  -4.14800 17.42100 21.20300
H  -0.94600 15.99800 20.84100
H  -0.96200 14.84100 22.15600
H  0.81200 15.65200 23.29000
H  0.48100 17.33600 22.81700
H  1.35600 16.30800 21.69000
H  -1.82300 12.40800 25.23900
H  -3.38400 12.03600 25.99900
H  -1.82800 11.55800 26.84500
H  -3.31300 14.78300 31.12200
H  -0.22900 13.06800 34.24000
H  -0.19900 14.83300 34.35800
H  0.60500 14.02900 33.14800
Mg 0.28300 43.70600 26.06900
C  2.35500 43.66300 28.97000
C  -2.40600 42.82100 28.01900
C  -1.38200 42.81000 23.38000
C  3.22500 44.16000 24.18100
N  0.04700 43.14600 28.27600
C  0.93000 43.43000 29.25800
C  0.20000 43.41900 30.60400
C  -1.21000 42.90900 30.30900
C  -1.21300 42.96200 28.76100
C  -1.52200 41.46600 30.80700
C  0.27100 44.82600 31.29800
C  1.01600 44.87000 32.67900
H  0.87300 43.72400 33.67900
N  -1.71600 43.27800 25.70200
C  -2.67700 42.86700 26.60400
C  -3.95400 42.63500 25.94500
C  -3.57300 42.57700 24.54100
C  -2.16300 42.86700 24.54200
C  -5.29500 42.54500 26.73700
C  -4.46300 42.14000 23.34100
O  -4.01200 42.11100 22.19100
C  -5.97800 41.82700 23.62400
N  0.82200 43.63600 23.98400
C  -0.10300 43.25800 23.16600
C  0.52000 43.07200 21.81200
C  1.95500 43.77600 21.93400
C  2.04500 43.87700 23.41200
C  0.63300 41.53600 21.36600
C  1.97300 45.16800 21.24700
C  1.67300 46.47700 22.03000
N  2.41300 43.88300 26.43400
C  3.43100 44.06000 25.57100
C  4.64300 44.37000 26.35400
C  4.25600 44.13800 27.66400
C  2.90100 43.86700 27.67400
C  5.91600 44.97100 25.84700
C  4.76700 44.10300 29.01700
O  5.89200 44.31800 29.46500
C  3.49500 44.03400 29.99800
C  3.77600 42.89400 30.89400
O  3.55400 41.68600 30.64600
O  4.42800 43.27900 32.08700
C  4.84200 42.14700 33.03200
H  -3.33300 42.53200 28.51800
H  -1.83900 42.41700 22.46900
H  4.17700 44.22400 23.65000
H  0.58000 42.72000 31.34900
H  -2.02400 43.55300 30.64200
H  -2.33500 41.44300 31.53200
H  -0.62100 41.04900 31.25700
H  -1.97700 40.92100 29.98000
H  -0.67800 45.32700 31.48900
H  0.83000 45.45800 30.60700
H  0.78300 45.75400 33.27100
H  2.08500 44.92700 32.47500
H  -6.15400 42.94000 26.19400
H  -5.15400 42.84400 27.77600
H  -5.41300 41.46900 26.86200
H  -6.13300 41.10300 24.42400
H  -6.43000 41.53100 22.67700
H  -6.47400 42.73400 23.96700
H  -0.15200 43.52300 21.08200
H  2.71300 43.08200 21.57200
H  0.23800 40.87100 22.13400
H  1.67400 41.26400 21.19000
H  0.15700 41.25300 20.42800
H  1.23800 45.21600 20.44300
H  3.00400 45.22800 20.90000
H  1.02000 46.39100 22.89900
H  1.32100 47.14900 21.24800
H  2.53000 46.96900 22.49100
H  6.51300 45.51700 26.57700
H  5.71800 45.64900 25.01700
H  6.50300 44.16500 25.40600
H  3.36900 44.92900 30.60800
H  5.92600 42.13000 33.14400
H  4.48400 41.16900 32.70800
H  4.40600 42.39800 33.99900

