158

Mg 9.49700 47.58000 25.60900
C  7.57800 47.32600 28.63100
C  11.96700 49.06700 27.48000
C  11.14000 48.04400 22.77700
C  6.61000 46.63100 23.84000
N  9.75300 48.13800 27.86400
C  8.90600 47.83400 28.92400
C  9.47900 48.22300 30.20200
C  10.62500 49.25700 29.70300
C  10.83800 48.80100 28.31800
C  10.16000 50.75500 29.98300
C  9.94100 47.03700 31.10600
C  9.36900 47.08000 32.50900
H  9.41500 45.85400 33.45800
N  11.33300 48.32000 25.25700
C  12.19700 48.84600 26.10200
C  13.37100 49.33600 25.35700
C  13.14300 48.98500 24.02900
C  11.84100 48.40800 23.94900
C  14.57700 49.88100 26.00200
C  14.11600 49.01300 22.83200
O  13.84600 48.57500 21.72000
C  15.44800 49.58700 23.01900
N  8.91100 47.32500 23.63100
C  9.80400 47.52900 22.57500
C  9.16700 47.38100 21.17600
C  7.88700 46.49600 21.52700
C  7.82400 46.81500 23.10300
C  8.77800 48.74100 20.44300
C  8.05400 44.99500 21.32000
C  7.62400 44.42400 19.97300
N  7.50200 47.04600 26.07400
C  6.44700 46.75000 25.25600
C  5.26800 46.57000 25.99800
C  5.64300 46.75400 27.33200
C  7.07200 47.05600 27.34100
C  3.82400 46.20100 25.46200
C  5.21100 46.67700 28.68900
O  4.09500 46.34700 29.12800
C  6.44000 47.13800 29.60900
C  6.77800 46.02900 30.53900
O  7.53000 45.07400 30.35500
O  5.92300 46.12800 31.68100
C  5.75400 45.04200 32.60300
H  12.73000 49.59500 28.05500
H  11.52700 48.24800 21.77700
H  5.68800 46.40500 23.30100
H  8.69000 48.77000 30.71900
H  11.50300 48.98700 30.29000
H  9.41100 50.68600 30.77200
H  9.79600 51.07900 29.00800
H  11.01500 51.31500 30.36200
H  11.01300 47.16900 31.25300
H  9.86500 46.08400 30.58400
H  8.39800 47.57500 32.52200
H  10.09000 47.73600 32.99500
H  14.26200 50.31100 26.95300
H  14.94800 50.79100 25.53100
H  15.35900 49.13600 26.14500
H  16.07400 49.45000 22.13800
H  15.92500 49.13500 23.88900
H  15.22800 50.63900 23.20200
H  9.84100 46.85500 20.50100
H  7.01600 46.95900 21.06400
H  7.72000 48.88900 20.22900
H  9.52000 48.86400 19.65400
H  9.00200 49.56800 21.11700
H  7.55400 44.43500 22.11100
H  9.07600 44.66400 21.50600
H  7.25200 45.32100 19.47900
H  6.80800 43.72900 20.17200
H  8.44500 43.90000 19.48400
H  3.22300 45.42500 25.93400
H  3.81500 45.91300 24.41100
H  3.23800 47.11700 25.38500
H  6.08700 47.99400 30.18400
H  6.01500 45.38100 33.60600
H  6.32200 44.14600 32.35300
H  4.78600 44.54800 32.69100
Mg -5.72900 24.63700 26.75700
C  -4.38500 26.07300 29.58900
C  -7.54500 22.48400 28.92100
C  -7.05500 23.10300 24.05700
C  -3.57100 26.43900 24.77500
N  -5.84600 24.16300 29.01000
C  -5.31300 25.02200 29.92300
C  -5.97100 24.85800 31.26100
C  -6.56800 23.43000 31.18800
C  -6.57000 23.21200 29.62800
C  -5.85600 22.39600 32.05500
C  -7.04600 25.98000 31.52500
C  -6.93700 26.58200 32.97500
H  -6.48600 25.73200 34.17100
N  -7.21100 23.09200 26.51300
C  -7.84900 22.40300 27.54900
C  -8.78500 21.50400 26.94800
C  -8.63500 21.66700 25.50100
C  -7.61000 22.65400 25.32800
C  -9.74600 20.63100 27.76000
C  -9.41100 21.04100 24.48700
O  -9.25100 21.20100 23.28300
C  -10.39300 19.98500 24.88100
N  -5.29800 24.76200 24.71000
C  -5.99600 24.00500 23.77500
C  -5.46200 24.20300 22.34100
C  -4.50300 25.42700 22.63000
C  -4.35100 25.44800 24.08100
C  -4.86500 22.96500 21.67700
C  -4.97200 26.80000 22.11600
C  -4.42900 27.30800 20.77700
N  -4.22300 25.89700 27.04700
C  -3.41300 26.55700 26.16400
C  -2.62800 27.54800 26.87300
C  -2.95400 27.34100 28.26700
C  -3.94300 26.32400 28.23100
C  -1.69900 28.57400 26.27300
C  -2.76100 27.77900 29.60100
O  -1.97800 28.61800 30.10000
C  -3.61400 26.95700 30.49600
C  -2.76700 26.38300 31.55000
O  -1.89100 25.57400 31.39700
O  -3.05300 26.99000 32.80200
C  -2.19700 26.88800 33.90500
H  -8.11100 21.89100 29.64300
H  -7.65100 22.69500 23.23800
H  -2.92800 26.95800 24.06100
H  -5.21300 24.88000 32.04400
H  -7.61300 23.47600 31.49500
H  -6.69400 21.77000 32.36200
H  -5.34800 22.87500 32.89200
H  -5.20000 21.81600 31.40700
H  -8.09300 25.68600 31.44400
H  -6.94900 26.72900 30.73900
H  -7.96500 26.86200 33.20300
H  -6.27600 27.44800 32.95900
H  -9.73400 20.84600 28.82800
H  -9.61200 19.55400 27.65500
H  -10.77700 20.76800 27.43300
H  -10.19000 19.26200 25.67100
H  -10.54800 19.45200 23.94300
H  -11.34500 20.46600 25.10600
H  -6.32200 24.61100 21.81000
H  -3.55600 25.11100 22.19300
H  -5.29200 22.91800 20.67500
H  -5.12400 22.11000 22.30000
H  -3.77800 22.99100 21.59400
H  -4.78900 27.50400 22.92800
H  -6.05600 26.73600 22.01900
H  -3.78900 28.17000 20.96700
H  -5.34500 27.47700 20.21200
H  -3.92300 26.48100 20.27900
H  -0.85800 28.78900 26.93200
H  -2.16300 29.54700 26.10700
H  -1.27200 28.16100 25.35900
H  -4.40500 27.52700 30.98300
H  -2.16300 27.87200 34.37200
H  -1.17500 26.58600 33.67500
H  -2.62000 26.15300 34.59000

