158

Mg 17.44600 -0.81700 28.09100
C  16.44600 1.29000 30.83900
C  19.09800 -2.76600 30.10700
C  18.91100 -2.15400 25.24500
C  15.64700 1.48300 25.96700
N  17.85000 -0.63500 30.20600
C  17.29700 0.24300 31.19200
C  17.79600 -0.13900 32.55700
C  18.79400 -1.38600 32.26600
C  18.53800 -1.63700 30.77300
C  20.32000 -1.10200 32.49000
C  16.56700 -0.62700 33.51900
C  16.65700 -0.15800 35.01100
H  17.92600 0.52300 35.58700
N  18.70500 -2.34000 27.75000
C  19.20800 -3.08900 28.71300
C  19.96100 -4.20600 28.19400
C  19.87500 -4.03700 26.76400
C  19.12900 -2.80500 26.50300
C  20.60800 -5.29200 29.00000
C  20.38200 -4.92900 25.63700
O  20.13700 -4.72300 24.48400
C  21.08700 -6.22600 25.82300
N  17.21300 -0.52800 25.93500
C  18.05800 -1.05300 25.02600
C  17.81400 -0.42800 23.60000
C  16.75200 0.59100 23.88300
C  16.45200 0.47600 25.40100
C  19.19300 0.10600 22.90500
C  15.45100 0.47500 23.03900
C  15.18100 1.47200 21.89100
N  16.21600 1.00700 28.27400
C  15.53000 1.78500 27.33700
C  14.86600 2.89400 27.97600
C  15.14800 2.68500 29.42100
C  16.01900 1.58100 29.50900
C  14.16900 4.03300 27.45700
C  14.94400 3.21800 30.74000
O  14.32600 4.19400 31.22800
C  15.75100 2.32000 31.71600
C  16.72800 3.14000 32.48800
O  17.72100 3.61500 32.03700
O  16.17000 3.41600 33.75100
C  16.73900 4.44900 34.61100
H  19.60500 -3.40500 30.83200
H  19.49000 -2.48900 24.38200
H  15.13200 2.09700 25.22600
H  18.36300 0.66300 33.02900
H  18.57900 -2.25400 32.89000
H  20.92900 -1.13000 31.58700
H  20.72500 -1.69700 33.31000
H  20.47800 -0.08900 32.85900
H  16.66000 -1.71100 33.57000
H  15.62100 -0.30800 33.08100
H  16.41000 -1.00500 35.65100
H  15.84700 0.56000 35.14600
H  20.20500 -6.22400 28.60300
H  20.33300 -5.31400 30.05500
H  21.66600 -5.30600 28.74000
H  21.47800 -6.61600 24.88300
H  20.41300 -6.95700 26.27000
H  21.90700 -6.13800 26.53600
H  17.48300 -1.26100 22.97900
H  17.22800 1.55500 23.70300
H  20.08400 -0.03800 23.51700
H  19.04900 1.17900 22.77800
H  19.30600 -0.37600 21.93400
H  14.61100 0.62500 23.71800
H  15.35400 -0.55500 22.69600
H  16.11400 2.03000 21.81900
H  14.36700 2.18200 22.04200
H  15.17200 0.99700 20.91000
H  14.74500 4.48900 26.65200
H  14.08800 4.90500 28.10600
H  13.18300 3.71900 27.11600
H  15.17900 1.75800 32.45500
H  16.12900 4.45400 35.51500
H  16.85900 5.39100 34.07600
H  17.74900 4.14000 34.87700
Mg -2.32700 35.41600 27.02200
C  -4.23000 33.86800 29.73300
C  -1.12400 37.63900 29.24800
C  -0.91800 37.04200 24.46200
C  -3.77600 33.06400 24.88800
N  -2.72500 35.73200 29.21400
C  -3.50300 34.99800 30.13500
C  -3.23500 35.50800 31.56400
C  -2.49200 36.79300 31.33100
C  -2.04500 36.72100 29.81300
C  -3.34100 38.00000 31.78500
C  -2.52000 34.44000 32.54500
C  -2.96500 34.48700 33.95600
H  -2.97000 33.19300 34.79000
N  -1.14400 37.13000 26.85200
C  -0.71500 37.89200 27.89000
C  0.23100 38.89700 27.44700
C  0.40300 38.71300 26.03300
C  -0.58600 37.63700 25.70100
C  0.85800 39.92900 28.40200
C  1.30200 39.39500 24.97700
O  1.21900 39.05400 23.80800
C  2.41900 40.37900 25.46900
N  -2.40000 35.10100 24.93500
C  -1.68200 35.87500 24.15200
C  -1.84500 35.50500 22.67300
C  -2.71800 34.20100 22.78900
C  -2.98800 34.10200 24.27100
C  -2.47400 36.57000 21.78300
C  -2.08200 32.85900 22.26900
C  -3.10300 32.01300 21.45100
N  -3.75700 33.81600 27.20500
C  -4.06800 32.87500 26.26400
C  -4.84500 31.80900 26.84700
C  -4.87800 32.15500 28.18200
C  -4.28400 33.39000 28.38600
C  -5.48400 30.61700 26.11100
C  -5.49900 31.77400 29.52000
O  -6.16600 30.78100 29.83700
C  -5.01600 32.84300 30.54400
C  -6.27800 33.49600 31.16700
O  -7.15000 34.09500 30.52700
O  -6.24900 33.21800 32.51400
C  -7.59300 33.34800 33.11500
H  -0.63500 38.25400 30.00600
H  -0.53500 37.53100 23.56400
H  -4.25700 32.29100 24.28600
H  -4.15900 35.77500 32.07700
H  -1.54600 36.84700 31.87000
H  -3.11100 38.77700 31.05600
H  -3.03000 38.52200 32.69100
H  -4.42000 37.89800 31.67600
H  -1.47400 34.74300 32.53300
H  -2.50500 33.41300 32.17900
H  -4.05100 34.58100 33.92100
H  -2.33800 35.17200 34.52600
H  0.38400 39.94300 29.38400
H  0.63500 40.92100 28.01000
H  1.92800 39.77400 28.54300
H  3.14400 39.81400 26.05500
H  1.98100 41.19500 26.04400
H  3.02200 40.72200 24.62800
H  -0.82000 35.26000 22.39200
H  -3.70100 34.45100 22.39000
H  -1.74700 36.97400 21.07900
H  -2.79900 37.42700 22.37300
H  -3.24400 36.11100 21.16200
H  -1.50500 32.30100 23.00600
H  -1.33900 33.06900 21.50000
H  -2.67400 31.38700 20.66800
H  -3.87000 32.63600 20.99200
H  -3.42800 31.37000 22.26900
H  -4.86400 30.28800 25.27800
H  -6.49500 30.87100 25.79100
H  -5.68500 29.81600 26.82300
H  -4.39800 32.41200 31.33100
H  -8.20600 34.06500 32.57000
H  -7.45000 33.65600 34.15100
H  -8.20200 32.44600 33.05900

