158

Mg 47.17400 16.63900 27.57400
C  45.27600 16.66100 30.55600
C  49.77400 18.21300 29.43100
C  48.85200 17.24700 24.66500
C  44.46400 15.57300 25.88700
N  47.50700 17.40300 29.75900
C  46.58800 17.10300 30.80100
C  47.17300 17.61900 32.10200
C  48.43800 18.36800 31.70300
C  48.60100 17.99100 30.15900
C  48.56600 19.87500 32.06400
C  47.37900 16.47800 33.22600
C  46.73900 16.65300 34.58900
H  46.93500 17.98200 35.31700
N  49.06400 17.39500 27.11200
C  50.01600 17.92200 27.98600
C  51.30900 18.17600 27.33100
C  51.02900 17.96200 25.90800
C  49.57900 17.48200 25.79400
C  52.53700 18.58800 28.01100
C  52.02600 18.04700 24.78300
O  51.79800 17.91600 23.58600
C  53.48800 18.45300 25.06100
N  46.53400 16.70900 25.50800
C  47.46000 16.82100 24.48900
C  46.88400 16.49100 23.18400
C  45.60700 15.74900 23.59900
C  45.49300 16.00400 25.08300
C  46.69100 17.76100 22.25100
C  45.56500 14.25800 23.24200
C  44.73100 13.81900 22.08100
N  45.27200 16.16800 28.05800
C  44.28000 15.68700 27.23700
C  43.07200 15.37700 27.94600
C  43.47000 15.73100 29.33000
C  44.80200 16.22400 29.29400
C  41.69900 14.94100 27.41300
C  42.96300 15.71100 30.68600
O  41.89300 15.28700 31.06500
C  44.26500 16.22200 31.57900
C  43.73900 17.29900 32.35400
O  43.73700 18.47200 32.02300
O  43.27100 16.83800 33.52900
C  42.63300 17.82100 34.49900
H  50.60100 18.68500 29.96400
H  49.40200 17.30900 23.72300
H  43.69000 15.11300 25.27000
H  46.37600 18.26200 32.47400
H  49.38400 18.02200 32.12000
H  48.34900 20.48900 31.19000
H  49.54700 20.09600 32.48400
H  47.90800 20.17700 32.87900
H  48.44300 16.25100 33.29900
H  46.87900 15.58300 32.85600
H  47.12700 15.90600 35.28200
H  45.69100 16.35300 34.59600
H  53.25900 17.77800 27.90500
H  52.35600 18.60800 29.08500
H  52.99500 19.49400 27.61400
H  54.05400 18.31600 24.14000
H  53.91200 17.82800 25.84700
H  53.53400 19.48200 25.41700
H  47.46100 15.69800 22.70800
H  44.70200 16.22400 23.22100
H  45.64400 17.75800 21.94800
H  47.31300 17.68800 21.35900
H  46.83800 18.65400 22.85800
H  45.35500 13.62200 24.10200
H  46.60600 13.97100 23.09200
H  44.18200 12.89400 22.26100
H  45.39900 13.61600 21.24400
H  43.99100 14.61600 22.00800
H  41.00300 15.57900 27.95600
H  41.56300 13.86200 27.49300
H  41.59800 15.16700 26.35100
H  44.64000 15.35800 32.12800
H  41.66700 18.09000 34.07200
H  43.22500 18.73500 34.54700
H  42.47000 17.41200 35.49600
Mg 49.84700 35.71900 26.12600
C  47.88700 34.41500 28.78400
C  49.88700 38.71100 27.96400
C  51.21300 37.17000 23.53300
C  48.79300 33.03900 24.15600
N  49.26800 36.39900 28.24400
C  48.63800 35.60200 29.15200
C  48.52700 36.34500 30.51800
C  48.81300 37.82200 30.14600
C  49.31100 37.63600 28.71100
C  47.55800 38.72300 30.24900
C  49.48400 35.66900 31.45500
C  49.11800 35.45900 33.01400
H  47.89400 36.27700 33.55100
N  50.54200 37.67900 25.84500
C  50.47700 38.75300 26.70300
C  51.11300 39.87600 26.09100
C  51.69300 39.45500 24.83700
C  51.18800 38.04500 24.69900
C  51.16500 41.26400 26.87300
C  52.56200 40.21700 23.92500
O  53.01700 39.81700 22.85900
C  53.02400 41.55900 24.31400
N  49.88200 35.21000 24.13000
C  50.57600 35.93700 23.23500
C  50.65900 35.24500 21.84000
C  50.00500 33.84300 22.13200
C  49.47200 34.05100 23.55200
C  50.03100 36.07800 20.77200
C  51.07400 32.65500 22.07100
C  50.92700 31.60000 21.04800
N  48.70000 34.04600 26.37400
C  48.38200 33.01400 25.53400
C  47.52400 32.02600 26.17100
C  47.31500 32.52500 27.46200
C  48.03700 33.75600 27.57100
C  46.84800 30.83900 25.54100
C  46.56800 32.28700 28.63000
O  45.94200 31.30400 28.93700
C  46.82400 33.58200 29.49800
C  47.37400 33.07600 30.70800
O  48.33300 32.39400 30.88800
O  46.32300 33.25900 31.65800
C  46.30600 32.50900 32.84100
H  49.88800 39.65200 28.51900
H  51.84900 37.71100 22.82900
H  48.45500 32.25500 23.47400
H  47.56400 36.22000 31.01300
H  49.51100 38.34100 30.80300
H  47.16500 38.99400 29.26900
H  47.76200 39.62400 30.82700
H  46.71800 38.21100 30.71700
H  50.39200 36.27200 31.48000
H  49.68800 34.71900 30.96200
H  49.91900 35.77400 33.68200
H  48.94800 34.40100 33.21200
H  52.15600 41.70600 26.97600
H  50.90200 41.09400 27.91700
H  50.49400 41.92100 26.32000
H  52.23100 42.27700 24.52500
H  53.49100 41.96400 23.41600
H  53.83100 41.67800 25.03600
H  51.67700 35.07500 21.49000
H  49.22000 33.64900 21.40100
H  50.18500 37.14300 20.94300
H  48.95200 36.01100 20.91300
H  50.32300 35.72000 19.78500
H  51.11800 32.19500 23.05700
H  52.07900 33.07200 22.01500
H  51.29000 30.62500 21.37300
H  51.70100 31.85400 20.32400
H  49.88100 31.56400 20.74100
H  45.75800 30.80400 25.52800
H  47.19400 29.92900 26.03200
H  47.05700 30.87000 24.47200
H  45.98000 34.23500 29.71800
H  45.77600 31.57200 32.66900
H  45.78000 33.00100 33.65900
H  47.29200 32.18300 33.17300

