158

Mg 25.21500 1.56400 29.80600
C  27.31000 1.49600 32.59500
C  22.52200 1.82800 31.86300
C  23.17600 1.35300 27.07900
C  28.08100 0.88100 27.71200
N  25.02300 1.63200 31.93500
C  26.01100 1.77800 32.92000
C  25.41500 2.12400 34.28000
C  23.84400 1.79000 33.98000
C  23.75200 1.77100 32.44500
C  23.28400 0.43500 34.54400
C  25.75700 3.55800 34.75400
C  26.80600 3.66400 35.93500
H  26.54900 4.53000 37.18200
N  23.11100 1.67000 29.49300
C  22.22700 1.90800 30.48700
C  20.90300 1.92100 29.89200
C  21.03300 1.76500 28.52400
C  22.47800 1.58900 28.29200
C  19.68100 2.04300 30.69200
C  19.99200 1.80700 27.48300
O  20.20400 1.65000 26.26900
C  18.53400 2.06400 27.90400
N  25.53500 0.97600 27.73600
C  24.49200 1.11700 26.78900
C  25.00600 0.93900 25.33200
C  26.59200 1.05300 25.59800
C  26.79200 1.05500 27.10400
C  24.51000 -0.37200 24.62600
C  27.21300 2.15600 24.71300
C  27.23300 3.49300 25.41700
N  27.23700 1.11100 30.04200
C  28.24500 0.87800 29.13000
C  29.49000 0.97400 29.80500
C  29.18500 1.09200 31.15500
C  27.79500 1.21200 31.26900
C  30.82600 0.81900 29.19900
C  29.69100 1.24900 32.50200
O  30.85800 1.18100 32.79500
C  28.55700 1.52500 33.45000
C  28.64000 0.48900 34.52400
O  28.43900 -0.71600 34.32800
O  28.97000 1.12200 35.68900
C  28.97700 0.19000 36.76600
H  21.65600 1.98400 32.50900
H  22.57300 1.35400 26.16900
H  28.96300 1.06100 27.09400
H  25.73000 1.45300 35.07900
H  23.17100 2.50700 34.45100
H  22.90400 -0.18100 33.72900
H  22.46500 0.58200 35.24900
H  24.06500 -0.09900 35.08600
H  24.87700 4.19000 34.87400
H  26.26600 3.92900 33.86500
H  27.69500 4.00800 35.40600
H  27.06200 2.65200 36.25000
H  19.13100 2.97100 30.53700
H  19.81000 2.03400 31.77500
H  19.02700 1.18000 30.57100
H  18.04300 1.28300 28.48500
H  17.92000 2.12000 27.00400
H  18.50400 3.04700 28.37300
H  24.70900 1.83600 24.78800
H  27.03600 0.11900 25.25500
H  23.72200 -0.84000 25.21700
H  25.34700 -1.05600 24.49300
H  24.13000 -0.04300 23.65900
H  26.62900 2.38700 23.82300
H  28.12600 1.77300 24.25800
H  27.21000 3.36400 26.50000
H  26.39700 4.11300 25.09400
H  28.18600 3.98500 25.22900
H  30.88200 1.42000 28.29100
H  30.86700 -0.18800 28.78500
H  31.55900 1.03900 29.97500
H  28.70900 2.53400 33.83600
H  27.98300 0.06900 37.19600
H  29.62500 0.66500 37.50200
H  29.42100 -0.79100 36.59700
Mg 36.93200 49.16800 24.82600
C  37.00900 47.03600 27.58600
C  35.75500 51.60900 26.75100
C  36.16500 50.79000 21.91100
C  38.10200 46.40800 22.89000
N  36.26100 49.19900 26.89300
C  36.55700 48.32900 27.91100
C  36.10900 48.93800 29.26000
C  35.56200 50.31700 28.92800
C  35.90200 50.40400 27.43700
C  34.07800 50.66400 29.27600
C  37.44200 48.92600 30.17400
C  37.30600 48.71600 31.68500
H  35.91200 48.79000 32.29500
N  36.22700 51.02100 24.37100
C  35.84900 51.89500 25.33500
C  35.58100 53.16900 24.73200
C  35.49800 52.87900 23.29300
C  35.86400 51.49100 23.15500
C  35.27000 54.47400 25.46300
C  35.05100 53.81100 22.16500
O  34.97100 53.35400 21.02600
C  34.64500 55.25900 22.31400
N  36.87300 48.56400 22.68200
C  36.60000 49.44100 21.68100
C  37.04000 48.88900 20.33600
C  37.66000 47.44000 20.66900
C  37.48100 47.44300 22.20400
C  35.96700 48.79000 19.26700
C  39.19100 47.33900 20.17800
C  40.21500 48.26800 20.91000
N  37.49800 47.08500 25.03100
C  38.01900 46.13400 24.20500
C  38.15300 44.82700 24.95100
C  37.79500 45.20100 26.29200
C  37.35000 46.52000 26.24100
C  38.56300 43.47800 24.31600
C  37.63700 44.73200 27.77300
O  37.91500 43.64900 28.27900
C  37.26200 46.00900 28.63300
C  36.08300 45.53200 29.51900
O  34.91300 45.42100 29.18400
O  36.53200 45.19900 30.77100
C  35.56300 44.84700 31.77000
H  35.31900 52.39400 27.37200
H  36.07300 51.36500 20.98700
H  38.57500 45.58700 22.34600
H  35.31200 48.34600 29.71200
H  36.14100 51.05700 29.48100
H  33.40600 51.02200 28.49500
H  34.09100 51.30700 30.15600
H  33.61900 49.72300 29.57900
H  37.87600 49.92500 30.11800
H  38.21700 48.20200 29.92400
H  37.83100 49.44100 32.30700
H  37.55300 47.67800 31.90700
H  34.26700 54.89100 25.37500
H  35.88800 55.12500 24.84400
H  35.75700 54.37100 26.43300
H  34.04800 55.59500 21.46700
H  35.55200 55.86000 22.38600
H  34.02200 55.44500 23.18900
H  37.79800 49.50800 19.85500
H  37.09700 46.58500 20.29600
H  34.90900 48.81400 19.53000
H  36.06000 47.80200 18.81600
H  36.10700 49.49600 18.44900
H  39.21600 47.56600 19.11200
H  39.54100 46.30700 20.19900
H  40.95800 48.68700 20.23200
H  40.55200 47.67000 21.75600
H  39.60300 49.05400 21.35400
H  39.21800 43.65800 23.46300
H  37.71500 42.91700 23.92300
H  39.05700 43.02200 25.17400
H  38.05600 46.38900 29.27700
H  36.10400 44.91900 32.71300
H  35.23100 43.82100 31.61200
H  34.68200 45.48900 31.75900

