158

Mg 46.61800 24.70400 29.53700
C  47.26700 26.95900 32.14900
C  46.12600 22.26200 31.89000
C  46.69100 22.44000 27.10900
C  47.71400 27.27900 27.33100
N  46.60100 24.62700 31.77100
C  46.88300 25.69500 32.63600
C  46.67700 25.19500 34.05100
C  46.55200 23.65900 33.93700
C  46.37500 23.51000 32.42900
C  47.61500 22.83900 34.72300
C  45.40900 25.99300 34.61900
C  45.58900 26.44600 36.13600
H  44.42400 26.13500 37.11000
N  46.34700 22.63200 29.51300
C  46.02400 21.81800 30.56600
C  45.83700 20.47500 30.12100
C  46.05600 20.47600 28.73000
C  46.35100 21.91500 28.39000
C  45.50600 19.34000 31.10300
C  46.10500 19.27200 27.79800
O  46.57800 19.36800 26.66700
C  45.56600 17.96800 28.29700
N  47.14200 24.86500 27.56400
C  47.06200 23.71200 26.75200
C  47.47100 24.16500 25.32200
C  47.40100 25.68700 25.33700
C  47.41700 25.97200 26.83300
C  48.86500 23.51500 24.91600
C  46.20300 26.28900 24.59100
C  44.75300 26.11200 25.20400
N  47.21100 26.84900 29.62900
C  47.67100 27.73400 28.67300
C  48.18200 28.95400 29.30500
C  47.94600 28.71900 30.67300
C  47.43500 27.41100 30.79300
C  48.78100 30.17900 28.59400
C  48.13500 29.30700 31.94900
O  48.52700 30.40200 32.31500
C  47.74000 28.14400 33.01800
C  48.96200 27.59300 33.77100
O  50.06800 27.34300 33.32300
O  48.71100 27.56500 35.06900
C  49.71700 27.86000 36.08900
H  45.86900 21.51700 32.64600
H  46.67600 21.81000 26.21700
H  47.85600 28.02900 26.55000
H  47.54600 25.41400 34.67100
H  45.61000 23.37400 34.40500
H  48.35800 23.45400 35.23100
H  48.11300 22.25600 33.94800
H  47.03200 22.22900 35.41200
H  44.55400 25.34700 34.42000
H  45.11400 26.86700 34.04000
H  45.67600 27.52900 36.21800
H  46.48100 26.07200 36.63800
H  45.60700 19.57800 32.16200
H  46.23300 18.58900 30.79300
H  44.50300 18.94200 30.95400
H  45.35600 17.48400 27.34300
H  44.68700 18.11500 28.92500
H  46.38600 17.50400 28.84600
H  46.62900 23.83100 24.71700
H  48.29000 26.24100 25.03400
H  48.61800 22.64800 24.30400
H  49.46400 23.28100 25.79600
H  49.37300 24.23700 24.27500
H  46.22400 26.13600 23.51200
H  46.43600 27.35000 24.50900
H  44.74300 25.70700 26.21600
H  44.11200 25.40500 24.67700
H  44.33000 27.11000 25.32200
H  48.21200 31.08300 28.81000
H  48.83200 30.11200 27.50700
H  49.78000 30.16000 29.02900
H  46.96100 28.48900 33.69800
H  50.72400 27.55000 35.80800
H  49.49900 27.23100 36.95200
H  49.55900 28.90800 36.34500
Mg 41.20700 40.73800 27.53600
C  40.25600 43.30900 29.76600
C  41.88700 38.75400 30.22800
C  42.14000 38.39400 25.37000
C  40.82800 43.11300 24.92200
N  41.04000 40.97300 29.65000
C  40.48700 42.06100 30.34900
C  40.69200 41.86900 31.83400
C  41.10600 40.36000 31.95000
C  41.48500 40.02500 30.55300
C  42.22900 39.98600 32.91300
C  39.29800 42.12300 32.59300
C  39.34800 43.13300 33.74200
H  38.49400 42.79100 35.00400
N  41.89400 38.75600 27.77600
C  42.06900 38.10400 29.00600
C  42.49500 36.74900 28.69800
C  42.53700 36.68000 27.27000
C  42.19200 37.96100 26.71900
C  42.58000 35.74400 29.75600
C  42.73300 35.41400 26.46300
O  42.67200 35.42600 25.25900
C  43.18600 34.16000 27.17800
N  41.49300 40.75900 25.48100
C  41.91400 39.66500 24.81400
C  42.02700 39.90300 23.26000
C  41.46500 41.37000 23.18000
C  41.18300 41.77800 24.60000
C  43.43500 39.48700 22.71000
C  40.24200 41.67500 22.25400
C  38.91100 40.97400 22.70700
N  40.51800 42.74900 27.30100
C  40.59800 43.54500 26.23800
C  40.20000 44.83600 26.59300
C  40.06500 44.75900 27.99100
C  40.31100 43.49800 28.38100
C  39.84100 46.03700 25.72900
C  39.74000 45.57000 29.16700
O  39.32700 46.70100 29.21900
C  40.02100 44.70200 30.41300
C  41.29700 45.15000 31.09300
O  42.41400 45.11600 30.63300
O  40.88300 45.65600 32.28700
C  41.88000 46.17600 33.16400
H  42.25200 38.09300 31.01700
H  42.43400 37.71300 24.56800
H  40.64200 43.87000 24.15800
H  41.54100 42.49300 32.11400
H  40.23500 39.76800 32.23100
H  43.10900 39.84100 32.28700
H  42.08500 39.16100 33.61100
H  42.32300 40.85700 33.56200
H  38.93300 41.13200 32.86300
H  38.59300 42.55900 31.88500
H  38.95200 44.07000 33.35100
H  40.41900 43.20800 33.93100
H  42.24400 34.78100 29.37200
H  42.08300 36.03400 30.68200
H  43.61200 35.65700 30.09600
H  43.98400 34.38700 27.88500
H  43.52000 33.51200 26.36800
H  42.24100 33.70700 27.47800
H  41.30900 39.26500 22.74500
H  42.33900 41.93100 22.84900
H  44.08000 39.19300 23.53800
H  44.02700 40.21400 22.15500
H  43.42800 38.62900 22.03700
H  40.50000 41.35600 21.24400
H  39.95800 42.72600 22.20400
H  38.23300 41.61300 23.27300
H  39.12300 40.13600 23.37000
H  38.46200 40.58000 21.79600
H  39.58100 45.64400 24.74600
H  40.73900 46.63700 25.58300
H  39.05700 46.67400 26.13800
H  39.11900 44.72900 31.02300
H  41.62100 47.21000 33.39200
H  42.85300 46.10400 32.67800
H  42.12800 45.59100 34.04900

