158

Mg 17.16400 51.52900 25.74100
C  18.90800 50.60300 28.49000
C  14.57100 52.66800 27.80600
C  15.29700 51.93600 23.03500
C  19.74900 50.56600 23.71000
N  16.82400 51.68000 27.95900
C  17.70000 51.25300 28.91400
C  17.21700 51.50500 30.28900
C  15.80200 52.14200 30.06600
C  15.67900 52.18200 28.50900
C  14.60900 51.39600 30.74600
C  18.14700 52.30700 31.21800
C  18.23200 51.73000 32.61100
H  17.08000 50.90000 33.20200
N  15.27100 52.28600 25.39100
C  14.35500 52.73600 26.37900
C  13.08200 53.08600 25.74800
C  13.30900 52.96600 24.32200
C  14.62200 52.35600 24.14500
C  11.86300 53.60300 26.53000
C  12.43700 53.39700 23.19400
O  12.77900 53.34000 22.01400
C  11.04500 53.87300 23.47200
N  17.52400 51.46300 23.64800
C  16.56800 51.46300 22.79600
C  16.97800 51.09600 21.36600
C  18.50700 50.88800 21.53200
C  18.64200 51.03900 23.05900
C  16.03400 50.05400 20.72900
C  19.56100 51.92800 20.89500
C  20.80500 51.15800 20.26000
N  18.90000 50.70800 26.00800
C  19.89100 50.40100 25.10200
C  20.98000 49.76700 25.80200
C  20.65300 49.84200 27.10900
C  19.42700 50.48800 27.24400
C  22.05900 48.97000 25.17100
C  20.94800 49.33800 28.39100
O  21.98000 48.75400 28.76700
C  19.79900 49.79400 29.42200
C  19.14100 48.62800 30.04400
O  18.18000 48.00600 29.55900
O  19.79600 48.24500 31.21700
C  19.15300 47.22100 32.11300
H  13.79400 53.04200 28.47600
H  14.70200 52.03900 22.12500
H  20.61500 50.19700 23.15600
H  17.13100 50.50700 30.71700
H  15.70900 53.13100 30.51600
H  13.95000 51.12800 29.91900
H  14.06800 52.08000 31.40000
H  15.03600 50.58600 31.33700
H  17.78500 53.33500 31.20700
H  19.14200 52.28300 30.77300
H  18.34800 52.60000 33.25700
H  19.15600 51.15900 32.70000
H  11.54300 54.61700 26.28900
H  12.08600 53.63700 27.59600
H  11.11600 52.82900 26.35100
H  10.59600 53.96900 22.48400
H  10.96700 54.74600 24.12000
H  10.53900 53.09000 24.03600
H  16.82900 52.02600 20.81700
H  18.70300 49.85900 21.23100
H  15.41600 49.62800 21.52000
H  16.59800 49.24000 20.27400
H  15.38800 50.44600 19.94300
H  19.93500 52.62300 21.64700
H  19.09400 52.57100 20.15000
H  21.69800 51.14400 20.88400
H  21.06900 51.58400 19.29200
H  20.61600 50.14400 19.90800
H  22.35000 49.47900 24.25200
H  21.79200 47.91600 25.10800
H  22.86900 49.03300 25.89700
H  20.12400 50.27800 30.34300
H  18.65600 47.75700 32.92100
H  19.93300 46.61600 32.57700
H  18.51600 46.48200 31.62800
Mg -4.89400 25.66400 25.42300
C  -3.39800 27.23600 28.38500
C  -6.29800 23.31000 27.64800
C  -5.95800 23.89200 22.88900
C  -2.90300 27.61400 23.55500
N  -4.93700 25.43000 27.76100
C  -4.35400 26.18200 28.75900
C  -4.74400 25.59200 30.19900
C  -5.74700 24.47200 29.83700
C  -5.56200 24.32900 28.30500
C  -5.36500 23.08600 30.45000
C  -5.23600 26.70100 31.16800
C  -6.31400 26.31000 32.24500
H  -5.95400 25.11000 33.12900
N  -6.15700 23.99400 25.31000
C  -6.56900 23.16300 26.26800
C  -7.45400 22.13500 25.77000
C  -7.40500 22.31100 24.41900
C  -6.49700 23.41900 24.09600
C  -8.16300 21.08500 26.66900
C  -8.15500 21.52700 23.27700
O  -7.99700 21.76000 22.06400
C  -9.12200 20.35900 23.66000
N  -4.46900 25.67800 23.54300
C  -5.05600 24.93100 22.55300
C  -4.80200 25.42400 21.16800
C  -3.92900 26.68700 21.39800
C  -3.70400 26.62400 22.96900
C  -4.20100 24.42900 20.20600
C  -4.58000 28.09800 21.06900
C  -3.77700 29.09900 20.25900
N  -3.36100 27.12400 25.84800
C  -2.63900 27.84100 24.93400
C  -1.86400 28.83700 25.60200
C  -2.10200 28.60800 26.99600
C  -3.05400 27.57100 27.10000
C  -0.90800 29.78600 24.89700
C  -1.73400 29.08800 28.25800
O  -0.94400 29.96900 28.68900
C  -2.59100 28.18300 29.26300
C  -1.66500 27.55500 30.19400
O  -0.85700 26.75200 29.88600
O  -1.92500 27.97700 31.55400
C  -1.16100 27.29400 32.61300
H  -6.73200 22.64100 28.39400
H  -6.28000 23.29400 22.03300
H  -2.31700 28.17400 22.82200
H  -3.82100 25.19700 30.62300
H  -6.80300 24.62000 30.06100
H  -5.17500 22.35700 29.66200
H  -6.21000 22.79200 31.07200
H  -4.55600 23.06300 31.17900
H  -5.65400 27.57700 30.67300
H  -4.38400 27.12500 31.69900
H  -7.29100 26.28500 31.76100
H  -6.40400 27.16800 32.91100
H  -8.37100 20.21500 26.04700
H  -9.06900 21.61700 26.96300
H  -7.48000 20.86100 27.48800
H  -9.93300 20.68600 24.31000
H  -8.45500 19.59600 24.06100
H  -9.63800 20.04500 22.75200
H  -5.77300 25.67100 20.73900
H  -2.95800 26.74100 20.90500
H  -3.88500 23.44300 20.54700
H  -3.29600 24.82000 19.74000
H  -4.88800 24.14300 19.41000
H  -4.74700 28.80700 21.87900
H  -5.50900 27.94800 20.51900
H  -2.74000 28.79100 20.39400
H  -3.81500 30.08900 20.71600
H  -4.10400 29.12000 19.22000
H  -1.43200 30.27900 24.07800
H  0.06100 29.34900 24.65600
H  -0.71800 30.55400 25.64700
H  -3.30400 28.86300 29.72800
H  -0.24700 26.78900 32.30200
H  -1.84700 26.56100 33.03700
H  -0.82200 27.97100 33.39700

