158

Mg -3.25300 16.83300 26.01400
C  -3.15300 14.63700 28.75900
C  -3.50200 19.37200 28.26200
C  -3.22900 18.91700 23.32600
C  -3.20600 14.03600 23.94100
N  -3.37500 16.89800 28.28200
C  -3.25000 15.98800 29.20100
C  -3.48100 16.52000 30.59200
C  -3.86900 17.99900 30.29700
C  -3.50700 18.11100 28.88700
C  -5.29900 18.48800 30.62400
C  -2.26500 16.26300 31.52000
C  -2.17800 17.06200 32.88900
H  -2.08700 16.23400 34.17600
N  -3.33600 18.90000 25.88400
C  -3.45300 19.75500 26.91900
C  -3.43000 21.08000 26.44500
C  -3.36700 20.97000 24.94600
C  -3.33900 19.53100 24.64600
C  -3.64000 22.34200 27.28400
C  -3.30700 22.06300 23.92800
O  -3.26300 21.84000 22.70400
C  -3.14600 23.55000 24.36400
N  -3.40300 16.52400 23.89000
C  -3.27200 17.49700 23.04400
C  -3.08000 16.95500 21.57200
C  -2.83400 15.42500 21.77700
C  -3.17700 15.28000 23.29200
C  -4.41900 17.28400 20.67200
C  -1.43000 14.84900 21.51600
C  -0.20600 15.60100 22.03300
N  -3.28600 14.82800 26.18800
C  -3.17400 13.84000 25.32300
C  -3.06300 12.57600 25.95300
C  -3.03400 12.86100 27.35200
C  -3.11200 14.23000 27.43000
C  -2.81500 11.22200 25.24900
C  -2.81300 12.23600 28.64300
O  -2.47600 11.02900 28.93500
C  -2.96200 13.39100 29.64600
C  -1.68300 13.29400 30.35300
O  -0.65500 13.89300 30.13600
O  -1.88700 12.43400 31.46600
C  -0.78400 12.46000 32.45200
H  -3.33900 20.20100 28.95300
H  -3.10900 19.52400 22.42700
H  -3.10600 13.17700 23.27500
H  -4.31200 15.91700 30.95700
H  -3.18700 18.68600 30.79800
H  -5.25200 18.94500 31.61300
H  -5.99900 17.66400 30.76700
H  -5.64600 19.30400 29.99100
H  -1.31400 16.33900 30.99400
H  -2.59800 15.27500 31.83800
H  -3.03900 17.73100 32.88900
H  -1.26600 17.65800 32.85100
H  -3.81400 22.12600 28.33800
H  -4.44200 22.97100 26.89700
H  -2.72100 22.88700 27.49900
H  -2.23800 23.66700 24.95600
H  -4.08000 23.82900 24.85100
H  -2.89700 24.06500 23.43500
H  -2.23300 17.43800 21.08300
H  -3.56100 14.86400 21.18900
H  -4.44200 18.34100 20.40600
H  -5.36300 17.16400 21.20300
H  -4.43700 16.62400 19.80500
H  -1.27200 14.78700 20.43900
H  -1.30600 13.87700 21.99300
H  -0.40300 16.34900 22.80100
H  0.28600 16.04400 21.16700
H  0.46200 14.89900 22.53200
H  -3.78900 10.80400 24.99400
H  -2.17500 10.65100 25.92100
H  -2.34500 11.40500 24.28200
H  -3.71200 13.32000 30.43400
H  0.20200 12.21400 32.05800
H  -0.99700 11.83400 33.31800
H  -0.89400 13.46500 32.86000
Mg -2.30500 34.14300 26.15300
C  -3.47700 32.74600 29.13700
C  -0.30300 36.22100 27.98000
C  -1.31800 35.60700 23.30900
C  -4.38500 31.97100 24.34700
N  -1.98600 34.46400 28.37200
C  -2.56100 33.78200 29.40500
C  -1.97800 34.28600 30.74400
C  -0.91300 35.34500 30.26400
C  -1.06200 35.32800 28.78800
C  -1.01100 36.75800 31.03400
C  -1.39600 33.19800 31.78200
C  -1.85100 33.39400 33.25100
H  -1.33900 32.39500 34.28400
N  -0.91100 35.66900 25.69500
C  -0.21000 36.41200 26.60200
C  0.55900 37.38300 25.82100
C  0.35700 37.15100 24.48300
C  -0.68300 36.13300 24.39600
C  1.32900 38.50700 26.48600
C  1.14700 37.73500 23.31900
O  0.86100 37.52400 22.13400
C  2.38800 38.57500 23.58700
N  -2.89700 33.95200 24.13900
C  -2.27700 34.62300 23.11200
C  -2.73700 34.10500 21.75900
C  -3.31200 32.69300 22.06100
C  -3.52600 32.82200 23.62100
C  -3.71200 35.00900 21.01100
C  -2.34500 31.53700 21.71500
C  -0.76900 31.75600 21.93300
N  -3.73100 32.80000 26.62500
C  -4.44500 31.91200 25.78500
C  -5.30700 31.04600 26.55200
C  -4.82800 31.29000 27.90700
C  -3.94700 32.39100 27.88000
C  -6.29200 30.10100 26.00000
C  -4.96500 30.76600 29.19300
O  -5.61200 29.85000 29.68500
C  -4.11700 31.65900 30.06300
C  -5.05200 32.42900 30.95800
O  -5.82200 33.30800 30.58600
O  -4.91200 32.00500 32.27500
C  -5.76800 32.53000 33.28100
H  0.28200 36.90700 28.59600
H  -0.92800 35.97500 22.35700
H  -4.89000 31.26100 23.68800
H  -2.80600 34.83300 31.19600
H  0.08300 34.92000 30.39300
H  0.00900 37.11100 31.18600
H  -1.54700 36.72300 31.98300
H  -1.55400 37.33900 30.28900
H  -0.33700 33.45400 31.80000
H  -1.48900 32.22500 31.30100
H  -2.92000 33.54600 33.40100
H  -1.51700 34.38700 33.55300
H  2.40800 38.37400 26.40900
H  1.12400 38.60300 27.55200
H  0.98400 39.44000 26.04000
H  2.08300 39.53700 23.99900
H  2.88700 38.73900 22.63200
H  3.09500 38.03500 24.21700
H  -1.89000 33.92700 21.09600
H  -4.32100 32.49800 21.69500
H  -3.47000 34.92200 19.95200
H  -3.49700 36.04200 21.28600
H  -4.74600 34.68900 21.14500
H  -2.58700 31.34300 20.67000
H  -2.68900 30.59800 22.14900
H  -0.29500 32.10300 21.01500
H  -0.35000 30.78100 22.18400
H  -0.59200 32.52300 22.68700
H  -5.84400 29.11300 26.10500
H  -6.42800 30.38400 24.95600
H  -7.23000 30.07700 26.55500
H  -3.46200 31.07500 30.70900
H  -5.17400 33.08200 34.00800
H  -6.26900 31.65000 33.68500
H  -6.51200 33.29400 33.05700

