158

Mg 50.10600 35.52600 29.10200
C  47.45200 34.03300 31.08100
C  50.27800 37.94200 31.53500
C  51.74700 37.43300 27.02600
C  49.30300 33.23100 26.64500
N  48.94600 35.89900 30.95900
C  48.05100 35.13000 31.66400
C  47.87700 35.75000 33.05600
C  48.25600 37.22500 32.85400
C  49.26100 36.99000 31.75000
C  47.04700 38.08900 32.36800
C  48.64900 34.94000 34.10100
C  50.05200 35.37400 34.66800
H  50.12400 35.90100 36.05100
N  51.07500 37.35100 29.36000
C  51.11600 38.12000 30.46700
C  51.98000 39.26200 30.22400
C  52.35000 39.20400 28.84600
C  51.75600 37.97500 28.37000
C  51.97700 40.50700 31.15200
C  53.04200 40.22200 27.91700
O  53.02900 40.08600 26.71900
C  53.74900 41.45500 28.49800
N  50.50400 35.28300 27.08100
C  51.15100 36.30400 26.40100
C  51.34000 35.89300 24.93800
C  50.64900 34.50900 24.78400
C  50.19100 34.28800 26.21700
C  50.93500 36.91500 23.88300
C  51.34800 33.21800 24.15300
C  50.74200 32.73100 22.82900
N  48.75000 33.88100 28.90800
C  48.56000 33.03400 27.81500
C  47.61300 31.97800 28.19400
C  47.10000 32.37100 29.46600
C  47.80000 33.58200 29.79000
C  47.15000 30.87000 27.30100
C  46.12500 32.03500 30.48900
O  45.44000 30.99800 30.65600
C  46.28700 33.18400 31.52400
C  46.40600 32.49200 32.93200
O  46.98800 31.44100 33.23100
O  45.89800 33.31500 33.90500
C  45.78700 32.66500 35.25500
H  50.24800 38.62700 32.38500
H  52.23200 37.93100 26.18400
H  49.06700 32.47000 25.89800
H  46.89100 35.71300 33.52100
H  48.71900 37.74300 33.69300
H  46.21900 37.47300 32.01600
H  47.33200 38.71100 31.52000
H  46.65100 38.75500 33.13500
H  48.81400 33.94400 33.68900
H  48.08100 34.79900 35.02100
H  50.42300 36.22500 34.09600
H  50.74600 34.53400 34.70700
H  51.29000 41.31300 30.89300
H  52.98900 40.90900 31.11300
H  51.74200 40.19700 32.17100
H  54.27700 41.10800 29.38600
H  52.96200 42.16200 28.76300
H  54.38700 42.01300 27.81400
H  52.41600 35.71400 24.92400
H  49.76900 34.53700 24.14200
H  50.22900 37.69800 24.16100
H  50.52600 36.34300 23.05100
H  51.73900 37.52000 23.46400
H  51.23800 32.42500 24.89300
H  52.40400 33.40200 23.95600
H  50.08800 31.88200 23.02800
H  51.53200 32.57800 22.09500
H  50.01400 33.42400 22.40600
H  46.06500 30.78200 27.35600
H  47.67600 29.95000 27.55700
H  47.55500 31.14100 26.32600
H  45.39400 33.80800 31.50600
H  46.73500 32.50900 35.76800
H  45.23500 31.72900 35.33600
H  45.24000 33.20800 36.02600
Mg 17.25800 50.88000 25.99100
C  19.07900 49.48400 28.64600
C  14.91600 51.91000 28.24400
C  15.34400 51.93100 23.36700
C  19.49700 49.53800 23.81000
N  16.99300 50.60800 28.17000
C  17.93200 50.17200 29.04800
C  17.57700 50.54100 30.46600
C  16.06800 50.98300 30.29300
C  16.01700 51.23100 28.85000
C  14.98400 50.03100 30.83800
C  18.43400 51.76400 30.96400
C  18.26000 52.11400 32.49500
H  17.28800 51.19800 33.37100
N  15.40800 51.82100 25.87200
C  14.62600 52.17500 26.91500
C  13.48900 53.00500 26.48000
C  13.69000 53.06800 25.01400
C  14.87800 52.28100 24.68700
C  12.49400 53.65600 27.48800
C  12.90400 53.82100 24.01300
O  13.18700 53.91900 22.79600
C  11.65300 54.50400 24.41400
N  17.33600 50.68900 23.84000
C  16.45200 51.14100 22.96500
C  17.08300 51.19400 21.59000
C  18.51400 50.45700 21.73600
C  18.45500 50.33300 23.22500
C  16.23800 50.43800 20.53000
C  19.77000 51.30000 21.28700
C  20.87200 50.43300 20.68200
N  19.02800 49.88800 26.13900
C  19.81100 49.26700 25.18100
C  20.95000 48.59700 25.75700
C  20.75400 48.70000 27.11400
C  19.54400 49.40900 27.32500
C  21.94700 47.78100 24.97200
C  21.14700 48.24100 28.38800
O  22.05100 47.51700 28.69300
C  20.23700 48.89600 29.42500
C  19.68000 47.90200 30.32700
O  18.72800 47.15700 30.01400
O  20.36800 47.88200 31.54000
C  19.76300 47.06800 32.66200
H  14.34400 52.43900 29.00900
H  14.83900 52.45300 22.55100
H  20.27300 49.17400 23.13300
H  17.74200 49.61200 31.01100
H  15.90400 51.85300 30.92900
H  15.30500 49.21300 31.48300
H  14.62600 49.45500 29.98500
H  14.11900 50.59700 31.18600
H  18.10600 52.61600 30.36900
H  19.48400 51.61700 30.71100
H  17.72500 53.05100 32.34000
H  19.19400 52.25900 33.03700
H  11.60800 53.86200 26.88800
H  12.88000 54.59000 27.89600
H  12.33000 52.94700 28.30000
H  11.04800 54.79800 23.55700
H  11.94800 55.41800 24.92900
H  11.16100 53.74000 25.01600
H  17.16300 52.21900 21.23100
H  18.44200 49.44400 21.34000
H  15.22200 50.26400 20.88500
H  16.69100 49.50200 20.20400
H  16.26600 51.15500 19.70900
H  20.21700 51.74900 22.17300
H  19.46300 52.04000 20.54700
H  21.81900 50.51500 21.21600
H  21.04600 50.90900 19.71700
H  20.59700 49.40100 20.46800
H  22.20700 48.18500 23.99400
H  21.41100 46.84000 24.84100
H  22.80800 47.59800 25.61500
H  20.79000 49.62900 30.01200
H  18.68900 47.25100 32.69100
H  20.16200 47.39100 33.62300
H  20.07000 46.03800 32.48100

