158

Mg 24.85700 1.68000 29.23900
C  27.07500 1.22500 31.88300
C  22.31400 1.97700 31.67500
C  22.48900 1.89400 26.74300
C  27.21000 1.15000 26.93200
N  24.73500 1.53400 31.56000
C  25.82200 1.40800 32.33400
C  25.50400 1.70500 33.81100
C  23.86900 1.89200 33.72100
C  23.59000 1.83400 32.18600
C  23.00700 0.87700 34.48200
C  26.30200 2.99000 34.39400
C  27.03200 2.77600 35.76700
H  26.52200 3.64200 36.97700
N  22.70800 1.83500 29.21500
C  21.82500 1.90600 30.37500
C  20.49900 1.96600 29.87600
C  20.57700 1.85500 28.48700
C  21.94500 1.82000 28.06100
C  19.25600 2.08000 30.79100
C  19.44800 1.84300 27.48600
O  19.67300 1.91800 26.27600
C  18.04500 1.82500 27.97200
N  24.84000 1.47000 27.04300
C  23.85100 1.72800 26.29100
C  24.21800 2.09700 24.79700
C  25.80200 1.81400 24.82300
C  25.99900 1.50800 26.37400
C  23.44800 1.23600 23.69300
C  26.67900 3.04000 24.30100
C  26.68000 4.26000 25.19500
N  26.69300 1.21200 29.39200
C  27.58100 0.92900 28.28000
C  28.90300 0.72200 28.84900
C  28.80800 0.88400 30.27700
C  27.43800 1.11600 30.52900
C  30.10500 0.35700 28.07100
C  29.49800 0.84300 31.53700
O  30.68700 0.95200 31.80300
C  28.36900 1.09400 32.59100
C  28.51300 0.08900 33.61500
O  27.97300 -1.01700 33.54700
O  29.40200 0.55100 34.60400
C  29.28600 -0.14400 35.88700
H  21.55100 2.03600 32.45300
H  21.77200 2.08000 25.94000
H  27.98500 1.07700 26.16600
H  25.75100 0.84900 34.43800
H  23.57600 2.87600 34.08900
H  22.60600 0.15400 33.77200
H  22.24300 1.47400 34.97900
H  23.65400 0.42100 35.23200
H  25.50400 3.70200 34.60500
H  26.99300 3.43400 33.67800
H  28.07600 3.06600 35.64500
H  27.07500 1.74100 36.10500
H  18.74900 3.04500 30.79600
H  19.50300 1.92500 31.84100
H  18.53800 1.27200 30.64800
H  17.81300 2.81300 28.37100
H  18.02000 0.98100 28.66200
H  17.31800 1.62300 27.18600
H  24.10800 3.18000 24.74400
H  26.00100 0.90100 24.26300
H  23.24900 0.20300 23.97900
H  23.98300 1.25500 22.74300
H  22.51900 1.77200 23.49900
H  26.19000 3.43400 23.41100
H  27.71100 2.79400 24.05000
H  27.57600 4.87500 25.29000
H  26.38800 4.01300 26.21600
H  25.95700 4.91800 24.71300
H  29.92100 -0.60300 27.58900
H  31.03300 0.47500 28.63000
H  30.12900 1.02900 27.21300
H  28.65600 2.08800 32.93600
H  28.27200 0.01000 36.25800
H  29.96100 0.15400 36.68900
H  29.39400 -1.20200 35.64500
Mg 49.32700 46.58700 43.42700
C  45.96900 47.22600 42.35600
C  49.14800 43.51200 42.24000
C  52.66400 46.42600 43.74900
C  49.41900 50.00300 44.42500
N  47.71600 45.51400 42.40100
C  46.38900 45.91600 42.05200
C  45.64900 44.73300 41.54300
C  46.65100 43.47400 41.58400
C  47.93300 44.19800 42.11600
C  46.32500 42.20000 42.27800
C  44.96000 45.00700 40.17700
C  45.79400 45.65000 39.00000
H  45.92400 44.89800 37.62700
N  50.79400 45.11700 43.05300
C  50.45500 43.86400 42.59200
C  51.63700 43.07600 42.68800
C  52.68100 43.86500 43.16800
C  52.08900 45.21900 43.33200
C  51.69000 41.61000 42.21100
C  54.10400 43.39200 43.41000
O  54.42800 42.27500 43.18800
C  55.14000 44.24600 44.07000
N  50.83200 48.03300 43.91200
C  52.13100 47.71900 44.07900
C  52.97400 48.95000 44.31900
C  51.90900 50.08500 44.54300
C  50.68200 49.34100 44.34500
C  53.87600 48.65500 45.51300
C  52.01700 51.22400 43.48600
C  51.74300 52.67200 44.00900
N  48.03500 48.26500 43.39300
C  48.15000 49.60000 43.87800
C  46.90300 50.34700 43.86800
C  46.07100 49.41800 43.19300
C  46.75600 48.21100 42.96000
C  46.72900 51.77900 44.26500
C  44.75100 49.32900 42.63000
O  43.83600 50.16400 42.48400
C  44.57500 47.84700 42.21000
C  43.54000 47.10600 43.08800
O  43.53900 46.95700 44.30000
O  42.44500 46.58200 42.38400
C  41.71300 45.43500 43.01000
H  49.06900 42.43800 42.06400
H  53.74900 46.34100 43.83800
H  49.28500 51.02900 44.77500
H  44.87100 44.62300 42.29800
H  46.94200 43.19600 40.57100
H  46.31700 41.42300 41.51400
H  45.37000 42.35700 42.77900
H  47.07800 41.88900 43.00300
H  44.05200 45.58400 40.35200
H  44.54700 44.12400 39.69000
H  46.81800 45.73300 39.36500
H  45.31700 46.59700 38.74900
H  52.25500 41.50800 41.28500
H  50.73200 41.26900 41.81800
H  52.01900 40.91500 42.98300
H  54.66700 44.67200 44.95500
H  55.52600 45.00600 43.39100
H  55.97400 43.58600 44.30700
H  53.64500 49.10400 43.47400
H  51.96900 50.48900 45.55400
H  54.87000 49.04600 45.29400
H  54.18000 47.63300 45.73900
H  53.51200 49.17100 46.40100
H  51.25300 51.04500 42.72900
H  52.96300 51.05900 42.97000
H  51.09200 53.14000 43.27100
H  52.62500 53.31000 43.95100
H  51.42400 52.74300 45.04900
H  45.68600 52.09200 44.21100
H  47.30000 52.33000 43.51700
H  46.83400 52.07400 45.30900
H  44.13200 47.77700 41.21700
H  42.22700 45.01600 43.87500
H  41.47300 44.71100 42.23200
H  40.72800 45.73200 43.37100

