158

Mg 35.42300 49.99400 25.73800
C  35.71500 47.97800 28.50400
C  33.77200 52.38800 27.67000
C  34.97300 51.82400 22.90000
C  36.70100 47.39800 23.80300
N  34.73000 50.08500 27.79500
C  35.06000 49.22500 28.74900
C  34.69900 49.78600 30.14700
C  33.94000 51.09600 29.87000
C  34.11700 51.22900 28.32900
C  32.44200 51.10200 30.28100
C  35.88800 50.02500 31.14000
C  35.51800 49.73300 32.62900
H  34.07400 49.71100 33.06400
N  34.50300 51.91600 25.33600
C  33.90300 52.71800 26.28400
C  33.59900 53.98100 25.60200
C  33.81000 53.79200 24.18400
C  34.44200 52.47800 24.07600
C  33.04900 55.16400 26.38300
C  33.60800 54.76800 23.07900
O  34.00400 54.60300 21.91700
C  32.73400 55.95500 23.25800
N  35.68900 49.59900 23.64600
C  35.51000 50.58700 22.70700
C  36.11900 50.10100 21.40500
C  36.76500 48.76200 21.61100
C  36.34500 48.55900 23.04200
C  35.20600 50.03100 20.14000
C  38.32700 48.77900 21.42600
C  39.12600 49.49900 22.40500
N  35.87400 48.04700 26.00400
C  36.33600 47.06600 25.09000
C  36.51300 45.85800 25.74200
C  36.30200 46.13900 27.11900
C  35.93000 47.48700 27.20800
C  37.22900 44.71600 25.14800
C  36.43600 45.62200 28.45800
O  36.76800 44.52500 28.85900
C  36.05600 46.78000 29.43200
C  34.96800 46.38100 30.26400
O  33.77800 46.54500 30.02600
O  35.47700 45.87900 31.45200
C  34.52900 45.50000 32.48900
H  33.32500 53.19200 28.25700
H  35.05100 52.41600 21.98500
H  37.21100 46.69800 23.13800
H  33.96200 49.05000 30.47000
H  34.44600 51.96900 30.28000
H  31.76600 50.97900 29.43400
H  32.27700 52.11800 30.63900
H  32.24300 50.43100 31.11600
H  36.35300 51.00600 31.04000
H  36.60500 49.32000 30.72000
H  36.07100 50.40800 33.28200
H  35.87400 48.72400 32.83800
H  33.57700 55.19500 27.33600
H  31.96400 55.14000 26.49300
H  33.42400 56.00700 25.80200
H  32.08200 55.86500 24.12600
H  32.04300 56.07200 22.42300
H  33.44000 56.77600 23.38400
H  36.78300 50.95000 21.24400
H  36.43100 47.93200 20.98900
H  34.69200 49.07000 20.11800
H  35.84100 50.11400 19.25700
H  34.47300 50.83700 20.11000
H  38.53600 49.14000 20.41900
H  38.69200 47.75700 21.32500
H  39.35500 48.74900 23.16200
H  38.73400 50.39600 22.88300
H  40.14000 49.66100 22.03800
H  38.06300 45.13200 24.58200
H  36.69500 44.05900 24.46200
H  37.66500 44.09300 25.92900
H  36.85300 46.95100 30.15600
H  34.85700 44.62400 33.04800
H  33.53300 45.23400 32.13600
H  34.46200 46.25400 33.27300
Mg 16.17400 51.34300 25.43300
C  17.93600 50.53600 28.27800
C  13.42500 52.10700 27.17000
C  14.58200 51.83900 22.50400
C  18.92800 49.92400 23.67400
N  15.76000 51.17900 27.45500
C  16.68100 51.07500 28.48400
C  16.03800 51.60300 29.84100
C  14.49200 51.66000 29.56400
C  14.51000 51.68800 27.94600
C  13.74600 50.49600 30.10200
C  16.73300 52.89100 30.35700
C  16.53100 53.31000 31.80300
H  15.89000 52.40100 32.82000
N  14.17300 51.85000 24.88300
C  13.15200 52.22400 25.76400
C  11.94200 52.61900 25.03400
C  12.20500 52.28800 23.62300
C  13.71400 52.00100 23.61200
C  10.62300 52.80300 25.75800
C  11.20200 52.09700 22.43800
O  11.58200 51.71700 21.33400
C  9.73900 52.22800 22.66300
N  16.64100 51.02600 23.36700
C  15.87800 51.33300 22.37200
C  16.51600 51.16100 20.99700
C  17.91600 50.61800 21.39400
C  17.84000 50.55000 22.93600
C  15.58100 50.30900 20.05300
C  19.05000 51.58100 20.90700
C  20.22800 50.91200 20.12600
N  18.07600 50.50700 25.83400
C  19.10100 50.01600 25.05700
C  20.29700 49.68800 25.76100
C  19.85400 49.87300 27.13100
C  18.55400 50.38200 27.06600
C  21.57200 49.11500 25.13100
C  20.26100 49.81800 28.50000
O  21.36100 49.61900 28.95200
C  18.98600 50.22300 29.30300
C  18.52900 49.22100 30.30100
O  17.93800 48.19100 30.00600
O  18.84900 49.70500 31.56200
C  18.41400 48.98300 32.74000
H  12.64200 52.50900 27.81700
H  14.03100 52.06500 21.58900
H  19.65800 49.43900 23.02100
H  16.23500 50.82300 30.57700
H  14.03600 52.58500 29.91700
H  14.15200 49.89000 30.91200
H  13.31900 49.93400 29.27100
H  12.95000 50.98500 30.66400
H  16.27400 53.66800 29.74600
H  17.79100 52.83800 30.10100
H  15.95100 54.22800 31.70600
H  17.53300 53.49000 32.19200
H  10.69400 53.24700 26.75200
H  10.13800 51.83100 25.84700
H  10.03500 53.57000 25.25400
H  9.54300 53.24400 23.00700
H  9.49100 51.49600 23.43200
H  9.23500 52.08100 21.70800
H  16.52600 52.17800 20.60300
H  18.07300 49.61900 20.98700
H  16.16300 49.53600 19.55100
H  15.19500 50.93400 19.24700
H  14.72600 49.80200 20.50000
H  19.46100 52.00000 21.82500
H  18.66800 52.40700 20.30700
H  20.08900 49.83700 20.01300
H  21.21600 51.12200 20.53800
H  20.27200 51.27700 19.10000
H  21.67900 49.45900 24.10300
H  21.57300 48.02500 25.15800
H  22.40800 49.53600 25.69100
H  19.24000 51.19700 29.72200
H  19.02400 49.32200 33.57700
H  18.71000 47.93800 32.64000
H  17.37200 49.14200 33.01700

