158

Mg 2.07900 -1.85400 44.06900
C  5.52300 -1.04500 43.72800
C  1.37100 1.11100 42.34000
C  -1.18700 -2.97900 43.56500
C  2.88800 -4.99800 45.24600
N  3.31600 -0.29500 42.95000
C  4.70100 -0.10000 42.99700
C  5.16100 1.16200 42.29500
C  3.78700 1.91900 42.21300
C  2.71600 0.84700 42.49300
C  3.61500 3.10900 43.16900
C  5.78900 0.79800 40.88800
C  7.12400 1.50000 40.60000
H  7.18300 2.48700 39.41600
N  0.33200 -1.04200 43.11700
C  0.22200 0.24500 42.57000
C  -1.18200 0.47000 42.21400
C  -1.90400 -0.65300 42.71100
C  -0.91300 -1.62900 43.09200
C  -1.56600 1.71600 41.54300
C  -3.35400 -0.69700 42.75200
O  -4.06600 0.14000 42.26500
C  -4.10600 -1.75300 43.58800
N  0.96800 -3.81400 44.32100
C  -0.35700 -3.90300 44.15100
C  -0.81100 -5.27100 44.66900
C  0.48400 -5.96500 45.14700
C  1.55300 -4.86800 44.88900
C  -1.95900 -5.20000 45.70500
C  0.79200 -7.33100 44.52200
C  1.20600 -8.55100 45.38100
N  3.77700 -2.84900 44.54100
C  3.93000 -4.05200 45.11700
C  5.34300 -4.19100 45.40600
C  5.99200 -3.06700 44.89200
C  5.00700 -2.23200 44.38500
C  5.95300 -5.40300 46.05300
C  7.31600 -2.39400 44.64700
O  8.41300 -2.74400 44.96000
C  7.02700 -0.98700 44.00700
C  7.35500 0.00700 45.08300
O  7.02900 -0.06700 46.28600
O  7.89400 1.13000 44.52800
C  8.03000 2.26800 45.42100
H  1.14600 1.96600 41.69900
H  -2.19100 -3.39700 43.46500
H  3.05900 -5.91600 45.81200
H  5.77100 1.63700 43.06300
H  3.52100 2.30900 41.23000
H  2.65400 3.07100 43.68200
H  3.70100 3.98400 42.52500
H  4.37900 3.00600 43.93900
H  5.00500 1.12700 40.20700
H  5.84100 -0.28300 40.75400
H  7.73200 0.61800 40.40000
H  7.59000 1.94400 41.48000
H  -2.48600 1.50400 40.99800
H  -0.99500 2.02800 40.66900
H  -1.81600 2.57700 42.16400
H  -5.00000 -1.21800 43.90700
H  -3.55300 -1.87700 44.51900
H  -4.35600 -2.61000 42.96200
H  -1.24000 -5.85400 43.85400
H  0.50200 -6.06900 46.23200
H  -2.02300 -4.14400 45.97000
H  -1.81700 -5.87100 46.55100
H  -2.88700 -5.42000 45.17600
H  1.53800 -7.19300 43.73800
H  -0.11700 -7.59700 43.98300
H  0.55100 -9.39800 45.17700
H  1.17500 -8.31000 46.44400
H  2.20000 -8.93100 45.14600
H  5.61900 -6.26400 45.47400
H  5.60200 -5.44200 47.08400
H  7.02300 -5.19200 46.05900
H  7.62700 -0.80200 43.11600
H  7.40100 2.31900 46.31000
H  7.70300 3.11400 44.81600
H  9.06800 2.40200 45.72600
Mg 25.86900 1.44100 29.10000
C  27.73300 1.03500 31.99800
C  23.00900 1.27900 31.09900
C  24.05500 1.60300 26.31400
C  28.73500 0.50000 27.19700
N  25.48800 1.16000 31.34500
C  26.37800 1.23100 32.34500
C  25.68300 1.31500 33.73300
C  24.17200 1.52200 33.38200
C  24.20400 1.22400 31.85000
C  23.30300 0.74000 34.37900
C  26.32500 2.46100 34.54000
C  25.49500 2.97400 35.76200
H  25.87400 2.63800 37.20900
N  23.83500 1.57200 28.78600
C  22.76700 1.39400 29.71200
C  21.57500 1.60700 29.05800
C  21.81000 1.75100 27.61100
C  23.27100 1.62300 27.48600
C  20.26300 1.65300 29.75600
C  20.86900 1.93800 26.50200
O  21.21600 1.80800 25.33700
C  19.40000 2.13300 26.77800
N  26.33800 0.95200 27.01200
C  25.44800 1.36100 26.02600
C  26.11700 1.49100 24.65800
C  27.56000 1.11500 24.99200
C  27.58900 0.80300 26.47500
C  25.49000 0.76900 23.43700
C  28.56800 2.20700 24.64800
C  30.03200 1.77100 24.20300
N  27.81100 1.01800 29.41000
C  28.83200 0.58800 28.58200
C  30.02700 0.42100 29.34200
C  29.67700 0.68800 30.60700
C  28.29600 0.93200 30.64600
C  31.34000 -0.05500 28.81500
C  30.20400 0.79100 31.95400
O  31.36900 0.62200 32.32000
C  28.97700 0.96400 32.89000
C  28.87000 -0.24600 33.81400
O  28.71900 -1.40800 33.46000
O  28.89900 0.19800 35.11300
C  28.45700 -0.81300 36.11300
H  22.16600 1.42300 31.77900
H  23.46600 1.79300 25.41500
H  29.62500 0.40600 26.57000
H  25.90700 0.40500 34.29000
H  23.74300 2.51300 33.53500
H  22.70000 0.05800 33.78000
H  22.71000 1.47400 34.92400
H  23.91900 0.02500 34.92500
H  26.50700 3.35700 33.94600
H  27.28900 2.21800 34.98700
H  24.46400 2.63200 35.67100
H  25.55800 4.05800 35.66100
H  19.77200 2.61700 29.62600
H  20.38700 1.63500 30.83800
H  19.64100 0.82200 29.42100
H  18.91800 1.21700 27.11800
H  18.91400 2.21500 25.80600
H  19.20200 2.95500 27.46600
H  26.05400 2.51900 24.29900
H  27.79400 0.19300 24.46100
H  24.74800 0.00100 23.65700
H  26.27800 0.41100 22.77400
H  24.79000 1.37000 22.85700
H  28.84100 2.85200 25.48300
H  28.22600 2.81700 23.81200
H  30.35100 2.43400 23.39900
H  29.89600 0.74100 23.87300
H  30.71500 1.83400 25.05100
H  31.93700 -0.40000 29.65900
H  31.85200 0.73200 28.26100
H  31.27300 -0.93400 28.17400
H  29.07400 1.82100 33.55700
H  28.97900 -1.76700 36.03900
H  27.38400 -1.00700 36.11000
H  28.80500 -0.36500 37.04400

