158

Mg 16.82600 -2.34300 27.81800
C  15.75500 -0.27800 30.61300
C  18.45700 -4.31200 30.14000
C  18.04100 -4.00500 25.31600
C  15.07900 -0.18800 25.84600
N  16.99100 -2.32600 30.07500
C  16.53800 -1.39800 30.97400
C  16.99300 -1.75700 32.34800
C  18.01500 -2.91500 32.19600
C  17.90900 -3.18900 30.68400
C  19.47300 -2.56500 32.64000
C  15.84100 -2.01000 33.38600
C  16.01000 -1.32900 34.70800
H  17.40100 -1.05900 35.30600
N  18.18100 -3.86600 27.71900
C  18.63900 -4.62300 28.79000
C  19.41200 -5.69100 28.25300
C  19.33700 -5.76000 26.86600
C  18.51400 -4.53000 26.52800
C  20.25100 -6.61200 29.18300
C  19.99000 -6.71900 25.88800
O  19.77000 -6.59800 24.70400
C  20.80100 -7.83800 26.35900
N  16.61900 -2.12600 25.83000
C  17.21600 -2.94500 24.95400
C  16.96600 -2.48600 23.55500
C  15.82700 -1.47500 23.65200
C  15.86900 -1.19700 25.19300
C  18.22000 -2.03700 22.83400
C  14.43500 -1.97900 23.23500
C  14.20600 -1.96800 21.71100
N  15.63700 -0.62900 28.10800
C  14.98400 0.13700 27.20800
C  14.34400 1.31100 27.84200
C  14.58200 1.13000 29.20800
C  15.34600 -0.06300 29.30100
C  13.68000 2.43900 27.19500
C  14.37000 1.70600 30.53700
O  13.80600 2.73900 30.94000
C  15.18700 0.79300 31.47300
C  16.19400 1.63400 32.14000
O  17.16100 2.07900 31.64500
O  15.77500 1.86300 33.40400
C  16.49200 2.93200 34.08400
H  18.82300 -4.95600 30.94200
H  18.33300 -4.57000 24.42900
H  14.40200 0.33600 25.16800
H  17.50500 -0.85500 32.68300
H  17.70800 -3.79200 32.76700
H  19.63900 -2.93900 33.65000
H  19.52100 -1.47600 32.62600
H  20.20600 -2.86800 31.89100
H  15.70100 -3.08000 33.53800
H  14.90500 -1.61200 32.99400
H  15.37200 -1.90200 35.38100
H  15.49200 -0.37000 34.67000
H  19.58000 -7.44700 29.38800
H  20.60500 -6.23300 30.14200
H  21.20700 -7.01600 28.85200
H  20.27300 -8.25200 27.21900
H  21.76500 -7.45900 26.69900
H  20.92800 -8.49400 25.49800
H  16.61300 -3.36200 23.01000
H  16.13200 -0.53200 23.20000
H  18.31900 -1.06800 22.34600
H  18.59300 -2.67800 22.03500
H  19.01100 -2.08500 23.58300
H  13.68300 -1.41000 23.78200
H  14.39800 -3.04300 23.46800
H  13.81600 -0.99300 21.42000
H  13.47000 -2.72900 21.45300
H  15.17800 -2.11600 21.24100
H  12.65100 2.13900 26.99700
H  14.07400 2.76900 26.23400
H  13.69300 3.33500 27.81700
H  14.57700 0.24600 32.19100
H  16.94500 3.67900 33.43200
H  17.36200 2.49100 34.57100
H  15.82900 3.45800 34.77100
Mg 0.38200 42.71100 25.08600
C  2.71600 42.37900 27.91300
C  -2.06600 41.82800 27.20200
C  -1.70000 42.46000 22.38500
C  3.12300 43.31200 23.12700
N  0.40800 42.09100 27.31100
C  1.37800 42.16600 28.31800
C  0.78400 42.07900 29.66700
C  -0.70600 41.76400 29.32000
C  -0.82700 41.88100 27.85400
C  -1.11900 40.32600 29.84200
C  0.97700 43.36700 30.53300
C  1.33100 43.20200 32.02200
H  0.88300 42.02900 32.75600
N  -1.58600 42.12400 24.79200
C  -2.46600 41.79500 25.82500
C  -3.77100 41.49900 25.26500
C  -3.66600 41.67600 23.82500
C  -2.29800 42.12100 23.61300
C  -4.98400 41.15400 26.07300
C  -4.73000 41.62900 22.74000
O  -4.45000 41.90500 21.62100
C  -6.09000 41.21700 23.08100
N  0.65800 42.94900 23.11100
C  -0.37600 42.93900 22.24100
C  0.08100 43.42900 20.86700
C  1.56300 44.02400 21.20800
C  1.84300 43.36400 22.58100
C  -0.03000 42.50200 19.60200
C  1.64900 45.60600 21.34200
C  0.96100 46.59500 20.43600
N  2.52200 42.78700 25.32500
C  3.48600 42.90700 24.40000
C  4.77000 42.90900 24.92100
C  4.50000 42.68700 26.31200
C  3.11000 42.68400 26.53000
C  6.09700 43.10900 24.28200
C  5.11300 42.54700 27.58800
O  6.26500 42.38700 27.83600
C  3.98300 42.52100 28.71900
C  4.28600 41.30400 29.51800
O  4.03200 40.13400 29.17200
O  4.90500 41.72300 30.69900
C  5.06200 40.64300 31.64700
H  -2.89400 41.61000 27.88000
H  -2.29300 42.66200 21.49000
H  4.01900 43.54600 22.54800
H  1.33300 41.19900 30.00400
H  -1.49500 42.40100 29.72000
H  -0.48200 39.79600 30.54900
H  -1.11100 39.63100 29.00200
H  -2.14500 40.37400 30.20700
H  0.02300 43.85900 30.34300
H  1.73600 43.95600 30.01800
H  0.84100 44.04200 32.51400
H  2.40500 43.33300 32.15800
H  -4.68700 41.18400 27.12100
H  -5.31400 40.18400 25.70200
H  -5.84200 41.82300 26.02800
H  -6.63200 41.17000 22.13700
H  -6.60300 42.05400 23.55500
H  -6.30100 40.33200 23.68200
H  -0.62200 44.22500 20.62100
H  2.35800 43.65600 20.56000
H  -0.28500 41.50200 19.95400
H  0.84500 42.60500 18.95900
H  -0.87700 42.85000 19.01000
H  2.71800 45.80200 21.25500
H  1.29200 45.83000 22.34700
H  0.20600 47.11500 21.02500
H  0.51400 46.02000 19.62500
H  1.78700 47.23100 20.11700
H  6.35400 44.15700 24.43600
H  6.14300 42.82900 23.23000
H  6.78500 42.43000 24.78700
H  3.99400 43.41800 29.33900
H  5.28100 41.07700 32.62300
H  5.89200 39.97000 31.42900
H  4.16400 40.03000 31.71200

