158

Mg 53.76800 23.87300 44.26600
C  50.78800 25.52700 43.44000
C  52.34800 21.05100 43.01100
C  56.76300 22.46600 44.23400
C  55.16800 26.97800 45.17800
N  51.84300 23.50300 43.23800
C  50.73800 24.25800 42.98100
C  49.61300 23.48000 42.33900
C  50.01500 21.94500 42.72900
C  51.57800 22.16000 43.03900
C  49.21800 21.17200 43.87600
C  49.50600 23.83400 40.82000
C  48.05700 24.01700 40.22000
H  47.83800 23.23900 38.88000
N  54.47300 21.99000 43.64900
C  53.71800 20.95400 43.26500
C  54.57000 19.74300 43.04800
C  55.88400 20.10200 43.50800
C  55.80800 21.55500 43.77900
C  54.12700 18.39500 42.35500
C  57.10400 19.25800 43.50600
O  56.98500 18.07700 43.19400
C  58.43500 19.72200 44.13800
N  55.67300 24.68900 44.42000
C  56.80500 23.83600 44.37500
C  58.13900 24.70400 44.42800
C  57.56800 26.02000 45.07400
C  56.07600 25.92100 44.90400
C  59.33800 24.15900 45.19100
C  58.11200 27.42200 44.66800
C  59.10200 28.03000 45.66100
N  53.19800 25.87900 44.32200
C  53.82000 26.98100 44.85700
C  52.73600 27.92300 45.12900
C  51.58200 27.44700 44.53100
C  51.91400 26.21000 44.01400
C  53.02400 29.21300 45.79300
C  50.23000 27.73200 44.35000
O  49.62200 28.73900 44.67000
C  49.64300 26.52100 43.44300
C  49.21100 27.05000 42.12200
O  50.00800 27.43200 41.28700
O  47.86600 27.21000 42.04000
C  47.25700 27.84900 40.84700
H  51.82900 20.14700 42.68500
H  57.78000 22.07000 44.21400
H  55.53200 27.77300 45.83200
H  48.74800 23.89600 42.85500
H  49.91300 21.34100 41.82700
H  48.60000 21.89900 44.40300
H  49.93900 20.74100 44.57100
H  48.60300 20.34800 43.51400
H  49.97700 23.03000 40.25600
H  50.12600 24.70700 40.61400
H  47.85700 25.08500 40.12600
H  47.27000 23.72300 40.91600
H  54.20800 18.50400 41.27400
H  53.11600 18.29200 42.75000
H  54.63000 17.46900 42.63400
H  58.93500 20.35900 43.40800
H  59.00600 18.82700 44.38800
H  58.19600 20.20600 45.08400
H  58.40700 24.86000 43.38300
H  57.63100 26.01300 46.16200
H  59.60300 24.89500 45.95000
H  60.11800 23.92800 44.46600
H  59.12900 23.22700 45.71800
H  57.30000 28.06300 44.32400
H  58.56600 27.29600 43.68500
H  59.99300 28.27200 45.08200
H  59.27500 27.35900 46.50200
H  58.55200 28.90600 46.00500
H  54.07900 29.28800 46.05600
H  52.50800 29.24300 46.75300
H  52.81400 29.96300 45.03100
H  48.78200 26.13900 43.99100
H  46.23100 27.50400 40.97400
H  47.62800 27.39400 39.92800
H  47.27900 28.92300 41.02700
Mg -0.85000 43.25400 26.68500
C  1.70900 43.20900 29.08900
C  -3.16400 42.77100 29.22900
C  -3.21100 43.22900 24.34900
C  1.63100 43.54900 24.11400
N  -0.72000 42.98200 28.81900
C  0.43500 43.04100 29.62200
C  0.05100 42.95500 31.14000
C  -1.43200 42.52400 31.16600
C  -1.85600 42.81700 29.64000
C  -1.58800 41.02000 31.51100
C  0.34300 44.32800 31.84300
C  0.45100 44.29600 33.36900
H  0.26600 43.06700 34.19200
N  -2.97500 43.13400 26.79900
C  -3.69800 42.93100 27.92200
C  -5.09900 42.96300 27.51600
C  -5.15700 43.02400 26.08000
C  -3.73700 43.10300 25.68800
C  -6.34100 42.85000 28.43100
C  -6.32100 42.94900 25.10700
O  -6.28600 42.99500 23.88300
C  -7.71500 42.88700 25.73300
N  -0.75000 43.28500 24.56000
C  -1.89400 43.32100 23.85700
C  -1.63300 43.47300 22.35700
C  -0.06600 43.66000 22.21100
C  0.29200 43.56900 23.68300
C  -2.17100 42.22500 21.59800
C  0.47100 44.99900 21.50500
C  0.10400 46.29100 22.10100
N  1.22500 43.19900 26.58000
C  2.06600 43.33600 25.50100
C  3.44600 43.22800 26.00500
C  3.39500 43.19900 27.38700
C  2.00000 43.19600 27.69100
C  4.64700 43.30100 25.20500
C  4.12900 43.05000 28.65500
O  5.38500 42.86900 28.73800
C  3.08000 43.23600 29.82200
C  3.29600 42.09600 30.74600
O  3.26000 40.87600 30.53000
O  3.59700 42.60400 31.93900
C  3.92800 41.58200 32.98100
H  -3.90200 42.68700 30.03000
H  -3.99800 43.17200 23.59300
H  2.38100 43.69400 23.33500
H  0.68900 42.17900 31.56300
H  -2.01300 43.12800 31.86500
H  -0.81700 40.50000 30.94200
H  -2.57900 40.63200 31.27700
H  -1.31700 40.79400 32.54200
H  -0.44400 45.06800 31.70000
H  1.28300 44.72000 31.45400
H  -0.24900 45.00300 33.81200
H  1.44600 44.71700 33.51200
H  -7.08000 43.51400 27.98100
H  -6.26100 43.18900 29.46400
H  -6.54000 41.77900 28.42100
H  -8.37100 42.77400 24.87000
H  -8.05100 43.83900 26.14600
H  -7.84400 42.07700 26.45100
H  -2.18300 44.34200 21.99400
H  0.30700 42.79500 21.66400
H  -2.04900 41.32200 22.19600
H  -1.61500 41.98700 20.69100
H  -3.24100 42.34700 21.42900
H  -0.01900 44.97000 20.53200
H  1.53800 44.92600 21.29500
H  -0.38100 46.93100 21.36400
H  1.04700 46.76700 22.36900
H  -0.47100 46.23800 23.02600
H  4.61900 44.16200 24.53700
H  4.81900 42.39500 24.62300
H  5.52600 43.51300 25.81300
H  3.24900 44.13200 30.41900
H  3.99900 42.21500 33.86500
H  4.89100 41.08700 32.86200
H  3.09700 40.87700 33.00000

