158

Mg -2.21900 17.58000 25.71800
C  -2.83400 15.19400 28.23800
C  -2.91500 20.03800 27.85700
C  -2.02100 19.63100 23.09700
C  -2.08500 14.79500 23.51600
N  -2.81200 17.54300 27.75400
C  -2.98200 16.48900 28.66800
C  -3.53700 16.98400 29.99600
C  -3.43000 18.53600 29.79700
C  -3.09500 18.74100 28.37100
C  -4.68400 19.36500 30.30000
C  -2.68100 16.47700 31.23300
C  -2.50700 17.41100 32.45700
H  -2.51000 16.84200 33.82800
N  -2.36700 19.61700 25.48900
C  -2.54900 20.45000 26.56100
C  -2.38800 21.80400 26.12800
C  -2.23400 21.70900 24.69100
C  -2.16500 20.30900 24.35900
C  -2.53800 22.99100 26.96000
C  -2.03900 22.76200 23.63800
O  -1.77200 22.44400 22.46500
C  -2.13400 24.18100 24.04300
N  -1.97700 17.23400 23.64200
C  -2.03000 18.26600 22.77700
C  -2.00000 17.81800 21.31000
C  -1.95200 16.28000 21.48500
C  -1.98400 16.05800 22.94400
C  -3.21800 18.38100 20.38700
C  -0.67600 15.65000 20.82500
C  0.52500 15.30200 21.69100
N  -2.26900 15.43500 25.80900
C  -2.18000 14.46600 24.88600
C  -2.41000 13.15100 25.45200
C  -2.59600 13.40700 26.80900
C  -2.53900 14.83200 26.93400
C  -2.29300 11.82000 24.82400
C  -2.68100 12.76400 28.10700
O  -2.57000 11.55600 28.42600
C  -2.88600 13.89200 29.08000
C  -1.63300 13.68900 29.99800
O  -0.50200 14.00600 29.77400
O  -2.03100 12.83100 31.03000
C  -0.96600 12.35000 31.93400
H  -3.03900 20.78000 28.64900
H  -1.97200 20.24600 22.19600
H  -2.18800 13.97300 22.80400
H  -4.55400 16.60200 30.09200
H  -2.54700 19.02500 30.20800
H  -5.14900 19.77600 29.40400
H  -4.52200 20.22000 30.95600
H  -5.36900 18.75900 30.89200
H  -1.68500 16.32600 30.81800
H  -3.15300 15.53000 31.49500
H  -3.37100 18.07500 32.47400
H  -1.56500 17.94900 32.34500
H  -3.46000 23.54300 26.77500
H  -1.65600 23.60500 26.77800
H  -2.47600 22.65600 27.99500
H  -2.05300 24.75500 23.12000
H  -1.24100 24.40400 24.62600
H  -3.07500 24.11100 24.58900
H  -0.96800 18.13500 21.16300
H  -2.78000 15.70100 21.07400
H  -3.86200 19.10300 20.88800
H  -3.65600 17.44800 20.03400
H  -2.77800 18.91500 19.54500
H  -0.22800 16.34400 20.11400
H  -0.98000 14.77700 20.24700
H  0.96500 14.38300 21.30200
H  0.37200 15.25200 22.76900
H  1.33700 16.02800 21.64200
H  -1.26400 11.49800 24.98500
H  -2.53500 11.80400 23.76200
H  -2.97900 11.18900 25.38900
H  -3.83500 13.80600 29.60900
H  -0.61400 11.33200 31.76900
H  -1.29900 12.28000 32.97000
H  -0.07900 12.95900 32.10600
Mg 44.11200 3.86800 47.55500
C  42.19900 6.70400 46.96400
C  41.50800 1.90400 47.23100
C  46.32200 1.19000 47.50600
C  46.98200 6.00400 47.34700
N  42.09800 4.31500 47.00100
C  41.47500 5.50500 46.87000
C  40.02300 5.30300 46.65300
C  39.88800 3.82800 47.14300
C  41.28100 3.29000 47.03400
C  39.18100 3.64200 48.52300
C  39.51600 5.69100 45.18600
C  38.43000 6.78700 44.94400
H  37.85200 6.77000 43.52200
N  43.93600 1.79500 47.49100
C  42.73000 1.15500 47.43600
C  42.92800 -0.28000 47.46100
C  44.34100 -0.46200 47.51600
C  44.95700 0.88400 47.46100
C  41.79900 -1.32700 47.17900
C  44.99300 -1.86300 47.55000
O  44.33200 -2.88000 47.35300
C  46.52900 -2.04400 47.53100
N  46.30400 3.69900 47.25900
C  46.88700 2.47500 47.51300
C  48.39200 2.67200 47.83300
C  48.61900 4.19200 47.41800
C  47.23500 4.66400 47.23500
C  48.79400 2.32500 49.24100
C  49.41600 4.54200 46.16200
C  50.92500 4.43500 46.19900
N  44.59300 5.95000 47.23600
C  45.71700 6.68800 47.24100
C  45.42700 8.09300 47.24900
C  44.01800 8.14900 47.18200
C  43.56000 6.77600 47.14500
C  46.40300 9.18300 47.34100
C  42.88500 8.97200 47.23800
O  42.87100 10.16600 47.60600
C  41.62900 8.09100 47.02400
C  40.68600 8.37900 48.20100
O  40.84500 7.95400 49.28600
O  39.59700 9.07800 47.76400
C  38.67400 9.44600 48.82900
H  40.57400 1.35900 47.38300
H  47.00900 0.36900 47.72200
H  47.76800 6.75400 47.46200
H  39.42500 5.99500 47.24700
H  39.19600 3.36400 46.44100
H  38.40200 2.89100 48.38700
H  38.67800 4.54100 48.87900
H  39.91900 3.36500 49.27600
H  39.03100 4.80500 44.77600
H  40.38700 5.81000 44.54100
H  38.80000 7.77600 45.21400
H  37.54900 6.70300 45.58000
H  41.73500 -1.42300 46.09600
H  40.85800 -0.97400 47.60200
H  41.96900 -2.32600 47.58000
H  46.92800 -1.87900 48.53200
H  46.90600 -1.37000 46.76200
H  46.79700 -3.08000 47.32600
H  48.94800 2.01600 47.16300
H  48.96600 4.80400 48.25000
H  48.17700 1.47500 49.53600
H  48.61100 3.19900 49.86600
H  49.80100 1.90800 49.25300
H  49.04600 5.47700 45.74200
H  49.02800 3.87800 45.39000
H  51.45800 4.25900 47.13300
H  51.33900 5.36400 45.80600
H  51.35900 3.68900 45.53300
H  46.06000 9.95600 46.65400
H  47.39200 8.85500 47.02000
H  46.45100 9.50500 48.38200
H  40.98700 8.39500 46.19800
H  39.24100 9.79200 49.69300
H  37.93200 8.70800 49.13300
H  38.12000 10.31600 48.47600

