158

Mg 53.38600 23.38000 44.91500
C  50.70800 25.65200 43.74500
C  51.35900 20.83800 43.77400
C  56.06900 21.53300 44.81500
C  55.18500 26.28700 45.57200
N  51.22000 23.36600 43.84900
C  50.34100 24.32900 43.46900
C  49.13300 23.69900 42.84000
C  49.18800 22.23200 43.38900
C  50.68600 22.10400 43.68500
C  48.24400 22.05500 44.57500
C  49.17900 23.93900 41.32400
C  47.88200 24.46900 40.55200
H  47.56700 23.65800 39.22000
N  53.63000 21.38300 44.48500
C  52.74000 20.54900 43.92600
C  53.37800 19.25000 43.77900
C  54.70200 19.41600 44.11000
C  54.83700 20.82900 44.46300
C  52.66200 17.95900 43.49600
C  55.70900 18.31400 44.08100
O  55.40100 17.35200 43.42700
C  57.12000 18.49800 44.74400
N  55.38400 23.86500 44.95800
C  56.25600 22.84800 45.16600
C  57.60500 23.44100 45.69500
C  57.27400 24.94900 45.97300
C  55.85200 25.05900 45.54300
C  58.33000 22.62200 46.79500
C  58.17500 26.02700 45.22300
C  58.53600 27.36400 45.90500
N  52.98500 25.52600 44.86600
C  53.83000 26.53300 45.29300
C  53.12100 27.79600 45.31000
C  51.89100 27.49400 44.73700
C  51.86700 26.09300 44.44600
C  53.78300 29.16600 45.51700
C  50.58200 28.04800 44.40000
O  50.14300 29.21100 44.51300
C  49.80700 26.94200 43.62400
C  49.51700 27.38500 42.23700
O  50.29800 27.48500 41.31000
O  48.09800 27.56000 42.07700
C  47.58200 28.18100 40.87200
H  50.60000 20.08400 43.55600
H  57.03200 21.01900 44.81400
H  55.76100 27.17600 45.84100
H  48.33300 24.28500 43.29100
H  48.97800 21.51200 42.59800
H  48.07000 22.98400 45.11800
H  48.75200 21.47600 45.34700
H  47.30100 21.55100 44.36500
H  49.38600 22.94900 40.91800
H  50.04100 24.53400 41.02300
H  47.98500 25.49500 40.20100
H  47.00100 24.36000 41.18500
H  51.59400 18.01200 43.70900
H  53.04100 17.07000 43.99900
H  52.74500 17.83300 42.41600
H  56.84900 19.00900 45.66800
H  57.78400 18.99100 44.03400
H  57.49700 17.47800 44.81600
H  58.40100 23.29600 44.96500
H  57.28200 25.16900 47.04000
H  58.72000 23.30100 47.55300
H  59.10500 21.95200 46.42400
H  57.70800 21.87500 47.28800
H  57.63600 26.38300 44.34500
H  59.10400 25.47900 45.06600
H  59.60200 27.33200 46.13100
H  58.04600 27.52400 46.86500
H  58.42300 28.21800 45.23700
H  53.40400 29.55900 46.46100
H  53.48500 29.86600 44.73600
H  54.85800 28.98400 45.51200
H  48.81600 26.81500 44.06100
H  47.70800 29.26200 40.92200
H  46.53600 27.89000 40.96500
H  48.00500 27.76400 39.95800
Mg 46.44200 24.58000 28.43300
C  47.11700 26.71600 31.21200
C  45.34700 22.20400 30.61900
C  46.28600 22.43600 25.79300
C  47.88900 27.03600 26.38400
N  46.45000 24.46200 30.71800
C  46.59500 25.45600 31.62000
C  46.23900 25.06600 33.05400
C  45.59300 23.65200 32.76600
C  45.86500 23.33800 31.28900
C  46.10800 22.61900 33.83200
C  45.31700 26.13700 33.72600
C  45.77800 26.62900 35.09500
H  44.72800 26.87500 36.19600
N  45.69400 22.66500 28.24000
C  45.27500 21.86200 29.30700
C  44.89100 20.61500 28.77500
C  45.19800 20.56000 27.35700
C  45.74200 21.94600 27.01500
C  44.22400 19.52700 29.49300
C  44.88800 19.43400 26.35600
O  45.11300 19.54200 25.16600
C  44.28600 18.15600 26.74700
N  46.79400 24.79300 26.35800
C  46.75500 23.74300 25.50400
C  47.44700 24.17200 24.14500
C  47.80800 25.63700 24.29600
C  47.43000 25.88700 25.75200
C  48.64300 23.31700 23.63500
C  47.17400 26.57700 23.22400
C  47.55300 26.28700 21.77900
N  47.32800 26.47700 28.63300
C  47.84600 27.33900 27.71000
C  48.29300 28.52400 28.37200
C  47.94700 28.38200 29.71200
C  47.44900 27.09300 29.88900
C  48.96100 29.66300 27.68000
C  48.00100 29.00100 30.97900
O  48.27300 30.14000 31.21800
C  47.55300 27.90800 31.96400
C  48.72900 27.58800 32.89200
O  49.58900 26.76500 32.68400
O  48.61500 28.37200 33.96800
C  49.56900 28.08400 35.00900
H  44.84600 21.55000 31.33500
H  46.46800 21.64400 25.06300
H  48.26900 27.73200 25.63400
H  47.16800 24.90700 33.60200
H  44.50500 23.59700 32.82000
H  46.66700 21.91300 33.21800
H  45.35300 22.01700 34.33700
H  46.80100 22.98900 34.58700
H  44.30800 25.74400 33.85500
H  45.04000 26.94300 33.04600
H  46.27800 27.59400 35.00300
H  46.52100 25.92800 35.47500
H  44.54500 18.55600 29.11800
H  43.17300 19.70500 29.26700
H  44.41700 19.66700 30.55700
H  43.92100 17.59900 25.88400
H  43.45300 18.36600 27.41700
H  45.07200 17.62200 27.28100
H  46.68100 23.95100 23.40200
H  48.86000 25.89900 24.18300
H  49.60200 23.81900 23.50300
H  48.35500 22.97900 22.64000
H  48.78300 22.42500 24.24600
H  47.50000 27.59200 23.45400
H  46.08600 26.58200 23.28400
H  46.72900 25.80700 21.25000
H  48.41700 25.62600 21.71300
H  47.74500 27.23000 21.26700
H  48.76200 30.68000 28.02000
H  48.78600 29.50700 26.61600
H  50.04200 29.58000 27.79400
H  46.74600 28.24100 32.61600
H  49.17300 27.36600 35.72800
H  49.83000 28.99600 35.54500
H  50.51100 27.68400 34.63100

