158

Mg 46.69600 15.82800 28.42800
C  44.93100 15.23700 31.40400
C  49.01500 17.67500 30.23700
C  48.19500 16.94600 25.51000
C  44.07400 14.48000 26.52800
N  46.88100 16.39300 30.56300
C  46.09200 16.02400 31.60500
C  46.61300 16.55400 32.95100
C  47.77800 17.44900 32.53500
C  47.91900 17.13700 31.02100
C  47.59200 19.00900 32.90000
C  46.98200 15.47600 33.99800
C  46.24100 15.44000 35.32700
H  45.98600 16.75300 35.99500
N  48.39400 17.06400 27.96000
C  49.26600 17.61200 28.88100
C  50.36000 18.26200 28.22500
C  50.14600 18.13800 26.80800
C  48.90200 17.33200 26.69000
C  51.55600 18.71400 29.03500
C  50.98200 18.69300 25.70900
O  50.73800 18.40200 24.52100
C  52.15600 19.54800 25.98700
N  46.22700 15.63800 26.30600
C  46.94400 16.24500 25.30700
C  46.36100 15.90800 23.88600
C  45.18100 14.93500 24.29100
C  45.12900 15.03000 25.79500
C  45.88600 17.20800 23.15400
C  45.21300 13.44800 23.84100
C  46.53900 12.81500 24.12500
N  44.89200 14.91600 28.86000
C  43.91300 14.39200 27.99300
C  42.83200 13.84700 28.77000
C  43.24700 14.10100 30.12900
C  44.46700 14.80000 30.17400
C  41.54200 13.15900 28.31800
C  42.78800 13.93900 31.43900
O  41.72200 13.51700 31.86800
C  43.86400 14.57800 32.33800
C  43.16300 15.56800 33.22700
O  43.05400 16.80100 32.99900
O  42.69400 14.95200 34.35400
C  42.08900 15.85200 35.29900
H  49.67400 18.18900 30.94100
H  48.50100 17.31900 24.53000
H  43.26400 13.94400 26.02800
H  45.88700 17.28200 33.31300
H  48.73800 17.25600 33.01400
H  46.57900 19.26700 33.20900
H  47.73800 19.66300 32.04100
H  48.29300 19.33700 33.66700
H  48.04400 15.50200 34.24300
H  46.83000 14.52200 33.49400
H  46.86500 14.88200 36.02600
H  45.24800 14.99200 35.35200
H  51.71700 19.79200 29.02300
H  52.33300 18.14200 28.52700
H  51.53200 18.37900 30.07100
H  53.00300 18.88300 26.15600
H  51.79600 20.05800 26.88000
H  52.45900 20.23400 25.19600
H  47.13600 15.43300 23.28500
H  44.24500 15.22200 23.81100
H  46.61600 17.56100 22.42600
H  45.71000 18.02900 23.84900
H  45.11600 16.98800 22.41400
H  44.92400 13.35600 22.79400
H  44.42500 12.87800 24.33200
H  47.29900 13.54900 24.39400
H  46.74900 12.31200 23.18100
H  46.46700 12.06300 24.91000
H  41.29100 13.48600 27.30900
H  40.72900 13.49900 28.96000
H  41.64100 12.07300 28.32000
H  44.41900 13.81400 32.88200
H  42.00100 15.43800 36.30400
H  41.12300 16.24600 34.98500
H  42.72600 16.69200 35.57700
Mg 0.90900 43.59300 26.00700
C  2.99100 43.94900 28.87100
C  -1.55600 42.72000 28.21200
C  -0.94000 42.96500 23.31800
C  3.73500 44.24700 24.02000
N  0.81400 43.28700 28.27200
C  1.66700 43.69900 29.21900
C  1.03200 43.78800 30.68100
C  -0.39400 43.21000 30.46200
C  -0.37000 43.05200 28.88000
C  -0.85700 41.96800 31.24400
C  1.00400 45.26900 31.34700
C  0.97000 45.33500 32.83500
H  0.71600 43.96000 33.52800
N  -0.99200 42.93500 25.77000
C  -1.86900 42.68300 26.74900
C  -3.14100 42.48000 26.22200
C  -2.94700 42.46400 24.80200
C  -1.59900 42.75800 24.55800
C  -4.37200 42.20900 27.00300
C  -4.02000 41.93800 23.83300
O  -3.73400 41.85900 22.59700
C  -5.42400 41.65100 24.18800
N  1.46700 43.36900 24.03700
C  0.40600 43.10900 23.15100
C  0.96900 43.19200 21.69900
C  2.36100 43.89100 21.94000
C  2.54700 43.82200 23.40300
C  1.15800 41.86900 21.04700
C  2.56900 45.31700 21.32900
C  2.51600 46.60200 22.21400
N  2.94500 44.14400 26.33000
C  3.96500 44.31100 25.39100
C  5.27400 44.45800 26.09300
C  4.93200 44.29000 27.43800
C  3.50700 44.13900 27.57400
C  6.58700 44.65300 25.34600
C  5.37900 44.09800 28.78100
O  6.53500 44.13800 29.12700
C  4.22300 43.98400 29.77200
C  4.31300 42.76800 30.52900
O  4.17600 41.64000 30.12500
O  4.58700 43.05800 31.82100
C  4.60600 42.04800 32.85200
H  -2.41100 42.56400 28.87400
H  -1.54100 42.98700 22.40600
H  4.52900 44.44400 23.29600
H  1.64800 43.15900 31.32300
H  -1.02900 44.03700 30.78000
H  -1.68000 42.36100 31.84100
H  -0.07000 41.53500 31.86300
H  -1.20700 41.08300 30.71400
H  0.19500 45.77700 30.82100
H  1.85200 45.80500 30.92100
H  0.20300 46.04600 33.14400
H  1.95800 45.72300 33.08200
H  -5.23900 42.84100 26.81000
H  -4.08500 42.51200 28.01000
H  -4.57900 41.14100 26.92900
H  -5.44700 40.81700 24.89000
H  -5.85100 41.34600 23.23300
H  -5.90200 42.57800 24.50300
H  0.33800 43.80200 21.05200
H  3.16400 43.28700 21.51800
H  2.05500 41.55100 20.51600
H  0.32500 41.76300 20.35200
H  0.84000 41.01000 21.63900
H  1.74600 45.53400 20.64800
H  3.49700 45.28500 20.75800
H  1.96900 46.43700 23.14200
H  1.91900 47.43300 21.83800
H  3.52500 46.94600 22.44400
H  7.41700 44.20100 25.88900
H  6.77900 45.69900 25.10600
H  6.62700 44.16400 24.37300
H  4.24000 44.92600 30.32100
H  4.58300 42.48200 33.85200
H  5.50900 41.43900 32.85200
H  3.73000 41.43800 32.63200

