158

Mg 48.28900 16.42800 28.28400
C  46.13700 16.22200 31.10200
C  50.46300 18.11800 30.45500
C  50.14900 17.29700 25.69400
C  45.78200 15.11200 26.44900
N  48.28500 17.10900 30.53300
C  47.37400 16.77800 31.46900
C  47.82200 17.12200 32.93900
C  49.14000 17.94000 32.67400
C  49.34400 17.67400 31.13200
C  48.84900 19.44100 33.06100
C  48.03900 15.86500 33.79600
C  47.29100 15.71300 35.07500
H  47.13600 16.98400 35.91400
N  50.06000 17.56400 28.09500
C  50.79100 18.05600 29.13100
C  52.06800 18.66400 28.59500
C  51.99900 18.36600 27.21400
C  50.69400 17.80000 26.93100
C  53.12500 19.24100 29.51400
C  53.07600 18.70000 26.13200
O  52.90100 18.43400 24.96000
C  54.45300 19.16300 26.49500
N  47.91700 16.37100 26.33000
C  48.87100 16.64200 25.45600
C  48.48900 16.16100 24.01900
C  47.06900 15.46500 24.23300
C  46.88300 15.63300 25.76800
C  48.51500 17.34200 22.99500
C  46.95100 13.95700 23.75700
C  45.60300 13.40200 23.23100
N  46.47300 15.55400 28.65300
C  45.50700 15.06900 27.79200
C  44.30200 14.73100 28.45700
C  44.51300 15.26500 29.70300
C  45.86100 15.68800 29.82100
C  43.02000 14.19500 27.77900
C  43.82200 15.46600 30.96500
O  42.64700 15.35400 31.35500
C  44.97400 15.97500 31.96300
C  44.45000 17.06800 32.73400
O  44.09800 18.15800 32.33600
O  44.25400 16.58900 34.01900
C  43.48300 17.42800 34.84300
H  51.14200 18.50100 31.22000
H  50.77900 17.32700 24.80200
H  44.93900 14.81100 25.82400
H  47.04800 17.69900 33.44400
H  49.93700 17.64800 33.35700
H  49.32900 19.74200 33.99200
H  47.77600 19.58500 33.19300
H  49.15500 20.04500 32.20600
H  49.10100 15.66600 33.94200
H  47.61900 15.02800 33.23900
H  47.84300 14.92400 35.58500
H  46.28400 15.30200 35.00800
H  52.83000 19.46100 30.54000
H  53.48500 20.19500 29.12900
H  53.99500 18.58500 29.54500
H  54.88600 18.87500 27.45300
H  54.37200 20.25000 26.48500
H  55.08100 18.83500 25.66700
H  49.22900 15.49800 23.56900
H  46.29100 16.13500 23.86700
H  49.38200 17.27100 22.33800
H  48.83100 18.23200 23.53900
H  47.62900 17.45400 22.37000
H  47.14500 13.29000 24.59700
H  47.77900 13.76000 23.07600
H  44.98600 14.21800 22.85700
H  45.08800 12.89800 24.04800
H  45.63600 12.54800 22.55400
H  42.87800 13.13100 27.96700
H  42.99100 14.36100 26.70200
H  42.17500 14.60600 28.33200
H  45.09500 15.05100 32.52800
H  42.44700 17.24000 34.56000
H  43.63000 18.50700 34.87800
H  43.58200 17.04200 35.85700
Mg 29.28300 57.77600 39.87700
C  26.52300 55.91300 38.91700
C  31.34800 55.52800 38.36400
C  31.86900 60.03100 39.94800
C  27.12700 60.29100 40.80200
N  28.94600 55.96400 38.55100
C  27.71900 55.30700 38.50200
C  27.88600 53.88100 37.89300
C  29.47000 53.65900 38.05200
C  29.96600 55.15200 38.34900
C  29.83000 52.78000 39.22900
C  27.26000 53.67400 36.50100
C  26.75800 54.92500 35.65500
H  26.87700 54.72500 34.11200
N  31.42800 57.69800 39.34400
C  32.03100 56.64600 38.72100
C  33.36300 56.92900 38.48800
C  33.59900 58.26600 38.95200
C  32.26600 58.80200 39.43900
C  34.31600 55.94200 37.93200
C  34.91400 59.09400 38.85300
O  35.95800 58.59700 38.42300
C  35.21800 60.51400 39.17000
N  29.55000 59.81700 40.38000
C  30.68400 60.52300 40.42400
C  30.57700 61.90700 40.99000
C  29.02500 61.91200 41.44000
C  28.52800 60.56800 40.89800
C  31.45700 62.31200 42.20800
C  28.29200 63.23700 41.05700
C  27.39100 63.96200 42.14800
N  27.24800 58.11700 39.81800
C  26.54400 59.12600 40.31200
C  25.11400 58.78000 40.32800
C  25.07200 57.51500 39.82400
C  26.40100 57.15400 39.43700
C  23.89900 59.52700 40.87200
C  24.19200 56.42000 39.31700
O  22.97000 56.38200 39.27900
C  25.09600 55.27700 38.86200
C  24.88700 54.09700 39.61100
O  25.47400 53.68800 40.63500
O  23.92200 53.33700 38.91200
C  23.33900 52.18400 39.53800
H  32.02700 54.69000 38.19500
H  32.66000 60.78000 39.87400
H  26.44500 61.10700 41.05000
H  27.35700 53.19700 38.55700
H  29.97700 53.30900 37.15300
H  28.91400 52.30600 39.58400
H  30.19700 53.42200 40.02900
H  30.54500 52.07200 38.80900
H  26.38600 53.03300 36.61600
H  27.88300 53.05700 35.85300
H  27.34200 55.78200 35.99100
H  25.68700 55.03300 35.82500
H  33.98600 54.93500 38.18900
H  35.26400 56.07600 38.45300
H  34.44900 55.91200 36.85000
H  36.29600 60.66200 39.24200
H  34.80300 60.64400 40.17000
H  34.86200 61.24800 38.44800
H  30.80300 62.58100 40.16400
H  29.08400 61.83000 42.52500
H  32.03000 61.49400 42.64600
H  30.88400 62.87200 42.94700
H  32.19900 63.07300 41.96600
H  27.64400 63.06000 40.19900
H  29.18600 63.83300 40.87300
H  27.28200 63.27700 42.98800
H  26.39800 64.17000 41.74700
H  27.86300 64.84800 42.57300
H  23.95100 59.73100 41.94200
H  23.01900 58.93800 40.61200
H  23.82900 60.50500 40.39700
H  24.79000 55.00600 37.85100
H  22.32600 51.99900 39.17900
H  23.22000 52.49500 40.57600
H  23.89700 51.25900 39.39500

