158

Mg 36.03800 0.95300 30.33700
C  33.96500 2.35500 32.83800
C  38.56700 1.14000 32.66300
C  38.15900 0.16500 27.92100
C  33.45500 1.51400 28.01900
N  36.18500 1.45200 32.54500
C  35.24400 2.05500 33.33000
C  35.70500 2.27600 34.76900
C  37.22800 2.05300 34.58900
C  37.29400 1.41700 33.21100
C  38.07600 3.34200 34.81000
C  34.98000 1.21000 35.60600
C  34.57600 1.62900 37.04700
H  35.33000 2.84000 37.63100
N  38.15800 0.61600 30.27200
C  39.03500 0.73900 31.34700
C  40.31400 0.34400 30.98200
C  40.17900 0.01900 29.59400
C  38.79500 0.25200 29.19800
C  41.50700 0.24800 31.92700
C  41.25300 -0.53100 28.65000
O  41.01100 -0.81100 27.47700
C  42.69300 -0.75000 29.10300
N  35.73500 0.73000 28.25400
C  36.80900 0.39700 27.44800
C  36.40800 0.33000 26.01700
C  34.88500 0.63900 26.03100
C  34.60000 0.89500 27.53900
C  37.20000 1.35700 25.18600
C  33.85200 -0.41800 25.37300
C  32.94800 -0.01200 24.20200
N  34.10900 1.74200 30.33100
C  33.19800 1.92300 29.28100
C  31.98100 2.47900 29.87100
C  32.25000 2.70700 31.23400
C  33.56400 2.26800 31.45400
C  30.68100 2.84000 29.08200
C  31.71200 3.17300 32.46200
O  30.63200 3.67500 32.56600
C  32.78200 3.02200 33.55500
C  33.11500 4.38800 34.14700
O  33.99000 5.12100 33.79600
O  32.42300 4.56900 35.29900
C  32.74400 5.58800 36.20900
H  39.34400 1.36600 33.39500
H  38.82300 0.02400 27.06500
H  32.72100 1.86700 27.29200
H  35.35700 3.29300 34.94900
H  37.70300 1.38300 35.30600
H  38.84000 3.21900 35.57800
H  37.41800 4.18600 35.01800
H  38.66100 3.60000 33.92800
H  35.74200 0.43700 35.70400
H  34.15400 0.73900 35.07500
H  34.74300 0.72400 37.63100
H  33.51700 1.89000 37.05800
H  42.27300 -0.46400 31.62000
H  41.10600 -0.19100 32.84100
H  42.00900 1.19800 32.10700
H  43.33100 -1.09800 28.29100
H  42.59600 -1.51500 29.87400
H  43.11000 0.21600 29.38900
H  36.64100 -0.66100 25.62800
H  34.72800 1.55700 25.46600
H  37.85600 1.97000 25.80500
H  36.56200 2.03500 24.62000
H  37.89300 0.85600 24.51000
H  33.17400 -0.75600 26.15700
H  34.46300 -1.24600 25.01600
H  33.10600 1.04900 24.01300
H  31.90100 -0.30200 24.29200
H  33.30100 -0.56900 23.33300
H  30.84400 2.84100 28.00400
H  30.24400 3.81600 29.29200
H  29.92700 2.11200 29.38300
H  32.27000 2.50800 34.36900
H  33.74400 6.00200 36.07500
H  32.62500 5.02100 37.13300
H  32.01700 6.39500 36.12100
Mg -5.91300 25.41700 26.32900
C  -3.93000 26.91600 29.00500
C  -7.04900 23.20600 28.60200
C  -7.25000 23.93300 23.64000
C  -4.03900 27.62900 24.12900
N  -5.45500 25.07900 28.57400
C  -4.67400 25.80600 29.43300
C  -5.12900 25.49800 30.88300
C  -5.85800 24.17800 30.70400
C  -6.18600 24.06800 29.20100
C  -4.95000 22.95400 31.14400
C  -6.04800 26.61000 31.55200
C  -5.93900 26.89400 33.04100
H  -5.57700 25.83800 34.02400
N  -7.08500 23.89600 26.11900
C  -7.52900 23.09900 27.20400
C  -8.47000 22.17000 26.61600
C  -8.43700 22.30600 25.13600
C  -7.56000 23.45400 24.87700
C  -9.43800 21.36700 27.56000
C  -9.15800 21.54800 24.12200
O  -9.04500 21.79700 22.91100
C  -10.04900 20.40400 24.54500
N  -5.57200 25.73500 24.19700
C  -6.25500 24.92300 23.33500
C  -5.98400 25.28000 21.90200
C  -5.09800 26.61600 22.02600
C  -4.86000 26.68200 23.54300
C  -5.44900 24.16600 21.01300
C  -5.68300 27.94300 21.43000
C  -5.80500 28.07400 19.88500
N  -4.32900 26.92500 26.45400
C  -3.75000 27.76300 25.51700
C  -2.81700 28.67300 26.09700
C  -2.87400 28.31200 27.41500
C  -3.80300 27.28700 27.65100
C  -1.92700 29.71100 25.47400
C  -2.29000 28.73600 28.63600
O  -1.41900 29.57400 28.85100
C  -3.09300 27.85900 29.78200
C  -2.09000 27.05900 30.58600
O  -1.23200 26.30300 30.14500
O  -2.30300 27.26200 31.90700
C  -1.39200 26.57400 32.88300
H  -7.50600 22.56100 29.35600
H  -7.65700 23.54000 22.70600
H  -3.52000 28.25500 23.40100
H  -4.31500 25.20300 31.54500
H  -6.81500 24.07500 31.21600
H  -5.56200 22.05500 31.22200
H  -4.42500 23.29400 32.03700
H  -4.06200 22.77700 30.53600
H  -7.05400 26.22400 31.39000
H  -5.92100 27.56700 31.04600
H  -6.94400 27.23600 33.28800
H  -5.17900 27.66000 33.19400
H  -8.98600 20.41600 27.84100
H  -10.45900 21.28700 27.18700
H  -9.40300 21.97700 28.46300
H  -9.35200 19.75700 25.07900
H  -10.43700 19.86600 23.68000
H  -10.91200 20.79500 25.08400
H  -6.92000 25.63800 21.47300
H  -4.18200 26.48500 21.44900
H  -6.08600 24.14200 20.12900
H  -5.51000 23.21000 21.53400
H  -4.41600 24.33000 20.70800
H  -5.06400 28.70900 21.89700
H  -6.69900 27.99400 21.82100
H  -6.70900 28.64100 19.66400
H  -5.70000 27.08300 19.44400
H  -4.89800 28.60000 19.58600
H  -0.92600 29.28200 25.52900
H  -1.94800 30.62400 26.06900
H  -2.16700 29.89800 24.42800
H  -3.70100 28.41300 30.49800
H  -1.71800 26.57700 33.92300
H  -0.41500 27.05900 32.88400
H  -1.17300 25.62500 32.39400

