158

Mg 40.97200 7.99500 29.35600
C  42.68500 9.41900 32.12700
C  38.51600 6.87200 31.60100
C  39.60500 6.25300 26.83000
C  43.77300 8.72400 27.33600
N  40.63000 8.23300 31.61400
C  41.46800 8.77300 32.49500
C  40.94500 8.70800 33.97000
C  39.71200 7.70100 33.72400
C  39.60900 7.55200 32.25000
C  39.81400 6.35200 34.56600
C  40.60700 10.11300 34.54300
C  39.62100 10.17400 35.72400
H  40.18700 10.91800 36.90000
N  39.28100 6.68600 29.26100
C  38.41200 6.42100 30.27200
C  37.37200 5.64000 29.75500
C  37.63300 5.49100 28.39700
C  38.94500 6.11200 28.08600
C  36.26800 5.24400 30.57700
C  36.84000 4.83700 27.35600
O  37.21800 4.71900 26.19100
C  35.44900 4.30200 27.72800
N  41.67800 7.49800 27.37600
C  40.84900 6.77000 26.52800
C  41.50900 6.58600 25.16400
C  42.81600 7.49000 25.31500
C  42.75800 7.92600 26.77100
C  41.77800 5.08600 24.71300
C  42.80100 8.61600 24.30900
C  42.01000 9.84800 24.83200
N  42.79800 8.87800 29.60600
C  43.82500 9.12100 28.70300
C  44.81600 9.99000 29.33700
C  44.48800 10.04800 30.70500
C  43.20900 9.43800 30.78500
C  46.07200 10.53600 28.76300
C  44.94100 10.51100 32.04600
O  45.89900 11.14200 32.48500
C  43.74100 10.15900 32.98000
C  44.21100 9.29000 34.17500
O  44.72600 8.15900 34.10100
O  44.11100 10.00600 35.32000
C  44.49400 9.22300 36.41500
H  37.68800 6.61800 32.26600
H  39.26600 5.77100 25.91100
H  44.60900 9.00900 26.69500
H  41.70800 8.23400 34.58700
H  38.80300 8.22100 34.02800
H  40.39000 5.60300 34.02100
H  38.76500 6.06200 34.50800
H  40.11000 6.40000 35.61400
H  40.24500 10.60800 33.64300
H  41.51900 10.59000 34.90200
H  39.45400 9.13900 36.02400
H  38.71800 10.70000 35.41500
H  36.37500 4.18800 30.82700
H  35.32400 5.40100 30.05600
H  35.95600 5.86300 31.41900
H  35.47300 3.65700 28.60700
H  35.04000 3.68600 26.92800
H  34.69600 5.08700 27.78700
H  40.71600 6.82500 24.45400
H  43.73800 6.92000 25.20200
H  42.71400 4.70900 25.12500
H  41.89100 5.12100 23.63000
H  40.98600 4.38300 24.97000
H  42.27500 8.29000 23.41200
H  43.86200 8.81200 24.15000
H  41.46500 9.66900 25.75800
H  41.26600 10.18400 24.11100
H  42.73400 10.66300 24.84000
H  46.38000 11.48600 29.20000
H  45.82900 10.64800 27.70600
H  46.88800 9.82400 28.88300
H  43.44700 11.11800 33.40700
H  45.55900 9.00400 36.33500
H  43.75300 8.43000 36.51400
H  44.43900 9.70600 37.39000
Mg 26.09900 49.37800 25.93400
C  24.13400 51.01200 28.36200
C  28.57900 48.95000 28.20500
C  28.12700 48.48100 23.43300
C  23.69800 50.51700 23.45600
N  26.27700 49.79000 28.05700
C  25.28100 50.36800 28.80300
C  25.61400 50.16800 30.25800
C  27.19200 49.79200 30.15500
C  27.44400 49.56100 28.72100
C  28.22000 50.77500 30.78100
C  24.67200 49.19000 31.10100
C  24.11000 49.76800 32.40100
H  25.13800 50.11800 33.46800
N  28.02800 48.62000 25.84200
C  28.92900 48.56500 26.85000
C  30.14200 47.99400 26.41800
C  30.05400 47.95500 24.99100
C  28.68700 48.38300 24.65800
C  31.31100 47.74100 27.38000
C  31.22400 47.69000 23.95300
O  30.98200 47.78900 22.75400
C  32.57900 47.45300 24.38500
N  25.89900 49.54100 23.78700
C  26.84900 48.90900 22.98800
C  26.40000 48.92700 21.46800
C  24.90500 49.42900 21.58700
C  24.78000 49.82000 23.02200
C  27.33800 49.81600 20.58400
C  23.87500 48.23100 21.33300
C  23.93200 46.95100 22.24600
N  24.31100 50.55700 25.89100
C  23.41800 50.85100 24.85400
C  22.33600 51.61900 25.44400
C  22.52600 51.66400 26.79500
C  23.76800 51.10400 27.03200
C  21.19300 52.12800 24.68600
C  21.96900 52.08800 28.03800
O  20.93500 52.68500 28.19600
C  22.90400 51.51800 29.12700
C  23.28300 52.61700 30.07900
O  24.35000 53.19100 30.13800
O  22.42500 52.60800 31.13600
C  22.80500 53.52900 32.22300
H  29.37200 48.74800 28.92800
H  28.74900 48.11900 22.61100
H  23.08900 50.92400 22.64600
H  25.57800 51.14000 30.75000
H  27.27300 48.85600 30.70800
H  27.68200 51.36700 31.52100
H  28.85400 51.28800 30.05700
H  28.88300 50.14900 31.37800
H  25.34000 48.36500 31.34700
H  23.75800 48.85300 30.61100
H  23.40500 49.06300 32.84000
H  23.62200 50.71200 32.15800
H  31.90800 46.94700 26.93200
H  31.07200 47.36800 28.37600
H  31.89100 48.65000 27.54000
H  33.13800 47.70200 23.48300
H  32.62100 46.38400 24.59300
H  32.85400 48.09800 25.22000
H  26.48100 47.92100 21.05600
H  24.74100 50.30800 20.96400
H  28.34200 49.73800 20.99900
H  26.91400 50.81700 20.50500
H  27.26600 49.30400 19.62400
H  24.04900 47.84000 20.33000
H  22.86000 48.63000 21.33000
H  23.96900 46.12600 21.53500
H  23.01500 46.82700 22.82100
H  24.78600 46.93300 22.92400
H  21.57500 52.99600 24.14700
H  20.35800 52.38900 25.33600
H  20.96500 51.37000 23.93700
H  22.44900 50.85100 29.86000
H  23.40000 52.95500 32.93300
H  21.88600 53.77500 32.75400
H  23.36000 54.44600 32.02600

