158

Mg 35.95000 50.25500 24.18400
C  35.78700 48.67400 27.44500
C  35.02600 53.22900 25.76500
C  36.09300 51.49500 21.26700
C  36.85400 47.05400 23.06000
N  35.48100 50.85600 26.35400
C  35.49500 50.04500 27.47800
C  35.17900 50.88800 28.81200
C  34.89200 52.33600 28.21400
C  35.15600 52.14100 26.66900
C  33.51500 52.94800 28.55100
C  36.42200 50.87200 29.83300
C  36.14600 50.56800 31.30200
H  34.73100 50.72100 31.83000
N  35.59200 52.12500 23.59600
C  35.28600 53.20600 24.38100
C  35.04900 54.33400 23.45600
C  35.37400 53.85900 22.13300
C  35.79900 52.48800 22.31800
C  34.77900 55.78500 24.00300
C  35.18300 54.56700 20.86100
O  35.48600 54.03500 19.74200
C  34.55100 55.99200 20.84700
N  36.19700 49.36900 22.48000
C  36.38500 50.09400 21.32500
C  36.79700 49.24800 20.11000
C  37.06500 47.83300 20.69700
C  36.64500 48.09800 22.18300
C  35.76800 49.15800 19.02500
C  38.53400 47.24700 20.51000
C  38.61700 45.85500 20.00400
N  36.05300 48.17000 24.97400
C  36.42100 47.03300 24.36100
C  36.54600 45.98000 25.31200
C  36.35300 46.58500 26.52700
C  36.01700 47.92900 26.29200
C  36.93800 44.51500 25.01900
C  36.30300 46.34400 27.94800
O  36.52000 45.30500 28.55700
C  35.84300 47.62400 28.64900
C  34.53400 47.42100 29.31900
O  33.43100 47.33500 28.81800
O  34.80900 47.24700 30.72100
C  33.78100 46.71700 31.63500
H  34.72400 54.19500 26.17500
H  36.18800 51.88900 20.25300
H  37.25000 46.15600 22.57900
H  34.34700 50.32600 29.23700
H  35.65200 52.99200 28.63900
H  32.95100 52.75300 27.64000
H  33.61900 53.98500 28.87000
H  33.08500 52.39700 29.38700
H  36.96800 51.81400 29.88900
H  37.09700 50.10600 29.45100
H  36.82100 51.21800 31.85800
H  36.38500 49.53200 31.53900
H  35.09000 55.92000 25.03900
H  33.72600 56.03100 24.14700
H  35.36700 56.47600 23.39900
H  34.26600 56.25400 19.82800
H  35.28600 56.65900 21.29800
H  33.58600 56.02000 21.35200
H  37.70400 49.74300 19.76200
H  36.27600 47.12800 20.43300
H  34.76700 48.91200 19.37800
H  36.12500 48.40600 18.32100
H  35.72500 50.12800 18.52700
H  39.24100 47.28200 21.34000
H  39.08900 47.87300 19.81100
H  38.74900 45.80700 18.92300
H  37.66600 45.38300 20.24900
H  39.23000 45.19100 20.61300
H  36.21200 43.99300 24.39700
H  37.10500 43.97500 25.95100
H  37.75500 44.71000 24.32400
H  36.45800 48.04500 29.44500
H  32.86000 47.30100 31.64000
H  34.14900 46.63000 32.65700
H  33.46400 45.73000 31.29900
Mg 6.60600 53.81500 41.47100
C  5.86800 50.38800 41.50100
C  9.50500 53.13900 39.72800
C  6.94000 57.13100 40.79800
C  3.52000 54.45500 42.92500
N  7.48100 51.97000 40.50800
C  6.97000 50.64700 40.70800
C  7.99500 49.67600 40.01200
C  9.30100 50.58700 39.87400
C  8.78700 52.00600 40.04500
C  10.43200 50.27500 40.90400
C  7.53800 48.94200 38.64200
C  6.14500 49.31200 37.99400
H  5.90100 48.53600 36.64400
N  7.95800 55.00600 40.33900
C  9.10100 54.53300 39.86400
C  9.95700 55.68000 39.49600
C  9.34200 56.83300 39.84600
C  7.95100 56.33400 40.32700
C  11.37500 55.38600 38.96100
C  9.94000 58.20600 39.76700
O  11.02300 58.35800 39.20800
C  9.29000 59.40400 40.35100
N  5.31100 55.45100 41.65000
C  5.68600 56.73900 41.32600
C  4.52900 57.77300 41.61700
C  3.50800 56.94100 42.42600
C  4.14900 55.55000 42.32300
C  5.00400 59.04000 42.41000
C  2.05900 56.90300 41.86700
C  0.95600 56.91500 42.88900
N  5.02400 52.69400 42.18700
C  3.94600 53.11600 42.89900
C  3.31600 51.89500 43.44300
C  4.06600 50.74200 42.94400
C  4.99100 51.30800 42.14200
C  2.20600 51.76600 44.42600
C  4.09800 49.34300 42.90100
O  3.43500 48.51200 43.53100
C  5.34600 49.04000 42.08000
C  5.10000 47.91500 41.11200
O  4.10000 47.89000 40.37800
O  6.03100 46.91500 41.32100
C  5.84200 45.78500 40.41500
H  10.39700 52.86400 39.16100
H  7.03600 58.21100 40.67000
H  2.57000 54.58800 43.44700
H  8.25600 48.91800 40.75100
H  9.74700 50.57700 38.87900
H  11.27800 50.02000 40.26600
H  10.06400 49.59200 41.67000
H  10.70300 51.16300 41.47500
H  7.44400 47.92800 39.03100
H  8.46000 49.12600 38.09100
H  6.17000 50.37900 37.77400
H  5.30300 49.07400 38.64400
H  11.70800 54.45100 38.51100
H  12.14300 55.57400 39.71100
H  11.53800 56.08500 38.14100
H  8.88200 59.13000 41.32400
H  8.56900 59.89100 39.69500
H  10.08000 60.09100 40.65500
H  3.93700 57.93600 40.71700
H  3.44500 57.29700 43.45400
H  4.98700 59.93900 41.79400
H  6.03300 58.87600 42.72800
H  4.33400 59.23100 43.24800
H  1.93600 56.00300 41.26500
H  1.92500 57.82300 41.29900
H  0.20700 56.12700 42.81000
H  0.45300 57.88200 42.87200
H  1.28300 56.90500 43.92800
H  2.12800 50.79500 44.91600
H  1.30300 51.85600 43.82200
H  2.20400 52.61000 45.11600
H  6.11500 48.60900 42.72000
H  4.75500 45.69700 40.43200
H  6.30000 44.85100 40.74000
H  6.18900 45.91500 39.39000

