158

Mg 36.07700 48.93400 25.45600
C  36.15500 47.26800 28.43400
C  35.34700 51.88000 27.10800
C  36.14100 50.45300 22.36200
C  36.66000 45.82300 23.78900
N  35.62500 49.46800 27.49800
C  35.90500 48.64300 28.52700
C  35.76200 49.32400 29.87800
C  35.28800 50.70400 29.47900
C  35.46700 50.74300 27.93500
C  33.93700 51.13400 29.94800
C  37.13500 49.27800 30.63900
C  37.14200 48.96500 32.06300
H  36.04100 49.47800 32.95000
N  35.68300 50.90300 24.79600
C  35.46900 51.96400 25.64400
C  35.35900 53.15300 24.81400
C  35.54200 52.78700 23.46400
C  35.76000 51.26900 23.46000
C  35.16000 54.55000 25.41500
C  35.35200 53.65300 22.27200
O  35.28300 53.10600 21.16300
C  35.23200 55.14500 22.26500
N  36.25900 48.22300 23.28600
C  36.35100 49.08400 22.28200
C  36.70700 48.36700 20.97600
C  37.14800 46.99300 21.53900
C  36.63400 46.97500 22.92400
C  35.42200 48.38200 20.07000
C  38.64200 46.73700 21.46600
C  39.12700 45.34100 21.11800
N  36.25400 46.96500 25.94000
C  36.50200 45.80900 25.20400
C  36.60200 44.64300 26.06400
C  36.50400 45.19200 27.33000
C  36.33100 46.57800 27.20600
C  36.83800 43.19000 25.65300
C  36.54400 44.85000 28.73900
O  36.61400 43.77200 29.28100
C  36.16500 46.14900 29.49400
C  34.85100 45.85500 30.19200
O  33.74300 45.94800 29.71500
O  35.11600 45.56100 31.46300
C  33.97500 45.65200 32.32600
H  35.20800 52.79300 27.69000
H  36.34400 50.91000 21.39200
H  37.08900 44.93100 23.32800
H  34.98200 48.79300 30.42400
H  35.96800 51.45800 29.87400
H  33.53500 50.35400 30.59400
H  33.30400 51.49900 29.13900
H  34.08700 52.03500 30.54400
H  37.53900 50.29000 30.62700
H  37.84600 48.61900 30.14100
H  38.11000 49.30200 32.43200
H  37.22400 47.89200 32.23600
H  34.35700 55.03500 24.86000
H  36.06300 55.15800 25.45400
H  34.86900 54.54800 26.46600
H  34.32800 55.58600 22.68500
H  35.35000 55.43600 21.22100
H  36.00200 55.73700 22.76000
H  37.54200 48.94200 20.57600
H  36.58200 46.18700 21.07200
H  35.62900 48.91200 19.14000
H  34.60700 48.97000 20.49200
H  35.13000 47.45500 19.57600
H  39.00300 46.88600 22.48400
H  39.17700 47.46600 20.85700
H  38.43000 44.81400 20.46700
H  39.34200 44.73300 21.99700
H  40.03500 45.35900 20.51400
H  36.70900 43.12000 24.57300
H  36.33400 42.37400 26.17300
H  37.89600 43.00000 25.83200
H  36.91200 46.38500 30.25200
H  33.45700 44.69900 32.21400
H  33.43900 46.58000 32.12500
H  34.23400 45.69200 33.38400
Mg -0.41400 43.23400 25.24200
C  1.95900 42.81600 27.93500
C  -2.90200 42.11900 27.31100
C  -2.29900 43.08600 22.59700
C  2.47100 43.78500 23.22500
N  -0.41900 42.69500 27.30700
C  0.60300 42.66300 28.26300
C  0.08800 42.47900 29.72000
C  -1.38200 42.09300 29.46300
C  -1.60900 42.26300 27.89600
C  -1.96800 40.66800 29.93600
C  0.46900 43.68600 30.66600
C  0.59100 43.50600 32.19600
H  0.36800 42.03800 32.77800
N  -2.44900 42.84600 24.99700
C  -3.31600 42.32300 25.94200
C  -4.57900 42.04100 25.36000
C  -4.44000 42.29300 23.92900
C  -3.02700 42.73500 23.76600
C  -5.76100 41.66300 26.17100
C  -5.44200 42.23200 22.82700
O  -5.19600 42.62500 21.67200
C  -6.85000 41.75500 23.00900
N  0.08800 43.53100 23.25000
C  -0.90000 43.31400 22.34600
C  -0.40300 43.77000 20.89600
C  1.07600 44.03900 21.14300
C  1.27100 43.72900 22.60600
C  -0.73900 42.83800 19.75100
C  1.49900 45.41600 20.68200
C  1.04300 46.58600 21.56200
N  1.78800 43.20100 25.45300
C  2.80300 43.52700 24.54700
C  4.12500 43.37000 25.09800
C  3.87100 43.12500 26.44400
C  2.43000 43.07400 26.62000
C  5.46000 43.54600 24.48800
C  4.50200 42.91600 27.74500
O  5.69400 42.85200 28.05800
C  3.24500 42.85600 28.80800
C  3.42600 41.61000 29.62600
O  2.88700 40.49100 29.53300
O  4.34000 41.85300 30.58300
C  4.47100 40.81300 31.60600
H  -3.78100 41.84900 27.90100
H  -2.83400 43.14900 21.64700
H  3.32800 43.97600 22.57600
H  0.65900 41.65900 30.15600
H  -1.96500 42.83700 30.00400
H  -1.23000 40.13000 30.53100
H  -2.24600 40.03600 29.09200
H  -2.75300 40.89600 30.65700
H  -0.16900 44.52600 30.39400
H  1.47200 43.96000 30.33700
H  -0.21800 44.14400 32.55300
H  1.57900 43.68300 32.62100
H  -6.24900 40.78400 25.75000
H  -6.40100 42.50900 26.42400
H  -5.40700 41.19700 27.09100
H  -7.17200 41.50700 21.99800
H  -7.33000 42.63400 23.44100
H  -6.90400 40.89800 23.68000
H  -0.90200 44.71500 20.68300
H  1.69200 43.32200 20.60100
H  -1.64100 43.24800 19.29500
H  -0.89700 41.85900 20.20300
H  0.06000 42.97800 19.02300
H  1.04000 45.44900 19.69400
H  2.58500 45.47800 20.62200
H  0.57500 46.27100 22.49400
H  0.32700 47.24700 21.07300
H  1.91300 47.23100 21.68600
H  5.72700 44.53400 24.11400
H  5.56300 42.94100 23.58700
H  6.20100 43.14900 25.18300
H  3.26900 43.70700 29.48800
H  4.95600 39.95100 31.14800
H  3.45900 40.50200 31.86400
H  4.97900 41.05700 32.53900

