158

Mg -2.55600 17.74100 26.73600
C  -3.02100 15.71400 29.66200
C  -3.23900 20.46200 28.62400
C  -2.46200 19.51600 23.90300
C  -2.57900 14.78100 24.83400
N  -3.10900 18.04100 28.92200
C  -3.12200 17.09400 29.91100
C  -3.23800 17.90100 31.21300
C  -3.73900 19.32000 30.84100
C  -3.39700 19.28200 29.36000
C  -5.24400 19.66500 30.95100
C  -1.92700 18.02800 32.06200
C  -2.26200 18.46400 33.56200
H  -1.64600 17.59000 34.69700
N  -2.69400 19.76600 26.27500
C  -2.91000 20.71400 27.19500
C  -2.89600 22.01800 26.50600
C  -2.60500 21.74400 25.16700
C  -2.58800 20.30700 25.06100
C  -3.08900 23.33700 27.12500
C  -2.28000 22.66000 24.01800
O  -2.09100 22.27900 22.89200
C  -2.22800 24.09900 24.16300
N  -2.21000 17.25600 24.74300
C  -2.38500 18.12800 23.76600
C  -2.34300 17.48100 22.36500
C  -2.03800 16.01700 22.70700
C  -2.31700 15.98600 24.23700
C  -3.65000 17.77400 21.53400
C  -0.54200 15.58600 22.40200
C  0.60900 16.46500 22.98300
N  -2.77900 15.63800 27.11500
C  -2.70500 14.56000 26.23600
C  -2.80600 13.35900 26.93400
C  -2.90200 13.75600 28.29700
C  -2.90500 15.14400 28.37400
C  -2.80600 11.95500 26.35500
C  -3.10500 13.25700 29.65500
O  -3.22700 12.11900 30.07900
C  -3.19100 14.54600 30.58200
C  -2.20100 14.27500 31.63700
O  -1.01600 14.52700 31.56300
O  -2.73600 13.47200 32.64400
C  -1.78000 12.92100 33.61700
H  -3.38000 21.37900 29.19900
H  -2.43600 20.05100 22.95100
H  -2.43700 13.92000 24.17800
H  -3.97900 17.34300 31.78500
H  -3.11500 20.04300 31.36600
H  -5.76500 18.75100 31.23400
H  -5.66600 19.79800 29.95500
H  -5.53200 20.53600 31.54200
H  -1.32900 18.86500 31.70000
H  -1.43200 17.06400 31.94700
H  -3.34100 18.49100 33.71500
H  -1.91600 19.47100 33.79500
H  -3.31500 23.21100 28.18400
H  -3.93800 23.85800 26.68300
H  -2.19600 23.93400 26.94000
H  -1.37100 24.17500 24.83200
H  -3.18700 24.48800 24.50400
H  -1.91200 24.57300 23.23400
H  -1.50700 17.98600 21.88000
H  -2.75600 15.40400 22.16000
H  -4.24500 16.86500 21.62000
H  -3.42600 17.93700 20.48000
H  -4.24500 18.55200 22.01200
H  -0.27300 15.54200 21.34700
H  -0.42900 14.56500 22.76600
H  1.33500 16.79400 22.23900
H  1.00600 15.80600 23.75500
H  0.21600 17.30700 23.55300
H  -2.37000 11.97600 25.35600
H  -3.87300 11.75800 26.24200
H  -2.25300 11.29600 27.02400
H  -4.13900 14.66800 31.10600
H  -0.82700 12.66600 33.15300
H  -2.25800 12.07400 34.10800
H  -1.54000 13.63300 34.40700
Mg 4.85200 53.16900 42.09800
C  5.01400 49.78000 41.25600
C  7.83200 53.69900 40.47300
C  4.39700 56.49300 42.58800
C  1.55500 52.56600 43.30300
N  6.17400 51.92700 40.87900
C  6.06100 50.59300 40.73900
C  7.29800 50.09800 39.93700
C  8.30800 51.18400 40.18800
C  7.38500 52.39100 40.53600
C  9.28400 51.03900 41.42800
C  6.99200 49.92200 38.41300
C  7.62100 48.79400 37.62000
H  6.92000 48.05100 36.38800
N  5.93700 54.85300 41.57800
C  7.18200 54.83500 40.96200
C  7.70500 56.20700 40.93400
C  6.66700 57.04800 41.44200
C  5.61300 56.18000 41.93800
C  9.11100 56.55100 40.49800
C  6.68500 58.53200 41.50200
O  7.71800 59.17700 41.21100
C  5.63700 59.34000 42.10300
N  3.21200 54.33500 42.80100
C  3.31400 55.69700 42.94000
C  2.09100 56.38700 43.39600
C  1.10800 55.14700 43.56800
C  1.97500 53.89900 43.22200
C  2.25100 57.15500 44.73100
C  -0.12600 55.21900 42.57900
C  -1.43700 54.54300 43.21300
N  3.47400 51.55100 42.22300
C  2.28900 51.46700 42.86000
C  1.87200 50.07700 42.95000
C  2.91200 49.36700 42.31000
C  3.83900 50.29700 41.86100
C  0.63200 49.51300 43.44600
C  3.34700 48.06300 41.90600
O  2.80200 47.02300 41.97900
C  4.80500 48.25400 41.30800
C  4.86700 47.54900 40.06700
O  4.21600 47.81100 39.07800
O  5.77600 46.49800 40.15700
C  5.83100 45.53300 39.04200
H  8.82200 53.81100 40.02500
H  4.24100 57.54900 42.81900
H  0.55900 52.42600 43.72900
H  7.58400 49.12900 40.34600
H  9.02200 51.44300 39.40600
H  10.20500 51.49000 41.06100
H  9.37500 49.99100 41.71300
H  8.97800 51.64100 42.28400
H  7.28800 50.86300 37.95200
H  5.92500 49.92400 38.19000
H  7.83100 48.07000 38.40700
H  8.61500 49.02700 37.23900
H  9.66700 55.66200 40.20100
H  9.60300 56.97300 41.37500
H  9.05300 57.29800 39.70600
H  5.80600 60.41000 42.22100
H  5.41300 58.96200 43.10100
H  4.81700 59.12800 41.41700
H  1.81500 57.05800 42.58300
H  0.86300 54.87500 44.59500
H  2.40900 58.18400 44.40800
H  3.11700 56.80700 45.29400
H  1.33300 57.03700 45.30600
H  0.24100 54.59800 41.76200
H  -0.39000 56.23500 42.28300
H  -1.69400 53.63200 42.67200
H  -2.27000 55.22400 43.38600
H  -1.21200 54.14400 44.20200
H  0.66800 49.35300 44.52300
H  0.38900 48.61000 42.88500
H  -0.14800 50.22600 43.17900
H  5.59200 47.79100 41.90300
H  6.85800 45.55600 38.67600
H  5.16800 45.72000 38.19800
H  5.36300 44.58200 39.29800

