158

Mg 24.28000 -5.18200 46.52000
C  26.20200 -2.83100 44.71500
C  21.67600 -4.67700 44.33800
C  22.73700 -7.96000 47.79200
C  27.07400 -5.95600 48.48400
N  24.11800 -4.00100 44.64600
C  24.93100 -2.96400 44.23400
C  24.29900 -2.15000 43.07600
C  22.83100 -2.60400 43.20200
C  22.84600 -3.86400 44.08900
C  21.87900 -1.40900 43.76200
C  25.00600 -2.38700 41.71400
C  25.49600 -1.09500 41.11700
H  24.98700 -0.94200 39.66100
N  22.45800 -6.14600 46.20600
C  21.48100 -5.75600 45.26500
C  20.26300 -6.55800 45.37100
C  20.54800 -7.49100 46.39700
C  22.01700 -7.27300 46.83300
C  19.07100 -6.43700 44.48400
C  19.59400 -8.58900 46.86600
O  18.45600 -8.77900 46.41200
C  19.94600 -9.45500 47.98700
N  24.77800 -6.73900 47.95200
C  23.93200 -7.78300 48.29400
C  24.72300 -8.84700 49.07000
C  26.12800 -8.13900 49.42700
C  26.01800 -6.90100 48.53400
C  24.05200 -9.54300 50.27800
C  27.37300 -9.00800 49.28100
C  28.50500 -8.88200 50.25900
N  26.24500 -4.53600 46.71300
C  27.27400 -4.86100 47.57800
C  28.37100 -4.04300 47.36800
C  28.02500 -3.28600 46.21000
C  26.71000 -3.61000 45.82900
C  29.58400 -3.80600 48.23400
C  28.53400 -2.24100 45.33900
O  29.63700 -1.66800 45.39200
C  27.44300 -2.02600 44.21000
C  27.08700 -0.58100 44.33500
O  26.45100 -0.03300 45.24700
O  27.68500 0.07400 43.30400
C  27.80200 1.52900 43.40400
H  20.85100 -4.28200 43.74300
H  22.23200 -8.91000 47.98200
H  27.93800 -6.22100 49.09800
H  24.21900 -1.09300 43.33100
H  22.55100 -2.94300 42.20500
H  20.92200 -1.31500 43.24800
H  22.26600 -0.39100 43.77600
H  21.57100 -1.60600 44.78900
H  24.31100 -2.95300 41.09300
H  25.83200 -3.08000 41.87400
H  26.58600 -1.09200 41.09900
H  25.20200 -0.19800 41.66200
H  19.17500 -7.28500 43.80700
H  19.08100 -5.48800 43.94700
H  18.16500 -6.55400 45.07900
H  20.42200 -8.89400 48.79100
H  20.67800 -10.17100 47.61200
H  19.18400 -10.13900 48.36000
H  24.87800 -9.60500 48.30200
H  26.07600 -7.78600 50.45700
H  23.72900 -10.50900 49.89100
H  23.26300 -8.90500 50.67600
H  24.80600 -9.64800 51.05800
H  27.75500 -8.86800 48.26900
H  27.03600 -10.04500 49.29100
H  28.78900 -9.74600 50.86000
H  28.21600 -8.03000 50.87400
H  29.46000 -8.67300 49.77700
H  29.96200 -4.81000 48.42800
H  29.31000 -3.34300 49.18200
H  30.52100 -3.50500 47.76600
H  27.83500 -2.25100 43.21800
H  28.76700 1.71900 43.87500
H  26.95400 1.95500 43.94000
H  27.85800 1.87500 42.37100
Mg 6.51700 53.78100 40.71300
C  6.31100 50.30700 40.32900
C  9.83700 53.66500 39.93200
C  6.45200 57.13900 40.45400
C  2.98900 53.88200 41.27500
N  7.85900 52.14500 40.15200
C  7.62300 50.78700 40.05400
C  8.86700 50.03300 39.62800
C  9.96000 51.08700 39.97000
C  9.16100 52.42200 40.00700
C  10.82000 50.85000 41.25000
C  8.72500 49.56700 38.13500
C  8.69900 50.61700 37.03200
H  7.37900 50.82400 36.26500
N  7.96000 55.18400 40.26500
C  9.28500 54.97200 39.98500
C  9.98100 56.24300 39.82100
C  9.04600 57.28300 40.19700
C  7.75000 56.56700 40.36000
C  11.40200 56.46000 39.40400
C  9.31400 58.77400 40.47000
O  10.43600 59.14500 40.24100
C  8.37100 59.74800 41.03200
N  4.90200 55.26100 40.73700
C  5.19200 56.60500 40.68400
C  3.91800 57.38800 40.63900
C  2.81800 56.42300 41.22900
C  3.59200 55.08600 41.00900
C  4.06100 58.70400 41.50300
C  1.35900 56.44700 40.68100
C  0.31300 56.41200 41.73800
N  4.94800 52.43600 40.89000
C  3.64100 52.58500 41.21100
C  3.06400 51.25500 41.51900
C  4.02000 50.33800 41.09200
C  5.18300 51.09500 40.76300
C  1.71100 50.89600 42.17900
C  4.31900 48.93600 40.94300
O  3.66200 47.92500 41.09000
C  5.82700 48.85800 40.53400
C  5.78500 47.91100 39.37200
O  5.33900 48.23500 38.28400
O  6.08300 46.62200 39.74100
C  5.94600 45.60200 38.75500
H  10.91200 53.56800 39.77000
H  6.37400 58.21300 40.27000
H  1.95200 53.77800 41.60100
H  9.01000 49.17900 40.29000
H  10.60200 51.23900 39.10200
H  11.32500 49.90700 41.04200
H  10.20600 51.03500 42.13100
H  11.53000 51.66300 41.40900
H  7.89900 48.86400 38.03000
H  9.59800 48.92100 38.04200
H  9.52800 50.35900 36.37300
H  9.01200 51.63400 37.27100
H  11.56300 57.25200 38.67300
H  11.71700 55.62400 38.78100
H  12.17600 56.51300 40.17000
H  8.98100 60.45600 41.59400
H  7.76900 59.20100 41.75800
H  7.79200 60.26300 40.26600
H  3.73400 57.57600 39.58100
H  2.68200 56.59500 42.29600
H  5.06200 58.81200 41.92100
H  3.38500 58.59200 42.35100
H  3.75800 59.59900 40.96000
H  1.25200 55.52700 40.10600
H  1.22800 57.25000 39.95600
H  0.54900 56.72900 42.75400
H  -0.24000 55.47300 41.73800
H  -0.48900 57.10900 41.49500
H  1.21500 50.11200 41.60600
H  1.00200 51.72400 42.16100
H  1.88800 50.63100 43.22200
H  6.49400 48.36600 41.24200
H  6.07700 44.69400 39.34400
H  6.63300 45.62300 37.90900
H  4.92700 45.60400 38.36900

