158

Mg 49.15100 34.46800 27.09700
C  47.14700 33.44800 29.60900
C  49.99200 37.34200 28.99800
C  51.03000 35.59600 24.50400
C  48.06800 31.87400 25.00100
N  48.64400 35.29400 29.05000
C  47.90300 34.59100 30.01100
C  48.06500 35.22500 31.37200
C  48.51000 36.61600 30.97400
C  49.13700 36.46300 29.59400
C  47.25600 37.66800 30.98400
C  49.06000 34.42100 32.20800
C  48.61500 33.90300 33.57700
H  47.40200 34.65700 34.15700
N  50.44000 36.18200 26.82800
C  50.60900 37.22100 27.70500
C  51.54600 38.18500 27.14400
C  51.80600 37.76100 25.81100
C  51.04600 36.44700 25.65500
C  51.89900 39.46200 27.92900
C  52.63300 38.48700 24.77500
O  52.97500 37.96100 23.71300
C  53.37400 39.84700 25.03200
N  49.39400 33.94200 25.04100
C  50.35000 34.39900 24.29000
C  50.56300 33.70800 22.97700
C  49.83000 32.34600 23.26800
C  49.04200 32.73500 24.46900
C  50.05800 34.44700 21.71100
C  50.67000 31.08000 23.39300
C  50.51500 30.06000 22.26200
N  47.74300 32.96700 27.15000
C  47.50500 31.90100 26.30000
C  46.62400 30.99700 27.00400
C  46.32400 31.63100 28.20000
C  47.08200 32.81600 28.34000
C  46.12500 29.60900 26.55000
C  45.62600 31.53000 29.43700
O  44.93500 30.63100 29.77200
C  46.13600 32.63100 30.41200
C  46.82500 31.79000 31.49400
O  47.95300 31.36100 31.55900
O  45.90300 31.61400 32.49200
C  46.29200 30.84100 33.76500
H  50.20100 38.23400 29.59100
H  51.65900 35.88500 23.65900
H  47.79100 31.02000 24.38000
H  47.04600 35.18900 31.75800
H  49.18000 37.15000 31.64700
H  47.58300 38.57500 31.49100
H  46.45500 37.27700 31.61200
H  46.82300 37.97600 30.03300
H  49.94200 35.04400 32.35300
H  49.29700 33.55500 31.59100
H  49.45600 33.89900 34.27000
H  48.45800 32.82700 33.50000
H  51.47600 39.52300 28.93200
H  51.75700 40.38700 27.36900
H  52.97800 39.39800 28.06200
H  53.98500 40.13900 24.17800
H  53.98600 39.66500 25.91600
H  52.56900 40.53800 25.28100
H  51.64900 33.77000 22.92200
H  49.13300 32.27700 22.43300
H  49.34500 33.91400 21.08200
H  50.87400 34.65800 21.02100
H  49.65800 35.39000 22.08600
H  50.39700 30.61200 24.33900
H  51.73500 31.27400 23.26800
H  49.82200 30.31200 21.45900
H  50.11300 29.14200 22.68900
H  51.46800 29.81600 21.79300
H  46.95000 28.90000 26.49400
H  45.77200 29.80900 25.53900
H  45.36900 29.14100 27.18000
H  45.19000 33.10700 30.66800
H  45.68700 29.93600 33.83700
H  46.09100 31.38000 34.69100
H  47.33300 30.54800 33.89700
Mg 30.10300 58.41000 40.17300
C  27.27300 56.67500 39.19800
C  31.97700 55.63800 39.37400
C  33.10000 60.39100 39.94000
C  28.31100 61.22100 40.55500
N  29.68500 56.35800 39.25600
C  28.43300 55.87800 39.10200
C  28.53300 54.31100 38.88100
C  30.08700 53.96100 39.15400
C  30.62000 55.38500 39.33300
C  30.37600 52.97600 40.28300
C  28.13800 53.91900 37.34000
C  28.70800 54.70700 36.20200
H  27.81400 55.53000 35.26600
N  32.25300 58.06900 39.88200
C  32.76600 56.79400 39.55200
C  34.19100 56.93300 39.41200
C  34.57900 58.25700 39.69200
C  33.30400 58.97000 39.83400
C  35.05900 55.77100 38.99100
C  36.03600 58.74500 39.59100
O  36.91400 57.96600 39.23200
C  36.50800 60.19800 39.99900
N  30.67000 60.51900 40.08800
C  31.88000 61.10200 40.06700
C  31.86800 62.65400 40.22600
C  30.39600 62.74100 40.77700
C  29.74300 61.43600 40.48300
C  32.93000 63.05200 41.28900
C  29.71800 63.95300 39.96800
C  29.41200 65.27000 40.74500
N  28.18600 58.88600 39.90200
C  27.57600 60.07800 40.18500
C  26.16100 59.89300 40.21800
C  25.96900 58.64400 39.65800
C  27.28600 58.07000 39.51800
C  25.14600 60.95300 40.50900
C  25.03100 57.72000 39.20300
O  23.79400 57.78100 39.13400
C  25.83800 56.34000 38.88600
C  25.28300 55.20600 39.68900
O  25.06400 55.23000 40.84100
O  24.84700 54.19400 38.89100
C  23.92000 53.20500 39.59600
H  32.51500 54.69400 39.26100
H  34.00200 61.00400 39.88000
H  27.73100 62.10700 40.82300
H  27.87600 53.86700 39.62900
H  30.53300 53.67500 38.20100
H  31.06000 53.34800 41.04600
H  30.88300 52.09200 39.89800
H  29.44400 52.62200 40.72400
H  27.07900 54.16900 37.29600
H  28.29400 52.85100 37.19200
H  29.36600 54.09800 35.58100
H  29.31200 55.48600 36.66700
H  35.81100 56.04100 38.24900
H  34.40500 54.98500 38.61400
H  35.42800 55.39000 39.94300
H  36.08500 60.91200 39.29200
H  37.58600 60.27400 39.86000
H  36.45300 60.54700 41.03000
H  32.12000 63.17800 39.30500
H  30.36200 62.77600 41.86600
H  32.64100 63.80200 42.02500
H  33.81300 63.40400 40.75600
H  33.21300 62.23000 41.94600
H  28.78000 63.70600 39.47100
H  30.29500 64.19900 39.07600
H  28.44200 65.68900 40.47600
H  30.13100 66.07700 40.60400
H  29.31700 65.00400 41.79800
H  25.19800 61.71700 39.73200
H  25.28900 61.56200 41.40200
H  24.09800 60.72500 40.70100
H  25.71500 56.11900 37.82600
H  23.84200 52.26400 39.05300
H  22.93700 53.65000 39.75800
H  24.24000 52.93100 40.60100

