158

Mg 25.67300 -0.24000 28.64600
C  27.51700 -0.68000 31.58100
C  22.76800 -0.38600 30.52200
C  23.92800 -0.31100 25.77700
C  28.62400 -0.48800 26.87200
N  25.25700 -0.72500 30.88600
C  26.11100 -0.57700 31.82700
C  25.50300 -0.23900 33.20000
C  24.01700 -0.16000 32.86800
C  23.95300 -0.49800 31.27900
C  23.02500 -1.00700 33.61000
C  26.15700 1.08200 33.86800
C  26.78800 0.93200 35.24400
H  26.32600 1.86300 36.33800
N  23.67900 -0.34800 28.20800
C  22.65600 -0.29500 29.14300
C  21.35300 -0.01200 28.42400
C  21.70100 -0.06700 26.98800
C  23.14800 -0.30300 26.92900
C  20.08200 0.23400 29.18000
C  20.77300 0.12100 25.80500
O  21.11200 0.07400 24.62100
C  19.26900 0.20800 25.95600
N  26.20000 -0.61000 26.60400
C  25.26400 -0.32300 25.63400
C  25.96200 -0.13500 24.27100
C  27.41900 -0.01100 24.62200
C  27.44700 -0.44200 26.14500
C  25.58000 -1.14000 23.15200
C  27.98300 1.45500 24.45200
C  29.51900 1.57900 24.32700
N  27.70300 -0.68500 29.11000
C  28.75900 -0.74900 28.25900
C  29.95100 -1.04100 29.08600
C  29.52700 -0.96300 30.40900
C  28.10900 -0.76300 30.34100
C  31.40200 -1.22400 28.60200
C  29.95000 -1.06300 31.77100
O  31.04400 -1.25800 32.23000
C  28.68300 -0.74100 32.50700
C  28.46700 -1.71900 33.57600
O  27.91800 -2.80400 33.42300
O  29.02300 -1.30500 34.78400
C  28.75500 -2.21300 35.92800
H  21.86300 -0.14000 31.08100
H  23.35100 -0.23200 24.85300
H  29.61200 -0.41400 26.41300
H  25.75200 -1.15400 33.73700
H  23.53200 0.81400 32.80900
H  22.88900 -0.45400 34.54000
H  23.59000 -1.91800 33.80600
H  22.08900 -1.32600 33.15200
H  25.43600 1.89800 33.91300
H  26.90800 1.46100 33.17400
H  27.80600 1.16200 34.92700
H  26.79900 -0.10300 35.58700
H  19.85600 1.26900 29.43700
H  19.99600 -0.45600 30.01900
H  19.20100 -0.01300 28.58800
H  19.03200 1.06300 26.58900
H  18.90300 -0.72900 26.37600
H  18.86600 0.23800 24.94400
H  25.55100 0.81000 23.91500
H  28.01000 -0.78500 24.13200
H  26.39400 -1.77000 22.79300
H  25.14100 -0.59900 22.31400
H  24.78000 -1.84100 23.39100
H  27.57100 2.03600 25.27700
H  27.44800 1.85700 23.59300
H  29.85900 2.27900 25.09000
H  29.80200 1.92100 23.33200
H  30.02100 0.62700 24.50200
H  31.28000 -2.11800 27.99100
H  31.96100 -1.44900 29.50900
H  31.77600 -0.38100 28.02000
H  28.77600 0.22300 33.00800
H  27.92300 -1.96800 36.58800
H  29.62900 -2.22600 36.57800
H  28.70200 -3.26300 35.63900
Mg 15.70500 51.67300 25.58000
C  17.72200 50.83800 28.27000
C  13.15300 52.41500 28.05800
C  13.60400 52.37600 23.14100
C  18.05200 50.42100 23.32600
N  15.44600 51.64000 27.92200
C  16.45600 51.33100 28.74800
C  16.06400 51.60900 30.20700
C  14.53100 51.71400 30.10500
C  14.34300 51.92700 28.63400
C  13.82100 50.36900 30.59100
C  16.86600 52.82500 30.72900
C  16.23900 53.42200 31.98900
H  15.42800 52.48800 32.92500
N  13.71200 52.27600 25.55000
C  12.86100 52.53800 26.66900
C  11.62300 53.07300 26.10800
C  11.68300 53.10900 24.76700
C  13.01000 52.55900 24.36300
C  10.37000 53.19800 26.98200
C  10.63900 53.60700 23.78500
O  10.81500 53.81200 22.59600
C  9.31600 54.00000 24.32200
N  15.78900 51.32900 23.57900
C  14.79900 51.86200 22.70000
C  15.20900 51.60600 21.21200
C  16.76300 51.40600 21.32300
C  16.80000 50.92500 22.81300
C  14.34000 50.51900 20.50900
C  17.63600 52.72500 21.04600
C  18.78500 52.46800 19.92500
N  17.55000 50.76900 25.69400
C  18.43000 50.33900 24.70300
C  19.67500 49.81500 25.40200
C  19.43900 50.09900 26.76000
C  18.13100 50.58100 26.93100
C  20.92600 49.24800 24.81200
C  20.04300 50.02000 28.09100
O  21.07900 49.54100 28.46600
C  18.96000 50.39300 29.12900
C  18.70900 49.22700 30.06300
O  18.49000 48.03600 29.81900
O  19.00800 49.68100 31.39100
C  18.55900 48.75600 32.43600
H  12.32400 52.55200 28.75600
H  12.98500 52.56900 22.26300
H  18.84300 49.98600 22.71100
H  16.31100 50.75600 30.83800
H  14.11200 52.62300 30.53800
H  13.20700 50.48100 31.48500
H  14.52000 49.53200 30.59800
H  13.23700 50.17800 29.69100
H  16.90000 53.58800 29.95100
H  17.87900 52.56900 31.03900
H  15.67700 54.32800 31.76200
H  17.08300 53.77700 32.58000
H  9.59900 52.43600 26.86300
H  9.98000 54.21500 26.94400
H  10.60900 53.20500 28.04500
H  8.70200 53.19800 24.73300
H  8.72200 54.30300 23.46100
H  9.26900 54.85100 25.00100
H  14.95400 52.51000 20.66000
H  17.02600 50.68300 20.55100
H  15.15300 49.98900 20.01200
H  13.74200 50.96300 19.71300
H  13.70300 49.94800 21.18400
H  18.09500 52.80400 22.03100
H  17.03700 53.60000 20.79100
H  18.60100 51.63400 19.24800
H  19.73100 52.30900 20.44300
H  18.86700 53.33800 19.27300
H  21.50800 48.74600 25.58400
H  21.44900 50.06600 24.31700
H  20.70800 48.51100 24.03800
H  19.48000 51.11700 29.75800
H  19.23400 47.90400 32.51600
H  17.54200 48.40600 32.26100
H  18.54000 49.31900 33.36900

