158

Mg 35.31200 1.77000 29.74500
C  32.91600 2.46900 32.18200
C  37.78100 2.43300 32.23000
C  37.76800 1.53300 27.42400
C  32.95600 2.24900 27.30700
N  35.31000 2.20200 31.93100
C  34.23500 2.42000 32.68400
C  34.60300 2.48700 34.15900
C  36.11000 2.66400 34.13300
C  36.46300 2.35900 32.68600
C  36.58900 4.15200 34.51200
C  33.98200 1.34800 35.05300
C  33.04000 1.85600 36.19400
H  33.60700 3.10200 36.93800
N  37.49000 1.77200 29.83200
C  38.30400 2.18500 30.92800
C  39.66200 1.84700 30.61200
C  39.69900 1.67500 29.17500
C  38.30100 1.56300 28.71000
C  40.80500 1.87600 31.62100
C  40.93200 1.56300 28.25300
O  40.81900 1.34700 27.05300
C  42.33300 1.53700 28.77500
N  35.38000 1.71800 27.65600
C  36.46600 1.61800 26.94100
C  36.08900 1.57500 25.42700
C  34.52900 1.62800 25.45200
C  34.25000 1.85300 26.88100
C  36.82400 2.63600 24.54200
C  33.82800 0.36500 24.93100
C  32.53100 0.50900 24.14600
N  33.34500 2.22800 29.69800
C  32.53500 2.28400 28.62500
C  31.20000 2.64500 29.13400
C  31.31600 2.66600 30.48900
C  32.61000 2.42400 30.80300
C  29.97300 2.84400 28.32500
C  30.52000 2.79100 31.70300
O  29.34700 3.07300 31.99300
C  31.58500 2.77900 32.87000
C  31.59000 4.12800 33.48800
O  32.11100 5.15200 33.09000
O  30.75700 4.18600 34.59000
C  30.41000 5.49900 35.15700
H  38.51800 2.67300 32.99900
H  38.41400 1.70500 26.56000
H  32.21200 2.31600 26.51000
H  34.17000 3.41200 34.54100
H  36.57100 1.96600 34.83200
H  35.76100 4.76100 34.87700
H  37.16600 4.56800 33.68700
H  37.18800 3.95500 35.40200
H  34.88400 0.85700 35.41900
H  33.45300 0.63000 34.42600
H  32.87100 1.12300 36.98300
H  31.99800 2.10400 35.99400
H  41.56400 2.59300 31.30800
H  41.25000 0.88100 31.61300
H  40.51100 2.12900 32.64000
H  42.36700 0.83600 29.60800
H  42.56600 2.51600 29.19500
H  43.12200 1.19700 28.10400
H  36.43400 0.60700 25.06300
H  34.20300 2.54900 24.96800
H  37.59100 2.04700 24.03900
H  37.44500 3.33200 25.10600
H  36.27100 3.17500 23.77300
H  33.81900 -0.25100 25.83000
H  34.51100 -0.24800 24.34300
H  31.80200 -0.27700 24.34700
H  32.71300 0.42300 23.07500
H  32.11300 1.48200 24.40200
H  29.54100 3.84500 28.32700
H  29.39200 2.13200 28.91100
H  30.11600 2.46000 27.31500
H  31.23400 2.00200 33.55000
H  29.52300 5.44600 35.78800
H  30.29900 6.17100 34.30600
H  31.15900 5.95600 35.80400
Mg 7.56500 53.70200 41.59600
C  7.02900 50.22500 41.51400
C  10.77400 53.18300 40.49900
C  7.79800 57.01900 41.04900
C  4.35000 53.98000 42.72700
N  8.65500 51.89700 40.99200
C  8.29400 50.58300 40.95700
C  9.48300 49.63900 40.73000
C  10.64500 50.64300 40.81100
C  10.00200 52.03600 40.80800
C  11.60400 50.43700 42.00100
C  9.46100 49.00300 39.32700
C  9.08900 49.88100 38.16100
H  7.84300 49.39700 37.36300
N  9.01400 54.93100 40.66900
C  10.33700 54.52000 40.40100
C  11.13400 55.64200 40.09600
C  10.36800 56.82300 40.42100
C  8.99300 56.31400 40.70000
C  12.51100 55.58200 39.63800
C  10.91700 58.26300 40.37700
O  12.06900 58.49200 40.06600
C  9.97900 59.36900 40.55500
N  6.19400 55.21600 41.63200
C  6.45800 56.56100 41.41500
C  5.35600 57.43600 41.93200
C  4.17900 56.44000 42.08400
C  4.97700 55.11800 42.23800
C  5.78100 58.06800 43.22600
C  3.24800 56.47700 40.84900
C  1.98900 57.19900 41.10000
N  6.04900 52.40800 42.23400
C  4.77400 52.66000 42.70900
C  4.08100 51.42200 43.01300
C  4.92600 50.43400 42.65400
C  6.07200 51.08700 42.03200
C  2.75300 51.35000 43.68200
C  5.15900 49.02100 42.59500
O  4.42500 48.07200 42.89900
C  6.41200 48.89900 41.64500
C  6.07300 48.24500 40.36100
O  5.51000 48.75700 39.43000
O  6.48600 46.97300 40.50100
C  6.28500 46.10300 39.39700
H  11.84500 53.16000 40.28700
H  7.72500 58.10800 41.06200
H  3.30800 54.04900 43.04800
H  9.39800 48.81000 41.43200
H  11.30300 50.66100 39.94200
H  11.75500 51.36500 42.55200
H  12.52600 50.20900 41.46400
H  11.23900 49.54300 42.50700
H  8.75700 48.17000 39.34500
H  10.44000 48.57700 39.10700
H  9.94900 49.74600 37.50500
H  8.88400 50.92900 38.38400
H  12.64100 55.85300 38.59100
H  12.92200 54.57200 39.64900
H  13.18000 56.10900 40.31800
H  9.08400 59.30500 39.93600
H  10.56000 60.25000 40.28500
H  9.65000 59.32400 41.59400
H  5.27500 58.22900 41.18900
H  3.58400 56.58700 42.98500
H  5.54700 59.13200 43.18400
H  6.83500 57.83600 43.37700
H  5.19800 57.67000 44.05700
H  3.08700 55.49800 40.39700
H  3.73600 57.01500 40.03700
H  1.99300 57.65900 42.08800
H  1.21200 56.45300 40.93500
H  1.95800 58.02500 40.38900
H  2.50900 52.10000 44.43500
H  2.66800 50.33700 44.07500
H  1.92600 51.47700 42.98300
H  7.09800 48.20800 42.13500
H  6.64500 46.52700 38.46000
H  5.26100 45.91500 39.07400
H  6.82500 45.18400 39.62600

