158

Mg 25.13600 1.36700 29.38200
C  27.24200 1.22300 32.12500
C  22.44300 1.64900 31.61100
C  23.08500 0.69100 26.78800
C  27.95000 0.63500 27.30400
N  24.86900 1.58400 31.63000
C  25.92500 1.52500 32.51700
C  25.39000 1.69000 33.93000
C  23.87000 1.69400 33.83000
C  23.69600 1.60400 32.26700
C  23.14500 0.47200 34.55700
C  26.00600 2.87100 34.67900
C  26.59800 2.54300 36.11300
H  26.06400 3.51000 37.23000
N  23.08700 1.31100 29.23400
C  22.14000 1.42300 30.29600
C  20.81300 1.36600 29.66300
C  20.94600 1.08100 28.22500
C  22.42600 0.98100 28.01500
C  19.58900 1.63700 30.46400
C  19.85700 1.04600 27.11000
O  20.12400 0.75600 25.95100
C  18.43000 1.23700 27.38400
N  25.48700 0.67800 27.36100
C  24.43300 0.52200 26.52400
C  24.87400 0.39800 25.04800
C  26.45100 0.42200 25.18400
C  26.66900 0.66800 26.68800
C  24.39700 -0.98200 24.40300
C  27.12300 1.53700 24.37100
C  26.84800 3.05700 24.77700
N  27.15800 1.10100 29.61300
C  28.18000 0.81300 28.73400
C  29.42100 0.65500 29.38800
C  29.11400 0.80600 30.74200
C  27.73100 1.13300 30.84900
C  30.73200 0.20600 28.83700
C  29.68700 0.84300 32.08000
O  30.86400 0.78400 32.45200
C  28.41200 0.91200 33.00000
C  28.21900 -0.23700 33.85200
O  27.53600 -1.21100 33.62300
O  28.90800 0.00900 35.04800
C  28.81000 -1.02600 36.08500
H  21.63000 1.84700 32.31300
H  22.49900 0.46100 25.89500
H  28.80000 0.28600 26.71400
H  25.74400 0.79700 34.44400
H  23.49800 2.63400 34.23700
H  22.64500 0.85100 35.44800
H  23.88100 -0.23700 34.93600
H  22.43100 -0.03900 33.91100
H  25.37600 3.76100 34.68600
H  26.87500 3.11300 34.06700
H  27.65800 2.74200 35.96000
H  26.45700 1.47400 36.27500
H  19.69500 1.51100 31.54100
H  18.74900 0.97500 30.25300
H  19.24200 2.64800 30.24800
H  18.31300 2.23700 27.80000
H  18.26900 0.49800 28.16900
H  17.82400 1.00300 26.50800
H  24.45400 1.27700 24.56000
H  26.95400 -0.50600 24.91200
H  23.83800 -0.75600 23.49600
H  23.92200 -1.43700 25.27200
H  25.23400 -1.56400 24.01600
H  26.89500 1.35200 23.32200
H  28.19500 1.42200 24.53400
H  26.68400 3.65000 23.87800
H  27.71100 3.42000 25.33500
H  25.90300 3.18200 25.30600
H  30.57400 -0.22300 27.84700
H  31.14600 -0.53700 29.51800
H  31.38500 1.07200 28.73500
H  28.67700 1.70300 33.70100
H  28.97600 -1.97300 35.57200
H  27.82700 -0.85500 36.52300
H  29.64200 -0.80700 36.75400
Mg 42.41000 41.19200 26.35100
C  41.55100 43.78700 28.53000
C  43.38300 39.34300 29.20600
C  43.44400 38.84100 24.31100
C  41.87500 43.30700 23.58800
N  42.45500 41.57300 28.69000
C  41.95300 42.69200 29.28800
C  41.85000 42.58100 30.78800
C  42.44700 41.10200 31.02600
C  42.74600 40.60300 29.59700
C  43.69300 41.02400 32.00300
C  40.34300 42.50600 31.25000
C  40.01800 43.23300 32.56600
H  39.34700 42.52500 33.70700
N  43.43300 39.40700 26.72800
C  43.72400 38.81400 27.94500
C  44.32500 37.48000 27.65000
C  44.20000 37.25900 26.27300
C  43.70600 38.50000 25.70000
C  44.78200 36.52100 28.71400
C  44.43000 35.97500 25.42500
O  44.30900 35.93500 24.21400
C  44.82400 34.69700 26.12200
N  42.65600 41.16900 24.24600
C  43.01400 40.00600 23.65700
C  42.92700 40.12500 22.16700
C  42.56000 41.53400 21.88400
C  42.37000 42.10300 23.36800
C  44.23900 39.70100 21.39200
C  41.30700 41.72700 21.02200
C  41.21900 42.84500 19.94600
N  41.61400 43.00700 26.08600
C  41.56600 43.78900 24.93000
C  41.06600 45.15200 25.25600
C  41.02300 45.14400 26.67800
C  41.42100 43.87300 27.11400
C  40.87700 46.23500 24.26200
C  40.87200 46.05200 27.79400
O  40.69600 47.27000 27.79200
C  41.07300 45.12400 29.07500
C  42.13200 45.87300 29.88400
O  43.30300 45.89300 29.67300
O  41.45000 46.50500 30.92800
C  42.21700 46.94000 32.05400
H  43.50300 38.65000 30.04200
H  43.76300 38.07100 23.60700
H  41.64700 44.00500 22.77900
H  42.44800 43.41100 31.16300
H  41.67500 40.43900 31.41700
H  43.51800 40.20000 32.69500
H  43.92800 41.86400 32.65700
H  44.65100 40.73700 31.56900
H  40.12100 41.43900 31.22100
H  39.66300 42.80800 30.45400
H  39.34200 43.99800 32.18300
H  40.88300 43.68900 33.04900
H  44.06100 35.70400 28.75100
H  44.92400 37.08100 29.63900
H  45.72300 36.13500 28.32300
H  44.21700 34.46300 26.99600
H  45.89200 34.72500 26.33900
H  44.58200 33.91500 25.40300
H  42.18900 39.44500 21.74100
H  43.39200 42.05200 21.40700
H  44.65000 40.43700 20.70000
H  43.90700 38.91500 20.71400
H  44.99500 39.23000 22.02100
H  40.43500 41.90800 21.65100
H  41.04900 40.89100 20.37100
H  42.22100 43.16100 19.65700
H  40.64700 43.63200 20.43700
H  40.79500 42.40300 19.04400
H  40.70400 45.77600 23.28800
H  41.75200 46.87600 24.15500
H  39.97800 46.79700 24.51300
H  40.18100 45.05500 29.69800
H  43.28000 47.15300 31.93800
H  42.02800 46.19400 32.82600
H  41.71700 47.83900 32.41400

