158

Mg 16.97600 -1.59400 28.57200
C  15.82200 0.59800 31.10000
C  18.91900 -3.18200 30.96100
C  18.51800 -3.31400 26.09800
C  15.48000 0.61100 26.25500
N  17.13200 -1.47800 30.83600
C  16.61800 -0.43500 31.60900
C  17.14000 -0.55700 33.05600
C  18.33000 -1.68100 32.91800
C  18.12700 -2.07100 31.43700
C  19.70900 -1.12100 33.29800
C  15.92600 -1.07900 33.87400
C  15.72800 -0.38300 35.23500
H  16.84300 0.25400 35.98800
N  18.29300 -3.16000 28.61700
C  18.95100 -3.72600 29.68600
C  19.56700 -4.94800 29.20000
C  19.61200 -4.92000 27.81900
C  18.80200 -3.74500 27.43200
C  20.15900 -6.01800 30.09300
C  20.20700 -5.93800 26.85100
O  20.12000 -5.85100 25.68600
C  21.12200 -7.00200 27.37900
N  17.16900 -1.23100 26.46200
C  17.80300 -2.20100 25.66500
C  17.53600 -1.89500 24.21600
C  16.40400 -0.81200 24.27400
C  16.31600 -0.42900 25.72300
C  18.94200 -1.48600 23.57300
C  15.04500 -1.25800 23.63900
C  14.38600 -0.22000 22.66000
N  15.72300 0.12000 28.63100
C  15.21000 0.89600 27.57700
C  14.34200 1.95100 28.12400
C  14.52200 1.83300 29.49600
C  15.45600 0.76500 29.73700
C  13.61500 3.06300 27.35800
C  14.17400 2.45400 30.79100
O  13.44400 3.34100 31.10900
C  15.14800 1.73100 31.85500
C  16.07300 2.78900 32.48600
O  17.00700 3.33100 31.84200
O  15.68700 3.15300 33.77400
C  16.48200 4.19800 34.40200
H  19.55200 -3.53100 31.78000
H  19.03000 -3.81700 25.27400
H  14.89100 1.19300 25.54400
H  17.53200 0.41000 33.37000
H  18.09700 -2.55800 33.52000
H  19.70800 -0.15100 33.79400
H  20.37700 -1.14600 32.43700
H  20.22700 -1.81600 33.96000
H  15.87800 -2.15000 34.07200
H  15.03100 -0.87400 33.28600
H  15.47200 -1.26500 35.82100
H  14.80300 0.18800 35.31100
H  21.20100 -6.07300 30.40600
H  19.68900 -6.94100 29.75200
H  19.69600 -5.81000 31.05800
H  21.99600 -6.62800 27.91300
H  21.42500 -7.60300 26.52200
H  20.51400 -7.68500 27.97100
H  17.14500 -2.79900 23.74900
H  16.62000 0.14500 23.79800
H  19.00000 -0.40500 23.44400
H  19.07100 -1.97300 22.60600
H  19.80900 -1.74500 24.18100
H  14.48400 -1.50200 24.54200
H  15.09400 -2.20000 23.09200
H  15.20200 0.38300 22.26100
H  13.69900 0.36800 23.26700
H  13.82400 -0.65500 21.83300
H  13.83900 3.16500 26.29700
H  13.91900 4.05300 27.69900
H  12.58200 2.79400 27.58100
H  14.49300 1.43700 32.67500
H  16.47400 5.00500 33.67000
H  17.46400 3.74900 34.54900
H  16.03600 4.48100 35.35600
Mg 16.76000 52.00800 26.46300
C  18.98800 50.62200 28.76700
C  14.78900 53.09500 29.15000
C  14.75700 53.44800 24.17000
C  18.81700 50.94000 23.87500
N  16.92700 51.90400 28.67800
C  17.97000 51.41100 29.37000
C  17.70300 51.52000 30.88600
C  16.19100 51.93000 31.04100
C  15.94900 52.40300 29.52400
C  15.26500 50.69500 31.24800
C  18.71300 52.32000 31.60700
C  18.70400 52.11000 33.12700
H  17.55700 51.33500 33.81300
N  15.04900 53.13600 26.63100
C  14.42900 53.51000 27.82100
C  13.21600 54.23700 27.48600
C  13.14300 54.26600 26.00500
C  14.31400 53.60200 25.52200
C  12.25900 54.80100 28.55300
C  12.13200 55.04500 25.08700
O  12.21500 55.08700 23.85000
C  10.96800 55.62600 25.69100
N  16.86100 52.28500 24.31400
C  15.85600 52.87300 23.58800
C  16.15700 52.91700 22.10200
C  17.46700 52.01800 21.99100
C  17.79500 51.76700 23.45900
C  15.08300 52.29600 21.19800
C  18.66900 52.38200 21.07100
C  19.34300 53.73700 21.34500
N  18.35300 50.81000 26.28800
C  19.12900 50.47700 25.19800
C  20.26200 49.60600 25.60700
C  20.21900 49.59100 27.02900
C  19.07300 50.42400 27.40000
C  21.21300 48.87100 24.74200
C  20.90100 49.18300 28.23500
O  21.83800 48.45400 28.35100
C  20.17100 49.91500 29.43700
C  19.73900 48.77600 30.28800
O  18.80000 48.00300 30.08300
O  20.40600 48.89600 31.48500
C  19.99800 48.00000 32.60400
H  14.08200 53.29500 29.95800
H  14.20300 53.90900 23.35000
H  19.48900 50.53600 23.11500
H  17.87400 50.52100 31.28700
H  16.03300 52.81700 31.65400
H  14.82800 50.46100 30.27700
H  14.52300 50.95000 32.00500
H  15.89600 49.85500 31.53800
H  18.53000 53.31800 31.20900
H  19.64800 51.83800 31.31900
H  18.81400 53.05600 33.65800
H  19.60900 51.57000 33.40600
H  12.56100 54.62000 29.58500
H  11.26500 54.37100 28.43100
H  12.16000 55.88600 28.50800
H  11.43800 56.50000 26.14000
H  10.79000 54.91600 26.49800
H  10.15400 55.60800 24.96700
H  16.41200 53.88200 21.66300
H  17.24200 51.01500 21.62800
H  14.37100 51.75900 21.82500
H  15.35700 51.52900 20.47400
H  14.55800 53.15300 20.77600
H  18.06000 52.43600 20.16900
H  19.35300 51.54400 20.93700
H  20.30200 53.68800 21.86200
H  18.65100 54.37300 21.89700
H  19.51700 54.20600 20.37700
H  20.60200 48.39000 23.97800
H  21.80800 48.23100 25.39300
H  21.86600 49.57500 24.22500
H  20.86000 50.59600 29.93700
H  19.26500 48.54600 33.19800
H  20.93200 47.86000 33.14700
H  19.58500 47.12600 32.09900

