158

Mg 42.76800 41.57500 26.90200
C  41.77700 43.71000 29.53100
C  43.76000 39.32300 29.29800
C  43.83600 39.49700 24.47000
C  41.98700 44.05300 24.60800
N  42.76500 41.51900 29.11800
C  42.11000 42.46100 29.97700
C  42.18200 41.98100 31.43800
C  42.93300 40.60000 31.29100
C  43.17300 40.47100 29.84900
C  44.33600 40.45700 32.08300
C  40.79700 41.87300 32.11200
C  40.58200 42.63900 33.51600
H  40.23400 41.88100 34.76600
N  43.68900 39.68700 26.88500
C  44.00000 38.95900 27.95000
C  44.67700 37.79300 27.55100
C  44.55300 37.74200 26.13800
C  43.97100 39.00800 25.75300
C  45.25800 36.73800 28.54400
C  44.90400 36.62200 25.15000
O  44.60400 36.60600 23.92000
C  45.43200 35.40100 25.68500
N  43.15500 41.81200 24.85900
C  43.46200 40.79600 24.09200
C  43.31200 41.15800 22.56900
C  42.62000 42.59900 22.59300
C  42.57700 42.84200 24.09000
C  44.67000 41.04700 21.75100
C  41.28700 42.49800 21.86900
C  40.70100 43.74600 21.29700
N  42.12400 43.55800 26.97100
C  41.85700 44.45000 25.97000
C  41.42600 45.68000 26.53400
C  41.44300 45.39000 27.94100
C  41.73000 44.07800 28.12700
C  41.02500 46.92500 25.74800
C  41.07000 46.02900 29.22400
O  40.62900 47.13700 29.40100
C  41.32700 44.98500 30.30900
C  42.24400 45.47200 31.36600
O  43.43700 45.65200 31.21100
O  41.58900 45.68800 32.56400
C  42.45500 45.97400 33.71000
H  43.98900 38.54100 30.02500
H  44.10200 38.85500 23.62700
H  41.71200 44.85500 23.92000
H  42.75500 42.69100 32.03400
H  42.36100 39.73000 31.61400
H  45.20200 40.29900 31.44000
H  44.23200 39.59800 32.74700
H  44.55000 41.17300 32.87600
H  40.40100 40.86100 32.19800
H  40.05200 42.37600 31.49500
H  39.73100 43.32000 33.54900
H  41.44000 43.22400 33.85000
H  44.71700 35.79300 28.58600
H  45.39300 37.10100 29.56300
H  46.27300 36.54800 28.19400
H  44.65600 35.17100 26.41400
H  46.38500 35.58700 26.18100
H  45.52500 34.55000 25.01000
H  42.52600 40.47600 22.24600
H  43.26600 43.32300 22.09800
H  44.51200 40.18900 21.09800
H  45.52700 40.88800 22.40500
H  44.96100 41.91400 21.15800
H  40.55300 42.23600 22.63200
H  41.26600 41.71700 21.10900
H  39.83500 44.12500 21.83900
H  40.41400 43.51400 20.27200
H  41.47600 44.50200 21.16600
H  41.82000 47.66600 25.83400
H  40.23200 47.40900 26.31900
H  40.61300 46.66400 24.77300
H  40.39500 44.82400 30.85100
H  43.41300 46.49300 33.66700
H  42.63500 45.07800 34.30500
H  41.99800 46.69300 34.39000
Mg -11.06600 39.09400 41.23300
C  -9.45100 35.94300 40.86600
C  -8.32900 40.55000 39.67500
C  -12.95200 41.87100 40.75200
C  -13.95700 37.34700 42.05800
N  -9.07300 38.35400 40.39100
C  -8.67500 37.04200 40.40400
C  -7.36500 36.85100 39.60500
C  -6.96900 38.37000 39.43200
C  -8.19100 39.20800 39.86800
C  -5.55500 38.81700 40.02900
C  -7.64700 36.02800 38.23200
C  -6.96600 34.71200 37.95400
H  -5.87800 34.85100 36.84700
N  -10.61100 41.00900 40.52500
C  -9.45100 41.38000 39.96400
C  -9.53100 42.81000 39.73000
C  -10.88300 43.24300 39.85700
C  -11.55100 42.05200 40.38700
C  -8.35000 43.59400 39.20400
C  -11.38600 44.59900 39.62300
O  -10.66200 45.55000 39.16300
C  -12.80900 44.86500 39.69300
N  -13.10800 39.53800 41.54200
C  -13.66700 40.78600 41.34100
C  -15.20200 40.86100 41.61900
C  -15.50000 39.39200 42.05600
C  -14.09300 38.72700 41.89000
C  -15.56400 41.96500 42.66900
C  -16.78200 38.78600 41.27000
C  -18.09700 38.94000 41.99800
N  -11.54800 37.13900 41.55000
C  -12.78000 36.61400 41.91500
C  -12.67800 35.15500 42.13900
C  -11.36800 34.81800 41.80700
C  -10.78200 36.10200 41.34700
C  -13.71200 34.25800 42.84600
C  -10.28100 33.81900 41.70500
O  -10.34700 32.64100 42.10900
C  -9.08800 34.52300 40.98800
C  -7.95700 34.28000 41.94600
O  -7.25600 33.34300 41.82300
O  -7.84700 35.31800 42.80900
C  -6.56600 35.35600 43.50000
H  -7.44100 41.05200 39.28600
H  -13.67100 42.64100 40.46200
H  -14.75900 36.70200 42.42300
H  -6.65000 36.29300 40.21000
H  -6.84400 38.47000 38.35400
H  -4.94200 38.02300 40.45500
H  -5.72300 39.25400 41.01300
H  -5.06300 39.52600 39.36400
H  -7.36600 36.70100 37.42300
H  -8.72000 35.86800 38.12300
H  -7.63200 33.95000 37.55000
H  -6.46800 34.33100 38.84600
H  -8.37100 44.64600 39.48900
H  -8.22400 43.56500 38.12100
H  -7.49300 43.16100 39.72000
H  -13.15000 44.17000 38.92600
H  -13.16100 45.86100 39.42200
H  -13.23700 44.68800 40.68000
H  -15.74200 41.07900 40.69800
H  -15.75100 39.32900 43.11500
H  -16.03700 41.56000 43.56400
H  -16.27700 42.68100 42.25900
H  -14.68200 42.56900 42.88000
H  -16.63600 37.71400 41.13700
H  -16.64200 39.15000 40.25300
H  -18.74400 39.41700 41.26200
H  -18.09600 39.53400 42.91200
H  -18.48900 37.96800 42.29800
H  -13.50300 34.20100 43.91500
H  -13.52600 33.27600 42.41100
H  -14.76200 34.45900 42.63200
H  -8.90900 34.04400 40.02500
H  -6.27800 36.39300 43.32700
H  -5.71800 34.90300 42.98600
H  -6.62200 35.16400 44.57100

