158

Mg 25.67300 -0.24000 28.64600
C  27.51700 -0.68000 31.58100
C  22.76800 -0.38600 30.52200
C  23.92800 -0.31100 25.77700
C  28.62400 -0.48800 26.87200
N  25.25700 -0.72500 30.88600
C  26.11100 -0.57700 31.82700
C  25.50300 -0.23900 33.20000
C  24.01700 -0.16000 32.86800
C  23.95300 -0.49800 31.27900
C  23.02500 -1.00700 33.61000
C  26.15700 1.08200 33.86800
C  26.78800 0.93200 35.24400
H  26.32600 1.86300 36.33800
N  23.67900 -0.34800 28.20800
C  22.65600 -0.29500 29.14300
C  21.35300 -0.01200 28.42400
C  21.70100 -0.06700 26.98800
C  23.14800 -0.30300 26.92900
C  20.08200 0.23400 29.18000
C  20.77300 0.12100 25.80500
O  21.11200 0.07400 24.62100
C  19.26900 0.20800 25.95600
N  26.20000 -0.61000 26.60400
C  25.26400 -0.32300 25.63400
C  25.96200 -0.13500 24.27100
C  27.41900 -0.01100 24.62200
C  27.44700 -0.44200 26.14500
C  25.58000 -1.14000 23.15200
C  27.98300 1.45500 24.45200
C  29.51900 1.57900 24.32700
N  27.70300 -0.68500 29.11000
C  28.75900 -0.74900 28.25900
C  29.95100 -1.04100 29.08600
C  29.52700 -0.96300 30.40900
C  28.10900 -0.76300 30.34100
C  31.40200 -1.22400 28.60200
C  29.95000 -1.06300 31.77100
O  31.04400 -1.25800 32.23000
C  28.68300 -0.74100 32.50700
C  28.46700 -1.71900 33.57600
O  27.91800 -2.80400 33.42300
O  29.02300 -1.30500 34.78400
C  28.75500 -2.21300 35.92800
H  21.86300 -0.14000 31.08100
H  23.35100 -0.23200 24.85300
H  29.61200 -0.41400 26.41300
H  25.75200 -1.15400 33.73700
H  23.53200 0.81400 32.80900
H  22.88900 -0.45400 34.54000
H  23.59000 -1.91800 33.80600
H  22.08900 -1.32600 33.15200
H  25.43600 1.89800 33.91300
H  26.90800 1.46100 33.17400
H  27.80600 1.16200 34.92700
H  26.79900 -0.10300 35.58700
H  19.85600 1.26900 29.43700
H  19.99600 -0.45600 30.01900
H  19.20100 -0.01300 28.58800
H  19.03200 1.06300 26.58900
H  18.90300 -0.72900 26.37600
H  18.86600 0.23800 24.94400
H  25.55100 0.81000 23.91500
H  28.01000 -0.78500 24.13200
H  26.39400 -1.77000 22.79300
H  25.14100 -0.59900 22.31400
H  24.78000 -1.84100 23.39100
H  27.57100 2.03600 25.27700
H  27.44800 1.85700 23.59300
H  29.85900 2.27900 25.09000
H  29.80200 1.92100 23.33200
H  30.02100 0.62700 24.50200
H  31.28000 -2.11800 27.99100
H  31.96100 -1.44900 29.50900
H  31.77600 -0.38100 28.02000
H  28.77600 0.22300 33.00800
H  27.92300 -1.96800 36.58800
H  29.62900 -2.22600 36.57800
H  28.70200 -3.26300 35.63900
Mg 46.62400 15.89000 29.44300
C  44.50000 15.51400 32.10300
C  48.29300 18.30700 31.13500
C  48.50500 16.24700 26.73700
C  44.44500 13.91800 27.58200
N  46.39000 16.87300 31.38900
C  45.57400 16.36500 32.36400
C  45.89200 16.97900 33.74600
C  46.78700 18.31000 33.38600
C  47.18300 17.80200 31.91300
C  45.98400 19.59800 33.27400
C  46.62600 15.98400 34.68100
C  46.45400 16.16500 36.17800
H  47.72400 16.19100 37.11400
N  48.25700 17.07000 29.02200
C  48.79400 18.06500 29.84600
C  49.92500 18.61000 29.22500
C  49.93500 18.04400 27.94300
C  48.88600 17.04600 27.82100
C  50.72600 19.80400 29.74800
C  50.90600 18.38800 26.75300
O  50.73500 18.00600 25.61900
C  52.10000 19.24900 26.96900
N  46.42000 15.36000 27.34800
C  47.38400 15.50000 26.41900
C  47.30100 14.59200 25.14900
C  45.93600 13.94900 25.44400
C  45.58900 14.38300 26.87000
C  47.45300 15.35200 23.76400
C  45.67700 12.34900 25.19200
C  46.45700 11.34500 26.06000
N  44.80500 14.95400 29.72100
C  44.03300 14.22500 28.88600
C  42.84500 13.75400 29.57600
C  43.01700 14.22100 30.90400
C  44.20500 14.94900 30.88200
C  41.72700 12.99500 28.92800
C  42.42600 14.24100 32.18600
O  41.34300 13.79200 32.52000
C  43.45600 15.08900 33.11100
C  42.65400 16.12100 33.72100
O  42.43700 17.21300 33.16000
O  42.40800 15.75300 35.08900
C  41.80200 16.82000 35.86100
H  48.94600 18.85500 31.81800
H  49.04800 16.23800 25.78900
H  43.84800 13.19600 27.02100
H  44.96300 17.35500 34.17400
H  47.67000 18.48900 33.99900
H  46.52400 20.27000 32.60800
H  45.67100 20.08000 34.20100
H  45.08300 19.38000 32.70100
H  47.68700 16.04800 34.44300
H  46.26000 14.99200 34.41400
H  45.74500 15.37000 36.40900
H  46.00200 17.15500 36.24200
H  50.63600 20.03400 30.81000
H  50.44900 20.66800 29.14400
H  51.79700 19.69400 29.58000
H  52.79200 18.84500 27.70800
H  51.73900 20.16300 27.44100
H  52.71700 19.47500 26.09800
H  48.13900 13.90700 25.28100
H  45.23700 14.51500 24.82800
H  46.65100 14.98300 23.12500
H  48.35800 14.99100 23.27500
H  47.36600 16.43400 23.86200
H  45.92700 12.18200 24.14400
H  44.60700 12.18200 25.31100
H  45.70100 10.72300 26.53800
H  47.07600 11.83000 26.81400
H  46.97300 10.66800 25.37900
H  42.01900 12.55100 27.97600
H  40.94700 13.74400 28.78700
H  41.38500 12.20200 29.59300
H  43.88600 14.40700 33.84400
H  41.55000 17.70000 35.26800
H  42.44100 17.15300 36.67900
H  41.01300 16.32900 36.43100

