158

Mg 39.73300 9.68900 30.47400
C  41.78500 10.90800 33.02200
C  37.52900 8.93500 32.99100
C  37.94100 8.20900 28.17300
C  42.30800 10.25200 28.18900
N  39.72600 9.88200 32.83000
C  40.65000 10.50600 33.61400
C  40.11200 10.76400 35.06300
C  38.73900 9.92300 35.02600
C  38.67400 9.49500 33.55800
C  38.54800 8.63800 35.97800
C  39.86000 12.19000 35.57900
C  40.57900 12.62400 36.93000
H  39.64800 13.16700 38.02400
N  37.94400 8.74200 30.56400
C  37.18200 8.44800 31.73800
C  36.00500 7.69200 31.32400
C  36.05400 7.62000 29.90000
C  37.31500 8.19500 29.46100
C  34.92800 7.22500 32.30100
C  35.01200 7.02400 28.90400
O  35.06000 7.09500 27.69100
C  33.69100 6.48500 29.48700
N  40.08500 9.14300 28.47000
C  39.12100 8.71100 27.64200
C  39.45900 8.74500 26.13900
C  40.95200 9.30000 26.27000
C  41.08900 9.70000 27.72300
C  39.35100 7.33300 25.50500
C  41.23400 10.40400 25.15600
C  40.61400 11.81500 25.50400
N  41.60700 10.46800 30.54500
C  42.55900 10.60800 29.54100
C  43.74500 11.30500 30.00500
C  43.43800 11.45300 31.37400
C  42.14400 10.84600 31.64900
C  44.82300 11.89600 29.25500
C  43.94500 12.14100 32.63400
O  44.99900 12.72200 32.90800
C  42.83100 11.75100 33.73400
C  43.46300 10.83800 34.81100
O  43.98600 9.78400 34.57000
O  43.53400 11.36700 36.06900
C  44.39800 10.60200 36.99100
H  36.91600 8.60900 33.83400
H  37.31000 7.78700 27.38700
H  42.94300 10.64800 27.39400
H  40.74500 10.21900 35.76300
H  37.87000 10.57000 35.14600
H  38.22300 7.68300 35.56500
H  37.80100 8.91400 36.72200
H  39.43700 8.43400 36.57600
H  38.82600 12.53000 35.63600
H  40.21600 12.66600 34.66500
H  41.30800 13.37800 36.63300
H  40.98700 11.71100 37.36400
H  34.71200 6.16800 32.15100
H  33.96700 7.73400 32.21400
H  35.26700 7.33800 33.33100
H  33.25600 6.10900 28.56000
H  33.18700 7.30500 29.99800
H  33.82200 5.65000 30.17600
H  38.85400 9.52300 25.67200
H  41.72600 8.56500 26.04500
H  38.98600 6.68100 26.29900
H  40.27600 6.92400 25.09900
H  38.59600 7.35200 24.72000
H  40.74500 10.09200 24.23400
H  42.29000 10.47500 24.89300
H  40.12400 12.15100 24.59100
H  41.41800 12.53100 25.67400
H  39.83600 11.83200 26.26700
H  44.67200 12.90100 28.85900
H  45.10900 11.24100 28.43300
H  45.61900 11.78400 29.99100
H  42.46000 12.69300 34.13700
H  44.06500 9.61000 37.29800
H  44.79900 11.15400 37.84100
H  45.31400 10.36500 36.45000
Mg -11.35600 15.79900 42.09500
C  -8.30900 14.11000 41.39200
C  -10.07800 18.55700 40.22300
C  -14.54100 17.15400 41.98200
C  -12.67000 12.81400 43.03800
N  -9.39800 16.32200 41.03100
C  -8.30300 15.41900 40.91700
C  -7.07600 16.08500 40.16200
C  -7.63800 17.55300 39.94800
C  -9.11100 17.51800 40.43000
C  -6.91100 18.69900 40.69400
C  -6.72900 15.33700 38.81400
C  -5.40200 14.64000 38.69100
H  -4.46200 15.30700 37.68200
N  -12.11000 17.78100 41.46600
C  -11.38900 18.66500 40.62100
C  -12.31700 19.79400 40.33500
C  -13.59300 19.42100 40.96800
C  -13.44900 18.02500 41.47800
C  -11.96000 21.10400 39.63300
C  -14.75500 20.37300 40.99500
O  -14.80200 21.50600 40.36900
C  -15.97700 19.95300 41.72700
N  -13.27700 15.10500 42.22400
C  -14.44100 15.83800 42.34600
C  -15.62700 14.98000 42.52500
C  -15.03000 13.66700 43.01500
C  -13.50800 13.87800 42.75900
C  -16.92700 15.44800 43.32200
C  -15.56600 12.29700 42.28900
C  -16.29700 11.30900 43.25000
N  -10.62900 13.87100 42.42600
C  -11.29300 12.80400 42.90900
C  -10.38600 11.65100 43.06100
C  -9.15500 12.11500 42.52100
C  -9.42800 13.49400 42.13900
C  -10.69300 10.33300 43.63000
C  -7.86700 11.76800 42.06700
O  -7.41600 10.62700 41.83400
C  -7.22900 13.05100 41.47200
C  -6.21000 13.52000 42.46900
O  -6.35100 13.79600 43.63400
O  -4.95700 13.62400 41.83500
C  -3.75100 13.96800 42.65500
H  -9.64000 19.41800 39.71400
H  -15.55300 17.54500 41.85600
H  -13.12900 11.89300 43.40200
H  -6.20000 16.11500 40.81000
H  -7.61700 17.71200 38.87000
H  -6.89700 19.60300 40.08500
H  -5.86200 18.43100 40.82300
H  -7.37100 18.91400 41.65800
H  -6.66700 16.00300 37.95300
H  -7.56600 14.65200 38.68100
H  -5.60300 13.65300 38.27600
H  -5.01100 14.61000 39.70800
H  -11.17800 20.95300 38.88900
H  -11.77400 21.90300 40.35100
H  -12.79000 21.46000 39.02200
H  -15.78600 19.53200 42.71400
H  -16.54400 19.30700 41.05700
H  -16.53300 20.88600 41.81600
H  -16.01600 14.83900 41.51700
H  -15.10700 13.51900 44.09200
H  -16.94600 15.00300 44.31700
H  -17.81500 15.16000 42.76100
H  -16.99200 16.53300 43.40300
H  -14.71200 11.77400 41.85800
H  -16.31300 12.50800 41.52400
H  -17.28200 11.03900 42.86800
H  -16.38200 11.75400 44.24100
H  -15.67400 10.41500 43.26000
H  -9.83200 9.72600 43.91100
H  -11.28600 9.88900 42.83100
H  -11.25500 10.35100 44.56300
H  -6.63600 12.88000 40.57300
H  -4.00000 14.46300 43.59300
H  -3.17300 14.62700 42.00800
H  -3.14500 13.07900 42.83000

