158

Mg 16.68000 -2.18100 27.71800
C  15.40900 0.02300 30.17400
C  18.77500 -3.47700 30.04800
C  18.09100 -3.99700 25.30000
C  14.80600 -0.31600 25.34700
N  16.98200 -1.79900 29.85000
C  16.31900 -0.94500 30.64000
C  16.63400 -1.17800 32.07200
C  17.93900 -2.04400 32.05100
C  17.96000 -2.49500 30.55500
C  19.30200 -1.32200 32.47600
C  15.46500 -1.71600 32.96400
C  15.11800 -0.86400 34.18000
H  16.19300 -0.05800 34.89100
N  18.10900 -3.59000 27.73100
C  18.89800 -4.03600 28.77100
C  19.80900 -5.04000 28.38700
C  19.56400 -5.23300 27.01000
C  18.52900 -4.25000 26.58800
C  20.80600 -5.71500 29.25100
C  20.24000 -6.14200 26.00000
O  20.08400 -6.10000 24.80000
C  21.04500 -7.43100 26.43200
N  16.53200 -2.07600 25.66300
C  17.20500 -2.97400 24.83400
C  16.94800 -2.75500 23.32200
C  15.75900 -1.77000 23.39600
C  15.70900 -1.27900 24.86500
C  18.16700 -2.13700 22.65800
C  14.38700 -2.20400 22.76800
C  14.21300 -2.02800 21.18200
N  15.34000 -0.50300 27.70000
C  14.68700 0.17700 26.65900
C  13.88200 1.24900 27.19600
C  14.15700 1.24800 28.57900
C  15.01100 0.19800 28.80400
C  12.86400 2.03700 26.42000
C  13.89400 1.90900 29.86400
O  13.24800 2.88900 30.12100
C  14.66900 1.10000 30.89500
C  15.54500 2.10100 31.61600
O  16.69300 2.40900 31.32100
O  14.78500 2.65500 32.59000
C  15.56300 3.78500 33.22500
H  19.44600 -3.96400 30.75900
H  18.43300 -4.53400 24.41300
H  14.28000 0.34200 24.65100
H  16.97800 -0.24400 32.51800
H  17.98700 -2.94700 32.65900
H  20.00000 -1.26400 31.64100
H  19.73200 -1.89500 33.29700
H  19.13300 -0.29400 32.79700
H  15.73400 -2.69800 33.35400
H  14.53000 -1.77300 32.40700
H  14.85100 -1.57100 34.96600
H  14.17900 -0.32400 34.05400
H  21.81200 -5.85000 28.85300
H  20.46000 -6.70400 29.55200
H  20.95200 -5.18400 30.19200
H  20.98200 -8.19000 25.65300
H  20.53700 -7.89100 27.27900
H  22.10900 -7.27400 26.60700
H  16.68700 -3.60900 22.69800
H  15.91700 -0.80300 22.91700
H  18.08800 -2.36300 21.59400
H  19.12100 -2.50500 23.03600
H  18.08600 -1.05100 22.71400
H  13.54100 -1.69400 23.22900
H  14.16600 -3.27000 22.80900
H  14.98900 -1.35700 20.81400
H  13.26600 -1.54400 20.94400
H  14.26100 -2.99900 20.68900
H  12.71500 1.66100 25.40800
H  13.11900 3.09600 26.38000
H  11.89800 1.91200 26.91100
H  13.95500 0.67800 31.60200
H  16.58500 3.52400 33.49800
H  15.06500 4.01700 34.16700
H  15.58100 4.72100 32.66600
Mg 1.89500 41.57900 26.56100
C  3.99800 41.86100 29.28600
C  -0.55700 40.57400 28.63500
C  -0.01100 40.98500 23.76700
C  4.41400 42.70400 24.47800
N  1.63200 41.69600 28.78300
C  2.65900 41.66200 29.67400
C  2.15000 41.79100 31.10600
C  0.70900 41.20200 30.86100
C  0.53100 41.11800 29.34500
C  0.42300 39.88600 31.66200
C  2.25500 43.22200 31.81000
C  2.49200 43.17000 33.37000
H  2.05300 41.86400 34.13000
N  -0.00500 40.86300 26.22600
C  -0.81800 40.39300 27.19800
C  -1.91300 39.69000 26.64700
C  -1.87400 39.90100 25.25600
C  -0.62400 40.61200 24.99000
C  -3.02400 39.00900 27.50500
C  -2.81700 39.51100 24.19700
O  -2.45500 39.56000 22.95900
C  -4.18400 38.96500 24.53500
N  2.24500 41.62800 24.29400
C  1.27900 41.34700 23.36100
C  1.67100 41.68100 21.90700
C  3.10800 42.33900 22.17000
C  3.30900 42.27000 23.71500
C  1.81500 40.38400 20.96400
C  3.30300 43.76600 21.67300
C  2.23500 44.81800 21.99800
N  3.87100 42.10300 26.81600
C  4.77800 42.61500 25.85200
C  6.05200 42.73300 26.54300
C  5.77300 42.47600 27.90100
C  4.47500 42.12500 27.98000
C  7.36200 42.93600 25.88400
C  6.42800 42.30800 29.18000
O  7.57100 42.35200 29.53300
C  5.22300 42.09000 30.15200
C  5.52400 40.99300 31.14600
O  5.94300 39.86900 30.86600
O  5.29900 41.31000 32.44400
C  5.43900 40.20400 33.40400
H  -1.37200 40.31900 29.31500
H  -0.52800 40.84500 22.81500
H  5.20900 43.09200 23.83800
H  2.69800 41.12300 31.77100
H  -0.00900 41.96900 31.15400
H  -0.34500 40.00900 32.42500
H  1.27100 39.69800 32.32200
H  0.29100 39.07300 30.94800
H  1.29300 43.73100 31.76700
H  2.97000 43.80700 31.23100
H  1.87200 43.94400 33.82300
H  3.53400 43.43900 33.54300
H  -3.65200 38.24300 27.05000
H  -3.54900 39.87600 27.90700
H  -2.37400 38.55800 28.25400
H  -4.61100 39.47900 25.39600
H  -3.93800 37.91600 24.69300
H  -4.92500 39.05900 23.74100
H  0.86700 42.34300 21.58300
H  3.91300 41.71300 21.78700
H  1.03700 40.32700 20.20200
H  1.83100 39.49700 21.59700
H  2.80200 40.39900 20.50200
H  3.34300 43.66900 20.58800
H  4.29400 44.05300 22.02300
H  2.82000 45.66400 22.36100
H  1.55300 44.48500 22.78000
H  1.61100 45.25700 21.22000
H  8.08200 42.17700 26.18900
H  7.68200 43.96200 26.06500
H  7.28500 42.80000 24.80500
H  5.10400 42.96600 30.79000
H  4.66800 39.44400 33.27900
H  5.23800 40.70300 34.35200
H  6.46800 39.84300 33.38300

