158

Mg 46.95000 15.95100 29.16900
C  44.87300 15.80200 32.15900
C  49.24500 17.85400 30.94200
C  48.49900 16.68100 26.32000
C  44.22700 14.76300 27.52100
N  47.03200 16.62200 31.26400
C  46.13600 16.40300 32.32000
C  46.75400 16.84000 33.63300
C  47.93600 17.73200 33.16000
C  48.08200 17.45500 31.65300
C  47.61500 19.26600 33.51000
C  47.05300 15.55500 34.45000
C  46.61400 15.48100 35.91000
H  46.19800 16.83800 36.47800
N  48.73500 16.94800 28.70800
C  49.54900 17.59700 29.62000
C  50.80200 17.91000 28.88000
C  50.58000 17.58500 27.50600
C  49.27900 17.00400 27.41200
C  52.09300 18.34400 29.62200
C  51.50100 17.77300 26.36900
O  51.17100 17.44500 25.25300
C  52.79500 18.52800 26.48600
N  46.39000 15.92900 27.23500
C  47.17500 16.21200 26.18400
C  46.54800 15.83900 24.83800
C  45.52000 14.82400 25.30100
C  45.30700 15.22300 26.80600
C  45.95100 16.88400 23.91600
C  45.96300 13.28600 25.09900
C  44.81500 12.63100 24.12800
N  44.99600 15.36500 29.70400
C  44.03300 14.85500 28.86500
C  42.90700 14.37300 29.62500
C  43.14700 14.75200 30.94200
C  44.40200 15.36700 30.91200
C  41.73300 13.53900 29.19200
C  42.54500 14.78600 32.30700
O  41.47000 14.36000 32.68600
C  43.73400 15.39900 33.18400
C  43.14300 16.60100 33.91600
O  43.37800 17.75900 33.60000
O  42.36800 16.17100 34.94100
C  41.71700 17.15900 35.78900
H  49.95300 18.48600 31.48200
H  48.87500 16.89900 25.31800
H  43.42300 14.21700 27.02300
H  45.91400 17.35300 34.10300
H  48.80400 17.42300 33.74100
H  46.81300 19.31300 34.24700
H  47.27900 19.71600 32.57600
H  48.54200 19.75400 33.81200
H  48.07500 15.26800 34.20100
H  46.50100 14.71200 34.03500
H  47.50200 15.12500 36.43200
H  45.79800 14.78500 36.10900
H  52.93400 18.09100 28.97700
H  52.09000 17.85100 30.59400
H  52.04800 19.39300 29.91600
H  53.14700 18.80400 25.49200
H  53.49200 17.88300 27.02100
H  52.73500 19.43100 27.09400
H  47.33100 15.34600 24.26100
H  44.52800 14.97400 24.87600
H  46.10500 17.88000 24.33100
H  44.91500 16.68700 23.63900
H  46.58000 16.70300 23.04400
H  46.05300 12.87600 26.10500
H  46.90700 13.06800 24.59900
H  45.21100 11.77100 23.58800
H  44.45600 13.29400 23.34200
H  44.00300 12.18800 24.70400
H  41.27400 13.24700 30.13700
H  42.06700 12.69300 28.59100
H  41.05600 14.17000 28.61700
H  44.00600 14.56700 33.83300
H  42.22000 18.12600 35.78100
H  41.85000 16.71600 36.77600
H  40.64200 17.33800 35.76000
Mg 41.90000 41.33000 26.56200
C  41.24400 43.63600 28.93000
C  43.25500 39.20400 29.17500
C  43.04800 39.02400 24.28600
C  41.27400 43.56700 24.09800
N  42.27700 41.45500 28.81200
C  41.64000 42.43100 29.54600
C  41.71800 42.09300 31.06000
C  42.54100 40.75200 31.04200
C  42.66500 40.41800 29.56500
C  43.95900 40.80400 31.68300
C  40.40300 42.12100 31.88600
C  40.23100 43.23900 32.91000
H  39.33000 42.97900 34.10200
N  42.94600 39.30800 26.67200
C  43.37700 38.65900 27.85500
C  43.91700 37.35200 27.42800
C  43.72800 37.18800 26.00300
C  43.13700 38.51600 25.58700
C  44.39800 36.32100 28.42400
C  44.11200 35.99400 25.04300
O  43.98000 35.97600 23.83600
C  44.71500 34.82100 25.60800
N  42.01200 41.30000 24.58900
C  42.59100 40.23600 23.82500
C  42.70700 40.69500 22.39300
C  41.76200 41.88700 22.25200
C  41.70800 42.32200 23.70800
C  44.17300 41.11200 22.02300
C  40.37500 41.72500 21.60000
C  39.42300 40.80600 22.41900
N  41.31400 43.32500 26.40700
C  41.14200 44.11600 25.35200
C  40.83200 45.42200 25.80500
C  40.85200 45.32200 27.25600
C  41.16000 44.00400 27.54300
C  40.63900 46.60900 24.95000
C  40.70200 46.04000 28.53600
O  40.43100 47.20600 28.76300
C  40.87200 44.91400 29.70400
C  41.92900 45.40300 30.65700
O  43.14100 45.35500 30.52300
O  41.28600 45.90500 31.75500
C  42.23500 46.32000 32.85400
H  43.44200 38.50500 29.99300
H  43.38800 38.27300 23.57000
H  41.26400 44.31800 23.30500
H  42.50500 42.78400 31.36200
H  42.00000 39.94900 31.54300
H  43.83700 40.08400 32.49300
H  44.24900 41.77100 32.09400
H  44.76600 40.50500 31.01400
H  40.23900 41.23300 32.49600
H  39.55500 42.23500 31.21100
H  39.70800 44.06900 32.43400
H  41.18800 43.67000 33.20500
H  45.36400 35.96100 28.06900
H  43.77400 35.42700 28.39400
H  44.43000 36.79500 29.40500
H  45.65900 35.18700 26.01100
H  44.95200 34.13100 24.79800
H  44.05900 34.28900 26.29700
H  42.31900 39.98100 21.66700
H  42.22400 42.77700 21.82500
H  44.54900 42.00200 22.52700
H  44.03300 41.32600 20.96300
H  44.90900 40.32000 22.15800
H  40.51400 41.33300 20.59200
H  39.97100 42.72400 21.43700
H  38.40700 41.19900 22.38300
H  39.59800 40.79700 23.49500
H  39.32500 39.81200 21.98200
H  39.61000 46.87000 25.19700
H  40.84300 46.52100 23.88200
H  41.21200 47.43600 25.36900
H  39.94100 44.84800 30.26700
H  43.09500 46.90000 32.52000
H  42.48900 45.48200 33.50300
H  41.55800 46.97500 33.40200

