158

Mg -1.52100 18.14500 27.44000
C  -2.07700 16.07900 30.17000
C  -2.11600 20.84000 29.46000
C  -0.86400 20.02900 24.80200
C  -1.58400 15.31400 25.33400
N  -2.03000 18.38000 29.70300
C  -2.13000 17.41200 30.64000
C  -2.43400 18.07200 31.99200
C  -2.56100 19.56600 31.56200
C  -2.31200 19.62200 30.10700
C  -3.91800 20.30600 31.98800
C  -1.28400 17.88600 33.05600
C  -1.88300 17.43800 34.39500
H  -0.92700 17.37800 35.54300
N  -1.37000 20.14100 27.23400
C  -1.69500 21.04600 28.11900
C  -1.61700 22.33900 27.48000
C  -1.07500 22.18600 26.19200
C  -1.03000 20.69200 26.05900
C  -2.20300 23.56200 28.17100
C  -0.68400 23.23200 25.21700
O  -0.20700 23.02500 24.09900
C  -0.88400 24.64100 25.68400
N  -1.42000 17.73500 25.34700
C  -1.03200 18.70000 24.49100
C  -1.02900 18.15100 23.09900
C  -0.81600 16.65200 23.31500
C  -1.28400 16.55200 24.70400
C  -2.28700 18.42300 22.18400
C  0.67300 16.09300 23.14500
C  1.81700 16.89400 23.64900
N  -1.79700 16.12000 27.64000
C  -1.80300 15.08600 26.72100
C  -1.75800 13.83000 27.41200
C  -1.93100 14.15700 28.73500
C  -1.95700 15.54500 28.88100
C  -1.61600 12.49900 26.86900
C  -1.88500 13.56400 30.03500
O  -1.64400 12.41600 30.45500
C  -2.14700 14.79600 31.01200
C  -1.02100 14.67200 31.95700
O  0.18800 14.81800 31.71000
O  -1.42200 14.08000 33.18700
C  -0.36700 13.76000 34.18300
H  -2.16400 21.66200 30.17800
H  -0.57100 20.64200 23.94700
H  -1.53200 14.41300 24.71900
H  -3.38400 17.76400 32.42800
H  -1.79600 20.14100 32.08300
H  -4.76800 19.63000 31.90700
H  -4.06800 21.17100 31.34100
H  -3.94000 20.63200 33.02800
H  -0.73900 18.82700 33.13900
H  -0.59800 17.10300 32.73100
H  -2.24600 16.41800 34.27000
H  -2.68700 18.12100 34.66800
H  -1.41200 24.22700 28.51700
H  -2.78800 23.31600 29.05700
H  -2.83700 23.97000 27.38300
H  -1.90800 24.98900 25.54900
H  -0.19000 25.12600 24.99800
H  -0.50100 24.59900 26.70300
H  -0.11500 18.42300 22.57100
H  -1.47300 16.10800 22.63700
H  -1.97900 18.89500 21.25100
H  -2.82800 19.18300 22.74800
H  -3.01500 17.65400 21.92500
H  0.79200 15.86600 22.08600
H  0.80700 15.14300 23.66200
H  2.44200 17.21800 22.81700
H  2.34000 16.35000 24.43500
H  1.46000 17.73000 24.25100
H  -1.34100 12.57500 25.81700
H  -2.54300 11.93300 26.77000
H  -0.80700 11.98800 27.39000
H  -3.06800 14.67800 31.58400
H  -0.75900 13.71400 35.19900
H  0.41000 14.50900 34.33500
H  0.13900 12.87600 33.79400
Mg 26.47900 50.30100 26.47100
C  24.28200 51.68000 28.99400
C  28.49700 49.28100 28.87900
C  28.72100 49.42900 24.11100
C  24.37800 51.91000 24.08000
N  26.33000 50.49000 28.66900
C  25.36800 50.96700 29.54700
C  25.73200 50.82000 31.05100
C  27.13100 50.17400 30.88400
C  27.35100 49.97000 29.35400
C  28.32900 51.04700 31.49100
C  24.57400 50.00800 31.81200
C  24.15500 50.47900 33.26600
H  25.17200 50.88400 34.27000
N  28.33000 49.42700 26.49100
C  28.96200 48.97400 27.57500
C  30.21300 48.32500 27.19900
C  30.31800 48.37300 25.78400
C  29.10500 49.08400 25.42500
C  31.20200 47.74900 28.20000
C  31.33700 47.75900 24.82000
O  31.25700 47.82800 23.58700
C  32.63300 47.14500 25.36900
N  26.44100 50.55100 24.37500
C  27.49800 50.06100 23.61200
C  27.25900 50.28400 22.10400
C  25.81600 50.97100 22.16200
C  25.49500 51.11000 23.61700
C  28.24100 51.24000 21.31600
C  24.65100 50.15600 21.50400
C  24.68900 48.61300 21.46000
N  24.73000 51.56600 26.46500
C  24.00600 52.03400 25.41700
C  22.84400 52.71000 25.85600
C  22.93700 52.57600 27.26500
C  24.10200 51.82800 27.57200
C  21.87200 53.46800 24.95900
C  22.24300 52.93000 28.45700
O  21.17900 53.51900 28.68100
C  23.09200 52.37100 29.67200
C  23.45000 53.52900 30.51500
O  24.11400 54.51800 30.17800
O  22.86100 53.42200 31.78400
C  22.75100 54.62700 32.58400
H  29.09000 48.84600 29.68600
H  29.29800 49.16600 23.22200
H  23.87600 52.50000 23.31100
H  25.65400 51.79900 31.52300
H  27.11300 49.21300 31.39700
H  28.02900 52.07600 31.69100
H  29.21100 50.90600 30.86600
H  28.55700 50.47400 32.39000
H  25.02300 49.02400 31.94800
H  23.72500 49.99000 31.12800
H  23.47100 49.80800 33.78500
H  23.54500 51.34500 33.00700
H  31.93000 48.55500 28.30000
H  31.68800 46.82600 27.88400
H  30.71300 47.61700 29.16500
H  33.16200 47.95300 25.87500
H  33.24400 46.73300 24.56600
H  32.53600 46.26400 26.00400
H  27.14200 49.28700 21.67800
H  25.63000 51.93400 21.68800
H  29.18100 51.42000 21.83600
H  27.65600 52.14400 21.15000
H  28.44400 50.87500 20.30900
H  24.46300 50.46200 20.47500
H  23.71900 50.41100 22.00800
H  23.75100 48.23300 21.86500
H  25.53100 48.23000 22.03600
H  24.80400 48.24500 20.44000
H  22.33100 53.81500 24.03300
H  21.46900 54.32800 25.49400
H  21.07600 52.76400 24.71600
H  22.39800 51.67300 30.14200
H  21.78500 54.58200 33.08700
H  22.78500 55.62400 32.14600
H  23.48800 54.49500 33.37700

