158

Mg -3.18000 17.09100 26.60300
C  -3.45200 14.96800 29.42200
C  -3.81800 19.75600 28.66200
C  -2.93000 18.96700 23.89900
C  -2.90900 14.22600 24.61900
N  -3.67900 17.29800 28.80000
C  -3.67900 16.30800 29.71200
C  -3.84000 16.90500 31.17200
C  -3.98400 18.44000 30.87100
C  -3.79300 18.51200 29.32600
C  -5.32900 19.06200 31.33300
C  -2.70700 16.42300 32.11300
C  -2.09700 17.42900 33.07400
H  -1.58700 16.89600 34.47000
N  -3.25700 19.08000 26.32300
C  -3.52600 20.05300 27.30800
C  -3.32000 21.35400 26.74100
C  -2.91600 21.11100 25.35500
C  -3.01100 19.65400 25.11500
C  -3.62000 22.61000 27.53000
C  -2.34500 22.02300 24.38000
O  -2.00700 21.78000 23.23900
C  -2.07100 23.44200 24.78700
N  -3.09400 16.58900 24.47100
C  -3.00300 17.61400 23.61700
C  -2.80100 17.07900 22.23500
C  -2.41700 15.54600 22.44200
C  -2.82600 15.39000 23.88500
C  -3.87300 17.47600 21.21500
C  -0.97800 15.13800 21.98500
C  0.21600 15.57900 22.85900
N  -3.32200 15.06200 26.84200
C  -3.09900 13.99200 25.97300
C  -3.31100 12.67300 26.58800
C  -3.37700 13.02200 27.96400
C  -3.40700 14.48200 28.08200
C  -3.17600 11.29100 25.96800
C  -3.49900 12.52900 29.34900
O  -3.61800 11.34600 29.73000
C  -3.53500 13.75600 30.32800
C  -2.44800 13.47200 31.38300
O  -1.20400 13.59900 31.30200
O  -2.98000 13.05200 32.54500
C  -2.14900 13.07400 33.75200
H  -3.98700 20.54400 29.39800
H  -2.59800 19.58100 23.05900
H  -2.65100 13.28800 24.12300
H  -4.74100 16.40400 31.52500
H  -3.22500 19.05600 31.35400
H  -6.05000 18.36800 31.76500
H  -5.90800 19.44400 30.49200
H  -5.09900 19.86900 32.02900
H  -1.83300 16.05900 31.57300
H  -3.13400 15.66100 32.76400
H  -2.80500 18.21400 33.33900
H  -1.17800 17.92900 32.77000
H  -4.29900 22.35100 28.34300
H  -4.22000 23.21100 26.84700
H  -2.69300 23.09400 27.83800
H  -3.05600 23.86400 24.98300
H  -1.55500 23.98100 23.99200
H  -1.33600 23.50000 25.59000
H  -1.90500 17.60200 21.90100
H  -3.08600 14.92800 21.84300
H  -4.40300 18.37100 21.53900
H  -4.56500 16.67700 20.94800
H  -3.48500 17.77900 20.24200
H  -0.72300 15.73500 21.10900
H  -0.97400 14.06800 21.77500
H  -0.22400 15.78100 23.83600
H  0.79900 16.43100 22.51100
H  0.95300 14.77900 22.92300
H  -2.95900 11.36000 24.90200
H  -4.05700 10.66900 26.12700
H  -2.39700 10.76000 26.51600
H  -4.54200 13.80700 30.74000
H  -2.14100 14.07900 34.17300
H  -1.11400 12.79800 33.55100
H  -2.68300 12.42500 34.44600
Mg 16.55800 51.53300 26.15700
C  18.35600 49.97300 28.81900
C  14.43400 52.88700 28.47200
C  14.73900 52.73100 23.57000
C  18.65700 49.86800 23.85200
N  16.33500 51.32100 28.38600
C  17.21800 50.75500 29.27400
C  16.88800 51.00600 30.77700
C  15.45200 51.69400 30.63500
C  15.34900 51.99400 29.09500
C  14.25900 50.88700 31.12600
C  17.92500 51.82000 31.60500
C  17.58000 52.06500 33.11800
H  16.44600 51.27000 33.77000
N  14.91100 52.76400 26.02800
C  14.13900 53.17600 27.09900
C  13.06200 54.10800 26.63900
C  13.27700 54.12700 25.22500
C  14.37900 53.17500 24.84600
C  11.93400 54.59900 27.55600
C  12.52300 54.96800 24.17600
O  12.80500 54.96500 23.00900
C  11.50900 56.00400 24.64900
N  16.61100 51.23900 24.03900
C  15.72700 51.77900 23.19500
C  15.81600 51.03600 21.82200
C  17.24500 50.50900 21.87300
C  17.53200 50.54900 23.34900
C  14.68000 49.99700 21.69800
C  18.31700 51.39000 21.20100
C  19.58800 50.59200 20.79000
N  18.20500 50.25200 26.28800
C  18.92800 49.62000 25.25900
C  20.09100 48.82400 25.82200
C  19.83400 48.96900 27.21800
C  18.79700 49.86700 27.47000
C  21.20400 48.02300 25.16800
C  20.30600 48.48800 28.53700
O  21.26800 47.77800 28.77500
C  19.44200 49.19500 29.63700
C  18.87900 48.24000 30.56900
O  17.97700 47.46600 30.29200
O  19.47100 48.24400 31.78500
C  18.88800 47.47100 32.85900
H  13.86800 53.44800 29.21900
H  14.01300 53.05200 22.82100
H  19.19400 49.21300 23.16300
H  16.81900 49.97900 31.13700
H  15.39600 52.64000 31.17300
H  13.74900 51.43100 31.92000
H  14.59000 49.93300 31.53600
H  13.49200 50.72600 30.36900
H  18.09100 52.78000 31.11600
H  18.89300 51.32800 31.50900
H  17.29300 53.11700 33.13300
H  18.49400 51.89900 33.68700
H  11.75100 55.66500 27.69700
H  11.99200 54.20300 28.57000
H  10.98900 54.27100 27.12400
H  11.01700 56.46500 23.79300
H  11.95800 56.87200 25.13000
H  10.80700 55.38100 25.20400
H  15.69400 51.90900 21.18000
H  17.26100 49.53500 21.38400
H  14.03300 50.34400 20.89200
H  14.11500 49.87500 22.62200
H  14.97500 48.97900 21.44200
H  18.62300 52.20900 21.85200
H  17.93200 51.95700 20.35400
H  19.73100 50.59100 19.70900
H  19.47200 49.52400 20.97400
H  20.49100 51.03700 21.20800
H  21.94600 48.78100 24.91700
H  20.82400 47.63000 24.22500
H  21.69400 47.25200 25.76300
H  20.17400 49.90600 30.01900
H  19.14300 46.41200 32.82400
H  17.82400 47.69500 32.93100
H  19.15400 47.93900 33.80700

