158

Mg 46.94900 15.47900 28.01100
C  45.17400 15.61200 30.94100
C  49.40900 17.39900 29.38500
C  48.51500 15.37000 25.04000
C  44.09100 13.82700 26.41200
N  47.37400 16.16300 30.08300
C  46.41800 16.23100 31.06000
C  47.13800 16.82400 32.30200
C  48.25400 17.58900 31.64300
C  48.33300 17.04800 30.25800
C  48.00900 19.17400 31.68700
C  47.62400 15.79000 33.32900
C  46.90100 15.81400 34.72100
H  47.79300 15.50600 35.97700
N  48.82000 16.15400 27.37000
C  49.68600 16.89000 28.08800
C  50.91200 17.04800 27.38400
C  50.75300 16.43400 26.09200
C  49.31300 15.96500 26.09300
C  52.08500 17.70800 27.97800
C  51.65100 16.38000 24.93500
O  51.34300 15.77800 23.90300
C  52.97600 16.93400 25.03800
N  46.31700 14.78100 26.06500
C  47.18800 14.79400 24.98200
C  46.50400 14.24300 23.62600
C  45.37800 13.37100 24.26200
C  45.22000 14.10400 25.63200
C  45.97100 15.33600 22.63500
C  45.54800 11.82200 24.28700
C  46.96000 11.29700 24.69500
N  44.99600 14.88400 28.53500
C  44.03200 14.18600 27.79100
C  42.96500 13.86600 28.64800
C  43.30400 14.42900 29.92600
C  44.60700 14.98500 29.79400
C  41.78800 13.04000 28.38600
C  42.94000 14.56000 31.28800
O  41.90900 14.24800 31.85800
C  44.20600 15.25900 32.01900
C  43.63300 16.46300 32.66700
O  43.55300 17.57600 32.13700
O  43.18000 16.16900 33.97600
C  42.40400 17.07200 34.79300
H  50.15700 18.07800 29.79800
H  49.00800 15.24900 24.07300
H  43.22800 13.36900 25.92500
H  46.41800 17.56100 32.65800
H  49.19900 17.52900 32.18100
H  48.92800 19.55400 32.13200
H  47.15700 19.38000 32.33600
H  47.96400 19.64200 30.70400
H  48.70200 15.89900 33.44600
H  47.60500 14.77200 32.93900
H  46.21400 14.96800 34.74400
H  46.32600 16.72300 34.89500
H  51.96400 17.87400 29.04800
H  52.30500 18.65300 27.48000
H  52.96500 17.07100 27.89100
H  53.47700 17.08100 24.08100
H  53.45100 16.18200 25.66700
H  52.94900 17.92600 25.48900
H  47.23000 13.71900 23.00500
H  44.38900 13.45300 23.81200
H  46.61800 15.40200 21.76000
H  46.04500 16.30000 23.13900
H  44.95800 15.08900 22.31800
H  45.20400 11.20100 23.46000
H  44.90000 11.49800 25.10100
H  47.63000 12.15300 24.77700
H  47.26600 10.60300 23.91200
H  46.95700 10.72300 25.62200
H  42.03900 12.09000 27.91400
H  41.11400 13.59100 27.73100
H  41.43700 12.69700 29.35900
H  44.61100 14.57300 32.76200
H  42.42600 18.02100 34.25800
H  42.80200 17.10400 35.80800
H  41.37800 16.70300 34.77200
Mg 16.58600 51.81600 24.58000
C  18.42600 50.99300 27.50500
C  13.85100 52.60400 26.65000
C  14.85200 52.47800 21.87900
C  19.36800 50.79100 22.69500
N  16.25000 51.97600 26.84700
C  17.11900 51.49400 27.75900
C  16.57600 51.92100 29.14600
C  15.15200 52.27400 28.92000
C  15.06400 52.27000 27.36900
C  14.08300 51.52100 29.64500
C  17.45500 52.98000 29.90200
C  17.86300 52.83600 31.39900
H  17.31100 51.80500 32.37200
N  14.74200 52.47300 24.31100
C  13.75500 52.66900 25.26900
C  12.53600 53.06200 24.61400
C  12.74600 53.10100 23.21500
C  14.18900 52.69700 23.07700
C  11.32300 53.61100 25.29700
C  11.82900 53.47800 22.04800
O  12.17200 53.46200 20.90100
C  10.46600 53.95500 22.38200
N  16.99300 51.52200 22.55000
C  16.10100 51.95600 21.67500
C  16.67700 52.08200 20.28600
C  18.15700 51.47900 20.43100
C  18.20000 51.30600 21.99500
C  15.76500 51.31700 19.23700
C  19.29400 52.28700 19.90100
C  19.37200 52.41200 18.33400
N  18.42700 50.85600 24.97000
C  19.47800 50.55200 24.12400
C  20.63500 50.11400 24.81300
C  20.23200 50.28900 26.17800
C  18.92700 50.68900 26.19000
C  21.86500 49.67700 24.20500
C  20.69200 50.10000 27.56600
O  21.74800 49.71000 28.00800
C  19.52300 50.57900 28.44400
C  19.03300 49.49700 29.30800
O  18.26100 48.60700 29.00300
O  19.74900 49.49500 30.49700
C  19.35500 48.54400 31.52500
H  12.94500 52.89300 27.18800
H  14.34700 52.82200 20.97400
H  20.18400 50.59600 21.99600
H  16.56800 51.01400 29.75200
H  15.08700 53.33200 29.17700
H  14.43900 50.57800 30.06100
H  13.23600 51.34000 28.98400
H  13.59100 52.13000 30.40300
H  16.86600 53.89700 29.87100
H  18.35800 53.14600 29.31400
H  17.80700 53.79800 31.91000
H  18.93900 52.66300 31.42600
H  11.34200 53.67500 26.38500
H  10.48500 52.95400 25.06400
H  11.12100 54.61200 24.91700
H  9.91300 54.24500 21.48900
H  10.63500 54.82900 23.01200
H  9.90200 53.15600 22.86200
H  16.70200 53.10700 19.91500
H  18.09000 50.49600 19.96500
H  15.25600 51.99300 18.55000
H  15.11500 50.68800 19.84600
H  16.30600 50.59700 18.62300
H  20.22300 51.89800 20.31900
H  19.08600 53.31800 20.18800
H  19.32500 53.49200 18.19000
H  18.62500 51.88800 17.73800
H  20.34700 52.00800 18.06200
H  21.93100 50.34000 23.34200
H  22.14400 48.65000 23.97000
H  22.72500 49.97400 24.80600
H  19.82800 51.51300 28.91500
H  19.49000 47.54300 31.11500
H  18.31000 48.75500 31.75100
H  19.91800 48.59500 32.45700

