158

Mg 26.13000 0.93900 28.80700
C  28.14200 0.42100 31.71600
C  23.55000 1.64300 30.79500
C  24.21200 0.73000 26.03800
C  28.77600 -0.37800 26.93000
N  25.89700 1.20600 31.07800
C  26.80700 0.95300 32.05200
C  26.30500 1.21300 33.46300
C  24.78600 1.53400 33.11600
C  24.73800 1.53800 31.53100
C  23.75700 0.47900 33.69000
C  27.06800 2.34400 34.24100
C  27.46500 2.06800 35.72900
H  26.68300 2.92500 36.84000
N  24.14900 1.22500 28.50200
C  23.25200 1.55400 29.42100
C  21.95300 1.46100 28.88500
C  22.05500 1.14500 27.48000
C  23.56100 1.07900 27.27300
C  20.69500 1.76500 29.62500
C  20.96700 0.92900 26.47300
O  21.20400 0.74300 25.27400
C  19.54200 1.09900 26.93600
N  26.37000 0.23000 26.82500
C  25.53000 0.44900 25.78700
C  26.07100 0.31000 24.39100
C  27.59900 0.18800 24.75100
C  27.59000 0.02500 26.28700
C  25.46500 -0.66500 23.36600
C  28.52900 1.33900 24.40800
C  29.84600 0.91100 23.85300
N  28.04200 0.15100 29.18400
C  28.93300 -0.36700 28.29800
C  30.21600 -0.60600 29.02600
C  29.98000 -0.31200 30.34600
C  28.65300 0.16000 30.38300
C  31.54100 -1.02700 28.37900
C  30.47700 -0.35000 31.79200
O  31.55000 -0.64400 32.27300
C  29.33300 0.10800 32.68400
C  28.84700 -1.05400 33.48600
O  27.88100 -1.75000 33.18200
O  29.62100 -1.13800 34.64100
C  29.02300 -2.09300 35.60100
H  22.68800 1.82700 31.44000
H  23.78100 0.83000 25.03900
H  29.68700 -0.51800 26.34500
H  26.50600 0.31000 34.03900
H  24.57500 2.51300 33.54600
H  23.77300 -0.52200 33.25900
H  22.74700 0.88400 33.62100
H  24.01000 0.23200 34.72100
H  26.50900 3.27800 34.28700
H  27.97800 2.56500 33.68300
H  28.51200 2.36700 35.74600
H  27.30300 1.00000 35.87800
H  20.06600 2.51300 29.14200
H  20.86200 2.18500 30.61600
H  20.14900 0.86400 29.90600
H  18.95000 0.79400 26.07300
H  19.30800 2.13600 27.17900
H  19.13500 0.28800 27.53900
H  25.98700 1.27600 23.89300
H  28.06400 -0.71800 24.36100
H  26.20600 -1.27900 22.85500
H  24.93000 -0.13800 22.57600
H  24.68100 -1.23100 23.87000
H  28.51800 2.08200 25.20500
H  28.05500 1.83100 23.55900
H  29.95200 1.11400 22.78700
H  30.07700 -0.14600 23.98000
H  30.60300 1.51100 24.35900
H  32.34700 -1.04900 29.11300
H  31.77800 -0.26100 27.64000
H  31.48100 -2.00400 27.90100
H  29.67400 0.88400 33.36900
H  29.14700 -3.15900 35.40700
H  27.94800 -2.02600 35.76500
H  29.31500 -1.89200 36.63100
Mg 0.35400 42.69800 25.33200
C  2.69900 42.41700 27.94100
C  -2.16900 42.23000 27.69300
C  -1.91300 42.55900 22.91600
C  2.86700 43.03700 23.05100
N  0.34200 42.41100 27.55700
C  1.39400 42.36800 28.40500
C  0.87500 42.20000 29.89100
C  -0.64000 41.93500 29.66600
C  -0.85200 42.26000 28.18600
C  -1.18300 40.59800 30.12100
C  1.20300 43.49700 30.67800
C  0.85600 43.73100 32.15800
H  0.75500 42.45800 32.99700
N  -1.81300 42.47100 25.30300
C  -2.64000 42.41200 26.37600
C  -4.03700 42.46400 25.90000
C  -3.91400 42.59500 24.52600
C  -2.50500 42.61600 24.20500
C  -5.19900 42.41300 26.91500
C  -5.04000 42.78200 23.53600
O  -4.77300 43.11900 22.38500
C  -6.55400 42.71800 23.95000
N  0.44100 42.56100 23.29600
C  -0.60800 42.50700 22.51400
C  -0.27300 42.53700 20.98600
C  1.20700 43.01200 21.00000
C  1.54100 42.88800 22.52500
C  -0.51000 41.21200 20.20000
C  1.34500 44.49400 20.46300
C  2.10700 44.59200 19.07500
N  2.36600 42.68300 25.39200
C  3.30500 42.83400 24.36900
C  4.70300 42.85900 24.90400
C  4.47900 42.68200 26.28200
C  3.12200 42.59300 26.54300
C  6.00800 43.09900 24.25600
C  5.12000 42.49400 27.55600
O  6.30600 42.49900 27.79200
C  4.00500 42.42100 28.69600
C  4.25200 41.14100 29.48900
O  3.79300 40.01100 29.26800
O  4.87300 41.50100 30.61900
C  4.95300 40.50700 31.69900
H  -2.98600 42.29000 28.41500
H  -2.61200 42.23400 22.14200
H  3.69800 43.30800 22.39700
H  1.33100 41.38900 30.45800
H  -1.24400 42.68100 30.18200
H  -0.74700 40.28600 31.07000
H  -1.07200 39.81100 29.37500
H  -2.22300 40.69100 30.43200
H  0.81200 44.25600 30.00100
H  2.27900 43.64900 30.59000
H  -0.08800 44.27700 32.15900
H  1.66600 44.31200 32.59900
H  -5.71300 41.45500 26.83400
H  -5.89500 43.23200 26.73400
H  -4.82800 42.46900 27.93800
H  -6.57900 41.76100 24.47000
H  -7.12500 42.68100 23.02300
H  -6.83200 43.45100 24.70700
H  -0.90700 43.33100 20.58900
H  1.92300 42.38900 20.46300
H  -0.99700 40.56900 20.93300
H  0.43400 40.86900 19.77400
H  -1.17700 41.39200 19.35700
H  1.76900 45.14200 21.23000
H  0.37500 44.97500 20.33900
H  2.18000 43.62200 18.58400
H  3.11600 44.98500 19.20500
H  1.59300 45.29400 18.41900
H  6.93900 43.02700 24.81800
H  5.95800 44.05200 23.73100
H  6.00400 42.25200 23.56900
H  4.03200 43.27200 29.37600
H  3.96200 40.30900 32.10700
H  5.58300 41.11600 32.34700
H  5.60000 39.64200 31.55100

