158

Mg 44.32900 4.24800 47.16300
C  42.52000 7.37600 47.27200
C  41.48000 2.60200 46.87600
C  46.13300 1.58100 46.15500
C  47.20000 6.30100 46.84700
N  42.26400 4.95300 46.98500
C  41.73000 6.24200 47.25100
C  40.24200 6.13100 47.43800
C  39.91900 4.62100 47.29400
C  41.29500 4.00100 47.16400
C  39.08000 3.96900 48.41500
C  39.58100 6.95400 46.30100
C  40.20500 7.25600 44.89100
H  39.38900 6.99800 43.58500
N  43.83900 2.29100 46.67100
C  42.63000 1.82200 46.68900
C  42.64100 0.39500 46.31800
C  44.00200 0.08400 45.99700
C  44.72500 1.34800 46.26100
C  41.37900 -0.37600 46.15900
C  44.56400 -1.23000 45.41700
O  43.82000 -2.16700 45.12600
C  46.08500 -1.48100 45.16200
N  46.27600 3.99300 46.61800
C  46.84500 2.81100 46.31700
C  48.35400 2.81300 46.46900
C  48.72700 4.24500 46.83000
C  47.32300 4.90400 46.77500
C  49.04800 1.70400 47.45600
C  49.76000 4.93100 45.91100
C  51.07300 5.39700 46.56900
N  44.84500 6.45600 47.04400
C  46.03100 7.05000 46.98800
C  45.81300 8.44700 47.11100
C  44.42900 8.69900 47.29100
C  43.89600 7.40800 47.20400
C  46.92400 9.49900 47.19400
C  43.36300 9.63200 47.67000
O  43.28600 10.82500 47.89700
C  42.08300 8.78800 47.68500
C  41.61100 8.70400 49.13900
O  42.06100 7.96500 49.99400
O  40.51400 9.53500 49.25600
C  39.79400 9.41900 50.54100
H  40.56700 2.00200 46.87000
H  46.80300 0.77200 45.85600
H  48.09900 6.91800 46.91800
H  40.02900 6.53400 48.42900
H  39.28000 4.44300 46.42900
H  38.21500 4.62400 48.52200
H  39.73300 3.78900 49.26800
H  38.61300 3.03300 48.10900
H  39.28200 7.89600 46.76000
H  38.63400 6.46400 46.07400
H  41.10100 6.64400 44.79000
H  40.57700 8.27600 44.98600
H  41.27400 -1.19400 46.87200
H  41.60100 -0.93000 45.24600
H  40.45900 0.16100 45.93000
H  46.87000 -1.33700 45.90500
H  46.20600 -1.00300 44.19000
H  46.00900 -2.55200 44.97500
H  48.68300 2.72300 45.43300
H  49.02300 4.22800 47.87900
H  48.37700 0.93200 47.83400
H  49.46500 2.24600 48.30500
H  49.91900 1.24500 46.98700
H  49.38300 5.83600 45.43400
H  50.11900 4.21100 45.17500
H  51.90600 4.70100 46.47400
H  50.99600 5.72900 47.60400
H  51.43400 6.33600 46.15100
H  47.00100 9.66100 48.26900
H  46.60600 10.42100 46.70800
H  47.83100 9.12800 46.71600
H  41.25700 9.07100 47.03200
H  38.95300 10.10200 50.42300
H  40.24400 9.83900 51.44100
H  39.40800 8.43100 50.78900
Mg 7.07700 53.82400 41.50400
C  6.89900 50.40900 40.64700
C  10.11100 53.77800 39.80000
C  7.12300 57.03900 41.83000
C  3.92600 53.56000 42.89800
N  8.19800 52.33700 40.15700
C  7.96300 51.01500 39.96000
C  8.83100 50.46400 38.81100
C  10.09000 51.36000 38.91400
C  9.42100 52.55000 39.69100
C  11.27700 50.88300 39.64100
C  8.20100 50.34500 37.40800
C  8.33800 49.02400 36.49500
H  7.89400 48.92700 35.04200
N  8.41000 55.23000 40.88700
C  9.57600 55.04600 40.21700
C  10.20200 56.36300 40.02500
C  9.35700 57.38400 40.54300
C  8.24500 56.58400 41.14700
C  11.44600 56.56900 39.27800
C  9.52900 58.96900 40.57900
O  10.46800 59.40700 39.95100
C  8.65100 59.90100 41.29100
N  5.68500 55.14500 42.11700
C  5.94800 56.44900 42.28100
C  4.79500 57.22400 42.89800
C  3.80000 56.08200 43.26700
C  4.51600 54.82000 42.75600
C  5.26600 58.26500 43.97400
C  2.27600 56.22500 42.82100
C  1.77900 57.60600 42.59900
N  5.66700 52.32300 41.74900
C  4.53700 52.35400 42.52400
C  3.97500 51.00500 42.61600
C  4.96400 50.18300 41.98800
C  5.91100 51.07000 41.43600
C  2.63300 50.59100 43.26700
C  5.24300 48.87500 41.66700
O  4.68100 47.75300 41.84700
C  6.61800 48.95000 40.93900
C  6.43800 48.07200 39.73700
O  5.80900 48.41400 38.71800
O  7.07700 46.85800 39.91300
C  6.79000 45.86500 38.85700
H  11.12400 53.76700 39.39300
H  7.00000 58.08900 42.10500
H  2.96900 53.52000 43.42300
H  9.10300 49.44600 39.09100
H  10.43600 51.69600 37.93600
H  12.04900 51.64800 39.55300
H  11.65600 49.88600 39.41600
H  11.07800 50.87600 40.71200
H  8.60900 51.14100 36.78500
H  7.11400 50.32900 37.48200
H  7.69400 48.28600 36.97300
H  9.39300 48.75000 36.52200
H  11.43600 55.93500 38.39200
H  12.16700 56.24900 40.03000
H  11.67500 57.55700 38.88000
H  8.60500 59.63200 42.34600
H  7.68800 59.76300 40.79800
H  8.94200 60.95100 41.31300
H  4.41500 57.86300 42.10000
H  3.82300 55.93400 44.34600
H  4.96100 57.99100 44.98400
H  4.70100 59.16200 43.72100
H  6.29700 58.61800 43.96300
H  1.84100 55.83300 43.74000
H  2.05500 55.52700 42.01300
H  0.90100 57.58800 43.24400
H  1.50600 57.68500 41.54600
H  2.43300 58.40300 42.95300
H  1.89900 51.22200 42.76600
H  2.64300 50.92200 44.30600
H  2.33900 49.57400 43.00800
H  7.32900 48.60900 41.69100
H  6.82900 46.24600 37.83600
H  5.78500 45.46500 38.98900
H  7.45300 45.00500 38.95400

