158

Mg 26.63200 49.87700 26.58800
C  24.39100 50.93800 29.03500
C  28.84400 49.01200 29.00700
C  28.70400 48.84600 24.19000
C  24.41600 51.00100 24.22500
N  26.54400 50.08300 28.75500
C  25.50300 50.31200 29.58600
C  25.81600 49.87900 31.02400
C  27.32100 49.43400 30.93300
C  27.57900 49.48400 29.41400
C  28.27100 50.37300 31.70900
C  24.78900 48.84500 31.60200
C  23.80500 49.44900 32.61400
H  23.74100 48.77300 34.03900
N  28.51000 49.06300 26.56200
C  29.26200 48.79800 27.70300
C  30.48600 48.17900 27.28500
C  30.51200 48.27800 25.84800
C  29.21200 48.74600 25.47200
C  31.57000 47.69100 28.17600
C  31.64300 48.06700 24.82700
O  31.56800 48.38800 23.62400
C  32.96200 47.59300 25.41200
N  26.68200 50.05200 24.47000
C  27.57000 49.46600 23.66600
C  27.07500 49.41900 22.20900
C  25.60900 49.95600 22.36700
C  25.58200 50.34700 23.77500
C  27.96500 50.27100 21.19800
C  24.53200 48.88500 21.95900
C  24.34400 47.75200 22.94500
N  24.84300 50.74900 26.52100
C  24.08300 51.28100 25.53600
C  22.89900 51.92300 26.03200
C  22.99700 51.84000 27.41900
C  24.15700 51.12700 27.66600
C  21.84700 52.67600 25.27100
C  22.33300 52.23900 28.63000
O  21.34200 52.92900 28.82400
C  23.13800 51.47800 29.78600
C  23.49800 52.56800 30.81000
O  24.47000 53.30400 30.77400
O  22.53200 52.56200 31.73900
C  22.69000 53.66300 32.73700
H  29.42400 48.46600 29.75400
H  29.36900 48.63300 23.35000
H  23.60500 51.16600 23.51200
H  25.81700 50.76500 31.66000
H  27.34900 48.45200 31.40600
H  29.05300 50.79600 31.07900
H  28.85500 49.91100 32.50500
H  27.74800 51.24000 32.11200
H  25.38700 48.11200 32.14400
H  24.23100 48.40700 30.77400
H  22.79900 49.47200 32.19500
H  23.98600 50.50100 32.83400
H  31.80000 46.63700 28.02500
H  31.48000 47.84700 29.25100
H  32.39100 48.37100 27.94900
H  33.38100 48.24000 26.18300
H  33.55800 47.42500 24.51500
H  32.71600 46.65200 25.90400
H  27.03300 48.35200 21.99200
H  25.46900 50.78200 21.67000
H  28.95500 50.48200 21.60200
H  27.50500 51.19900 20.86000
H  28.16600 49.69000 20.29800
H  24.71300 48.68200 20.90400
H  23.59800 49.44300 22.01400
H  25.07300 47.90000 23.74200
H  24.44300 46.84800 22.34400
H  23.35900 47.72400 23.41100
H  20.92600 52.81100 25.83800
H  21.63900 52.09400 24.37300
H  22.29200 53.58600 24.87000
H  22.49100 50.70300 30.19800
H  23.47600 53.27900 33.38800
H  21.79100 53.76100 33.34500
H  22.89100 54.57800 32.17900
Mg -5.88400 25.80000 26.05400
C  -4.20000 27.08600 28.93200
C  -7.62200 23.76800 28.19100
C  -6.82500 23.89600 23.43500
C  -3.98700 27.73200 24.09800
N  -5.73400 25.26500 28.42900
C  -5.10900 26.07800 29.41500
C  -5.54400 25.63900 30.77500
C  -6.89300 24.84800 30.42100
C  -6.68700 24.47900 28.92900
C  -7.16900 23.58300 31.26000
C  -5.64100 26.70600 31.81300
C  -6.75400 26.51000 32.79900
H  -6.56400 25.55000 34.02000
N  -7.16600 24.12700 25.80600
C  -7.80900 23.44900 26.79400
C  -8.66700 22.43900 26.24200
C  -8.44700 22.46000 24.80200
C  -7.44800 23.51600 24.65200
C  -9.46700 21.45500 27.06300
C  -9.07600 21.63100 23.70300
O  -8.82700 21.71200 22.54300
C  -10.09500 20.61700 24.05900
N  -5.43500 25.76100 24.05300
C  -5.85700 24.88700 23.15300
C  -5.32900 25.20700 21.72500
C  -4.66500 26.58100 21.85500
C  -4.65000 26.67200 23.44400
C  -4.53800 24.00600 21.09300
C  -5.42800 27.75500 21.20000
C  -4.58200 28.84100 20.60000
N  -4.30300 26.96100 26.38400
C  -3.66900 27.76800 25.48400
C  -2.74200 28.68500 26.13900
C  -2.84700 28.35200 27.50400
C  -3.84300 27.35700 27.58600
C  -1.77100 29.69500 25.50300
C  -2.36600 28.68300 28.74200
O  -1.42200 29.42500 29.10500
C  -3.23500 27.90200 29.78400
C  -2.26500 27.00400 30.48600
O  -1.90800 25.97600 30.03200
O  -1.83200 27.63100 31.59100
C  -0.74700 26.98400 32.23700
H  -8.30700 23.22700 28.84800
H  -7.11500 23.29200 22.57300
H  -3.46200 28.51300 23.54500
H  -4.76400 24.90600 30.98300
H  -7.77000 25.49400 30.44900
H  -7.05500 22.77400 30.53900
H  -8.15400 23.62200 31.72500
H  -6.33900 23.47200 31.95800
H  -5.75600 27.72300 31.43700
H  -4.76700 26.65300 32.46200
H  -7.73200 26.27700 32.37800
H  -6.70900 27.53200 33.17200
H  -9.39400 20.42400 26.71800
H  -10.52000 21.70400 27.20000
H  -9.23000 21.36200 28.12200
H  -9.45000 19.81900 24.42600
H  -10.53200 20.25000 23.13000
H  -10.89500 20.88900 24.74700
H  -6.21900 25.29800 21.10200
H  -3.69100 26.43600 21.38700
H  -4.43700 23.07800 21.65600
H  -3.52800 24.29200 20.79900
H  -5.04900 23.62000 20.21200
H  -6.00200 28.25900 21.97700
H  -6.01500 27.42700 20.34200
H  -3.55800 28.47600 20.51600
H  -4.44900 29.71600 21.23500
H  -4.93000 29.20300 19.63300
H  -1.06200 30.07600 26.23900
H  -2.43900 30.50500 25.21100
H  -1.21600 29.30700 24.64800
H  -3.73900 28.65100 30.39500
H  -0.98100 25.92000 32.26500
H  -0.63400 27.32100 33.26700
H  0.22400 27.19900 31.79000

