158

Mg 40.50600 9.09800 29.33500
C  42.36400 10.25900 32.15900
C  38.19300 7.75400 31.62100
C  38.87200 7.74600 26.71900
C  43.29000 9.98800 27.30300
N  40.34500 9.01500 31.65500
C  41.19100 9.59900 32.58900
C  40.74800 9.29100 34.06600
C  39.41700 8.49800 33.87400
C  39.26400 8.39600 32.28900
C  39.32900 7.08300 34.53600
C  40.50800 10.61100 34.91400
C  41.37000 10.78500 36.17600
H  40.84000 11.83600 37.16800
N  38.79100 7.89500 29.19500
C  37.97500 7.44300 30.23300
C  36.85500 6.64800 29.72900
C  36.97800 6.65200 28.24700
C  38.18500 7.49800 27.95800
C  35.66700 6.20000 30.55700
C  36.07200 5.93800 27.24900
O  36.35300 5.93700 26.04300
C  34.86100 5.17200 27.79600
N  41.12800 8.70100 27.32400
C  40.17500 8.21700 26.40900
C  40.45400 8.65700 24.96200
C  41.80200 9.47200 25.15700
C  42.18900 9.33000 26.65900
C  40.56700 7.54200 23.87300
C  41.54500 11.04700 24.77300
C  42.71500 11.74600 24.03200
N  42.41400 10.08100 29.60900
C  43.44100 10.25600 28.69800
C  44.46700 11.02400 29.34300
C  44.11400 11.00800 30.68500
C  42.83100 10.40600 30.80800
C  45.62200 11.67100 28.69600
C  44.56500 11.44500 32.03300
O  45.65100 11.98600 32.29400
C  43.45900 10.92800 33.02200
C  44.04900 9.99400 33.98500
O  44.22600 8.77000 33.77300
O  44.50100 10.67300 35.03300
C  45.07500 9.85700 36.10400
H  37.43800 7.34200 32.29400
H  38.32800 7.54700 25.79300
H  44.11900 10.41200 26.73300
H  41.48000 8.62200 34.51800
H  38.49700 8.96600 34.22200
H  38.70300 6.41600 33.94300
H  38.88800 7.23300 35.52200
H  40.31800 6.62500 34.57700
H  39.46900 10.79400 35.18800
H  40.62500 11.45700 34.23600
H  42.35700 11.13700 35.87700
H  41.35200 9.83700 36.71400
H  34.76600 6.77500 30.34200
H  35.84200 6.42800 31.60900
H  35.44700 5.14900 30.36900
H  35.20600 4.40400 28.48800
H  34.26100 4.86200 26.94000
H  34.12400 5.81700 28.27500
H  39.66700 9.38000 24.75100
H  42.69300 9.02000 24.72100
H  41.44800 7.57200 23.23100
H  39.75800 7.61900 23.14700
H  40.47900 6.58400 24.38500
H  41.28800 11.50000 25.73100
H  40.68600 11.17600 24.11400
H  42.25500 12.31400 23.22300
H  43.35200 10.92400 23.70400
H  43.31200 12.33200 24.73000
H  46.24200 10.93100 28.19100
H  46.12500 12.44000 29.28200
H  45.05000 12.28200 27.99600
H  43.00000 11.80300 33.48300
H  44.20300 9.40300 36.57400
H  45.65500 10.41900 36.83600
H  45.57000 9.01600 35.61800
Mg 17.26400 52.13900 26.86400
C  19.08600 50.57400 29.42500
C  14.90200 52.97900 29.13000
C  15.58200 53.49900 24.33200
C  19.50800 50.77300 24.55900
N  16.97200 51.79100 29.05900
C  17.99800 51.27700 29.91200
C  17.46900 51.24400 31.38800
C  15.93400 51.66200 31.18300
C  15.92100 52.17100 29.70300
C  14.98200 50.43600 31.40400
C  18.26600 52.24900 32.32300
C  17.63700 52.72300 33.67700
H  16.63400 51.88800 34.44300
N  15.51000 53.21200 26.73100
C  14.64800 53.44100 27.80100
C  13.55800 54.32900 27.34500
C  13.84900 54.60200 25.94600
C  14.97000 53.70400 25.57600
C  12.35000 54.77900 28.22100
C  13.10600 55.57000 24.94800
O  13.58200 55.93200 23.88400
C  11.96300 56.28400 25.41400
N  17.41300 51.93700 24.72100
C  16.59200 52.66700 23.91500
C  17.05400 52.67600 22.48500
C  18.47700 51.94800 22.61900
C  18.49200 51.55100 24.03300
C  16.06400 51.90900 21.52300
C  19.68500 52.90800 22.21200
C  20.92100 52.34000 21.43900
N  18.89300 50.82700 26.94600
C  19.72700 50.44300 25.93500
C  20.83500 49.71500 26.49500
C  20.67300 49.70800 27.91200
C  19.46200 50.41500 28.09700
C  21.84000 49.09600 25.77200
C  21.16400 49.34000 29.11900
O  22.20100 48.77100 29.47400
C  20.18100 49.94600 30.21700
C  19.74400 48.83200 31.06600
O  19.43600 47.71400 30.61800
O  19.84000 49.24900 32.38400
C  19.10800 48.31300 33.24700
H  14.08200 53.12300 29.83500
H  15.02600 54.09500 23.60500
H  20.26800 50.44000 23.84800
H  17.43100 50.22100 31.76200
H  15.57400 52.44500 31.85100
H  14.11900 50.83700 31.93500
H  15.31100 49.72800 32.16500
H  14.72700 49.86900 30.50800
H  18.39200 53.06100 31.60700
H  19.26000 51.83500 32.49300
H  17.29500 53.75100 33.56100
H  18.49200 52.91600 34.32300
H  11.48700 54.12300 28.10800
H  12.20300 55.83600 28.00000
H  12.63700 54.83300 29.27100
H  11.53500 56.58300 24.45700
H  12.26300 57.12800 26.03500
H  11.25700 55.65600 25.95700
H  17.14800 53.75500 22.36200
H  18.56700 50.94400 22.20500
H  16.59900 51.07600 21.06700
H  15.75400 52.58300 20.72500
H  15.17600 51.59900 22.07400
H  19.97700 53.24400 23.20700
H  19.42800 53.81100 21.65900
H  21.82200 52.42900 22.04500
H  21.17600 52.94000 20.56500
H  20.64100 51.31900 21.17900
H  21.45500 48.18900 25.30500
H  22.70100 49.11100 26.43900
H  22.11900 49.75700 24.95200
H  20.62900 50.71600 30.84600
H  18.92800 48.78700 34.21200
H  19.59400 47.35500 33.43500
H  18.10200 48.16400 32.85500

