158

Mg 47.57400 33.84100 26.74900
C  45.71400 32.69000 29.64000
C  48.25500 36.74200 28.65100
C  48.71500 35.37500 24.04900
C  46.40500 31.27700 24.90400
N  46.97800 34.67100 28.89300
C  46.36300 33.94600 29.86500
C  46.60400 34.64900 31.25800
C  47.07900 36.15400 30.85100
C  47.52100 35.84500 29.43500
C  45.98100 37.30900 30.88700
C  47.74500 33.87000 31.97600
C  48.04000 34.14600 33.47200
H  46.96200 35.04300 34.20400
N  48.34900 35.70300 26.40100
C  48.56500 36.77600 27.32000
C  49.28200 37.83800 26.64100
C  49.45800 37.45300 25.29200
C  48.86800 36.10300 25.18300
C  49.77000 39.11700 27.33100
C  50.05100 38.22200 24.10500
O  50.19300 37.74700 23.02400
C  50.40400 39.73000 24.24800
N  47.67800 33.36700 24.84000
C  48.17100 34.14900 23.83700
C  48.27700 33.38700 22.53100
C  47.64500 32.06000 22.81400
C  47.18500 32.21200 24.28900
C  47.82400 34.02400 21.19100
C  48.67400 30.91600 22.63100
C  49.49800 30.12400 23.69300
N  46.47200 32.23500 27.21600
C  46.02900 31.31600 26.31600
C  45.10200 30.39700 26.96400
C  45.00200 30.93800 28.26100
C  45.74000 32.09700 28.34300
C  44.39400 29.27100 26.29400
C  44.33500 30.69900 29.50600
O  43.55300 29.80200 29.81400
C  44.77900 31.83600 30.50600
C  45.54000 31.14500 31.56400
O  46.66300 30.64200 31.48400
O  44.79300 31.14500 32.67500
C  45.34100 30.30700 33.79400
H  48.44700 37.64800 29.22900
H  49.07500 35.77300 23.09800
H  46.02900 30.42100 24.34100
H  45.69800 34.67700 31.86400
H  47.88400 36.39600 31.54500
H  45.06600 36.91600 31.33100
H  45.85600 37.84800 29.94800
H  46.30800 38.04800 31.61900
H  48.62300 34.22100 31.43300
H  47.72500 32.79000 31.83100
H  48.99000 34.67900 33.51400
H  48.19100 33.20200 33.99600
H  50.80500 39.35500 27.08500
H  49.74000 38.94500 28.40700
H  49.03600 39.88900 27.10400
H  50.88400 39.98100 23.30200
H  51.07700 39.90500 25.08700
H  49.52300 40.36700 24.32100
H  49.36200 33.34800 22.44200
H  46.70400 31.83200 22.31400
H  46.98100 34.68500 21.39400
H  47.56900 33.30100 20.41600
H  48.61700 34.61700 20.73500
H  49.43300 31.25600 21.92700
H  48.17900 30.13300 22.05600
H  49.21800 30.59600 24.63500
H  50.57000 30.24700 23.53600
H  49.17700 29.08500 23.62400
H  43.41600 29.13600 26.75700
H  45.08600 28.49400 26.62000
H  44.22400 29.44100 25.23100
H  43.88900 32.40900 30.76900
H  46.40700 30.34800 34.02100
H  45.17300 29.23000 33.77000
H  44.91700 30.76100 34.68900
Mg 26.41300 50.13400 26.77700
C  24.49200 51.46800 29.35500
C  28.83700 49.35000 29.01100
C  28.23500 49.09500 24.23900
C  24.21600 51.56000 24.55400
N  26.69500 50.60700 29.01300
C  25.72800 50.96100 29.90300
C  26.18700 50.83000 31.38900
C  27.56300 50.13100 31.16100
C  27.72800 49.98600 29.64000
C  28.80100 50.75000 31.88800
C  25.08000 50.03200 32.23800
C  25.53900 49.01700 33.37500
H  24.62000 49.00600 34.64800
N  28.25300 49.33800 26.65100
C  29.12500 49.13700 27.67700
C  30.34800 48.53200 27.24100
C  30.25800 48.51200 25.81400
C  28.89500 48.97600 25.50700
C  31.43000 48.00400 28.17800
C  31.30200 48.25500 24.76400
O  31.08400 48.41300 23.54700
C  32.69500 47.97300 25.21800
N  26.20000 50.16400 24.65700
C  27.02300 49.57400 23.80500
C  26.48900 49.55300 22.34100
C  25.19900 50.42500 22.50200
C  25.17100 50.71400 23.99300
C  27.54400 50.09700 21.33200
C  23.89700 49.82000 22.02700
C  22.88700 50.81600 21.46200
N  24.59100 51.15200 26.87100
C  23.80600 51.60700 25.88500
C  22.66500 52.37100 26.42700
C  22.88800 52.32000 27.85100
C  24.07300 51.51300 28.00100
C  21.55200 53.11000 25.70600
C  22.34400 52.64100 29.14000
O  21.38100 53.30900 29.49900
C  23.37400 52.11400 30.16300
C  23.74100 53.34100 31.02000
O  24.52100 54.27400 30.79100
O  22.94300 53.19400 32.19800
C  23.30300 54.01700 33.35800
H  29.55000 49.02600 29.77200
H  28.69200 48.50100 23.44500
H  23.55300 51.97200 23.79000
H  26.30200 51.85900 31.73000
H  27.41600 49.08500 31.43100
H  29.20000 51.66700 31.45500
H  29.54300 49.95200 31.87100
H  28.56600 50.98700 32.92600
H  24.51900 49.35800 31.59100
H  24.41100 50.80200 32.62100
H  26.57300 49.24200 33.63800
H  25.45000 48.02300 32.93500
H  32.29200 48.64900 28.00500
H  31.71900 46.98600 27.91800
H  31.15200 48.13200 29.22400
H  33.37200 48.05800 24.36800
H  32.60400 47.03900 25.77300
H  32.97100 48.72900 25.95400
H  26.10300 48.61700 21.93700
H  25.43400 51.38200 22.03700
H  28.50900 50.24500 21.81700
H  27.32400 51.03900 20.82800
H  27.62900 49.19900 20.72100
H  23.40000 49.23400 22.80000
H  24.11100 49.10300 21.23400
H  21.91100 50.86700 21.94300
H  22.67200 50.60000 20.41500
H  23.25900 51.83500 21.56500
H  21.03000 52.60200 24.89500
H  21.96000 54.02200 25.27200
H  20.79200 53.43500 26.41700
H  22.88300 51.37200 30.79100
H  23.49700 55.06500 33.12900
H  24.21600 53.49800 33.65000
H  22.59000 53.95100 34.18000

