158

Mg -1.80000 17.40600 26.20800
C  -2.29900 15.16000 28.93600
C  -2.30800 19.99600 28.37800
C  -1.68500 19.49000 23.59400
C  -1.86200 14.51300 24.02900
N  -2.33100 17.54400 28.35000
C  -2.39200 16.54500 29.26000
C  -2.85300 17.03200 30.65300
C  -2.99800 18.56000 30.40100
C  -2.54100 18.75100 28.90800
C  -4.39500 19.07000 30.88600
C  -1.82700 16.79700 31.78900
C  -2.41200 16.30800 33.12600
H  -1.48200 15.72200 34.10800
N  -1.83400 19.53400 26.01300
C  -2.02600 20.36800 27.07700
C  -2.11300 21.72500 26.54800
C  -1.97100 21.65100 25.15500
C  -1.84700 20.20700 24.84800
C  -2.45100 22.95100 27.39100
C  -1.96300 22.84800 24.04200
O  -1.86200 22.62000 22.83300
C  -2.11100 24.25800 24.44700
N  -1.83900 16.99700 24.09900
C  -1.76300 18.06500 23.27400
C  -1.88100 17.64400 21.82300
C  -1.69200 16.07600 21.95500
C  -1.78600 15.81100 23.44700
C  -3.23700 18.11400 21.30700
C  -0.49200 15.56900 21.15100
C  0.78800 15.25000 21.95800
N  -2.06700 15.26700 26.37000
C  -1.98600 14.24300 25.42400
C  -2.07200 12.96800 26.08300
C  -2.07800 13.28800 27.47800
C  -2.08100 14.68400 27.57600
C  -2.02500 11.67300 25.40500
C  -2.18000 12.72400 28.78900
O  -2.16500 11.50600 29.10200
C  -2.43900 13.90700 29.75000
C  -1.62100 13.60600 30.88100
O  -0.40300 13.79100 30.95200
O  -2.39700 12.98800 31.84200
C  -1.55700 12.41500 32.90500
H  -2.51200 20.69100 29.19500
H  -1.62300 20.08400 22.67900
H  -1.84800 13.65700 23.35000
H  -3.76900 16.46300 30.80900
H  -2.26500 19.21800 30.86600
H  -4.26400 20.08400 31.26400
H  -4.67200 18.36200 31.66700
H  -5.00100 19.03400 29.98100
H  -1.32900 17.72000 32.08300
H  -0.99700 16.18300 31.43900
H  -3.18100 15.58100 32.86500
H  -2.93600 17.17800 33.52000
H  -1.67200 23.71300 27.44200
H  -2.84200 22.63400 28.35700
H  -3.35400 23.37100 26.94700
H  -2.12600 25.04400 23.69300
H  -1.26200 24.48100 25.09400
H  -2.97200 24.32700 25.11300
H  -1.09000 18.07600 21.21000
H  -2.55100 15.52400 21.57300
H  -3.04700 18.79500 20.47700
H  -3.84300 18.69700 22.00100
H  -3.79100 17.24700 20.94900
H  -0.21600 16.29900 20.39000
H  -0.63800 14.57000 20.74000
H  1.59500 15.75200 21.42600
H  0.99200 14.18200 22.02700
H  0.66200 15.56500 22.99400
H  -3.06800 11.38200 25.27700
H  -1.60100 10.91000 26.05700
H  -1.51800 11.71400 24.44100
H  -3.51500 13.91600 29.92100
H  -1.51300 13.08700 33.76200
H  -0.56600 12.16600 32.52400
H  -1.96000 11.46200 33.24600
Mg 41.68900 41.50500 26.98500
C  41.12200 43.80600 29.65800
C  42.37500 39.19500 29.52200
C  42.31700 39.29600 24.59700
C  40.87000 43.97500 24.73500
N  41.73200 41.56500 29.37700
C  41.34700 42.58000 30.17500
C  41.34700 42.19000 31.63100
C  41.98100 40.70500 31.58800
C  42.02500 40.45900 30.00900
C  43.45500 40.54300 32.17900
C  39.91500 42.23200 32.27000
C  39.69300 43.02800 33.57900
H  39.03200 42.41100 34.79800
N  42.41300 39.56400 27.09300
C  42.63000 38.77000 28.13700
C  43.22900 37.59000 27.71000
C  43.15500 37.53200 26.28100
C  42.58900 38.82600 25.92800
C  43.63500 36.48300 28.63400
C  43.53600 36.37400 25.33600
O  43.43500 36.41200 24.12200
C  44.36700 35.20900 25.84800
N  41.59000 41.58200 24.98000
C  41.89800 40.52900 24.18800
C  41.78900 40.96200 22.66900
C  41.12500 42.36000 22.71000
C  41.14000 42.69100 24.20300
C  43.20300 40.94100 22.00900
C  39.68300 42.38100 22.08700
C  38.54000 41.49700 22.81300
N  41.27300 43.43500 27.06200
C  41.01100 44.38400 26.06200
C  40.83200 45.68800 26.60700
C  40.82100 45.47600 28.00800
C  41.15000 44.14000 28.23800
C  40.66600 46.91000 25.86300
C  40.57600 46.18000 29.24400
O  40.20200 47.31900 29.41000
C  40.73500 45.09400 30.37400
C  41.69500 45.61300 31.47500
O  42.93100 45.63200 31.33400
O  41.01800 46.15600 32.55100
C  41.84800 46.62100 33.60600
H  42.60300 38.41900 30.25600
H  42.51400 38.47200 23.90900
H  40.70500 44.82400 24.06900
H  41.90900 43.01800 32.06500
H  41.36200 39.96400 32.09500
H  43.59300 41.33000 32.92000
H  44.25700 40.64800 31.44800
H  43.53000 39.56200 32.64900
H  39.70000 41.21700 32.60600
H  39.21500 42.44400 31.46200
H  39.07700 43.86200 33.24100
H  40.67500 43.39300 33.88100
H  44.54800 35.94900 28.36900
H  42.92000 35.66900 28.75800
H  43.92100 36.88900 29.60400
H  45.30500 35.61800 26.22100
H  44.54000 34.45900 25.07500
H  43.80800 34.81700 26.69800
H  41.10800 40.23100 22.23400
H  41.78700 42.98600 22.11200
H  43.65300 41.91700 21.82500
H  43.06800 40.49900 21.02200
H  43.95900 40.36000 22.53700
H  39.72300 42.07500 21.04200
H  39.37900 43.42800 22.07100
H  38.03700 40.88800 22.06200
H  37.79100 42.20100 23.17500
H  38.90600 40.80900 23.57500
H  41.31100 46.76000 24.99700
H  40.82400 47.83800 26.41200
H  39.60200 46.82400 25.64300
H  39.78100 45.10100 30.90200
H  42.86800 46.85800 33.30100
H  41.85200 46.06800 34.54500
H  41.38100 47.59600 33.74200

