158

Mg 3.23800 -0.73700 43.94100
C  6.66500 -0.18000 43.75000
C  2.79200 2.21900 42.26600
C  0.24700 -1.90400 43.19600
C  4.02400 -3.94500 45.38000
N  4.63500 0.81900 42.92700
C  5.96100 0.83600 43.00400
C  6.55700 2.02600 42.21700
C  5.27400 2.91800 42.16400
C  4.18500 1.95800 42.46200
C  5.23200 4.11300 43.25600
C  7.11200 1.41100 40.94100
C  8.59400 1.65500 40.77000
H  9.11700 1.86600 39.35400
N  1.68900 0.11500 43.00000
C  1.68400 1.33700 42.40400
C  0.40100 1.65400 41.85000
C  -0.42600 0.44900 42.08900
C  0.47300 -0.51700 42.88300
C  0.06200 2.97000 41.16000
C  -1.92000 0.21000 41.71500
O  -2.56000 0.93300 40.98300
C  -2.68800 -0.95200 42.25100
N  2.25200 -2.77900 44.25200
C  0.95000 -2.96600 43.85100
C  0.36300 -4.33800 44.38500
C  1.64300 -4.93100 45.17400
C  2.65400 -3.76300 45.03300
C  -0.94900 -4.21300 45.23200
C  2.18900 -6.27900 44.67900
C  2.58400 -7.38600 45.61400
N  4.91500 -1.84500 44.47100
C  5.07200 -3.00200 45.18200
C  6.48700 -3.15300 45.58500
C  7.13300 -1.98900 45.11800
C  6.12200 -1.27800 44.41000
C  7.07800 -4.33000 46.34200
C  8.40500 -1.29800 44.99500
O  9.53700 -1.62900 45.35900
C  8.14300 -0.09400 44.16200
C  8.28700 1.13600 44.99400
O  7.66500 1.33800 45.98000
O  9.06600 2.07900 44.34300
C  9.00700 3.42200 44.87500
H  2.50900 3.19300 41.86200
H  -0.64500 -2.33500 42.73800
H  4.19700 -4.95400 45.76100
H  7.34400 2.64100 42.65300
H  5.20300 3.31000 41.14900
H  6.11000 4.06200 43.89900
H  4.33300 4.12200 43.87300
H  5.24300 5.03900 42.68100
H  6.64300 1.81900 40.04500
H  7.04400 0.32600 40.86300
H  9.27800 0.98000 41.28400
H  8.99200 2.51000 41.31600
H  0.75500 3.31400 40.39300
H  0.09800 3.71500 41.95400
H  -0.95200 3.00800 40.76100
H  -3.74800 -0.79100 42.05000
H  -2.49100 -1.04700 43.31900
H  -2.37500 -1.85700 41.73100
H  0.06700 -4.93900 43.52500
H  1.42300 -4.98300 46.24000
H  -1.70800 -4.58100 44.54200
H  -1.07900 -3.18700 45.57600
H  -0.96700 -4.95400 46.03200
H  3.13100 -6.07600 44.17000
H  1.48300 -6.69800 43.96100
H  3.58000 -7.75600 45.36700
H  1.84600 -8.18500 45.54300
H  2.65700 -6.98600 46.62500
H  6.50200 -5.25400 46.38600
H  7.32800 -4.06700 47.37000
H  7.99900 -4.70600 45.89600
H  8.75100 0.00200 43.26300
H  9.96200 3.62500 45.35900
H  8.27500 3.71300 45.62900
H  8.78100 4.17200 44.11800
Mg 26.67700 50.04300 26.92500
C  24.62300 51.33500 29.63200
C  28.94100 49.05300 29.40600
C  28.69500 49.22800 24.53700
C  24.38100 51.53700 24.70200
N  26.73700 50.18200 29.27100
C  25.68200 50.66800 30.11700
C  26.05200 50.43600 31.58300
C  27.49100 49.71700 31.47200
C  27.76900 49.62900 29.93200
C  28.59900 50.48300 32.20500
C  25.00300 49.58700 32.33800
C  24.37300 50.26300 33.66100
H  24.59200 49.48600 34.94700
N  28.48200 49.22800 26.95100
C  29.27400 48.84500 28.02200
C  30.53000 48.23400 27.63000
C  30.51800 48.28800 26.13900
C  29.17200 48.88100 25.80100
C  31.51900 47.57800 28.61700
C  31.52700 47.86400 25.18700
O  31.33200 48.06900 24.01800
C  32.81900 47.27200 25.56100
N  26.52000 50.36400 24.93200
C  27.51800 49.88200 24.12700
C  27.13900 49.99100 22.61700
C  25.79400 50.76000 22.71700
C  25.46900 50.85200 24.21000
C  28.17700 50.81600 21.73700
C  24.58400 50.03600 21.96900
C  24.05200 48.63500 22.34000
N  24.88400 51.16300 27.08000
C  24.09700 51.74300 26.08100
C  22.94500 52.54400 26.62600
C  23.17000 52.37300 28.05200
C  24.34500 51.56600 28.24500
C  21.82200 53.24000 25.80800
C  22.60100 52.67900 29.36200
O  21.57800 53.26100 29.67500
C  23.52800 52.04100 30.44400
C  23.93600 53.16300 31.33600
O  24.73400 54.04000 31.09100
O  23.20500 53.11500 32.53200
C  23.66000 54.00200 33.60100
H  29.54000 48.57700 30.18500
H  29.20500 48.87700 23.63800
H  23.70800 52.07600 24.03200
H  26.17300 51.39600 32.08600
H  27.62000 48.72500 31.90300
H  29.54900 50.00000 31.97700
H  28.56200 50.65100 33.28100
H  28.65700 51.43400 31.67700
H  25.47200 48.64200 32.61300
H  24.15500 49.35300 31.69300
H  23.31400 50.42300 33.46100
H  24.77500 51.27100 33.75900
H  31.38500 47.88700 29.65300
H  32.55400 47.86300 28.42800
H  31.37200 46.49800 28.60200
H  33.29200 47.70300 26.44400
H  33.53600 47.35400 24.74400
H  32.60500 46.21400 25.71500
H  26.89900 49.03300 22.15600
H  25.81600 51.77400 22.31500
H  29.07800 51.05400 22.30100
H  27.79900 51.76800 21.36500
H  28.34900 50.18700 20.86300
H  24.89700 49.95500 20.92800
H  23.84300 50.83600 21.98600
H  24.61300 48.22400 23.17900
H  24.20300 48.03300 21.44400
H  23.00100 48.74900 22.60400
H  21.38700 52.67100 24.98500
H  22.05500 54.22000 25.39100
H  21.04700 53.37400 26.56200
H  22.94900 51.30200 30.99800
H  22.88600 54.12900 34.35800
H  23.87900 54.96300 33.13500
H  24.53700 53.64200 34.13900

