158

Mg 7.57800 2.31000 27.50300
C  9.15900 1.28100 30.49800
C  5.66900 4.50900 29.28000
C  6.00800 3.17100 24.64600
C  9.15000 -0.32700 25.88500
N  7.46700 2.89700 29.65600
C  8.18300 2.29800 30.71400
C  7.73900 2.92300 32.06200
C  6.53600 3.88300 31.66800
C  6.50900 3.69800 30.11400
C  5.13100 3.58600 32.20300
C  8.96100 3.55600 32.87500
C  9.29900 2.92800 34.19800
H  9.85100 3.85700 35.27000
N  6.14100 3.71200 26.99000
C  5.57700 4.58300 27.88300
C  4.71400 5.53000 27.16900
C  4.82200 5.13000 25.79600
C  5.66400 3.98100 25.74300
C  4.07200 6.74700 27.76700
C  4.23400 5.76600 24.58700
O  4.48100 5.31600 23.47400
C  3.45200 7.05200 24.70000
N  7.59200 1.50200 25.59400
C  6.80600 2.01400 24.63100
C  6.88600 1.13200 23.35700
C  7.87400 0.03600 23.81000
C  8.25200 0.45800 25.17300
C  5.49400 0.65200 22.81800
C  9.14200 0.03900 22.77500
C  9.28000 -1.35300 22.17400
N  8.93300 0.80900 28.05100
C  9.45100 -0.22200 27.25200
C  10.43800 -0.99300 28.04600
C  10.37800 -0.41000 29.29100
C  9.38100 0.59700 29.30500
C  11.33000 -2.06700 27.55000
C  10.91200 -0.52100 30.62200
O  11.75300 -1.25700 31.10700
C  10.19100 0.65400 31.48600
C  9.62000 0.05000 32.72100
O  8.44800 -0.29200 32.82900
O  10.54900 -0.14000 33.78000
C  10.05600 -0.62800 35.07600
H  4.99900 5.21200 29.77900
H  5.58300 3.25100 23.64300
H  9.57800 -1.11000 25.25500
H  7.33000 2.03500 32.54300
H  6.62500 4.95400 31.85000
H  4.36000 3.93900 31.51800
H  4.99200 4.19300 33.09800
H  5.00700 2.51500 32.36200
H  8.75500 4.61700 33.01800
H  9.76900 3.58200 32.14400
H  10.12400 2.26300 33.94300
H  8.41200 2.40600 34.55900
H  2.99200 6.61100 27.73600
H  4.40500 7.70900 27.37700
H  4.23100 6.80200 28.84500
H  3.05500 7.31100 23.71800
H  4.16900 7.74400 25.14100
H  2.56900 6.98100 25.33500
H  7.30900 1.79900 22.60600
H  7.29200 -0.88600 23.82600
H  4.70500 0.94800 23.51000
H  5.43500 -0.43500 22.77100
H  5.34300 1.07400 21.82500
H  10.01300 0.46900 23.26800
H  8.95600 0.69200 21.92300
H  10.29700 -1.52500 21.82100
H  8.53700 -1.34300 21.37700
H  8.93500 -2.00900 22.97400
H  10.83400 -2.88100 28.07800
H  12.34000 -1.97000 27.94800
H  11.19900 -2.34800 26.50500
H  10.81700 1.44300 31.90200
H  9.42000 0.10300 35.57500
H  10.81700 -1.05500 35.73000
H  9.33600 -1.43900 34.96500
Mg 26.58800 49.79500 26.68000
C  24.34600 50.86700 29.13500
C  28.63600 48.72200 29.15900
C  28.72300 48.91200 24.34100
C  24.54400 51.41500 24.33300
N  26.28900 49.45300 28.90500
C  25.35700 50.03800 29.68000
C  25.54000 49.68100 31.17300
C  26.99900 49.05000 31.23000
C  27.37200 49.02200 29.70000
C  28.07400 49.77900 32.03100
C  24.41900 48.74000 31.71200
C  23.79900 49.27700 33.11200
H  24.82400 49.89100 34.18000
N  28.38400 48.90200 26.76600
C  29.08400 48.54200 27.83200
C  30.32800 47.87500 27.47200
C  30.44800 47.94800 26.04100
C  29.15500 48.66700 25.63600
C  31.37300 47.29400 28.38500
C  31.61800 47.48000 25.07300
O  31.55000 47.78500 23.86600
C  32.86900 46.82100 25.60000
N  26.63300 50.15400 24.62300
C  27.61400 49.57000 23.89400
C  27.25600 49.61900 22.42000
C  25.85400 50.34000 22.35100
C  25.60800 50.63600 23.83700
C  28.27900 50.23600 21.42400
C  24.69000 49.55100 21.60200
C  23.61000 50.54400 21.07000
N  24.76000 50.85400 26.63700
C  24.20500 51.61500 25.67000
C  23.07100 52.27200 26.16900
C  23.10000 52.06500 27.53000
C  24.17900 51.25700 27.77300
C  22.10200 53.17700 25.48300
C  22.44000 52.41900 28.77400
O  21.42100 53.09700 28.99900
C  23.33200 51.70800 29.82800
C  23.89600 52.85100 30.61400
O  24.91800 53.44900 30.30100
O  23.08300 53.07300 31.75900
C  23.50900 54.24000 32.43000
H  29.28900 48.28200 29.91600
H  29.45200 48.65500 23.56900
H  23.89300 51.89500 23.59900
H  25.55300 50.66900 31.63300
H  26.92100 47.98600 31.45400
H  28.60800 50.58200 31.52200
H  28.80300 48.99400 32.23500
H  27.65400 50.13600 32.97100
H  24.86900 47.75600 31.84900
H  23.66100 48.62500 30.93800
H  23.39500 48.32700 33.46000
H  22.99600 49.95600 32.82400
H  31.58200 46.25800 28.11800
H  31.07700 47.18900 29.42900
H  32.24100 47.94200 28.26400
H  33.26200 47.51300 26.34400
H  33.62800 46.63400 24.84000
H  32.30200 45.97700 25.99300
H  27.09900 48.65300 21.94000
H  25.98500 51.37100 22.02100
H  28.01000 51.28300 21.28300
H  28.19800 49.77000 20.44200
H  29.29100 50.19600 21.82800
H  24.24400 49.03100 22.45000
H  25.05300 48.71700 21.00100
H  24.04200 51.53000 20.89800
H  22.73700 50.65300 21.71400
H  23.17500 50.16600 20.14600
H  22.68300 53.56000 24.64500
H  21.76500 54.01500 26.09300
H  21.32000 52.52200 25.09800
H  22.79200 51.06400 30.52300
H  22.67500 54.56300 33.05400
H  23.84300 54.98800 31.71100
H  24.39800 53.90700 32.96600

