158

Mg 47.78700 15.63000 27.62800
C  46.08500 15.79400 30.67200
C  50.17900 17.64300 28.89700
C  49.12300 15.79300 24.54400
C  44.92900 14.02300 26.33900
N  48.11800 16.57500 29.61800
C  47.33500 16.46600 30.71300
C  47.99500 17.06300 31.88600
C  49.26600 17.80700 31.30100
C  49.12600 17.39500 29.79600
C  49.33200 19.31200 31.63100
C  48.38600 15.98800 33.01800
C  47.94700 16.38800 34.45800
H  47.76600 17.86200 34.88600
N  49.47100 16.54600 26.81500
C  50.36900 17.32100 27.53700
C  51.48300 17.84000 26.66000
C  51.19600 17.23000 25.39800
C  49.91600 16.52300 25.50900
C  52.62700 18.62000 27.13700
C  52.03000 17.19200 24.14200
O  51.74400 16.56000 23.10800
C  53.31000 17.89900 24.10200
N  47.23300 14.86000 25.74100
C  47.93200 15.12400 24.62400
C  47.14600 14.70100 23.37800
C  45.82900 14.11700 23.98700
C  45.99100 14.37300 25.45800
C  46.99000 15.91200 22.39400
C  45.46300 12.64000 23.60500
C  46.17100 11.59100 24.40700
N  45.86800 14.92100 28.42000
C  44.84200 14.30300 27.69000
C  43.71200 14.00100 28.63600
C  44.17800 14.52300 29.87700
C  45.50400 15.10000 29.68000
C  42.48700 13.22900 28.30900
C  43.91600 14.79300 31.32100
O  42.92500 14.52700 31.99000
C  45.13900 15.46900 31.89300
C  44.65100 16.74100 32.58000
O  44.58600 17.90600 32.25600
O  44.15700 16.30200 33.77300
C  43.40000 17.21800 34.63500
H  50.95500 18.26500 29.34800
H  49.49500 16.03500 23.54600
H  43.99900 13.65100 25.90500
H  47.33700 17.81200 32.32600
H  50.18300 17.27000 31.54100
H  49.23600 19.86500 30.69600
H  50.28700 19.67000 32.01700
H  48.47300 19.67600 32.19400
H  49.47100 15.93000 32.93500
H  48.05500 14.97800 32.77700
H  48.72800 15.93000 35.06500
H  47.09600 15.76800 34.73800
H  52.89100 19.56400 26.66000
H  53.50700 17.98000 27.08100
H  52.42700 18.92500 28.16400
H  53.06900 18.94000 24.31400
H  53.87700 17.73100 23.18700
H  53.92700 17.49000 24.90200
H  47.73100 13.84800 23.03300
H  45.02300 14.79900 23.71800
H  47.57200 15.65200 21.51000
H  47.51100 16.76100 22.83600
H  45.96400 16.04900 22.05400
H  45.78300 12.64900 22.56300
H  44.38700 12.47600 23.54900
H  46.73100 11.96900 25.26200
H  46.65500 10.95900 23.66300
H  45.44700 10.89600 24.83200
H  42.16700 13.36200 27.27600
H  41.60000 13.52200 28.87000
H  42.47500 12.15600 28.50400
H  45.63600 14.87900 32.66200
H  42.66100 17.82100 34.10800
H  44.11000 17.78700 35.23500
H  42.77100 16.58200 35.25700
Mg -12.68000 16.01900 42.10600
C  -9.61600 14.15700 41.84200
C  -11.08200 18.56100 40.36100
C  -15.65700 17.20100 41.35500
C  -14.05800 13.10100 43.60900
N  -10.51200 16.30900 41.28100
C  -9.45800 15.43800 41.28900
C  -8.25600 16.00100 40.46300
C  -8.72300 17.55400 40.28100
C  -10.18700 17.55700 40.78400
C  -7.85900 18.64300 41.12500
C  -8.08600 15.21300 39.10200
C  -6.66100 15.07500 38.49500
H  -6.02000 16.03900 37.50800
N  -13.29100 17.70600 41.06600
C  -12.49700 18.70600 40.49700
C  -13.30600 19.81900 40.08400
C  -14.67900 19.50600 40.37300
C  -14.63800 18.11900 41.07600
C  -12.82200 21.12800 39.47300
C  -15.89100 20.39200 40.12800
O  -15.72600 21.47000 39.60900
C  -17.25000 20.18900 40.67200
N  -14.52400 15.20400 42.42200
C  -15.62900 15.95500 42.00200
C  -16.93000 15.22500 42.38100
C  -16.42300 13.99700 43.19400
C  -14.88100 14.08800 43.07400
C  -18.01300 16.07700 43.09800
C  -16.99700 12.62000 42.78300
C  -17.22900 11.65100 43.93300
N  -12.05800 13.96000 42.56700
C  -12.70400 12.93300 43.28000
C  -11.80800 11.84400 43.58500
C  -10.57400 12.25700 42.94400
C  -10.80700 13.51000 42.36200
C  -12.14800 10.55800 44.32100
C  -9.19400 11.86300 42.66000
O  -8.51500 10.90400 42.87900
C  -8.56500 13.00600 41.91200
C  -7.36900 13.50000 42.62900
O  -7.30400 13.68800 43.85600
O  -6.38600 13.76700 41.73900
C  -5.22800 14.44100 42.27800
H  -10.58300 19.41400 39.89600
H  -16.65600 17.54000 41.07400
H  -14.54400 12.27300 44.13000
H  -7.40800 16.01100 41.14700
H  -8.84400 17.77700 39.22100
H  -7.22700 19.21300 40.44400
H  -7.12500 18.05900 41.68000
H  -8.46200 19.28000 41.77300
H  -8.60500 15.75300 38.31000
H  -8.57900 14.24700 39.20600
H  -6.62700 14.03400 38.17500
H  -5.97800 15.14100 39.34200
H  -12.66600 21.81200 40.30700
H  -13.42800 21.42900 38.61800
H  -11.81100 21.01200 39.08400
H  -17.73500 19.54900 39.93600
H  -17.67000 21.18500 40.81400
H  -17.06800 19.57100 41.55100
H  -17.37700 14.78500 41.49000
H  -16.68700 14.12100 44.24500
H  -17.61500 17.06400 43.33000
H  -18.26600 15.70300 44.09000
H  -18.89600 16.03900 42.45900
H  -16.26700 12.16500 42.11300
H  -17.95300 12.78400 42.28500
H  -18.19000 11.14400 43.85100
H  -17.18300 12.15600 44.89800
H  -16.38700 10.97500 44.08300
H  -11.22400 9.98800 44.42300
H  -12.80300 9.89400 43.75700
H  -12.48600 10.82500 45.32200
H  -8.21600 12.73100 40.91700
H  -4.74500 15.06700 41.52800
H  -4.58900 13.62700 42.62000
H  -5.43400 14.99600 43.19300

