158

Mg 46.94500 25.25700 29.04800
C  47.79900 27.49700 31.74600
C  45.77400 23.04700 31.39400
C  46.96300 22.87300 26.73200
C  49.20300 27.13600 27.02600
N  46.72400 25.35200 31.25300
C  47.16700 26.27700 32.10500
C  46.77100 25.91900 33.57800
C  46.30600 24.42000 33.42400
C  46.16100 24.27100 31.93100
C  47.26000 23.35600 34.04600
C  45.60500 26.93500 34.15400
C  45.92300 27.48300 35.57700
H  46.27700 26.52900 36.74100
N  46.25600 23.35900 29.00500
C  45.79300 22.57400 30.05000
C  45.43900 21.29500 29.53700
C  45.58900 21.31200 28.11200
C  46.33500 22.50600 27.94200
C  44.93900 20.16500 30.40200
C  45.25500 20.28900 27.01300
O  45.40500 20.42500 25.76000
C  44.46700 19.07200 27.50700
N  47.92200 25.04100 27.15300
C  47.66200 24.05300 26.32200
C  48.40600 24.24400 24.97000
C  48.93900 25.68800 24.97200
C  48.65700 25.99700 26.44700
C  49.39000 23.14100 24.72100
C  48.46600 26.66900 23.90400
C  49.52600 27.49700 23.22400
N  48.17800 27.00800 29.19600
C  48.90200 27.64800 28.31100
C  49.38000 28.93900 28.89000
C  48.89600 28.89800 30.20100
C  48.21600 27.69000 30.39800
C  50.12100 29.95600 28.18100
C  49.00300 29.60400 31.48600
O  49.47400 30.68900 31.84600
C  48.28200 28.67200 32.54700
C  49.18500 28.41900 33.64800
O  49.95300 27.44800 33.64300
O  49.17700 29.35700 34.62900
C  50.14000 29.14200 35.73000
H  45.38000 22.27400 32.05800
H  46.99700 22.18600 25.88400
H  49.86900 27.75900 26.42400
H  47.64400 25.95500 34.22900
H  45.31200 24.31300 33.85700
H  47.47600 22.58700 33.30400
H  46.82400 22.88800 34.92800
H  48.22400 23.75600 34.36200
H  44.66200 26.38900 34.17200
H  45.47800 27.78000 33.47700
H  44.96900 27.93000 35.85500
H  46.67900 28.26000 35.46000
H  45.47300 19.22500 30.26600
H  43.92600 19.96900 30.05000
H  44.88700 20.36600 31.47200
H  43.45400 19.42800 27.69500
H  44.85000 18.66600 28.44300
H  44.49600 18.26500 26.77500
H  47.64100 24.15900 24.19800
H  50.02300 25.80400 24.97000
H  49.79000 22.66500 25.61700
H  50.24600 23.48700 24.14100
H  48.89500 22.36300 24.14000
H  47.72000 27.29100 24.39900
H  47.93100 26.13100 23.12200
H  49.24500 27.90800 22.25400
H  50.48200 26.99400 23.08000
H  49.69300 28.46100 23.70500
H  49.54600 30.10900 27.26800
H  51.10300 29.55000 27.93900
H  50.10100 30.88800 28.74700
H  47.39200 29.14700 32.96000
H  49.74000 28.39800 36.41900
H  50.36800 30.08200 36.23200
H  51.11800 28.72900 35.48400
Mg -11.82500 37.74600 42.43100
C  -9.62500 35.29400 41.23600
C  -9.97600 40.08200 40.75500
C  -14.25100 40.04200 43.13000
C  -14.11500 35.20600 43.25500
N  -10.11100 37.66200 41.01600
C  -9.24500 36.57500 40.84100
C  -7.93900 37.02700 40.11000
C  -8.05500 38.56400 40.08400
C  -9.48000 38.79300 40.58800
C  -6.91500 39.38800 40.77800
C  -7.75800 36.37200 38.65700
C  -6.37400 35.92000 38.28300
H  -5.72100 36.42200 37.08400
N  -11.95600 39.75500 42.20700
C  -11.07200 40.57500 41.51100
C  -11.44100 41.90600 41.68400
C  -12.63200 41.92800 42.41900
C  -13.02900 40.52300 42.63000
C  -10.68300 43.08700 41.14800
C  -13.33500 43.16800 42.98500
O  -12.84300 44.26700 42.80100
C  -14.62200 43.11700 43.86200
N  -13.92600 37.61500 43.11500
C  -14.65000 38.75000 43.21400
C  -16.04900 38.39800 43.69600
C  -16.06300 36.85200 43.76700
C  -14.68300 36.48600 43.28000
C  -16.52400 39.01800 45.02700
C  -17.29100 36.20500 42.94500
C  -18.37700 35.65200 43.94800
N  -11.90400 35.71400 42.36100
C  -12.80200 34.77400 42.90600
C  -12.18300 33.47800 43.00400
C  -10.88500 33.71200 42.39200
C  -10.82600 35.01200 41.98000
C  -12.76100 32.13800 43.58600
C  -9.61600 33.04100 42.04200
O  -9.29700 31.85700 42.21400
C  -8.75500 34.06200 41.26500
C  -7.47800 34.18100 41.97700
O  -7.32700 34.30900 43.16800
O  -6.46300 33.78500 41.18300
C  -5.17000 33.44500 41.78100
H  -9.30600 40.84100 40.34500
H  -15.09200 40.70400 43.34500
H  -14.84200 34.45600 43.57300
H  -7.07300 36.80700 40.73500
H  -8.07600 38.89700 39.04600
H  -6.06300 38.71200 40.85200
H  -7.20100 39.73700 41.77000
H  -6.68200 40.23100 40.12700
H  -8.09000 37.01000 37.83700
H  -8.32400 35.44100 38.62800
H  -6.26700 34.83900 38.36500
H  -5.64500 36.34800 38.97100
H  -11.16100 43.52800 40.27300
H  -9.69700 42.72100 40.86000
H  -10.61200 43.78700 41.98000
H  -15.49000 42.96500 43.22100
H  -14.87300 44.07100 44.32500
H  -14.67400 42.34400 44.62800
H  -16.70000 38.82600 42.93400
H  -16.08600 36.51100 44.80200
H  -16.70700 38.24300 45.77100
H  -17.44300 39.54100 44.76400
H  -15.86700 39.79500 45.41700
H  -16.90300 35.37000 42.36100
H  -17.78200 36.89000 42.25500
H  -18.51800 34.59500 43.72600
H  -19.39800 36.01400 43.82600
H  -18.09600 35.80500 44.99000
H  -13.82000 32.20200 43.83800
H  -12.21800 31.81100 44.47200
H  -12.80400 31.46000 42.73400
H  -8.52200 33.84100 40.22300
H  -4.92000 34.10400 42.61200
H  -4.51700 33.55100 40.91500
H  -5.27700 32.46300 42.24200

