158

Mg 47.32600 15.67800 29.17800
C  44.98500 14.84000 31.83700
C  48.74800 17.85900 31.39000
C  49.17800 16.59800 26.62900
C  45.01600 13.96400 26.97600
N  46.84800 16.30100 31.41700
C  46.03600 15.60100 32.24600
C  46.28800 16.09800 33.72300
C  47.20600 17.34700 33.53000
C  47.69100 17.15500 32.04200
C  46.53800 18.67900 33.78900
C  46.84800 14.93600 34.66200
C  46.34000 14.89500 36.09300
H  47.47900 14.90600 37.16200
N  48.86500 17.01800 29.05600
C  49.27700 17.86300 30.02200
C  50.39500 18.64100 29.45200
C  50.56000 18.32700 28.14700
C  49.56500 17.29000 27.86900
C  51.10900 19.67000 30.40800
C  51.54300 18.81900 27.12600
O  51.58500 18.38100 25.97200
C  52.51900 19.93000 27.51700
N  47.11600 15.33500 27.14400
C  48.06100 15.82100 26.23100
C  47.62800 15.51100 24.78900
C  46.46500 14.51200 24.98700
C  46.17500 14.58400 26.47700
C  47.33400 16.59200 23.81100
C  46.59100 13.12600 24.39300
C  47.56900 12.09900 25.08400
N  45.37600 14.58100 29.32000
C  44.64400 13.87600 28.33500
C  43.51100 13.28000 28.97400
C  43.61200 13.67500 30.31100
C  44.73400 14.45300 30.48400
C  42.58000 12.40200 28.23600
C  42.91900 13.59500 31.59900
O  41.90200 12.99300 31.94400
C  43.77000 14.34100 32.62900
C  42.91000 15.45500 33.14000
O  42.69700 16.51300 32.63200
O  42.48700 15.12900 34.42800
C  41.82400 16.07400 35.24600
H  49.15300 18.55800 32.12500
H  49.82500 16.85200 25.78700
H  44.29700 13.66800 26.20800
H  45.24700 16.33700 33.94200
H  48.10800 17.28800 34.13900
H  46.56400 18.81300 34.87100
H  45.51500 18.79100 33.42900
H  47.10000 19.47100 33.29500
H  47.93300 15.01800 34.72600
H  46.59800 13.99100 34.18100
H  45.75700 13.98600 36.24100
H  45.70600 15.77500 36.20300
H  50.61300 19.69200 31.37900
H  51.12000 20.63400 29.89900
H  52.11000 19.30900 30.64600
H  53.25800 20.15800 26.74800
H  52.99900 19.63300 28.44900
H  51.95300 20.85400 27.63400
H  48.47500 15.00000 24.32900
H  45.57600 14.92600 24.51000
H  47.67500 17.54500 24.21500
H  46.27100 16.74700 23.62500
H  47.84300 16.51700 22.85000
H  46.96800 13.19900 23.37200
H  45.59300 12.68900 24.37300
H  47.14600 11.17300 25.47400
H  48.09000 12.60100 25.89900
H  48.36800 11.76900 24.42100
H  41.84000 11.99800 28.92700
H  43.12800 11.55100 27.83100
H  42.13400 12.96200 27.41400
H  44.08500 13.77400 33.50500
H  41.81400 15.58400 36.22000
H  40.82200 16.28200 34.87000
H  42.53700 16.89500 35.30900
Mg 34.02900 49.28800 24.89000
C  34.00500 47.48500 27.90600
C  32.51600 51.88000 26.51600
C  33.76200 50.78900 21.92400
C  35.29500 46.31700 23.34400
N  33.53600 49.68700 27.02400
C  33.65700 48.83000 28.04000
C  33.54600 49.57100 29.36600
C  32.92600 50.92300 28.88500
C  32.92200 50.85000 27.37800
C  31.55500 51.30100 29.54700
C  34.88900 49.64700 30.12800
C  34.84700 49.28800 31.62500
H  33.56600 49.30400 32.42100
N  33.27500 51.16500 24.32900
C  32.62300 52.11900 25.10400
C  32.02000 53.16200 24.29400
C  32.44400 52.90500 22.95800
C  33.20300 51.59300 23.01000
C  31.26900 54.30000 24.86900
C  32.19200 53.67200 21.68000
O  32.64100 53.20900 20.59400
C  31.37200 54.98000 21.61200
N  34.45600 48.64600 22.98000
C  34.36800 49.53700 21.92500
C  34.79800 48.88800 20.60700
C  35.52000 47.58500 21.16800
C  35.08000 47.47100 22.58300
C  33.64600 48.62100 19.64700
C  37.06300 47.77200 20.88600
C  37.67100 46.66400 20.00500
N  34.56400 47.25700 25.40200
C  34.96700 46.13800 24.69400
C  35.24800 45.02600 25.51700
C  34.87600 45.45500 26.76500
C  34.43600 46.87900 26.66500
C  35.78200 43.64000 25.17500
C  34.78900 45.10600 28.14200
O  35.03100 44.04100 28.67900
C  34.26400 46.39300 28.97500
C  33.00200 46.08700 29.74900
O  31.91100 46.43500 29.43900
O  33.31900 45.36700 30.90800
C  32.11800 45.11900 31.70200
H  32.13200 52.72000 27.09700
H  33.84000 51.35100 20.99100
H  35.81400 45.52600 22.79800
H  32.75400 49.11400 29.96000
H  33.63300 51.69700 29.18500
H  31.36400 50.78300 30.48700
H  30.78400 50.99600 28.84000
H  31.39800 52.35000 29.80000
H  35.40200 50.55400 29.80900
H  35.55900 48.91800 29.67200
H  35.49600 50.01000 32.12000
H  35.37100 48.33300 31.67200
H  31.34600 54.41800 25.95000
H  30.19700 54.19000 24.70000
H  31.49500 55.23000 24.34800
H  30.45600 54.96400 22.20100
H  31.15200 55.05000 20.54700
H  32.15400 55.64200 21.98400
H  35.48400 49.62100 20.18100
H  35.16800 46.67600 20.67800
H  33.77600 47.64800 19.17300
H  33.76300 49.37200 18.86600
H  32.69500 48.67100 20.17800
H  37.52800 47.83100 21.87000
H  37.28300 48.72900 20.41400
H  36.99200 46.23700 19.26700
H  37.97000 45.87700 20.69700
H  38.54200 47.18500 19.60700
H  36.19300 43.27800 26.11800
H  36.58300 43.72300 24.44000
H  35.03500 43.00600 24.69800
H  34.98200 46.69300 29.73800
H  31.51900 45.99400 31.95700
H  32.53400 44.85200 32.67400
H  31.51400 44.27900 31.36000

