158

Mg 0.76600 -1.93000 44.45400
C  4.34900 -1.39700 43.99400
C  0.40300 0.91900 42.47200
C  -2.34600 -2.77700 44.27000
C  1.56400 -4.94600 45.95900
N  2.29500 -0.40000 43.46200
C  3.66000 -0.48000 43.32900
C  4.20300 0.64600 42.45600
C  2.88900 1.41800 42.04800
C  1.74900 0.62600 42.68100
C  2.88300 2.96900 42.38400
C  5.13800 -0.01000 41.31500
C  6.56000 0.66100 41.11300
H  6.91100 0.73000 39.56500
N  -0.76200 -1.04800 43.45000
C  -0.71600 0.10300 42.77100
C  -2.09100 0.48400 42.46000
C  -2.93400 -0.61200 42.83000
C  -2.08600 -1.57800 43.53000
C  -2.44300 1.82200 41.68100
C  -4.45300 -0.62600 42.68000
O  -4.98500 0.33500 42.13900
C  -5.29800 -1.72800 43.13400
N  -0.23800 -3.75600 44.91600
C  -1.55800 -3.67500 44.93800
C  -2.12700 -5.03400 45.46200
C  -0.81700 -5.84600 45.85800
C  0.22900 -4.79000 45.64900
C  -3.15600 -4.79000 46.59800
C  -0.54700 -7.19100 44.99300
C  -0.31200 -8.44000 45.86700
N  2.52100 -2.87000 45.05600
C  2.70900 -4.06700 45.75900
C  4.09700 -4.46300 45.86400
C  4.75100 -3.42100 45.14900
C  3.77100 -2.45000 44.67800
C  4.71300 -5.53300 46.53900
C  6.06400 -2.89100 44.79100
O  7.08700 -3.46500 45.04300
C  5.83400 -1.53200 44.11700
C  6.49100 -0.42000 44.96100
O  6.53700 -0.35400 46.14600
O  7.20100 0.43800 44.09700
C  7.95500 1.40300 44.78500
H  0.38100 1.75600 41.77200
H  -3.40000 -3.05700 44.30600
H  1.72700 -5.90900 46.44800
H  4.78900 1.18100 43.20300
H  2.80400 1.50700 40.96500
H  2.13000 3.07100 43.16600
H  2.77000 3.43600 41.40600
H  3.84300 3.21200 42.84000
H  4.53000 0.07300 40.41400
H  5.31000 -1.08600 41.29700
H  7.26700 0.10300 41.72600
H  6.53300 1.65600 41.55700
H  -1.57900 2.31100 41.23000
H  -3.03500 2.56500 42.21400
H  -2.99300 1.53400 40.78500
H  -5.28300 -1.83300 44.21800
H  -5.10100 -2.73900 42.77800
H  -6.31600 -1.50500 42.81600
H  -2.62300 -5.53400 44.63000
H  -0.69600 -6.10600 46.91000
H  -3.50400 -3.75700 46.58800
H  -2.72500 -4.93900 47.58800
H  -3.96700 -5.50300 46.44400
H  0.36400 -7.01400 44.42200
H  -1.37700 -7.45300 44.33600
H  0.41700 -9.03800 45.32000
H  -1.26700 -8.93500 46.04000
H  0.15500 -8.18200 46.81700
H  5.51100 -5.99200 45.95500
H  4.00900 -6.21700 47.01400
H  5.27900 -5.09600 47.36200
H  6.30700 -1.58700 43.13700
H  8.86600 0.87300 45.06300
H  7.56000 1.94900 45.64200
H  8.18800 2.14600 44.02200
Mg 50.17900 35.71700 28.09200
C  47.70200 34.14900 30.03700
C  50.38200 38.23400 30.33700
C  52.21400 37.22500 25.97900
C  49.48000 33.33200 25.45000
N  49.21500 35.98700 30.05700
C  48.29200 35.23700 30.72300
C  48.16300 35.65900 32.27800
C  48.81900 37.06000 32.18400
C  49.53500 37.12400 30.78700
C  47.74600 38.21800 32.34100
C  49.12400 34.71400 33.12000
C  48.75600 34.33100 34.60700
H  47.72300 35.19800 35.29100
N  51.13900 37.42700 28.16800
C  51.20900 38.35100 29.22700
C  52.18700 39.39800 28.91900
C  52.74800 39.15700 27.68000
C  52.03600 37.88000 27.19200
C  52.57500 40.39600 29.96700
C  53.69600 40.03400 26.89800
O  54.02200 39.74400 25.73600
C  54.06800 41.36100 27.50800
N  50.63000 35.32900 25.90600
C  51.57600 36.15000 25.36500
C  51.76200 35.78600 23.83400
C  51.05000 34.41200 23.74700
C  50.33900 34.37300 25.05300
C  51.32200 36.84100 22.82100
C  52.02400 33.25600 23.60200
C  51.89100 32.37200 22.41700
N  48.96700 33.98400 27.79200
C  48.76500 33.17400 26.71400
C  47.70100 32.19700 26.94200
C  47.27100 32.52300 28.26400
C  48.08000 33.62000 28.77700
C  47.09200 31.26800 25.93200
C  46.26700 32.25200 29.27500
O  45.45200 31.29900 29.27900
C  46.50000 33.28600 30.51900
C  46.68000 32.44300 31.77600
O  47.34800 31.41600 31.79000
O  46.03800 33.01600 32.86500
C  46.00700 32.20000 34.09100
H  50.38800 38.98300 31.13200
H  52.87200 37.77900 25.30500
H  49.16600 32.49600 24.82100
H  47.12800 35.71600 32.61500
H  49.58700 37.17600 32.94900
H  47.82700 38.96200 31.54900
H  47.84800 38.73500 33.29500
H  46.76600 37.75700 32.22200
H  50.15200 35.07300 33.17100
H  49.12900 33.70600 32.70600
H  49.69800 34.27600 35.15300
H  48.29900 33.34800 34.71700
H  52.14700 40.21000 30.95200
H  52.39400 41.43200 29.68100
H  53.64000 40.26400 30.15900
H  54.71200 41.22100 28.37600
H  53.13700 41.84800 27.79900
H  54.70000 41.90800 26.80700
H  52.82700 35.73600 23.61100
H  50.34300 34.29300 22.92600
H  50.88500 37.67100 23.37700
H  50.54700 36.44200 22.16700
H  52.12900 37.25300 22.21500
H  51.81700 32.61500 24.45900
H  53.01800 33.70100 23.64400
H  51.16100 32.77500 21.71500
H  51.52500 31.36300 22.60700
H  52.85900 32.23200 21.93400
H  47.78700 30.43900 25.80000
H  46.84500 31.85300 25.04600
H  46.14200 30.93000 26.34500
H  45.63800 33.91100 30.75100
H  46.91600 31.63800 34.30500
H  45.13000 31.55200 34.09100
H  45.92300 32.89100 34.93000

