158

Mg 42.35700 41.20000 25.73500
C  41.70700 43.62600 28.08600
C  43.21400 39.09000 28.27900
C  43.10800 38.95800 23.33100
C  41.37500 43.48300 23.18400
N  42.59400 41.43000 27.93000
C  42.07600 42.42300 28.66400
C  42.11900 42.01900 30.17300
C  42.80700 40.68800 30.18400
C  42.88700 40.39700 28.73500
C  44.11900 40.67300 31.00900
C  40.73500 42.06300 31.00600
C  40.61800 41.37200 32.37100
H  41.10700 42.30900 33.50300
N  43.15600 39.31400 25.81100
C  43.42400 38.58800 26.94900
C  43.78900 37.28900 26.58000
C  43.79000 37.23300 25.14200
C  43.39800 38.54300 24.65700
C  43.98100 36.20400 27.65200
C  44.12900 36.07800 24.23900
O  44.07300 36.19700 22.97100
C  44.49400 34.75900 24.87100
N  42.25300 41.23600 23.56400
C  42.50400 40.14400 22.81900
C  42.30900 40.41000 21.31300
C  41.55500 41.77800 21.35100
C  41.66900 42.19200 22.78100
C  43.69300 40.48400 20.55100
C  40.13300 41.69200 20.74200
C  39.20200 40.81900 21.68900
N  41.92300 43.18600 25.63900
C  41.51300 43.99300 24.49600
C  41.11300 45.27900 24.96100
C  41.17900 45.25500 26.35600
C  41.64800 43.91600 26.72600
C  40.55200 46.27100 24.08100
C  40.91500 45.93400 27.62500
O  40.55800 47.10600 27.89900
C  41.18400 44.85500 28.83500
C  42.17400 45.51600 29.66000
O  43.36900 45.40700 29.53400
O  41.56700 46.08600 30.76400
C  42.48300 46.21600 31.94900
H  43.34700 38.34200 29.06300
H  43.39700 38.20700 22.59300
H  40.98300 44.09700 22.37100
H  42.86900 42.70400 30.57000
H  42.12200 39.97800 30.64600
H  44.81600 41.38600 30.56800
H  44.48800 39.65000 30.93200
H  43.95400 40.95200 32.04900
H  40.04100 41.54700 30.34200
H  40.41300 43.09800 31.11800
H  41.19600 40.45100 32.44800
H  39.61300 41.04700 32.63700
H  43.44000 35.33200 27.28500
H  43.54700 36.32600 28.64500
H  45.03900 35.97900 27.78600
H  44.83700 34.14200 24.04000
H  43.57700 34.39300 25.33200
H  45.35500 34.81100 25.53800
H  41.67000 39.66600 20.83800
H  42.10500 42.46400 20.70600
H  44.44300 40.64800 21.32400
H  43.82900 41.39400 19.96700
H  43.87800 39.64300 19.88200
H  40.08700 41.28000 19.73400
H  39.76100 42.71500 20.68300
H  38.51100 40.23300 21.08300
H  38.58500 41.46500 22.31500
H  39.71700 40.08800 22.31200
H  41.36800 46.77600 23.56600
H  39.97500 47.04200 24.59100
H  39.98400 45.69900 23.34700
H  40.23800 44.84000 29.37600
H  43.07000 45.30000 32.02200
H  41.87000 46.20000 32.85000
H  43.12100 47.08900 31.81100
Mg 36.80600 49.42900 24.75400
C  36.91700 47.37500 27.66800
C  35.78900 52.06200 26.75500
C  36.36400 51.05500 22.04600
C  37.26200 46.46500 22.83400
N  36.33700 49.67400 26.97300
C  36.54900 48.75200 27.98800
C  36.27800 49.36600 29.39200
C  35.76000 50.80800 29.02200
C  36.01700 50.87600 27.46900
C  34.24300 51.08600 29.33400
C  37.57000 49.33500 30.17600
C  37.50100 49.06000 31.67500
H  36.17700 49.01900 32.34600
N  36.22500 51.31000 24.46500
C  35.81700 52.30300 25.36800
C  35.47200 53.44600 24.66800
C  35.70800 53.21600 23.25800
C  36.09700 51.79900 23.22400
C  34.96500 54.73500 25.32100
C  35.40200 54.18400 22.09300
O  35.37900 53.86900 20.90200
C  35.03500 55.63400 22.32600
N  36.83800 48.81900 22.69400
C  36.62500 49.67200 21.78500
C  36.84100 49.16400 20.33200
C  37.19600 47.67600 20.67000
C  37.16700 47.62800 22.14900
C  35.59100 49.39700 19.41800
C  38.62300 47.21300 20.10300
C  39.87100 47.19700 20.94400
N  37.11900 47.37900 25.13600
C  37.30100 46.31900 24.25900
C  37.51300 45.08500 24.99600
C  37.34000 45.44800 26.34900
C  37.06100 46.84100 26.40000
C  37.72700 43.67200 24.40300
C  37.26600 44.94300 27.71600
O  37.28200 43.79400 28.12300
C  37.03400 46.18300 28.58800
C  35.84100 45.91300 29.31900
O  34.73200 46.12300 28.92400
O  36.17100 45.40900 30.52400
C  35.19100 45.04600 31.42800
H  35.52200 52.95600 27.32200
H  36.29800 51.66500 21.14300
H  37.45200 45.51700 22.32800
H  35.44100 48.83600 29.84500
H  36.38700 51.56100 29.49900
H  33.80300 50.37500 30.03300
H  33.77500 51.13300 28.35100
H  34.15800 52.08200 29.76900
H  38.23500 50.15800 29.91600
H  38.16400 48.51500 29.77200
H  38.02300 49.90900 32.11700
H  38.06200 48.14000 31.84000
H  34.19700 55.02500 24.60400
H  35.76400 55.46900 25.41500
H  34.53400 54.61400 26.31500
H  35.73100 56.08800 23.03300
H  33.96900 55.73800 22.52500
H  35.02100 56.12000 21.35100
H  37.66400 49.64600 19.80500
H  36.34600 47.04800 20.40500
H  34.69600 49.52500 20.02700
H  35.43600 48.57200 18.72200
H  35.83100 50.29400 18.84800
H  38.83900 47.95000 19.33000
H  38.52400 46.30200 19.51300
H  39.61100 47.29900 21.99800
H  40.41000 48.10800 20.68800
H  40.40900 46.27400 20.72600
H  36.82100 43.08700 24.24000
H  38.30900 43.13800 25.15400
H  38.47200 43.76100 23.61200
H  37.80600 46.39600 29.32800
H  35.48100 45.69500 32.25300
H  35.17800 43.97100 31.61200
H  34.18300 45.34100 31.13500

