158

Mg 35.95600 1.10800 29.61400
C  33.87100 2.14800 32.36200
C  38.67800 1.15800 31.62800
C  37.69000 0.49000 26.86700
C  33.10800 1.62400 27.57000
N  36.19100 1.33800 31.77400
C  35.19800 1.84600 32.73000
C  35.80400 1.79500 34.15900
C  37.41900 1.68200 33.83300
C  37.43800 1.29900 32.35700
C  38.37900 2.89000 34.18200
C  35.34200 0.66400 35.09800
C  35.10200 0.89500 36.58700
H  35.57200 2.19800 37.27900
N  37.83300 0.80200 29.28400
C  38.81300 0.92300 30.24300
C  40.11500 0.78800 29.58100
C  39.89000 0.43400 28.24900
C  38.38500 0.48900 28.07600
C  41.44300 0.75700 30.23100
C  40.85200 -0.07200 27.21000
O  40.46500 -0.41600 26.07200
C  42.36500 -0.23800 27.44600
N  35.43900 0.90100 27.52100
C  36.35200 0.74100 26.55900
C  35.74200 0.84100 25.14400
C  34.26500 0.84300 25.48000
C  34.24800 1.03400 26.95800
C  36.35600 2.05400 24.29800
C  33.53300 -0.50100 24.97600
C  32.73100 -0.44100 23.65100
N  33.96200 1.76500 29.89800
C  32.95200 1.95600 28.93100
C  31.76200 2.45800 29.57900
C  32.06300 2.51000 30.95200
C  33.39300 2.14800 31.04400
C  30.44200 2.74800 28.81100
C  31.55300 2.91500 32.29000
O  30.54400 3.35200 32.74900
C  32.74300 2.66300 33.23100
C  32.94200 3.96200 33.96000
O  33.25500 5.02300 33.46600
O  32.58500 3.82400 35.26300
C  32.28200 5.14100 35.98600
H  39.57900 1.21900 32.24300
H  38.35400 0.23500 26.03900
H  32.21300 1.65100 26.94500
H  35.52300 2.77900 34.53300
H  37.82900 0.76300 34.25200
H  38.70400 3.42900 33.29200
H  39.34800 2.64800 34.62000
H  37.69600 3.54600 34.72200
H  35.97800 -0.21700 35.01200
H  34.37000 0.40400 34.67900
H  35.44600 0.04400 37.17400
H  34.02400 0.99300 36.71800
H  41.61900 1.46700 31.03900
H  42.19600 1.05600 29.50100
H  41.73900 -0.24800 30.53200
H  42.84900 0.73800 27.41400
H  42.69100 -0.81500 26.58100
H  42.74000 -0.85900 28.26000
H  35.88500 -0.10200 24.61700
H  33.80100 1.71200 25.01200
H  36.63400 2.90700 24.91900
H  35.50700 2.26100 23.64700
H  37.19600 1.63100 23.74800
H  32.79300 -0.81900 25.71100
H  34.25000 -1.31200 24.85000
H  31.69600 -0.71100 23.86000
H  33.12300 -1.23500 23.01600
H  32.81900 0.53600 23.17600
H  30.24600 2.10700 27.95200
H  30.42900 3.80500 28.54600
H  29.74500 2.61300 29.63800
H  32.50200 1.91300 33.98500
H  31.39000 5.64000 35.60800
H  33.10300 5.83900 36.14900
H  31.99900 4.82600 36.99100
Mg 26.41900 49.75000 25.99200
C  24.22300 51.03500 28.43400
C  28.40500 48.66400 28.66300
C  28.69700 48.78100 23.67200
C  24.48000 51.14800 23.58100
N  26.23800 49.76900 28.29700
C  25.28800 50.38300 29.07800
C  25.44900 49.96200 30.57800
C  26.90100 49.41900 30.65500
C  27.20000 49.22900 29.08800
C  27.96700 50.36800 31.32600
C  24.26300 49.11200 31.11100
C  23.75100 49.46900 32.53000
H  23.85900 48.28300 33.56500
N  28.32400 48.88900 26.17100
C  29.00000 48.54400 27.32800
C  30.31600 48.00000 27.03500
C  30.47500 48.12100 25.58500
C  29.14800 48.64900 25.08600
C  31.21100 47.46900 28.05900
C  31.68400 47.84100 24.76300
O  31.82600 48.14600 23.57700
C  32.85200 47.17200 25.35900
N  26.57100 49.89000 23.91500
C  27.42900 49.23500 23.16600
C  27.06800 49.31400 21.63600
C  25.86300 50.31100 21.60800
C  25.58400 50.46000 23.09300
C  28.29800 49.77200 20.76300
C  24.62700 49.72500 20.93500
C  23.86100 48.62800 21.73300
N  24.67600 50.85900 25.96600
C  23.96300 51.34400 24.90600
C  22.76800 52.04300 25.35200
C  22.85100 51.98300 26.71700
C  24.08000 51.27800 27.03700
C  21.63100 52.54100 24.44700
C  22.14400 52.31100 27.98000
O  21.12900 52.97100 28.14000
C  22.98100 51.63700 29.10200
C  23.43900 52.70900 30.03800
O  24.28800 53.56400 29.93200
O  22.69200 52.48200 31.22300
C  22.89700 53.29800 32.36500
H  28.90200 48.32400 29.57400
H  29.44100 48.29900 23.03300
H  23.92400 51.60300 22.75800
H  25.45900 50.87400 31.17600
H  26.87500 48.45600 31.16400
H  28.53800 49.92000 32.13900
H  27.46400 51.15100 31.89200
H  28.66100 50.83800 30.62800
H  24.58000 48.07000 31.07400
H  23.43900 49.09300 30.39700
H  22.75600 49.91400 32.51600
H  24.44700 50.21500 32.91400
H  30.75700 47.57400 29.04400
H  32.20100 47.91600 28.15400
H  31.30700 46.42600 27.75800
H  32.53800 46.26700 25.87800
H  33.23200 47.90700 26.06900
H  33.60300 46.97600 24.59400
H  26.76700 48.32400 21.29300
H  26.05800 51.27800 21.14400
H  28.42000 49.02200 19.98100
H  29.24100 49.82700 21.30600
H  28.16600 50.76500 20.33500
H  24.91900 49.25300 19.99700
H  23.95000 50.50300 20.58200
H  22.86800 49.00300 21.97900
H  24.29500 48.38300 22.70300
H  23.77500 47.69000 21.18400
H  21.07400 51.65300 24.15000
H  21.91800 53.10800 23.56100
H  21.02000 53.16000 25.10400
H  22.33200 50.90100 29.57500
H  23.28000 52.61600 33.12400
H  21.93100 53.64200 32.73500
H  23.53700 54.18100 32.34400

