158

Mg 53.23900 24.37600 45.27400
C  50.83600 26.68600 44.20700
C  51.22800 21.90100 44.05200
C  55.85800 22.24300 45.34500
C  55.39600 27.03700 45.91000
N  51.20500 24.38100 44.32900
C  50.40800 25.45400 43.95000
C  49.29000 24.89700 43.04500
C  49.30900 23.40700 43.32900
C  50.71300 23.18700 43.89300
C  48.20900 22.99800 44.38400
C  49.42800 25.09800 41.49900
C  48.23300 25.65200 40.66200
H  48.02000 25.06700 39.30300
N  53.51000 22.25900 44.79200
C  52.55900 21.40700 44.33700
C  52.99600 20.04000 44.35100
C  54.34200 20.09600 44.74700
C  54.66100 21.55800 44.93100
C  52.20500 18.84400 43.90900
C  55.33900 18.87400 44.91200
O  55.05500 17.72600 44.54100
C  56.63800 18.94600 45.48900
N  55.35000 24.65200 45.39000
C  56.15800 23.53500 45.60600
C  57.48900 23.89800 46.18400
C  57.39400 25.43100 46.45900
C  56.03800 25.77900 45.81900
C  58.08400 23.03500 47.35100
C  58.46700 26.36300 45.97900
C  59.49400 26.67400 47.09600
N  53.19400 26.39200 45.33100
C  54.05100 27.35600 45.66500
C  53.46000 28.63200 45.64200
C  52.20000 28.42400 45.07300
C  52.10300 27.03400 44.87100
C  54.07500 29.89200 46.16300
C  51.01700 29.09400 44.66000
O  50.68700 30.25700 44.78300
C  50.16900 27.99900 43.86400
C  50.17000 28.41700 42.42700
O  51.07400 28.22600 41.58900
O  48.91000 28.93200 42.08600
C  48.81500 29.53900 40.75500
H  50.60600 21.04200 43.79300
H  56.64800 21.51500 45.54300
H  55.92100 27.91400 46.29400
H  48.36500 25.38600 43.35100
H  49.17500 22.73600 42.48000
H  48.22300 23.77500 45.14900
H  48.59500 22.11300 44.88900
H  47.23600 22.82800 43.92400
H  49.76900 24.11800 41.16500
H  50.19600 25.80000 41.17400
H  48.37400 26.70900 40.43900
H  47.25100 25.56000 41.12500
H  51.40700 19.22100 43.26900
H  51.71700 18.30000 44.71700
H  52.87200 18.20500 43.33000
H  57.28800 19.64000 44.95600
H  57.06000 17.94100 45.48800
H  56.54300 19.37600 46.48700
H  58.18800 23.79300 45.35400
H  57.13500 25.39400 47.51700
H  57.36700 22.26600 47.63900
H  58.44100 23.54300 48.24700
H  58.93000 22.45900 46.97700
H  58.08400 27.27600 45.52400
H  58.99800 25.85200 45.17600
H  59.73700 27.73300 47.18800
H  60.45400 26.23100 46.83000
H  59.33900 26.50500 48.16100
H  53.48600 30.75200 45.84600
H  55.11800 29.78700 45.86600
H  53.97100 29.89700 47.24800
H  49.12800 27.98800 44.18700
H  48.73100 30.59300 41.01800
H  47.82900 29.33400 40.33700
H  49.58400 29.34200 40.00800
Mg 17.11700 52.67200 25.64500
C  19.06300 51.22100 28.36500
C  14.75300 53.44800 28.20000
C  15.17700 53.96100 23.31300
C  19.35400 51.51100 23.49100
N  16.94000 52.34600 27.97800
C  17.88400 51.75100 28.82300
C  17.56600 52.06300 30.27000
C  15.99000 52.48700 30.14800
C  15.88100 52.75500 28.66700
C  14.95500 51.40400 30.56100
C  18.42300 53.16000 31.01500
C  18.67400 52.85100 32.50300
H  17.75900 53.50200 33.55100
N  15.21700 53.64500 25.74200
C  14.48200 53.95400 26.85900
C  13.30100 54.69100 26.44200
C  13.36300 54.87100 24.99100
C  14.61000 54.09100 24.60300
C  12.31500 55.23300 27.46600
C  12.50200 55.44600 23.98200
O  12.84300 55.75900 22.85500
C  11.05400 55.79000 24.43500
N  17.12800 52.52800 23.72200
C  16.26600 53.17300 22.92400
C  16.64200 52.90700 21.46800
C  18.02900 52.28000 21.53300
C  18.21200 52.10600 23.02500
C  15.50000 52.09100 20.85500
C  19.22000 53.18100 21.03800
C  19.27400 54.71300 21.45800
N  18.88800 51.57600 25.87600
C  19.71300 51.24300 24.83500
C  20.81700 50.58600 25.41300
C  20.59400 50.53200 26.75600
C  19.45500 51.17700 27.01900
C  21.89800 49.94800 24.75600
C  21.09400 50.01100 28.06200
O  22.05300 49.26700 28.32800
C  20.16300 50.72800 29.17100
C  19.71500 49.77900 30.24600
O  18.86900 48.90600 30.09300
O  20.46600 50.08000 31.30600
C  20.13900 49.18800 32.47100
H  13.95300 53.76900 28.87000
H  14.61600 54.39600 22.48300
H  20.22300 51.36300 22.84700
H  17.61100 51.11800 30.81200
H  15.73600 53.42600 30.64100
H  15.37800 50.55700 31.10100
H  14.38100 50.97700 29.73900
H  14.14600 51.78500 31.18400
H  17.88600 54.09900 30.88300
H  19.39800 53.23300 30.53400
H  19.73700 53.03000 32.66400
H  18.48800 51.78400 32.62800
H  11.35300 54.98600 27.01800
H  12.52100 56.30100 27.53000
H  12.34400 54.69100 28.41100
H  11.00600 56.44500 25.30500
H  10.36200 54.97600 24.65400
H  10.49800 56.29000 23.64200
H  16.66300 53.86600 20.95100
H  18.05500 51.26600 21.13500
H  15.05400 51.45000 21.61500
H  15.85400 51.46400 20.03700
H  14.70700 52.77500 20.55100
H  19.27600 53.31100 19.95700
H  20.15600 52.63800 21.16700
H  19.31600 55.37600 20.59400
H  20.24300 54.79700 21.94900
H  18.59100 55.21100 22.14600
H  22.76500 49.80300 25.40100
H  22.35100 50.54500 23.96500
H  21.59700 48.99400 24.32500
H  20.75800 51.57700 29.50800
H  19.06900 49.07400 32.64700
H  20.58200 49.55100 33.39800
H  20.67900 48.25600 32.30400

