158

Mg 25.92300 -0.15400 29.37800
C  27.69900 -0.15400 32.29700
C  23.05600 0.17300 31.19900
C  24.29300 -0.55000 26.44900
C  28.86400 -0.63700 27.56100
N  25.45600 0.15100 31.48500
C  26.37400 0.06700 32.53500
C  25.67500 0.25800 33.90500
C  24.15600 0.24000 33.57200
C  24.19300 0.20100 31.99200
C  23.37100 -0.92800 34.27600
C  26.24400 1.58600 34.54400
C  26.94700 1.50500 35.97700
H  26.69300 2.50900 37.12800
N  23.95200 -0.19200 28.92700
C  22.89900 -0.04500 29.77900
C  21.67300 -0.04000 29.00200
C  22.02000 -0.12300 27.60800
C  23.52100 -0.29800 27.63900
C  20.26500 0.07800 29.62900
C  21.04700 -0.16300 26.43600
O  21.41000 -0.37400 25.29000
C  19.59000 0.08100 26.69100
N  26.45900 -0.51800 27.20200
C  25.59200 -0.59000 26.21300
C  26.22200 -0.67700 24.78100
C  27.73300 -0.74300 25.18200
C  27.70300 -0.65700 26.74600
C  25.69200 -1.85900 23.89600
C  28.72900 0.26000 24.52200
C  28.40300 1.71400 24.71900
N  27.83400 -0.51500 29.84100
C  28.99600 -0.66000 28.99600
C  30.22200 -0.66500 29.79300
C  29.74300 -0.47400 31.09700
C  28.30400 -0.39100 31.06900
C  31.67100 -0.85000 29.22000
C  30.15200 -0.35600 32.48000
O  31.29000 -0.31400 32.94400
C  28.88100 -0.07200 33.26100
C  28.82500 -1.18600 34.25000
O  28.33200 -2.30100 34.03000
O  29.38400 -0.79400 35.44100
C  29.44800 -1.80300 36.48700
H  22.12100 0.36800 31.72900
H  23.64100 -0.84700 25.62500
H  29.79900 -0.74200 27.00700
H  26.00600 -0.62000 34.45900
H  23.69900 1.17800 33.88700
H  22.98100 -1.70800 33.62200
H  22.47700 -0.48100 34.71100
H  23.94000 -1.44400 35.04900
H  25.44000 2.31100 34.67500
H  26.97300 2.02900 33.86600
H  27.96500 1.72500 35.65800
H  26.92700 0.44400 36.22600
H  19.74800 -0.83600 29.33800
H  19.79100 1.04000 29.43100
H  20.29200 -0.08900 30.70600
H  19.06700 0.34800 25.77200
H  19.47600 1.02400 27.22600
H  19.09500 -0.68100 27.29300
H  26.10400 0.22000 24.17300
H  28.06300 -1.75500 24.94500
H  26.54200 -2.49500 23.64700
H  25.19500 -1.59300 22.96300
H  24.98100 -2.37800 24.53800
H  28.64000 0.06000 23.45400
H  29.75900 0.07400 24.82600
H  27.34100 1.93500 24.61600
H  29.05600 2.23400 24.01800
H  28.78700 2.15500 25.63900
H  32.38000 -0.34400 29.87500
H  31.77400 -0.39500 28.23500
H  31.91600 -1.90500 29.10700
H  29.02700 0.88100 33.77200
H  28.96900 -1.43400 37.39300
H  30.50200 -1.93900 36.73200
H  29.00300 -2.76900 36.24900
Mg 41.87900 41.16100 26.63000
C  41.17400 43.58700 29.06300
C  42.77500 39.03700 29.07300
C  42.93100 39.07800 24.21600
C  41.10000 43.61200 24.33600
N  42.05800 41.32400 28.84400
C  41.51800 42.26100 29.56200
C  41.40500 41.90800 31.06300
C  41.93700 40.39300 31.05600
C  42.30900 40.24500 29.54600
C  42.95000 39.89000 32.07500
C  39.86800 41.94600 31.57800
C  39.55600 41.43700 33.03400
H  38.70700 42.35800 33.92900
N  42.83100 39.29700 26.62800
C  43.13600 38.51200 27.73900
C  43.72200 37.27400 27.38500
C  43.72600 37.25900 25.95600
C  43.21600 38.59800 25.51700
C  43.94700 36.11000 28.38900
C  44.30000 36.19900 24.96500
O  44.33700 36.40500 23.71600
C  44.59700 34.85000 25.47200
N  41.88800 41.29900 24.63100
C  42.46100 40.29200 23.82200
C  42.41100 40.65800 22.31300
C  41.47300 41.98700 22.41300
C  41.54300 42.34800 23.87000
C  43.71500 40.92500 21.47300
C  39.92900 41.88100 22.03400
C  39.11200 40.69000 22.57900
N  41.24700 43.20800 26.60400
C  41.12100 44.08800 25.63100
C  40.88900 45.40200 26.08800
C  40.83900 45.24900 27.49600
C  41.06100 43.90200 27.71200
C  40.81300 46.65700 25.26000
C  40.71200 45.93800 28.70600
O  40.54700 47.12700 28.94600
C  40.85800 44.86900 29.79900
C  41.75100 45.29300 30.89100
O  42.90500 45.06800 31.05400
O  41.06800 46.14500 31.72500
C  41.79900 46.81100 32.79100
H  43.09000 38.34400 29.85700
H  43.19400 38.42300 23.38300
H  40.76000 44.25100 23.51800
H  41.95300 42.48100 31.80900
H  41.04600 39.77600 31.17400
H  43.12900 40.63500 32.85000
H  43.95000 39.88600 31.64000
H  42.64100 38.92100 32.46800
H  39.18200 41.36400 30.96300
H  39.36900 42.91500 31.53400
H  40.47200 41.20100 33.57500
H  38.99800 40.51800 32.85100
H  43.86100 36.35600 29.44800
H  44.92100 35.67700 28.16400
H  43.20800 35.34900 28.13800
H  43.69700 34.41100 25.90400
H  45.40300 34.87500 26.20500
H  44.92700 34.24600 24.62700
H  42.11800 39.81400 21.69000
H  41.96300 42.84200 21.94700
H  43.85200 40.07000 20.81100
H  44.59800 41.00000 22.10800
H  43.61600 41.87600 20.95000
H  40.01300 41.71100 20.96000
H  39.51800 42.85400 22.30400
H  38.32100 41.09900 23.20700
H  39.80200 40.18200 23.25300
H  38.71800 40.26900 21.65400
H  40.13400 46.49000 24.42400
H  41.79000 46.98800 24.90900
H  40.35200 47.48200 25.80300
H  39.86800 44.74700 30.24000
H  41.45700 47.84500 32.84200
H  42.87500 46.87400 32.62500
H  41.53600 46.42800 33.77700

