158

Mg 25.82000 0.89300 29.44000
C  27.69000 0.39800 32.35800
C  23.16200 1.45300 31.40300
C  24.08700 1.06100 26.63100
C  28.66900 -0.07300 27.62800
N  25.38800 0.70100 31.68800
C  26.35700 0.53700 32.68200
C  25.73500 0.79700 34.07300
C  24.27700 1.14800 33.67000
C  24.28300 1.14100 32.18000
C  23.18300 0.22100 34.30800
C  26.49600 1.91600 34.92200
C  27.04200 1.62700 36.34100
H  26.92500 2.70600 37.47800
N  23.93700 1.22300 29.07500
C  22.92500 1.45000 30.03000
C  21.62000 1.64800 29.35400
C  21.95800 1.67400 27.96700
C  23.38200 1.27900 27.83900
C  20.32000 1.74700 30.18700
C  21.02900 1.77700 26.78900
O  21.34600 1.56000 25.60900
C  19.62900 2.24500 27.02500
N  26.32400 0.44300 27.40300
C  25.41500 0.63000 26.39300
C  26.05200 0.59700 25.03900
C  27.56300 0.31600 25.43300
C  27.54600 0.25700 26.88000
C  25.63700 -0.42700 23.94800
C  28.60100 1.30500 24.89800
C  29.76100 0.61600 24.03900
N  27.73900 0.26600 29.85500
C  28.82300 -0.01100 29.02100
C  30.05900 -0.18100 29.80900
C  29.58800 0.01600 31.13100
C  28.21600 0.20700 31.13400
C  31.26800 -0.67400 29.29600
C  30.07400 -0.08800 32.44400
O  31.23600 -0.37700 32.83600
C  28.86500 0.16900 33.29200
C  28.62100 -1.09200 34.00200
O  27.93000 -1.99600 33.60500
O  29.23100 -0.97100 35.20400
C  28.70400 -1.71900 36.36000
H  22.29400 1.78300 31.97800
H  23.56400 0.99000 25.67600
H  29.53900 -0.36000 27.03400
H  25.77700 -0.19500 34.52300
H  23.93400 2.13400 33.98500
H  22.81400 0.67700 35.22700
H  23.68600 -0.71600 34.54800
H  22.29500 -0.05900 33.74100
H  25.77800 2.73500 34.98000
H  27.19600 2.33000 34.19600
H  28.12300 1.49600 36.28700
H  26.67600 0.64500 36.63800
H  20.36700 1.20600 31.13200
H  19.65600 1.15200 29.56100
H  19.99100 2.75400 30.44500
H  19.12200 1.48500 27.61900
H  19.17600 2.46900 26.05900
H  19.63400 3.21500 27.52400
H  25.96200 1.60600 24.63800
H  27.94600 -0.68500 25.23500
H  24.64600 -0.77400 24.24000
H  26.43300 -1.17100 23.93100
H  25.53000 -0.10200 22.91300
H  29.16000 1.71800 25.73700
H  28.15500 2.14400 24.36300
H  29.42400 0.86800 23.03300
H  29.88800 -0.45000 24.22800
H  30.71500 1.11700 24.20400
H  31.43200 -1.67000 28.88400
H  31.96100 -0.61300 30.13500
H  31.68200 -0.00500 28.54100
H  29.06300 0.98300 33.99000
H  27.77900 -1.25600 36.70500
H  29.43800 -1.83100 37.15800
H  28.56700 -2.77400 36.12200
Mg 41.57200 8.15800 30.21400
C  43.26200 9.54500 32.83400
C  39.34200 6.74300 32.61400
C  39.89600 6.76000 27.68800
C  43.99800 9.10800 28.05500
N  41.41500 8.10300 32.39700
C  42.11100 8.87000 33.24400
C  41.70600 8.79600 34.66800
C  40.45000 7.89700 34.56100
C  40.41800 7.46100 33.13800
C  40.37800 6.72500 35.55700
C  41.37100 10.14500 35.44100
C  42.09100 10.32800 36.72500
H  41.36100 10.93700 37.85900
N  39.93500 6.97600 30.16800
C  39.08400 6.60400 31.19700
C  37.93300 5.95400 30.63000
C  38.01700 6.03200 29.19700
C  39.37200 6.57400 28.96100
C  36.89300 5.30200 31.44200
C  36.99100 5.57700 28.14600
O  37.24500 5.66800 26.94700
C  35.57300 5.30800 28.53800
N  41.93000 7.86800 28.18600
C  41.01500 7.41200 27.29100
C  41.45600 7.46100 25.86500
C  42.81100 8.26500 25.99800
C  42.91900 8.49100 27.46000
C  41.69900 6.00000 25.28600
C  42.85900 9.55500 25.11200
C  42.13400 10.80200 25.57800
N  43.42300 9.04900 30.35700
C  44.27700 9.42200 29.39200
C  45.36100 10.23300 30.00300
C  44.98500 10.31500 31.38500
C  43.79200 9.58800 31.53500
C  46.65400 10.75300 29.34100
C  45.36300 10.82700 32.64900
O  46.39300 11.36800 32.98700
C  44.22200 10.40800 33.67700
C  44.94000 9.53000 34.65000
O  45.36000 8.41100 34.49200
O  45.18200 10.22200 35.84700
C  45.68200 9.38200 36.94000
H  38.44100 6.61100 33.21600
H  39.40300 6.25800 26.85300
H  44.66700 9.65100 27.38400
H  42.42700 8.19700 35.22400
H  39.61000 8.49500 34.91500
H  41.11300 6.86800 36.34900
H  40.59800 5.74400 35.13700
H  39.44300 6.74900 36.11700
H  40.29000 10.28600 35.42100
H  41.77900 10.95200 34.83300
H  42.95900 10.98400 36.66200
H  42.53200 9.40100 37.09000
H  37.27100 5.14400 32.45200
H  36.64800 4.30200 31.08300
H  36.04400 5.98500 31.44600
H  35.51900 4.60200 29.36700
H  35.04200 4.96000 27.65200
H  35.11700 6.25700 28.82200
H  40.68100 7.93300 25.26100
H  43.68000 7.61900 25.86800
H  42.74000 5.86500 24.99100
H  41.03600 5.83900 24.43700
H  41.44200 5.26400 26.04800
H  42.44200 9.39500 24.11700
H  43.91300 9.79200 24.96500
H  42.71200 11.72700 25.59600
H  41.48400 10.57100 26.42200
H  41.47200 10.91400 24.72000
H  46.51400 10.70900 28.26100
H  47.54700 10.24500 29.70300
H  46.87500 11.77100 29.66100
H  43.79100 11.35200 34.01200
H  45.42300 9.89600 37.86600
H  46.73900 9.16300 36.78800
H  45.05100 8.49400 36.96900

