158

Mg 48.76400 44.59200 43.24600
C  45.59600 44.93600 42.23000
C  48.83200 41.30700 42.03100
C  52.14600 44.82000 42.91700
C  48.80500 48.16500 43.76800
N  47.41600 43.27300 42.27700
C  46.13600 43.63000 41.99500
C  45.35900 42.50600 41.25200
C  46.26000 41.30000 41.66400
C  47.60900 41.98800 41.96100
C  45.77400 40.30300 42.79400
C  45.29900 42.70000 39.74000
C  43.88300 42.34600 39.11000
H  43.86700 41.47700 37.73000
N  50.23600 43.20300 42.72200
C  50.05800 41.88400 42.29700
C  51.32600 41.28300 42.13500
C  52.34100 42.26700 42.47400
C  51.59800 43.51400 42.70300
C  51.53900 39.71500 41.84500
C  53.86300 41.97000 42.47600
O  54.27700 40.86400 42.17400
C  54.74800 43.07100 42.97000
N  50.28000 46.30900 43.26400
C  51.61200 46.08100 43.25500
C  52.38300 47.37400 43.43000
C  51.31600 48.38500 43.73800
C  50.04200 47.58600 43.63800
C  53.42900 47.17100 44.51300
C  51.28100 49.50000 42.67000
C  51.09800 50.98200 43.17000
N  47.49300 46.17100 43.34300
C  47.56700 47.50500 43.58100
C  46.26200 48.14200 43.33500
C  45.45400 47.16000 42.78500
C  46.27900 45.99300 42.86800
C  46.05800 49.64200 43.53400
C  44.16100 46.97500 42.14200
O  43.24200 47.76200 41.87200
C  44.20100 45.40200 41.92200
C  43.15400 44.74900 42.77500
O  42.35600 43.93000 42.34400
O  43.08300 45.32300 44.05000
C  41.91500 44.90600 44.78800
H  48.85300 40.28700 41.64200
H  53.23100 44.86500 42.80500
H  48.87800 49.21800 44.04600
H  44.34500 42.43900 41.64600
H  46.57000 40.73900 40.78200
H  46.38700 40.36300 43.69400
H  46.00300 39.27600 42.50700
H  44.73200 40.44200 43.08200
H  46.11800 42.16400 39.26200
H  45.39900 43.76500 39.52900
H  43.45400 43.32400 38.89300
H  43.20900 42.00100 39.89400
H  52.40600 39.59000 41.19600
H  50.70400 39.18800 41.38500
H  51.71200 39.20000 42.79000
H  55.66400 42.61600 43.34600
H  54.21500 43.45700 43.83900
H  54.99500 43.74400 42.14900
H  52.82100 47.43700 42.43500
H  51.35600 48.83000 44.73200
H  53.56100 46.14200 44.84500
H  53.22300 47.84100 45.34800
H  54.36500 47.38900 43.99900
H  50.38200 49.26900 42.09900
H  52.21100 49.37200 42.11600
H  51.18700 51.05500 44.25400
H  50.12800 51.43300 42.96100
H  51.88300 51.57700 42.70300
H  45.88400 49.85100 44.59000
H  45.16000 49.93700 42.99200
H  46.87900 50.23700 43.13600
H  44.01700 45.25400 40.85800
H  40.96200 45.36600 44.52600
H  41.92700 44.98400 45.87500
H  41.72400 43.83900 44.66900
Mg 30.12800 58.02600 40.53600
C  27.11400 56.28500 39.87300
C  31.89300 55.33000 39.43500
C  32.86800 59.99900 40.09100
C  28.17300 60.87600 41.20900
N  29.47600 56.06500 39.65400
C  28.19500 55.49500 39.56700
C  28.32500 54.02800 39.22400
C  29.87400 53.82100 39.07000
C  30.47100 55.15400 39.48900
C  30.41100 52.56300 39.83400
C  27.40400 53.51600 38.06400
C  27.19500 54.33100 36.81500
H  27.97400 54.07500 35.50900
N  32.13700 57.67700 40.15000
C  32.61300 56.48000 39.68500
C  34.06000 56.53000 39.65900
C  34.36800 57.90500 39.80600
C  33.09800 58.61700 39.97200
C  34.95300 55.43800 39.28100
C  35.73700 58.51300 39.56700
O  36.72000 57.83300 39.35000
C  35.92500 60.03100 39.70200
N  30.47500 60.16200 40.59800
C  31.70800 60.72700 40.45800
C  31.66800 62.26900 40.63100
C  30.16500 62.49700 41.04700
C  29.54100 61.11500 40.92200
C  32.73000 62.79100 41.70600
C  29.36400 63.51700 40.15700
C  28.44700 64.50300 40.99900
N  28.04900 58.54700 40.70800
C  27.45000 59.72400 40.99000
C  26.00300 59.53200 40.97000
C  25.81700 58.24800 40.53300
C  27.09300 57.64900 40.33200
C  25.01600 60.62300 41.33800
C  24.81300 57.24400 40.12100
O  23.61300 57.29500 40.20900
C  25.60700 55.93500 39.79100
C  25.30500 54.81500 40.73600
O  25.95100 54.48200 41.66000
O  24.12300 54.22600 40.23300
C  23.70500 52.98800 40.96200
H  32.53800 54.46900 39.24700
H  33.63200 60.77100 40.20000
H  27.47900 61.65400 41.53500
H  28.01200 53.46800 40.10500
H  30.12000 53.63000 38.02500
H  31.39700 52.21900 39.52300
H  29.70900 51.77800 39.55200
H  30.49300 52.72800 40.90800
H  26.39000 53.44600 38.45800
H  27.68200 52.50500 37.76500
H  27.26700 55.38400 37.08900
H  26.19300 54.17200 36.41600
H  35.64600 55.81500 38.52900
H  34.55400 54.58600 38.73100
H  35.55000 55.21100 40.16400
H  35.57600 60.35800 40.68100
H  35.32300 60.34200 38.84900
H  36.97200 60.33200 39.65100
H  31.79400 62.79300 39.68400
H  30.20700 62.79600 42.09400
H  33.18500 61.94800 42.22700
H  32.29300 63.41000 42.49000
H  33.53200 63.31100 41.18300
H  28.80100 63.00400 39.37700
H  30.08800 64.19900 39.71200
H  28.68400 65.56300 41.09800
H  28.46100 64.30700 42.07100
H  27.39800 64.45000 40.71000
H  25.44800 61.51200 41.79600
H  24.43700 60.11400 42.10900
H  24.43500 60.95700 40.47800
H  25.44200 55.69300 38.74100
H  22.70800 52.66600 40.66400
H  23.79200 53.06100 42.04700
H  24.52600 52.28400 40.82800

