158

Mg 1.81300 -1.30100 43.61500
C  5.28900 -0.88700 42.61000
C  1.18500 1.42800 41.45100
C  -1.34700 -2.07700 43.76600
C  2.84900 -4.49500 44.65000
N  3.14400 -0.05200 42.13800
C  4.46900 0.00500 41.95400
C  4.97600 1.16300 41.15200
C  3.67000 1.99200 40.93700
C  2.54900 1.09700 41.56300
C  3.58900 3.46000 41.48600
C  5.80700 0.85100 39.94000
C  7.23700 1.29300 39.93500
H  7.72900 2.10200 38.68400
N  0.16400 -0.32300 42.91900
C  0.13200 0.79800 42.04900
C  -1.24800 1.19500 41.89400
C  -2.04300 0.26600 42.62600
C  -1.13400 -0.77500 43.17500
C  -1.60300 2.46100 41.06200
C  -3.54300 0.24300 42.67100
O  -4.24200 1.09200 42.07300
C  -4.27300 -0.73100 43.54700
N  0.84500 -3.10100 44.06400
C  -0.47400 -3.11400 44.15600
C  -0.93800 -4.50800 44.70400
C  0.44400 -5.29800 44.95400
C  1.47700 -4.28800 44.47800
C  -1.95500 -4.49700 45.88900
C  0.48700 -6.68100 44.24100
C  -0.15000 -7.67500 45.19000
N  3.66200 -2.39900 43.86000
C  3.91800 -3.65900 44.35100
C  5.34200 -3.85000 44.64700
C  5.90700 -2.79000 43.87400
C  4.86400 -1.93700 43.48900
C  5.97900 -5.02900 45.25900
C  7.21400 -2.28000 43.44600
O  8.36900 -2.67900 43.61200
C  6.81900 -0.89400 42.73700
C  7.39400 0.15500 43.57000
O  6.86900 0.36700 44.61800
O  8.40800 0.83200 43.02000
C  8.94600 2.01200 43.69800
H  1.02600 2.21100 40.70600
H  -2.38800 -2.35100 43.94600
H  3.01900 -5.49500 45.05400
H  5.55800 1.73700 41.87300
H  3.44000 2.10600 39.87700
H  2.87700 3.39400 42.30900
H  3.34800 4.13300 40.66300
H  4.50700 3.81500 41.95300
H  5.33500 1.33200 39.08300
H  5.86900 -0.23600 39.87500
H  7.87800 0.41200 39.97200
H  7.49700 1.97100 40.74800
H  -1.52300 2.30400 39.98700
H  -0.93700 3.29300 41.28900
H  -2.62700 2.81500 41.18200
H  -4.69900 -1.61600 43.07400
H  -5.18000 -0.16200 43.75400
H  -3.88200 -1.03200 44.51900
H  -1.52600 -5.00300 43.93200
H  0.59100 -5.34100 46.03400
H  -1.48300 -4.67500 46.85500
H  -2.70500 -5.28300 45.80800
H  -2.46900 -3.53600 45.92100
H  1.48400 -7.11700 44.17800
H  0.02200 -6.49100 43.27400
H  -1.05900 -8.02300 44.70000
H  -0.47400 -7.20800 46.12000
H  0.48600 -8.54300 45.36800
H  6.19300 -5.86200 44.59000
H  5.28000 -5.40100 46.00800
H  6.91000 -4.68700 45.71100
H  7.34200 -0.84800 41.78200
H  9.63900 1.73500 44.49200
H  8.18600 2.75600 43.93400
H  9.53200 2.51400 42.92800
Mg 1.15200 8.29500 25.57300
C  1.88800 10.28900 28.36000
C  1.84100 5.60900 27.49100
C  0.90100 6.45800 22.79400
C  1.22500 11.13800 23.67200
N  1.98800 8.03000 27.71800
C  1.86700 8.90500 28.71600
C  1.85400 8.28000 30.07400
C  2.08000 6.76100 29.68600
C  1.94700 6.79000 28.23200
C  3.37900 6.05600 30.16400
C  0.55800 8.56700 30.80000
C  0.64600 8.76000 32.28100
H  1.71600 7.91200 33.01200
N  1.17800 6.33500 25.21600
C  1.42800 5.34000 26.17600
C  1.26100 4.06400 25.50200
C  0.82300 4.34000 24.17900
C  0.99600 5.80600 24.00100
C  1.24000 2.76000 26.28400
C  0.23600 3.39000 23.15300
O  -0.27800 3.73400 22.09100
C  0.14300 1.84900 23.38600
N  0.86200 8.81400 23.45500
C  0.85700 7.81300 22.53300
C  0.78400 8.48500 21.11400
C  0.66600 9.99000 21.43900
C  0.83900 10.00400 22.93100
C  2.03400 8.09000 20.11900
C  -0.57800 10.67500 20.95600
C  -0.52900 12.17100 20.49200
N  1.62000 10.20100 25.85500
C  1.55300 11.28000 25.01300
C  1.71000 12.52100 25.72300
C  1.83200 12.20400 27.00800
C  1.88900 10.77900 27.07400
C  1.60100 13.93500 25.12600
C  2.02800 12.66800 28.44000
O  2.13700 13.80000 28.86600
C  1.95000 11.45800 29.33000
C  3.14300 11.59400 30.25600
O  4.33400 11.47500 29.97200
O  2.75500 11.80300 31.59000
C  3.91100 12.01800 32.46300
H  1.91600 4.71100 28.10700
H  0.84400 5.71100 21.99900
H  1.35100 12.02100 23.04200
H  2.72900 8.65500 30.60500
H  1.27800 6.10700 30.02800
H  4.01000 6.77300 30.68900
H  4.08400 5.81200 29.36900
H  3.04600 5.25200 30.82100
H  -0.16700 7.75600 30.74200
H  0.04200 9.44700 30.41500
H  -0.27500 8.48200 32.79400
H  0.92700 9.80700 32.39300
H  1.90100 2.00500 25.85800
H  0.24000 2.34100 26.17000
H  1.32000 2.84500 27.36800
H  1.11100 1.53100 23.77400
H  -0.22200 1.49200 22.42300
H  -0.57400 1.71100 24.19500
H  -0.13600 8.04000 20.73400
H  1.58100 10.45500 21.07400
H  2.75200 7.51100 20.69900
H  2.59900 9.00400 19.94000
H  1.65900 7.57400 19.23500
H  -1.34500 10.48100 21.70600
H  -0.86400 10.05100 20.11000
H  -1.19200 12.17100 19.62700
H  0.50000 12.49200 20.33200
H  -0.90500 12.72700 21.35100
H  1.18600 13.88300 24.11900
H  2.52800 14.50200 25.04100
H  0.96600 14.47200 25.83200
H  1.01700 11.57600 29.88000
H  4.64600 12.72900 32.08600
H  4.24000 10.99600 32.65100
H  3.53400 12.26900 33.45500

