158

Mg 17.17300 -0.56500 27.54200
C  16.06800 1.55900 30.06700
C  19.24200 -2.22700 29.60000
C  18.66400 -1.76600 24.77400
C  15.27100 1.68600 25.35800
N  17.66800 -0.27600 29.61600
C  17.09400 0.58600 30.45800
C  17.61900 0.34000 31.86700
C  18.68300 -0.88000 31.74700
C  18.56800 -1.15900 30.23400
C  20.15800 -0.62000 32.35800
C  16.55900 0.08800 32.91700
C  16.71700 0.68300 34.28400
H  18.03600 1.03800 34.85100
N  18.59000 -2.01900 27.24200
C  19.37400 -2.60800 28.23100
C  20.24200 -3.51700 27.63700
C  20.04000 -3.41100 26.21800
C  19.06000 -2.37100 25.98400
C  21.02100 -4.41700 28.53200
C  20.73100 -4.23200 25.07700
O  20.47100 -4.11700 23.86300
C  21.71900 -5.33300 25.43700
N  16.95600 -0.13800 25.39300
C  17.65600 -0.82900 24.50600
C  17.41400 -0.35100 23.11100
C  16.23200 0.61300 23.21700
C  16.20000 0.81600 24.74700
C  18.66600 0.16400 22.40600
C  14.88400 0.08100 22.61100
C  13.75700 -0.27900 23.56200
N  15.85800 1.17600 27.68300
C  15.10400 1.97600 26.69400
C  14.30100 3.01800 27.34700
C  14.72300 2.88100 28.68300
C  15.61400 1.80200 28.79200
C  13.39900 4.08900 26.86100
C  14.55400 3.51200 29.98000
O  13.93400 4.57900 30.27400
C  15.39500 2.63400 30.92000
C  16.35400 3.47200 31.67000
O  17.50800 3.62300 31.33100
O  15.75500 4.01400 32.74500
C  16.45500 5.06200 33.45800
H  19.84900 -2.85000 30.26000
H  19.16500 -2.08500 23.85800
H  14.56700 2.30000 24.79200
H  18.25800 1.20600 32.03500
H  18.36200 -1.81000 32.21500
H  20.12800 0.26900 32.98900
H  20.97500 -0.42000 31.66400
H  20.45700 -1.49000 32.94300
H  16.38900 -0.98800 32.93600
H  15.63700 0.52300 32.52900
H  16.42400 -0.08900 34.99500
H  16.11600 1.59200 34.33000
H  21.09500 -5.44100 28.16700
H  20.66000 -4.62400 29.53900
H  21.99600 -3.97300 28.73100
H  21.22400 -6.27000 25.69300
H  22.43700 -5.11500 26.22700
H  22.42000 -5.64500 24.66200
H  17.09100 -1.22200 22.54100
H  16.42000 1.56600 22.72100
H  19.41700 0.70600 22.98000
H  18.38200 0.77400 21.54800
H  19.24300 -0.73800 22.20400
H  15.07800 -0.52500 21.72600
H  14.34400 0.87400 22.09300
H  13.35400 0.60100 24.06500
H  14.09200 -0.95600 24.34700
H  12.94600 -0.73200 22.99000
H  12.63100 4.19600 27.62700
H  13.05500 3.99500 25.83200
H  13.95400 5.02700 26.88500
H  14.71200 2.26100 31.68300
H  17.34300 4.64400 33.93300
H  15.87300 5.50800 34.26500
H  16.69100 5.79400 32.68500
Mg 47.89500 15.28900 27.79800
C  46.10600 15.19600 30.67800
C  50.11500 17.61600 29.28200
C  49.52300 15.56100 24.89000
C  45.15400 13.95200 26.18800
N  48.16700 16.21500 29.75100
C  47.33500 15.92600 30.78800
C  47.97400 16.34500 32.10500
C  49.24600 17.24400 31.70900
C  49.08800 17.07900 30.18100
C  49.21600 18.76500 32.15100
C  48.32400 15.18300 33.08000
C  48.25100 15.50600 34.58400
H  48.54800 16.90300 35.07100
N  49.71800 16.31300 27.18800
C  50.47100 17.21300 27.92600
C  51.59600 17.66200 27.09200
C  51.49200 17.01500 25.87600
C  50.24000 16.24400 25.94900
C  52.63100 18.75900 27.49100
C  52.44700 17.08700 24.70100
O  52.21500 16.44300 23.68200
C  53.88300 17.70500 24.81700
N  47.45500 14.76400 25.80500
C  48.27000 14.96900 24.76100
C  47.45500 14.83900 23.39100
C  46.12800 14.18000 23.81900
C  46.22600 14.27900 25.34900
C  47.28900 16.15500 22.54800
C  45.89200 12.67300 23.43400
C  46.41900 11.51300 24.39400
N  46.10300 14.60800 28.28500
C  45.06200 14.11000 27.55100
C  43.89000 13.90600 28.32200
C  44.25300 14.28500 29.63300
C  45.59700 14.67900 29.51700
C  42.55200 13.34700 27.80800
C  43.87300 14.41300 31.05900
O  42.80700 14.19500 31.57800
C  45.04300 14.94900 31.77300
C  44.69200 16.17300 32.47300
O  44.64900 17.27000 31.99000
O  44.37000 15.84100 33.77300
C  43.76100 16.86500 34.59900
H  50.87400 18.17400 29.83400
H  50.02300 15.52800 23.92000
H  44.26400 13.64300 25.63400
H  47.22300 16.98800 32.56400
H  50.15800 16.71500 31.98700
H  48.24900 19.06800 32.55200
H  49.35000 19.53500 31.39200
H  50.04000 18.88900 32.85400
H  49.32100 14.89300 32.74700
H  47.58300 14.44300 32.77800
H  48.98700 14.81000 34.98400
H  47.35900 15.24700 35.15500
H  53.49600 18.39600 28.04700
H  52.17800 19.46900 28.18200
H  53.14500 19.22700 26.65100
H  53.93300 18.79000 24.72500
H  54.45000 17.36100 23.95200
H  54.43600 17.25200 25.64000
H  48.04200 14.24400 22.69000
H  45.34600 14.81700 23.40600
H  47.46600 17.00600 23.20600
H  46.24100 16.26700 22.27300
H  48.02600 16.05000 21.75100
H  46.24000 12.28400 22.47800
H  44.80900 12.62100 23.32500
H  45.59400 11.17500 25.02000
H  47.28000 11.80400 24.99700
H  46.61400 10.65800 23.74600
H  42.77600 12.35500 27.41500
H  42.24900 13.89000 26.91200
H  41.79200 13.21600 28.57800
H  45.19100 14.13100 32.47900
H  43.40600 17.70100 33.99700
H  44.63300 17.13600 35.19500
H  43.02200 16.33300 35.19900

