158

Mg 8.79400 3.73100 27.13800
C  10.24100 2.34000 29.96100
C  7.01500 5.77900 29.23200
C  7.27800 4.87400 24.40500
C  9.96300 1.01800 25.30100
N  8.63100 4.02700 29.30500
C  9.46300 3.39100 30.23100
C  9.21600 4.00700 31.61200
C  8.10900 5.02400 31.42300
C  7.88800 4.95800 29.87700
C  6.76200 4.85300 32.25700
C  10.51000 4.47900 32.29300
C  10.39100 5.35800 33.56200
H  11.10600 4.83500 34.82900
N  7.38700 5.20200 26.87200
C  6.79500 5.94600 27.86000
C  5.85800 6.87500 27.17100
C  6.09500 6.80800 25.77500
C  6.87500 5.50300 25.63800
C  5.12400 7.89700 28.00000
C  5.60200 7.69200 24.60000
O  5.75500 7.47800 23.40900
C  5.02600 8.97600 25.00200
N  8.51800 2.96300 25.15500
C  7.95000 3.71400 24.19100
C  8.23700 3.13000 22.82000
C  9.14700 1.94200 23.07600
C  9.24900 1.99600 24.61800
C  6.99000 2.83100 22.02700
C  10.51100 1.99900 22.27800
C  10.95000 0.63100 21.70100
N  9.97500 2.10500 27.49800
C  10.37000 1.07500 26.65200
C  11.26300 0.23600 27.32200
C  11.27900 0.74600 28.65900
C  10.45800 1.87000 28.69600
C  12.00200 -0.87500 26.67300
C  11.94000 0.52000 29.91500
O  12.72900 -0.28300 30.36300
C  11.21500 1.56600 30.81000
C  10.61100 0.73700 31.99200
O  9.45900 0.35100 32.13200
O  11.59500 0.75800 32.95600
C  11.08900 0.49100 34.28700
H  6.39000 6.29300 29.96500
H  7.15200 5.48300 23.50700
H  10.36200 0.24100 24.64500
H  8.82900 3.15500 32.17000
H  8.47000 6.01300 31.70700
H  5.93800 4.55900 31.60700
H  6.54600 5.81200 32.72800
H  6.89500 4.20100 33.12000
H  11.10700 4.92700 31.49900
H  11.05900 3.57500 32.55700
H  9.35200 5.49100 33.86400
H  10.83500 6.33000 33.34900
H  4.23100 8.36100 27.58200
H  5.74500 8.77500 28.17700
H  4.80900 7.53100 28.97700
H  5.52400 9.36600 25.88900
H  3.99800 8.69800 25.23700
H  5.25600 9.67700 24.20000
H  8.85600 3.85500 22.29200
H  8.62900 0.99900 22.90100
H  6.19000 3.35400 22.55200
H  6.81700 1.81000 21.68700
H  6.92500 3.33700 21.06300
H  11.26800 2.42000 22.93900
H  10.51000 2.68600 21.43100
H  10.06800 -0.00900 21.71700
H  11.73500 0.25500 22.35600
H  11.12400 0.68800 20.62700
H  12.16900 -0.62900 25.62500
H  11.34000 -1.74000 26.65300
H  13.00200 -1.11600 27.03500
H  12.07600 2.14300 31.14600
H  11.91300 0.19900 34.93700
H  10.40600 -0.35800 34.25300
H  10.56700 1.34400 34.72100
Mg 7.30200 54.80900 42.17000
C  6.51300 51.47100 41.48700
C  10.47500 54.21300 40.95700
C  7.71700 58.21000 41.87000
C  3.87000 55.28500 42.62100
N  8.28600 53.08700 41.22400
C  7.82700 51.78400 41.14500
C  9.00900 50.85200 40.67300
C  10.26600 51.71400 41.00100
C  9.62700 53.10300 40.99000
C  11.04400 51.29300 42.31500
C  8.97300 50.40000 39.20100
C  8.79700 51.45500 38.07900
H  7.53900 51.24000 37.23400
N  8.95900 55.99800 41.61500
C  10.17100 55.53400 41.21500
C  11.03600 56.63400 41.00700
C  10.28300 57.81900 41.34400
C  8.91400 57.38600 41.68400
C  12.48400 56.60400 40.44100
C  10.75700 59.25900 41.45000
O  11.90500 59.53600 41.08900
C  9.96300 60.51600 41.88000
N  5.95800 56.52700 42.17200
C  6.38400 57.81800 42.03300
C  5.26200 58.85300 42.29700
C  4.02200 57.85100 42.49700
C  4.66400 56.45700 42.46300
C  5.54200 59.76800 43.52600
C  2.83000 58.06800 41.47900
C  1.58000 58.83600 41.93200
N  5.54600 53.65800 42.23900
C  4.24900 53.98900 42.52800
C  3.47800 52.83100 42.72100
C  4.33800 51.82100 42.30400
C  5.57200 52.38300 42.00400
C  2.04000 52.70000 43.18300
C  4.37400 50.36100 42.08200
O  3.51500 49.45800 42.31400
C  5.83100 50.13500 41.52100
C  5.88700 49.22300 40.40700
O  5.42100 49.49300 39.28400
O  6.61700 48.07500 40.71200
C  6.94400 47.10800 39.70000
H  11.53600 53.99600 40.82000
H  7.99100 59.26700 41.84400
H  2.82500 55.45200 42.89100
H  8.85600 49.99400 41.32700
H  10.96800 51.41100 40.22500
H  10.43200 50.66400 42.96100
H  11.24900 52.21000 42.86800
H  11.97100 50.74500 42.14200
H  8.20200 49.63400 39.12100
H  9.93600 49.95100 38.95900
H  9.70000 51.29100 37.49200
H  8.76700 52.43000 38.56500
H  12.79600 55.60500 40.13700
H  13.03700 56.97200 41.30500
H  12.73200 57.23300 39.58600
H  9.32000 60.93300 41.10400
H  10.64700 61.33500 42.09900
H  9.56500 60.25200 42.85900
H  5.14600 59.46000 41.39900
H  3.56600 57.99400 43.47600
H  5.11100 59.29000 44.40600
H  5.19100 60.77500 43.30100
H  6.60300 59.81500 43.77100
H  2.52700 57.09200 41.10100
H  3.14900 58.66700 40.62600
H  0.85600 58.08700 42.25500
H  1.03000 59.43100 41.20300
H  1.91000 59.39700 42.80600
H  1.69300 51.73600 43.55600
H  1.44100 52.87400 42.29000
H  1.95600 53.52600 43.89000
H  6.45600 49.59000 42.22800
H  7.96100 47.03000 39.31700
H  6.34800 47.17800 38.79000
H  6.79000 46.15100 40.19800

