158

Mg 8.43400 2.73400 26.77300
C  9.79800 1.37900 29.65100
C  6.22900 4.39300 28.57700
C  7.26700 3.87900 23.76200
C  10.48700 0.37200 24.99800
N  7.92900 2.63700 28.90900
C  8.74100 2.28500 29.92200
C  8.32900 2.83100 31.32700
C  7.15100 3.77400 30.92200
C  7.05300 3.61000 29.38800
C  5.79800 3.59700 31.62100
C  9.60300 3.50200 31.96600
C  9.42200 4.45400 33.20100
H  10.15400 4.18600 34.45000
N  6.99700 3.99700 26.23300
C  6.12400 4.52600 27.14400
C  5.22000 5.38900 26.38400
C  5.59300 5.33500 25.03200
C  6.70800 4.43000 24.95700
C  4.01500 6.05400 27.14300
C  4.94900 6.11000 23.85500
O  5.35700 6.10400 22.65600
C  3.84700 7.01200 24.14700
N  8.78500 2.10300 24.63700
C  8.17600 2.79600 23.59800
C  8.70100 2.32400 22.23100
C  9.71800 1.24000 22.63500
C  9.76900 1.30400 24.18600
C  7.57600 1.83500 21.25500
C  11.02600 1.46200 21.99500
C  11.22500 1.46800 20.48500
N  9.73000 1.14500 27.16300
C  10.49100 0.28200 26.37400
C  11.42800 -0.55000 27.13900
C  11.16200 -0.09800 28.44700
C  10.16300 0.87100 28.39700
C  12.46200 -1.48500 26.64800
C  11.62100 -0.31800 29.79000
O  12.46200 -1.04700 30.27000
C  10.75000 0.62300 30.65200
C  10.13500 -0.22500 31.70500
O  9.40500 -1.18400 31.53900
O  10.69400 0.15500 32.93200
C  10.30200 -0.41200 34.22000
H  5.68000 5.08100 29.22300
H  6.89000 4.20700 22.79100
H  11.00200 -0.43400 24.47200
H  7.94000 1.99800 31.91200
H  7.36000 4.83500 31.05500
H  5.77900 2.61900 32.10100
H  4.98400 3.53400 30.89800
H  5.45400 4.31700 32.36300
H  10.13300 4.01100 31.16000
H  10.26400 2.73400 32.36800
H  8.33500 4.42800 33.27400
H  9.70900 5.49100 33.02200
H  3.08200 5.82800 26.62700
H  4.25100 7.11800 27.16000
H  3.95300 5.57800 28.12200
H  3.54300 7.69800 23.35700
H  4.36300 7.66800 24.84800
H  3.00700 6.49100 24.60500
H  9.13400 3.20400 21.75500
H  9.46700 0.19300 22.46100
H  6.63800 2.37900 21.36100
H  7.32300 0.85400 21.65900
H  7.71400 1.68400 20.18500
H  11.63800 0.62000 22.32200
H  11.51200 2.39800 22.27200
H  10.25000 1.17100 20.10100
H  11.99800 0.74700 20.22000
H  11.30600 2.49300 20.12300
H  12.92000 -1.08900 25.74200
H  12.15000 -2.51900 26.50300
H  13.34000 -1.47600 27.29400
H  11.36100 1.30000 31.24700
H  9.34100 -0.92100 34.15200
H  10.13900 0.31600 35.01500
H  11.00200 -1.20800 34.47500
Mg -6.17300 25.51300 26.13500
C  -4.64300 26.68800 28.94900
C  -8.33500 23.84800 28.00500
C  -7.18300 23.85300 23.32100
C  -3.62900 27.10800 24.16100
N  -6.22400 25.10300 28.21100
C  -5.64300 25.82500 29.25000
C  -6.28700 25.42400 30.58800
C  -7.26000 24.24600 30.23800
C  -7.30400 24.38600 28.72400
C  -6.75800 22.83100 30.63300
C  -6.89900 26.62100 31.43000
C  -6.74500 26.60900 32.93600
H  -6.12400 25.33500 33.61600
N  -7.60900 24.03700 25.67800
C  -8.41000 23.51600 26.58700
C  -9.26400 22.57200 26.04300
C  -8.88300 22.46300 24.66800
C  -7.83300 23.44100 24.47100
C  -10.35700 21.81500 26.90400
C  -9.47900 21.58700 23.60400
O  -9.06500 21.70200 22.43700
C  -10.71500 20.83500 23.88800
N  -5.57900 25.58900 24.10600
C  -6.06900 24.68500 23.13300
C  -5.33600 24.74300 21.80800
C  -4.29500 25.87800 22.03000
C  -4.53100 26.27200 23.49900
C  -4.71200 23.38700 21.42800
C  -4.30600 27.02000 20.92200
C  -3.02400 27.38700 20.17600
N  -4.59600 26.79800 26.42000
C  -3.69200 27.35100 25.55500
C  -2.87500 28.32200 26.30400
C  -3.22400 28.05600 27.65900
C  -4.15000 27.06100 27.69700
C  -1.74600 29.21100 25.84300
C  -2.89500 28.42800 29.02800
O  -2.07500 29.27400 29.48000
C  -3.89300 27.55600 29.94100
C  -3.14600 26.80300 30.92500
O  -2.74700 25.63000 30.83300
O  -2.89100 27.51300 32.05900
C  -1.96400 27.00800 33.06600
H  -9.13600 23.49100 28.65600
H  -7.55600 23.34800 22.42800
H  -2.89300 27.70500 23.61900
H  -5.44100 25.12100 31.20600
H  -8.19100 24.42800 30.77500
H  -6.02100 23.08800 31.39400
H  -6.30200 22.40500 29.73900
H  -7.58500 22.23000 31.01000
H  -7.97800 26.64200 31.27700
H  -6.53100 27.53500 30.96400
H  -7.70800 26.77100 33.42100
H  -6.23100 27.54300 33.16300
H  -10.30700 22.14600 27.94200
H  -10.11300 20.75700 26.81400
H  -11.33100 22.09300 26.50300
H  -10.53800 19.92700 24.46500
H  -11.11300 20.55400 22.91300
H  -11.50200 21.45100 24.32200
H  -5.98400 25.11700 21.01500
H  -3.26900 25.51200 22.08400
H  -5.03500 22.64900 22.16100
H  -3.63200 23.27300 21.33400
H  -5.09100 23.13600 20.43700
H  -4.54600 27.96700 21.40400
H  -5.06600 26.83400 20.16300
H  -2.17700 26.79500 20.52200
H  -2.74000 28.43500 20.07900
H  -3.11200 27.28400 19.09400
H  -2.23800 30.16900 25.67100
H  -1.38500 28.94000 24.85100
H  -1.09800 29.34500 26.70900
H  -4.50600 28.23700 30.53000
H  -1.66600 25.96300 32.97700
H  -2.50600 27.12200 34.00500
H  -1.09100 27.64200 33.22200

