158

Mg 40.83200 10.34200 29.52100
C  42.70300 11.54700 32.23300
C  38.84400 8.80200 32.05900
C  39.04500 8.94800 27.00500
C  43.18400 11.38300 27.25900
N  40.89700 10.03000 31.93800
C  41.59900 10.86500 32.77900
C  41.04500 10.90900 34.25300
C  40.06000 9.71400 34.15200
C  39.88800 9.51400 32.68500
C  40.60600 8.46600 34.79700
C  40.49700 12.31600 34.66200
C  39.91700 12.37000 36.11300
H  40.59700 13.21800 37.16300
N  39.21200 9.10200 29.52400
C  38.51500 8.60000 30.68400
C  37.43300 7.71100 30.21400
C  37.41400 7.84100 28.77300
C  38.62100 8.66800 28.32700
C  36.60200 6.85100 31.08500
C  36.58500 6.96100 27.82400
O  36.77600 6.86300 26.60500
C  35.42600 6.19200 28.36500
N  41.07300 10.24800 27.43300
C  40.17000 9.68800 26.59900
C  40.56100 9.83800 25.12000
C  41.77100 10.83100 25.21900
C  42.07500 10.69600 26.69800
C  40.86400 8.52700 24.42700
C  41.44300 12.29000 24.75200
C  41.05100 13.34200 25.80500
N  42.60900 11.16700 29.68500
C  43.45100 11.51100 28.66900
C  44.60000 12.21200 29.25100
C  44.34700 12.20100 30.64000
C  43.13800 11.51800 30.86700
C  45.76200 12.73700 28.59800
C  44.91200 12.64900 31.84200
O  45.91400 13.29800 32.12400
C  43.82100 12.29200 32.95800
C  44.46500 11.63500 34.13300
O  44.83300 10.48900 34.21300
O  44.51200 12.50600 35.22000
C  44.95200 12.02300 36.57000
H  38.16900 8.31400 32.76400
H  38.63000 8.42000 26.14400
H  43.94300 11.72800 26.55400
H  41.85800 10.61500 34.91700
H  39.12400 10.01500 34.62300
H  40.34900 7.61600 34.16600
H  40.18000 8.44200 35.80000
H  41.67000 8.57000 35.01100
H  39.79700 12.64700 33.89500
H  41.29200 13.05400 34.55100
H  40.01900 11.34300 36.46300
H  38.87000 12.67200 36.12100
H  35.57000 7.19300 31.00900
H  36.87100 6.85400 32.14100
H  36.64000 5.81000 30.76200
H  34.75000 6.00900 27.53000
H  34.86300 6.80600 29.06800
H  35.74300 5.32000 28.93900
H  39.76600 10.44800 24.69200
H  42.68200 10.40400 24.80000
H  41.70500 8.60900 23.73800
H  39.98600 8.26100 23.83800
H  41.07300 7.77300 25.18600
H  40.58800 12.24500 24.07800
H  42.26300 12.57100 24.09200
H  41.10100 12.91000 26.80500
H  40.01700 13.65700 25.66600
H  41.79900 14.11400 25.62300
H  45.54000 12.75600 27.53200
H  46.65600 12.12800 28.73600
H  46.09300 13.69800 28.99100
H  43.63200 13.25400 33.43600
H  45.72200 11.25600 36.48000
H  44.12700 11.67100 37.19000
H  45.42600 12.87400 37.05800
Mg 54.08700 25.40300 45.25800
C  51.46800 27.79500 44.61400
C  52.09200 22.92300 44.00100
C  56.77900 23.45800 44.80700
C  56.11600 28.23800 45.95700
N  52.11300 25.45600 44.30100
C  51.20800 26.47200 44.15700
C  49.93800 25.95200 43.53700
C  50.05200 24.45700 43.82500
C  51.50900 24.28000 44.05900
C  49.19400 23.87200 45.03900
C  49.73200 26.33200 42.04100
C  48.37400 26.00300 41.45400
H  48.24400 25.28900 40.15300
N  54.41100 23.34700 44.54600
C  53.41900 22.49500 44.24000
C  53.97200 21.13800 44.08700
C  55.34600 21.24200 44.49600
C  55.58200 22.71300 44.63100
C  53.08700 19.91400 43.77400
C  56.38600 20.14700 44.67200
O  56.13600 18.94800 44.38300
C  57.69800 20.42700 45.37800
N  56.13500 25.89200 45.15400
C  57.05000 24.85200 45.04600
C  58.48200 25.38000 45.25300
C  58.26300 27.01000 45.28700
C  56.70800 27.08400 45.51800
C  58.88800 24.85600 46.60800
C  58.78000 27.73700 44.02600
C  60.02300 28.68500 44.20200
N  53.79900 27.49400 45.60900
C  54.69400 28.49800 45.98500
C  53.95400 29.66800 46.38100
C  52.76500 29.51300 45.64600
C  52.70800 28.18200 45.22400
C  54.52100 30.99800 46.96700
C  51.53200 30.18100 45.24500
O  51.16000 31.31600 45.58600
C  50.68600 29.08200 44.53800
C  50.33500 29.52700 43.13900
O  51.14400 29.72200 42.27500
O  48.99600 29.51400 42.90300
C  48.54600 29.99000 41.59700
H  51.31500 22.17600 43.82500
H  57.71300 22.89500 44.85700
H  56.87600 28.97900 46.21100
H  49.02700 26.30800 44.01800
H  49.85100 23.85100 42.94100
H  49.70400 24.07000 45.98200
H  49.17300 22.78600 44.94900
H  48.19000 24.29500 45.02700
H  50.51200 25.85100 41.45100
H  49.99000 27.34900 41.74400
H  47.78400 26.92000 41.43800
H  47.83900 25.44800 42.22400
H  53.41200 19.39700 42.87100
H  52.02500 20.14000 43.68500
H  53.14100 19.25300 44.64000
H  58.41700 20.94300 44.74100
H  58.16200 19.55300 45.83400
H  57.45200 21.03900 46.24600
H  59.25900 25.14700 44.52400
H  58.71200 27.47500 46.16500
H  59.87500 24.39300 46.61200
H  58.21300 24.16200 47.10800
H  59.22000 25.63700 47.29200
H  57.90900 28.27900 43.65800
H  59.11600 26.97100 43.32700
H  60.53600 28.70200 43.24000
H  60.76600 28.30600 44.90300
H  59.57800 29.65200 44.43400
H  55.29600 30.65100 47.65000
H  53.73100 31.60100 47.41500
H  54.94000 31.61400 46.17100
H  49.75200 28.84300 45.04500
H  48.58400 29.29400 40.76000
H  48.98900 30.96500 41.39400
H  47.46600 30.11500 41.68600

