158

Mg 29.93500 58.91000 39.88200
C  27.53900 56.59700 38.95400
C  32.39400 56.82500 38.67900
C  32.16700 61.50000 40.08600
C  27.22900 61.18800 40.66500
N  29.96500 56.92000 38.98900
C  28.81900 56.17800 38.69200
C  29.28400 54.77600 38.02300
C  30.81300 54.77200 38.23500
C  31.07500 56.27500 38.68100
C  31.36200 53.60300 39.03700
C  28.74000 54.75600 36.57500
C  27.93300 53.50200 36.12400
H  27.10400 53.85900 34.86900
N  32.05000 59.16600 39.44400
C  32.86000 58.13600 38.98700
C  34.21000 58.71600 38.81900
C  34.18500 60.08800 39.26700
C  32.73400 60.26000 39.63000
C  35.34500 57.92200 38.32100
C  35.33500 61.02300 39.29700
O  36.43300 60.59000 38.92600
C  35.36900 62.36000 40.07300
N  29.71100 61.04100 40.28200
C  30.85100 61.82200 40.41800
C  30.42000 63.24100 40.86800
C  28.89000 63.16000 41.11800
C  28.55000 61.74900 40.65100
C  31.28500 63.84100 41.97800
C  28.08900 64.23400 40.38100
C  27.09600 65.02500 41.30200
N  27.83100 58.92600 39.93600
C  26.92400 59.90800 40.15800
C  25.58200 59.37500 39.97500
C  25.77700 58.12400 39.45700
C  27.13200 57.90200 39.43800
C  24.29900 60.13600 40.19100
C  25.08400 57.01700 38.88100
O  23.87200 56.81900 38.63500
C  26.21700 55.93000 38.61100
C  25.99100 54.76000 39.45600
O  26.44700 54.63900 40.56500
O  25.15300 53.84800 38.87600
C  24.69800 52.58700 39.60300
H  33.17700 56.09000 38.48300
H  32.85200 62.33200 40.26000
H  26.46300 61.92700 40.91200
H  28.80200 53.92800 38.50900
H  31.29500 54.67600 37.26200
H  31.48700 53.92400 40.07100
H  32.26000 53.18300 38.58200
H  30.74400 52.70900 39.11600
H  29.49800 54.82500 35.79400
H  28.21800 55.70200 36.42900
H  27.22600 53.31700 36.93200
H  28.55000 52.64200 35.86700
H  35.02900 56.88000 38.28800
H  36.16200 57.96300 39.04000
H  35.67500 58.21400 37.32400
H  34.74900 62.25000 40.96400
H  34.83500 63.09800 39.47500
H  36.38100 62.66800 40.33500
H  30.55500 63.97300 40.07200
H  28.72800 63.27900 42.18900
H  32.23500 63.30800 42.01200
H  30.74900 63.69200 42.91500
H  31.37700 64.91300 41.80700
H  27.55700 63.78500 39.54200
H  28.77500 64.99800 40.01700
H  26.40000 65.51000 40.61800
H  27.55400 65.77300 41.95000
H  26.60000 64.27700 41.92000
H  24.18300 60.43700 41.23200
H  23.41000 59.61100 39.84200
H  24.50600 61.05900 39.64900
H  26.11000 55.60000 37.57800
H  25.05600 52.65500 40.63000
H  25.24800 51.72900 39.21600
H  23.62500 52.45500 39.46300
Mg 9.34400 48.13000 26.55800
C  7.49000 48.29300 29.62100
C  12.03600 49.53700 28.33200
C  11.11100 48.24600 23.76300
C  6.37400 47.64800 24.91600
N  9.64600 48.78400 28.72700
C  8.76100 48.72300 29.78900
C  9.54600 49.27600 31.11300
C  10.78500 50.04200 30.51800
C  10.83400 49.40100 29.08400
C  10.59600 51.64600 30.56700
C  9.92900 48.08900 32.00900
C  9.71600 48.07900 33.56700
H  9.82800 46.84900 34.44500
N  11.37200 48.61000 26.15300
C  12.35800 49.11000 26.97200
C  13.60500 49.05200 26.37800
C  13.34000 48.58300 25.04000
C  11.88800 48.52100 24.90300
C  14.84300 49.31300 27.08600
C  14.37900 48.16100 23.93100
O  14.00300 47.96100 22.75400
C  15.80500 48.09300 24.31400
N  8.83000 48.10900 24.66200
C  9.73600 48.19700 23.61600
C  9.09200 48.01200 22.23000
C  7.65900 47.55900 22.59900
C  7.60900 47.80000 24.14400
C  9.12700 49.32200 21.41300
C  7.43600 46.08700 22.25100
C  7.71300 44.99300 23.30600
N  7.29800 47.99100 27.12800
C  6.23900 47.77400 26.29900
C  5.04000 47.75400 27.09100
C  5.49100 47.82500 28.42500
C  6.88100 47.98900 28.42100
C  3.67000 47.35200 26.70600
C  5.15900 47.82200 29.76300
O  4.06700 47.93900 30.29100
C  6.47700 47.99300 30.63000
C  6.58400 46.74400 31.38700
O  6.97200 45.68000 30.93500
O  6.28600 46.96300 32.69300
C  6.20800 45.72300 33.55700
H  12.89200 49.95900 28.86200
H  11.62800 48.18400 22.80300
H  5.55700 47.47300 24.21200
H  8.82600 49.92300 31.61300
H  11.70000 49.70600 31.00600
H  9.77600 52.05200 31.16000
H  10.27700 51.81100 29.53800
H  11.41600 52.17700 31.05000
H  11.00500 47.91800 32.04600
H  9.47500 47.18300 31.60600
H  8.65700 48.33700 33.56700
H  10.37400 48.83400 33.99800
H  15.54300 48.51600 26.83600
H  14.89600 49.42800 28.16800
H  15.26400 50.24300 26.70300
H  16.29200 47.56500 23.49400
H  15.84000 47.35000 25.11100
H  16.15700 49.06200 24.66700
H  9.63000 47.26100 21.65200
H  6.96300 48.20500 22.06300
H  10.13500 49.43800 21.01300
H  8.76500 50.23400 21.88800
H  8.60700 49.19700 20.46300
H  7.90300 45.79400 21.31100
H  6.39400 45.99800 21.94600
H  6.83200 44.88900 23.93900
H  8.52400 45.32400 23.95400
H  7.98700 44.03100 22.87500
H  3.46600 47.33200 25.63500
H  2.88400 47.88000 27.24700
H  3.63300 46.31700 27.04400
H  6.44600 48.84300 31.31100
H  5.81600 45.95000 34.54900
H  7.19900 45.31300 33.75400
H  5.59500 44.98300 33.04200

