158

Mg 16.70300 52.17000 25.78900
C  18.30600 50.70000 28.42400
C  14.36600 53.49400 27.86700
C  14.98600 53.51500 23.07100
C  19.18900 51.04700 23.47200
N  16.48900 52.25700 27.90900
C  17.23600 51.51000 28.83900
C  16.73300 51.82400 30.29300
C  15.35800 52.46100 30.07100
C  15.37500 52.74500 28.53200
C  14.15200 51.47200 30.46200
C  17.75200 52.74600 31.01200
C  18.31700 52.15200 32.31500
H  17.83300 52.87700 33.55300
N  14.93200 53.29000 25.49300
C  14.15400 53.69600 26.47400
C  13.01300 54.44600 25.89800
C  13.06100 54.41300 24.55700
C  14.30600 53.67400 24.26800
C  11.97100 55.08600 26.83900
C  12.15900 54.97300 23.49400
O  12.37100 54.85200 22.31600
C  10.84000 55.63400 23.90800
N  16.95900 52.11300 23.54900
C  16.14400 52.83400 22.68400
C  16.70900 52.73000 21.23100
C  18.15800 52.20700 21.45800
C  18.14500 51.79400 22.92800
C  15.82100 51.92100 20.26300
C  19.40600 53.09300 21.03400
C  20.59800 52.30400 20.62900
N  18.41700 51.05400 25.89300
C  19.29100 50.66100 24.90900
C  20.28900 49.78000 25.59100
C  19.93600 49.80200 26.96600
C  18.80300 50.59800 27.07800
C  21.38100 49.14100 24.90100
C  20.41700 49.39700 28.20600
O  21.45900 48.87800 28.59300
C  19.41900 50.02000 29.28200
C  19.03100 48.96400 30.25700
O  18.05200 48.25000 30.10300
O  19.84000 49.00200 31.34400
C  19.40500 48.25000 32.49900
H  13.56700 53.79500 28.54800
H  14.49200 53.96100 22.20500
H  19.96100 50.71100 22.77600
H  16.64600 50.89900 30.86400
H  15.21100 53.35100 30.68300
H  13.53300 52.18000 31.01300
H  14.44800 50.60800 31.05800
H  13.65200 51.23300 29.52400
H  17.29000 53.72100 31.16400
H  18.63400 52.95400 30.40600
H  19.40700 52.13600 32.27600
H  18.00600 51.16200 32.65000
H  11.94800 56.14300 26.57200
H  12.18500 55.08900 27.90700
H  10.98400 54.62500 26.79400
H  10.18600 54.99600 24.50300
H  10.33300 55.95100 22.99700
H  10.97000 56.51700 24.53400
H  16.68900 53.77900 20.93600
H  18.40600 51.29100 20.92200
H  16.45600 51.05500 20.08100
H  15.62200 52.38200 19.29500
H  14.84200 51.69600 20.68600
H  19.69400 53.59800 21.95600
H  19.19800 53.87900 20.30800
H  21.25900 52.34600 21.49400
H  21.05400 52.82400 19.78600
H  20.35100 51.30500 20.26900
H  21.16600 49.16600 23.83200
H  21.38900 48.07700 25.13600
H  22.34400 49.57400 25.17100
H  20.02100 50.75000 29.82300
H  18.56500 48.79400 32.93200
H  20.17200 48.09700 33.25700
H  19.01900 47.24000 32.35700
Mg -1.32800 34.91500 27.53900
C  -3.35500 33.18600 29.83600
C  -0.50300 37.13400 30.14600
C  0.31600 36.75400 25.21600
C  -2.67400 32.94000 24.95800
N  -1.83900 35.03700 29.77100
C  -2.58100 34.20000 30.43700
C  -2.47800 34.46500 31.91500
C  -1.95200 35.94200 31.90700
C  -1.23600 36.01900 30.60000
C  -3.02200 37.08200 32.04400
C  -1.64400 33.32400 32.60900
C  -2.47700 32.67500 33.70600
H  -1.82700 32.25100 35.02700
N  -0.34700 36.76500 27.64500
C  -0.11800 37.50800 28.78500
C  0.72000 38.63700 28.46100
C  1.05900 38.56100 27.04700
C  0.34800 37.31000 26.57000
C  1.12100 39.72900 29.41100
C  1.85100 39.42000 26.12200
O  2.12400 39.16800 24.91100
C  2.47600 40.56000 26.66700
N  -1.05300 34.74100 25.49200
C  -0.31000 35.60600 24.67000
C  -0.19800 35.18100 23.22800
C  -1.03000 33.82600 23.18900
C  -1.66700 33.84700 24.64900
C  -0.61100 36.23300 22.12000
C  -0.30200 32.50900 22.98700
C  -1.01400 31.35900 22.18800
N  -2.64800 33.34700 27.36400
C  -3.11900 32.69100 26.27200
C  -4.05100 31.59100 26.66000
C  -4.15800 31.77000 28.06100
C  -3.32100 32.84100 28.45000
C  -4.76100 30.55100 25.77300
C  -4.78200 31.25100 29.24700
O  -5.60400 30.30700 29.32500
C  -4.28300 32.12500 30.48200
C  -5.56900 32.74100 31.04400
O  -6.11800 33.77900 30.76000
O  -5.83700 32.03800 32.21800
C  -6.57400 32.59100 33.33200
H  -0.36300 37.87800 30.93400
H  0.83300 37.25200 24.39300
H  -3.07800 32.30400 24.16900
H  -3.53000 34.55400 32.18600
H  -1.15100 36.02700 32.64100
H  -3.91300 36.49300 32.26100
H  -3.00300 37.82300 31.24500
H  -2.74200 37.65400 32.92900
H  -0.78000 33.78600 33.08700
H  -1.27500 32.54700 31.94000
H  -2.67900 31.68500 33.29800
H  -3.42800 33.11300 34.00700
H  0.44300 39.81200 30.26000
H  1.24300 40.72200 28.97800
H  2.15400 39.48600 29.66000
H  3.22700 41.01300 26.02000
H  3.12900 40.18600 27.45600
H  1.71200 41.30400 26.89300
H  0.85700 34.99900 23.02300
H  -1.82300 33.91500 22.44600
H  -1.38400 35.85300 21.45100
H  0.26800 36.35600 21.48800
H  -1.05400 37.13700 22.53800
H  -0.06400 32.02400 23.93400
H  0.58800 32.63500 22.37000
H  -2.00500 31.72600 21.92000
H  -1.03100 30.40200 22.70900
H  -0.56200 31.23800 21.20300
H  -4.67000 29.71700 26.46900
H  -4.23600 30.40400 24.83000
H  -5.82700 30.75500 25.66400
H  -3.83400 31.39000 31.14900
H  -5.89600 32.81500 34.15500
H  -7.28700 31.88800 33.76200
H  -7.07800 33.50300 33.01200

