158

Mg 35.94700 0.54000 30.51900
C  33.55700 2.23700 32.49600
C  38.09700 0.62800 33.18100
C  38.34700 -0.60800 28.48100
C  33.74300 0.76100 27.71000
N  35.94900 1.59000 32.51600
C  34.83300 2.06400 33.12400
C  35.10300 2.30300 34.61700
C  36.64700 2.11400 34.73200
C  36.93500 1.45500 33.41100
C  37.46500 3.47400 34.96300
C  34.28800 1.18700 35.40200
C  33.97700 1.65800 36.83600
H  34.84100 2.88200 37.33300
N  37.94300 0.10700 30.78000
C  38.61400 0.17600 31.96300
C  39.92600 -0.26500 31.78700
C  40.12500 -0.54100 30.39800
C  38.81200 -0.31700 29.81900
C  40.86700 -0.34300 32.91100
C  41.35700 -0.83100 29.52400
O  41.24000 -1.23900 28.35100
C  42.65100 -0.76300 30.01300
N  36.07700 0.11900 28.39700
C  37.19000 -0.31700 27.77500
C  37.07200 -0.54500 26.26500
C  35.47100 -0.46100 26.13500
C  35.04900 0.25300 27.47800
C  37.74200 0.61600 25.42400
C  34.68900 -1.79300 25.94100
C  33.87400 -1.84300 24.63000
N  34.03700 1.40200 30.13500
C  33.25300 1.36000 28.94400
C  31.93200 1.88700 29.30800
C  32.07200 2.29200 30.68900
C  33.31600 1.91600 31.11400
C  30.70600 1.94100 28.43400
C  31.33700 2.92600 31.73300
O  30.19200 3.34000 31.68300
C  32.24600 2.82100 33.05400
C  32.53100 4.17500 33.65800
O  33.46500 4.95300 33.32200
O  31.67000 4.45900 34.59200
C  31.77900 5.72000 35.37500
H  38.65200 0.57400 34.12000
H  39.09200 -0.83900 27.71600
H  33.00600 0.70700 26.90700
H  34.84500 3.34700 34.79100
H  36.87900 1.48900 35.59400
H  36.86700 4.31400 35.31700
H  37.83700 3.71200 33.96600
H  38.29700 3.37200 35.65900
H  34.94400 0.33300 35.56800
H  33.30200 0.91000 35.02800
H  34.29200 0.85500 37.50300
H  32.92700 1.94200 36.89700
H  40.65900 0.53400 33.52400
H  41.92500 -0.33400 32.65000
H  40.62500 -1.16700 33.58200
H  42.49300 -1.56400 30.73600
H  42.75000 0.06800 30.71100
H  43.55300 -0.92200 29.42200
H  37.37800 -1.54400 25.95500
H  35.16000 0.25700 25.37600
H  37.98400 1.44500 26.08900
H  37.04600 1.07100 24.71900
H  38.69200 0.32400 24.97600
H  34.07500 -1.82000 26.84100
H  35.43400 -2.56900 26.11900
H  34.07900 -0.96300 24.01900
H  32.80600 -1.83200 24.84600
H  34.11300 -2.74100 24.06000
H  31.07400 1.73100 27.43000
H  30.17000 2.88500 28.53100
H  29.93800 1.19200 28.62300
H  31.79400 2.19600 33.82400
H  32.58300 6.28600 34.90600
H  32.04300 5.42200 36.39000
H  30.92500 6.38900 35.47500
Mg -0.88200 34.91300 25.71600
C  -2.54500 33.02000 28.20800
C  0.30600 36.92400 28.17200
C  0.27800 36.87200 23.35400
C  -2.51600 32.98800 23.36100
N  -1.16800 34.96200 27.92900
C  -1.80400 34.12300 28.72700
C  -1.62400 34.39500 30.25400
C  -0.85500 35.75700 30.12900
C  -0.46100 35.89000 28.63300
C  -1.56000 37.01000 30.74200
C  -0.80400 33.27200 31.04200
C  -1.39800 32.75700 32.29200
H  -0.44500 32.38200 33.43400
N  0.15500 36.69400 25.77800
C  0.62100 37.33700 26.83900
C  1.45300 38.38000 26.42300
C  1.55700 38.32900 25.03400
C  0.67200 37.24900 24.61500
C  2.12400 39.23600 27.41900
C  2.26900 39.19300 24.07400
O  2.27200 39.06500 22.84900
C  3.09900 40.33000 24.67300
N  -1.32700 35.10800 23.67500
C  -0.59600 35.89500 22.94500
C  -0.84600 35.72700 21.41500
C  -1.49500 34.34400 21.41500
C  -1.82300 34.12500 22.94800
C  -1.69300 36.84400 20.74200
C  -0.53000 33.13200 20.89200
C  0.62600 32.51600 21.71800
N  -2.38800 33.33100 25.74600
C  -3.00100 32.70700 24.69400
C  -3.91900 31.66900 25.18100
C  -3.63900 31.69600 26.62000
C  -2.82900 32.77300 26.87400
C  -4.56900 30.60800 24.47000
C  -3.93000 31.05400 27.95300
O  -4.60500 30.11500 28.30000
C  -3.32500 31.94500 28.97400
C  -4.46300 32.48400 29.73800
O  -5.07300 33.50200 29.48700
O  -4.61900 31.67600 30.81500
C  -5.40900 32.07900 31.94100
H  0.81800 37.41800 29.00100
H  0.88100 37.31800 22.56000
H  -2.91300 32.31700 22.59600
H  -2.67000 34.47800 30.55000
H  0.05000 35.73000 30.73700
H  -1.08800 37.20100 31.70600
H  -2.58500 36.67700 30.90800
H  -1.63100 37.91000 30.13100
H  0.15600 33.63000 31.41400
H  -0.72700 32.45400 30.32600
H  -1.84900 31.80400 32.01500
H  -2.09800 33.54800 32.56200
H  1.84400 40.25500 27.15200
H  3.19100 39.02100 27.35100
H  1.88400 39.03400 28.46300
H  3.67900 40.84300 23.90600
H  3.84200 40.08000 25.43000
H  2.46800 41.10000 25.11800
H  0.10600 35.72600 20.88500
H  -2.45600 34.31600 20.90200
H  -2.52000 36.55700 20.09200
H  -1.06800 37.42900 20.06800
H  -2.05700 37.52800 21.50800
H  -0.11500 33.58000 19.98900
H  -1.30900 32.43500 20.58300
H  0.40000 32.61300 22.77900
H  1.60900 32.92000 21.47600
H  0.67800 31.43100 21.61700
H  -4.08400 29.66000 24.70600
H  -4.52400 30.76500 23.39300
H  -5.63200 30.53800 24.69800
H  -2.71900 31.35300 29.66000
H  -6.28200 32.55600 31.49700
H  -4.83400 32.79500 32.52900
H  -5.65200 31.18800 32.52000

