158

Mg 17.29100 -1.42500 27.93300
C  16.24900 0.81400 30.49100
C  19.32900 -2.89900 30.18400
C  18.52800 -3.13400 25.40900
C  15.47700 0.60700 25.69900
N  17.81600 -0.95700 30.05300
C  17.11200 -0.19800 30.91200
C  17.65100 -0.25700 32.34500
C  18.67700 -1.44200 32.24100
C  18.69800 -1.77700 30.71000
C  20.09300 -1.14800 32.72100
C  16.53800 -0.57900 33.44000
C  16.68600 0.15600 34.81400
H  18.05100 0.59100 35.26300
N  18.80400 -2.80700 27.85000
C  19.44200 -3.37400 28.90800
C  20.26800 -4.46400 28.39600
C  20.01700 -4.58900 26.96600
C  19.11400 -3.45100 26.65400
C  21.25100 -5.19900 29.30600
C  20.61100 -5.53600 25.90600
O  20.54600 -5.47900 24.71300
C  21.51100 -6.74200 26.36900
N  17.10800 -1.17400 25.84100
C  17.62800 -2.14700 25.02900
C  17.35800 -1.80700 23.54000
C  16.41900 -0.56900 23.67500
C  16.27400 -0.37100 25.19200
C  18.63700 -1.35400 22.78200
C  15.03700 -0.72600 23.05400
C  14.00000 -1.60500 23.75100
N  15.99500 0.28200 28.03100
C  15.24000 0.94300 27.06100
C  14.49500 2.00800 27.64200
C  14.84100 2.03200 29.05600
C  15.77400 0.96900 29.17500
C  13.62400 3.07300 26.90400
C  14.68900 2.70100 30.30600
O  14.01600 3.69000 30.63600
C  15.59500 1.95500 31.29300
C  16.41300 2.99900 32.03900
O  17.52900 3.39800 31.72700
O  15.64700 3.47600 33.06500
C  16.31600 4.51500 33.90300
H  19.92200 -3.43100 30.93100
H  18.88100 -3.69300 24.54000
H  14.96100 1.27700 25.00900
H  18.12700 0.68100 32.63500
H  18.16300 -2.19400 32.84000
H  20.44400 -1.85900 33.46900
H  20.07300 -0.12000 33.08100
H  20.83000 -1.13800 31.91800
H  16.32700 -1.61300 33.71400
H  15.56300 -0.16600 33.18300
H  16.20400 -0.44000 35.59000
H  16.07900 1.06100 34.77500
H  20.74800 -5.93400 29.93500
H  21.59800 -4.56300 30.12100
H  22.14100 -5.65400 28.87200
H  20.88900 -7.17100 27.15400
H  22.45600 -6.34100 26.73500
H  21.61800 -7.51900 25.61200
H  16.92500 -2.63000 22.97300
H  16.83000 0.37000 23.30200
H  18.77300 -0.27400 22.73400
H  18.60600 -1.79200 21.78400
H  19.53900 -1.76700 23.23500
H  15.07300 -1.02200 22.00600
H  14.60500 0.26400 22.90800
H  13.30800 -0.94700 24.27700
H  14.36800 -2.38000 24.42300
H  13.38100 -2.05200 22.97400
H  12.55700 2.86300 26.96100
H  13.86500 3.10200 25.84100
H  13.72800 3.99100 27.48300
H  14.90700 1.53700 32.02800
H  16.89000 5.31400 33.43400
H  17.01200 4.06300 34.60900
H  15.56900 5.06500 34.47400
Mg 54.10100 24.08000 44.90600
C  51.43400 26.18800 43.85700
C  52.66200 21.59600 42.81000
C  57.04800 22.46500 44.77600
C  55.60800 26.72400 46.54000
N  52.30800 23.93400 43.42100
C  51.34500 24.89300 43.20500
C  50.05500 24.34400 42.59500
C  50.36300 22.82700 42.58400
C  51.87600 22.74000 42.94500
C  49.44700 21.86600 43.43400
C  49.70300 24.84300 41.18800
C  50.96300 25.07000 40.24400
H  50.68500 25.81200 38.95200
N  54.73200 22.21000 44.02700
C  53.98900 21.33500 43.19300
C  54.82600 20.20400 42.80400
C  56.07100 20.47100 43.36800
C  56.01900 21.72200 44.15400
C  54.28100 19.05300 41.96500
C  57.31700 19.59400 43.05600
O  57.25700 18.68700 42.28400
C  58.58400 19.66200 43.85500
N  56.10400 24.45200 45.61400
C  57.11100 23.65200 45.43500
C  58.37100 24.21300 46.18100
C  57.94700 25.68100 46.47300
C  56.45200 25.66300 46.17200
C  58.95400 23.28700 47.30300
C  58.64400 26.92300 45.74200
C  58.86900 28.17200 46.61700
N  53.60000 25.91900 45.28400
C  54.26600 26.87300 45.98000
C  53.42600 28.10700 46.11300
C  52.34500 27.87100 45.27300
C  52.46900 26.55300 44.74200
C  53.60800 29.35100 46.93900
C  51.07900 28.42100 44.76300
O  50.56700 29.50800 44.97500
C  50.36400 27.34300 43.93500
C  49.94900 27.84000 42.61600
O  50.65500 28.14100 41.69700
O  48.59600 28.01400 42.61600
C  47.96100 28.55100 41.38200
H  52.17200 20.83000 42.20600
H  58.03400 22.00900 44.67100
H  56.08700 27.56000 47.05400
H  49.41000 24.56800 43.44400
H  50.27800 22.39900 41.58500
H  48.84000 22.41400 44.15400
H  50.01600 21.18900 44.07100
H  48.81400 21.22200 42.82300
H  49.14600 25.77700 41.11300
H  49.12000 23.99700 40.82200
H  51.39500 24.08400 40.07200
H  51.67200 25.69700 40.78500
H  53.22800 18.85400 42.16600
H  54.76200 18.10600 42.21100
H  54.53500 19.26800 40.92700
H  59.16700 18.74400 43.77400
H  58.28000 19.83600 44.88700
H  59.13300 20.53200 43.49300
H  59.23400 24.06300 45.53200
H  57.97000 25.98300 47.52000
H  59.98200 23.00600 47.07100
H  58.37600 22.36300 47.31500
H  59.03300 23.77200 48.27500
H  58.00600 27.19100 44.90000
H  59.64800 26.70500 45.37700
H  59.88500 28.55800 46.53400
H  58.59200 27.99200 47.65500
H  58.25000 28.95200 46.17300
H  54.50900 29.26500 47.54700
H  52.74600 29.49400 47.59100
H  53.61200 30.24800 46.32100
H  49.51900 27.08700 44.57400
H  48.19600 27.90900 40.53200
H  48.17900 29.60100 41.18700
H  46.90300 28.45400 41.62600

