158

Mg 54.29500 24.59900 44.29200
C  51.57600 26.90700 43.73800
C  52.29000 22.23000 43.44400
C  57.01400 22.59400 44.10300
C  56.25000 27.45400 44.69900
N  52.16600 24.62600 43.57600
C  51.21100 25.54600 43.46200
C  49.87700 24.97500 42.93600
C  50.10200 23.48300 43.17100
C  51.61100 23.40300 43.44800
C  49.29800 22.73100 44.30500
C  49.69100 25.21200 41.42700
C  48.16500 25.14900 40.99000
H  47.95400 24.71100 39.55900
N  54.61200 22.65900 43.86000
C  53.64300 21.78500 43.55900
C  54.14800 20.47300 43.46500
C  55.55600 20.63000 43.58000
C  55.83000 22.03100 43.81400
C  53.26000 19.23500 43.24200
C  56.59800 19.49900 43.48300
O  56.21800 18.36500 43.26500
C  58.14400 19.63400 43.59700
N  56.42500 25.00600 44.30800
C  57.33700 23.96000 44.39100
C  58.76200 24.49400 44.54700
C  58.40300 26.06500 44.80100
C  56.92000 26.21500 44.60700
C  59.44200 23.84200 45.77900
C  59.16100 27.05100 43.85500
C  59.77600 28.30500 44.59400
N  54.04400 26.78200 44.30700
C  54.92700 27.73400 44.48900
C  54.33600 29.04400 44.42200
C  53.00700 28.74100 44.14300
C  52.90800 27.38700 44.06600
C  54.86700 30.36700 44.69700
C  51.67700 29.30500 43.95300
O  51.24600 30.43700 44.04500
C  50.69000 28.20000 43.79500
C  50.08400 28.54400 42.50700
O  50.69500 28.39600 41.44100
O  48.78000 28.88200 42.58400
C  48.21600 29.49700 41.38900
H  51.67900 21.32600 43.45900
H  57.84300 21.89300 44.21800
H  56.94400 28.27200 44.90500
H  49.00300 25.44600 43.38700
H  49.96600 22.94100 42.23500
H  49.88200 22.23500 45.08100
H  48.65700 22.03500 43.76300
H  48.69900 23.44500 44.87000
H  50.17800 24.43100 40.84400
H  50.13300 26.14700 41.08100
H  47.85600 26.18400 41.13400
H  47.61200 24.39600 41.55200
H  53.02500 19.09500 42.18600
H  52.34600 19.36800 43.82000
H  53.82200 18.39000 43.63800
H  58.45500 20.37900 42.86500
H  58.59500 18.66000 43.40600
H  58.39600 19.85800 44.63300
H  59.21700 24.42300 43.55900
H  58.66800 26.22100 45.84600
H  58.75500 23.08400 46.15300
H  59.54900 24.58300 46.57200
H  60.38300 23.34600 45.54000
H  58.49900 27.44300 43.08300
H  59.98100 26.47600 43.42400
H  59.45100 29.20200 44.06700
H  60.84900 28.18000 44.44700
H  59.60300 28.26500 45.67000
H  55.19300 30.59500 45.71200
H  54.06600 31.06900 44.46400
H  55.72000 30.58700 44.05500
H  50.00200 28.18800 44.64000
H  47.25500 29.94000 41.65000
H  48.04100 28.69800 40.66800
H  48.87000 30.25900 40.96600
Mg 48.87400 46.25000 42.75600
C  45.58800 46.95000 42.06700
C  48.44900 43.26100 41.06500
C  52.09200 46.10100 42.59900
C  49.16200 49.73000 43.72300
N  47.21900 45.29000 41.62100
C  45.95700 45.73300 41.54100
C  45.01700 44.71000 40.74600
C  45.95000 43.53100 40.56300
C  47.28600 43.97800 41.23300
C  45.45100 42.13200 41.09800
C  44.53900 45.39000 39.41100
C  43.18300 44.93500 38.86100
H  43.10900 44.55500 37.33500
N  50.11100 44.72800 42.17400
C  49.78100 43.55000 41.57400
C  50.94500 42.70800 41.70100
C  52.08000 43.55500 42.17900
C  51.47000 44.87200 42.37100
C  50.85500 41.29400 41.46600
C  53.50400 43.04300 42.45700
O  53.87400 41.91300 42.05200
C  54.36800 43.86800 43.32700
N  50.40300 47.79100 42.90700
C  51.74100 47.40900 42.84200
C  52.66800 48.61900 43.13100
C  51.65100 49.68100 43.56400
C  50.32600 49.01000 43.47900
C  53.77300 48.31400 44.15400
C  51.79000 51.17700 43.17000
C  50.85000 51.70200 42.03800
N  47.66200 47.99500 42.96600
C  47.84800 49.26600 43.47600
C  46.63200 49.97500 43.60100
C  45.64500 49.10500 43.13800
C  46.37000 47.94000 42.65500
C  46.42900 51.35900 43.98900
C  44.23800 48.84000 42.86000
O  43.29600 49.60300 42.99900
C  44.20500 47.45600 42.23800
C  43.41400 46.40700 43.07400
O  43.85200 45.85800 44.05100
O  42.17300 46.27600 42.56200
C  41.50600 45.07400 43.14100
H  48.22800 42.34200 40.51900
H  53.17000 45.96700 42.49100
H  49.20300 50.81200 43.86300
H  44.19000 44.44900 41.40600
H  45.97600 43.49200 39.47400
H  46.14200 41.53100 41.68900
H  45.14400 41.47000 40.28800
H  44.60300 42.19300 41.78100
H  45.27600 45.15700 38.64200
H  44.58200 46.47900 39.43700
H  42.46500 45.73500 39.03800
H  42.86800 44.09800 39.48500
H  51.80200 40.77700 41.31100
H  50.46300 41.08400 40.47100
H  50.27200 40.75900 42.21600
H  53.81900 44.44800 44.06900
H  54.91100 44.53200 42.65500
H  54.99500 43.19100 43.90600
H  53.19200 48.83700 42.20100
H  51.76800 49.69400 44.64700
H  54.77000 48.27900 43.71500
H  53.61100 47.35000 44.63600
H  53.84100 49.14600 44.85500
H  52.83100 51.34300 42.89400
H  51.55300 51.69600 44.09900
H  51.40400 52.23200 41.26300
H  50.29200 52.50100 42.52600
H  50.10400 51.09600 41.52500
H  47.33500 51.82700 44.37500
H  45.62600 51.52400 44.70700
H  46.13100 51.94800 43.12100
H  43.73000 47.46600 41.25700
H  42.14900 44.23900 42.86300
H  40.50100 44.98400 42.72800
H  41.34900 45.17000 44.21600

