158

Mg 35.00600 3.07800 30.18000
C  32.69500 3.98300 32.80900
C  37.35300 3.18000 32.45600
C  37.07500 2.62800 27.63100
C  32.29200 3.45300 27.97500
N  34.99400 3.41400 32.37300
C  33.96100 3.60900 33.26100
C  34.41100 3.63900 34.71500
C  35.97000 3.68200 34.54100
C  36.15000 3.45600 33.02900
C  36.76100 4.97100 34.87800
C  33.91200 2.40800 35.46100
C  33.61400 2.56000 36.96200
H  34.34500 3.63900 37.78700
N  36.90400 2.84800 30.03600
C  37.79100 2.81600 31.09400
C  39.11200 2.63300 30.61300
C  39.04600 2.43300 29.19900
C  37.61000 2.58300 28.89000
C  40.25800 2.50900 31.54100
C  40.20200 2.06400 28.16000
O  40.03400 1.91200 26.94000
C  41.61900 1.85000 28.67300
N  34.76900 3.03000 28.07300
C  35.75800 2.79900 27.22100
C  35.25700 2.50900 25.79800
C  33.70100 2.72000 25.88900
C  33.54200 3.09600 27.40400
C  36.02100 3.33100 24.71000
C  32.80700 1.52800 25.50000
C  33.16400 0.15600 26.14700
N  32.99100 3.67100 30.28100
C  31.99800 3.76700 29.34600
C  30.82200 4.29500 29.93500
C  31.06400 4.31000 31.27800
C  32.39300 3.95700 31.47800
C  29.59400 4.57100 29.12900
C  30.35700 4.67500 32.47300
O  29.20700 5.11800 32.68500
C  31.41000 4.40600 33.61100
C  31.53900 5.61900 34.50700
O  31.92500 6.67400 34.13400
O  30.94800 5.36000 35.72000
C  30.65900 6.45100 36.69000
H  38.04300 2.99600 33.28200
H  37.76600 2.42300 26.81100
H  31.49200 3.50000 27.23200
H  34.27400 4.60100 35.21000
H  36.49400 2.97400 35.18400
H  37.76000 4.83500 35.29200
H  36.11800 5.54400 35.54500
H  36.92500 5.56700 33.98000
H  34.60600 1.60600 35.20900
H  32.96500 2.22700 34.95400
H  33.60000 1.62400 37.51900
H  32.56700 2.86200 36.98500
H  40.87100 3.41100 31.53000
H  40.86100 1.66000 31.22000
H  39.86600 2.37300 32.54900
H  42.27800 1.88500 27.80600
H  41.61300 0.85500 29.11800
H  41.93400 2.61200 29.38600
H  35.49800 1.47100 25.56800
H  33.40800 3.52200 25.21200
H  36.65600 4.08900 25.17000
H  35.35900 3.76200 23.95900
H  36.70800 2.59300 24.29700
H  32.89400 1.36600 24.42600
H  31.75000 1.66500 25.72900
H  32.40900 -0.31500 26.77600
H  34.02000 0.36700 26.78700
H  33.44700 -0.58900 25.40400
H  29.55500 3.96300 28.22500
H  29.53700 5.62700 28.86600
H  28.74100 4.37400 29.78000
H  31.05000 3.50800 34.11300
H  31.20700 6.32400 37.62300
H  29.64200 6.45500 37.08100
H  30.79600 7.42700 36.22300
Mg 1.42200 41.77700 25.53200
C  3.07700 41.91800 28.58600
C  -1.42300 40.76900 27.25000
C  0.04700 40.98500 22.53400
C  4.48200 42.62200 23.84000
N  0.86000 41.59700 27.74100
C  1.68900 41.73400 28.81000
C  0.85300 41.60300 30.17600
C  -0.61500 41.19100 29.66600
C  -0.41600 41.24300 28.15600
C  -1.06000 39.78800 30.24800
C  0.88600 42.86500 31.13300
C  1.41700 42.74900 32.61400
H  1.31200 41.42100 33.44500
N  -0.38400 41.00500 25.03600
C  -1.44000 40.58200 25.80200
C  -2.56900 40.18800 24.98900
C  -2.09800 40.13700 23.66900
C  -0.79700 40.74400 23.63000
C  -3.97500 39.83700 25.59100
C  -2.86100 39.82000 22.41800
O  -2.34000 39.73300 21.30100
C  -4.29700 39.40500 22.42600
N  2.10500 42.00000 23.50400
C  1.34200 41.56000 22.44000
C  2.04000 41.65500 21.12200
C  3.39000 42.32900 21.46800
C  3.32800 42.42600 23.01400
C  2.17700 40.32400 20.33500
C  3.61200 43.68300 20.76100
C  2.84800 44.85200 21.35800
N  3.38000 42.38200 26.04000
C  4.54500 42.55000 25.28800
C  5.69200 42.59900 26.17100
C  5.15000 42.41800 27.46700
C  3.74500 42.18400 27.34400
C  7.10500 42.78100 25.78500
C  5.46800 42.32000 28.87000
O  6.56900 42.49400 29.35400
C  4.16900 41.99000 29.68900
C  4.36000 40.82600 30.53800
O  3.99100 39.68600 30.32100
O  5.11300 41.22100 31.59700
C  5.32000 40.29800 32.68100
H  -2.31500 40.52100 27.82900
H  -0.34000 40.60100 21.58800
H  5.44300 42.83700 23.36700
H  1.28900 40.79900 30.76900
H  -1.25500 42.02600 29.94900
H  -1.01700 38.96500 29.53400
H  -2.11200 39.85600 30.52300
H  -0.53900 39.44100 31.14100
H  -0.07300 43.37700 31.21700
H  1.52500 43.59500 30.63700
H  1.21600 43.59300 33.27300
H  2.49400 42.77800 32.44500
H  -4.68200 40.52400 25.12500
H  -4.13800 39.93600 26.66400
H  -4.21500 38.82800 25.25600
H  -4.89600 40.22000 22.83100
H  -4.34800 38.45100 22.95100
H  -4.74500 39.47800 21.43500
H  1.28000 42.24200 20.60700
H  4.22300 41.70900 21.13600
H  1.36100 40.29200 19.61400
H  2.12300 39.51800 21.06700
H  3.11400 40.32300 19.77700
H  3.37700 43.53900 19.70600
H  4.65800 43.97000 20.86200
H  2.08200 44.56200 22.07700
H  2.29600 45.36300 20.56900
H  3.50500 45.57800 21.83900
H  7.30700 42.34200 24.80800
H  7.76600 42.32300 26.52000
H  7.43900 43.81100 25.65900
H  4.15800 42.86000 30.34600
H  6.39100 40.14700 32.81200
H  4.82700 39.33700 32.53600
H  4.88000 40.79200 33.54700

