158

Mg 35.48500 2.83200 30.51500
C  33.09200 3.83700 32.85100
C  37.85700 2.77300 32.97800
C  37.72000 1.97700 28.24200
C  33.08800 3.36900 27.93400
N  35.41300 3.20800 32.70900
C  34.31100 3.47700 33.44800
C  34.63100 3.12900 34.97000
C  36.24300 3.33900 34.94100
C  36.54300 3.05800 33.50300
C  36.76800 4.74700 35.39100
C  34.06600 1.73100 35.34700
C  33.99900 1.40000 36.83200
H  34.74400 2.17200 37.81700
N  37.51900 2.38700 30.59500
C  38.33900 2.41300 31.70200
C  39.65300 2.03100 31.34000
C  39.59700 1.75400 29.95400
C  38.27300 2.07000 29.50800
C  40.74000 1.94000 32.35700
C  40.73200 1.22800 29.00800
O  40.66900 1.09200 27.80000
C  41.92300 0.71100 29.58800
N  35.34000 2.52400 28.44300
C  36.44400 2.22200 27.71100
C  36.16400 2.23800 26.18700
C  34.62200 2.46600 26.19800
C  34.35000 2.89300 27.60300
C  37.02000 3.33800 25.43700
C  33.67900 1.26400 25.81500
C  32.55500 1.52100 24.75700
N  33.51000 3.56700 30.37200
C  32.68100 3.70700 29.26900
C  31.35900 4.25600 29.70900
C  31.51000 4.31800 31.11600
C  32.79600 3.81800 31.48900
C  30.18300 4.67900 28.90900
C  30.85600 4.68400 32.28900
O  29.76600 5.22500 32.49900
C  31.73600 4.12900 33.47000
C  31.95900 5.20000 34.45100
O  32.56600 6.25400 34.32700
O  31.08800 4.82900 35.49800
C  31.00800 5.77500 36.55900
H  38.64500 2.90300 33.72400
H  38.51600 1.86500 27.50200
H  32.42200 3.53300 27.08400
H  34.13700 3.86100 35.60900
H  36.70100 2.55000 35.53700
H  35.90000 5.17400 35.89300
H  37.11400 5.20800 34.46600
H  37.67000 4.61300 35.98900
H  34.59400 0.90000 34.87800
H  33.07000 1.78000 34.90700
H  34.13000 0.32700 36.97300
H  32.96300 1.59000 37.11400
H  40.57200 0.98200 32.85000
H  40.79700 2.73900 33.09600
H  41.71300 1.98000 31.86900
H  42.44800 0.07200 28.87900
H  41.69500 0.19400 30.52000
H  42.55800 1.55000 29.87300
H  36.30600 1.20400 25.87200
H  34.45800 3.31600 25.53500
H  36.40900 4.06900 24.90800
H  37.58600 2.91900 24.60500
H  37.59800 3.92300 26.15300
H  33.27100 0.68000 26.64000
H  34.24400 0.46500 25.33500
H  32.86400 1.19800 23.76300
H  32.35700 2.59300 24.77100
H  31.65700 0.99600 25.08200
H  29.55600 5.33400 29.51300
H  29.64500 3.75800 28.68600
H  30.49800 5.20200 28.00600
H  31.30400 3.25300 33.95500
H  30.45900 5.36200 37.40600
H  30.56400 6.74100 36.31900
H  32.04800 5.92700 36.84700
Mg 47.91000 15.99600 28.59600
C  45.51100 15.95900 31.11400
C  49.78400 17.83900 30.74300
C  49.82300 16.62300 26.05900
C  45.23600 14.96500 26.43200
N  47.75800 16.74600 30.73600
C  46.63500 16.62600 31.51200
C  46.90400 17.03600 32.97000
C  48.26100 17.80900 32.82900
C  48.65100 17.44400 31.37000
C  48.29400 19.40000 33.01900
C  46.98500 15.90900 34.05300
C  46.14700 16.12700 35.30700
H  46.11900 17.43300 36.17000
N  49.66500 16.81900 28.54200
C  50.21600 17.56500 29.49300
C  51.47700 18.05500 28.94600
C  51.60100 17.66300 27.57600
C  50.30600 16.99500 27.32200
C  52.45900 18.93300 29.82500
C  52.63200 18.04600 26.60600
O  52.60000 17.87400 25.41200
C  53.87800 18.81200 27.04800
N  47.60000 15.85700 26.49900
C  48.62100 16.06600 25.64600
C  48.12500 15.88500 24.14500
C  46.63300 15.36100 24.29800
C  46.51200 15.28700 25.78000
C  48.19000 17.18100 23.23200
C  46.43700 14.00100 23.59200
C  45.39400 13.82200 22.46200
N  45.85600 15.41500 28.70300
C  44.92600 14.98700 27.79300
C  43.62600 14.62100 28.37500
C  43.81800 14.97900 29.73100
C  45.15800 15.42200 29.84700
C  42.49300 13.94900 27.72300
C  43.11600 15.13500 30.99000
O  41.96700 15.04500 31.25500
C  44.18800 15.65900 31.96200
C  43.72900 16.93900 32.49100
O  43.72300 18.01100 31.92700
O  43.09400 16.77400 33.65500
C  42.60000 17.92200 34.43500
H  50.25200 18.47200 31.50000
H  50.48500 16.92500 25.24500
H  44.49400 14.63600 25.70100
H  46.14100 17.73900 33.30500
H  49.05500 17.42300 33.46800
H  48.19000 19.88900 32.05000
H  49.23000 19.72800 33.47000
H  47.49800 19.65000 33.72100
H  47.99900 15.72200 34.40500
H  46.50700 15.05300 33.57500
H  46.46500 15.38200 36.03700
H  45.07600 15.98300 35.16000
H  52.72000 19.84600 29.28900
H  53.44600 18.47400 29.89100
H  52.11300 19.26500 30.80400
H  54.28400 18.24600 27.88700
H  53.47200 19.78400 27.32800
H  54.56700 18.89200 26.20700
H  48.69500 15.12900 23.60500
H  45.90900 15.96200 23.74700
H  48.94700 16.96200 22.47900
H  48.60300 18.06500 23.71700
H  47.26300 17.49200 22.75100
H  46.27100 13.27800 24.39000
H  47.32300 13.56000 23.13400
H  46.00100 13.70500 21.56400
H  44.75500 14.70500 22.44600
H  44.83000 12.90500 22.63500
H  42.62000 12.89400 27.47900
H  42.29400 14.43300 26.76700
H  41.59900 14.24800 28.26900
H  44.40600 14.85000 32.65900
H  43.44000 18.46800 34.86300
H  41.96500 17.51700 35.22400
H  42.14700 18.67400 33.78800

