158

Mg -0.41900 7.58300 26.59900
C  0.72700 9.14200 29.43900
C  -0.55100 4.58000 28.40900
C  -1.13400 5.83100 23.78700
C  0.27500 10.47000 24.73100
N  0.15100 6.92000 28.74000
C  0.41800 7.78000 29.76300
C  0.37000 7.09100 31.12300
C  0.24600 5.57400 30.70400
C  -0.07400 5.69600 29.14900
C  1.55900 4.70000 30.92200
C  -0.95000 7.64000 31.79900
C  -0.65500 8.22800 33.18700
H  -0.36200 7.27700 34.32300
N  -0.90400 5.49600 26.18000
C  -0.85100 4.46600 27.06500
C  -1.15500 3.18300 26.45500
C  -1.26200 3.55300 25.07100
C  -1.13000 5.00400 24.95100
C  -1.40300 1.83500 27.08700
C  -1.41000 2.56400 23.86100
O  -1.33400 2.94100 22.75500
C  -1.45600 1.04900 24.05200
N  -0.25200 8.07300 24.49900
C  -0.76600 7.18900 23.55600
C  -1.01200 7.91600 22.20000
C  -0.76400 9.44100 22.56800
C  -0.13500 9.34900 23.98300
C  -0.26300 7.28900 21.02600
C  -2.08000 10.26500 22.56800
C  -2.61800 10.74100 21.18700
N  0.32400 9.41100 26.90800
C  0.55900 10.50600 26.12100
C  1.10900 11.58400 26.88800
C  1.17000 11.12300 28.16900
C  0.67100 9.76600 28.15300
C  1.40600 12.95700 26.35500
C  1.45300 11.54100 29.57800
O  1.76100 12.65000 29.94900
C  1.04000 10.27300 30.43400
C  2.25300 10.05400 31.22400
O  3.12600 9.21900 30.98400
O  2.28000 10.94400 32.23700
C  3.37900 10.84800 33.18600
H  -0.48500 3.64100 28.96100
H  -1.56100 5.29000 22.94000
H  0.34500 11.21200 23.93300
H  1.32200 7.27300 31.62300
H  -0.52400 5.07500 31.29300
H  1.35000 3.75300 31.41900
H  2.33200 5.11200 31.57000
H  1.91700 4.36200 29.94900
H  -1.67300 6.84200 31.96900
H  -1.33900 8.40700 31.12900
H  -1.62200 8.64400 33.47000
H  0.09000 9.02400 33.21100
H  -2.37200 1.49200 26.72400
H  -1.38600 1.87000 28.17600
H  -0.64500 1.15400 26.70100
H  -1.87700 0.62400 23.14100
H  -2.24200 0.81900 24.77200
H  -0.47900 0.59200 24.20600
H  -2.07600 7.93700 21.96500
H  0.00400 9.83000 21.90000
H  0.41100 7.99400 20.53900
H  -0.94000 6.82300 20.31000
H  0.42500 6.54300 21.42500
H  -1.84200 11.14900 23.16000
H  -2.76200 9.59400 23.09000
H  -2.36600 10.08000 20.35800
H  -2.27200 11.76400 21.03600
H  -3.70200 10.77700 21.30100
H  0.46800 13.32600 25.94200
H  2.27700 12.84100 25.71000
H  1.50800 13.67900 27.16500
H  0.31200 10.56400 31.19200
H  4.36500 10.65300 32.76400
H  3.22000 9.98300 33.82900
H  3.34200 11.67900 33.89000
Mg 26.94500 50.51400 26.24700
C  25.31300 51.47900 29.19000
C  29.59100 49.45800 28.39800
C  28.82300 49.81600 23.53200
C  24.44400 51.96900 24.40200
N  27.49700 50.60300 28.54200
C  26.46000 50.78400 29.49800
C  26.97000 50.30600 30.88400
C  28.46000 49.93200 30.59300
C  28.49100 49.96800 29.08300
C  29.54100 50.87600 31.16600
C  26.19700 49.08500 31.54500
C  25.44500 49.29700 32.85900
H  26.37100 49.47700 34.05800
N  28.93700 49.76700 26.02500
C  29.84300 49.29700 27.00300
C  31.08600 48.83600 26.37600
C  30.90800 49.05800 24.96600
C  29.51800 49.60400 24.81200
C  32.19900 48.22600 27.15000
C  31.80900 48.88500 23.80800
O  31.54300 49.19900 22.65900
C  33.29700 48.41100 24.09700
N  26.82400 50.98500 24.30400
C  27.59100 50.40600 23.29800
C  26.96300 50.58600 21.89600
C  25.53100 51.13900 22.28900
C  25.61500 51.37300 23.78500
C  27.78400 51.47900 20.91100
C  24.25000 50.48200 21.74400
C  23.29900 51.41700 20.96800
N  25.17700 51.57300 26.70600
C  24.25400 52.07900 25.81800
C  23.13700 52.57300 26.49400
C  23.47900 52.42200 27.84700
C  24.77800 51.77100 27.89800
C  21.92100 53.14600 25.85700
C  23.18100 52.64600 29.15800
O  22.23700 53.20900 29.58100
C  24.19000 51.99200 30.21900
C  24.74700 53.00800 31.17600
O  25.40800 53.99300 30.86900
O  24.29600 52.72600 32.45000
C  24.52000 53.81100 33.43300
H  30.34900 49.11100 29.10400
H  29.24800 49.43500 22.60100
H  23.66400 52.35000 23.74000
H  27.00400 51.12900 31.59800
H  28.67600 48.91200 30.91100
H  30.25200 50.41500 31.85200
H  29.13800 51.70700 31.74500
H  30.06500 51.30400 30.31200
H  26.89400 48.26400 31.71100
H  25.49200 48.64800 30.83800
H  24.85300 48.38600 32.94100
H  24.76200 50.14500 32.81400
H  32.13100 48.15400 28.23600
H  33.16200 48.71900 27.02200
H  32.24000 47.15500 26.95400
H  33.81400 49.34700 24.31000
H  33.80200 47.84600 23.31400
H  33.45400 47.88800 25.04000
H  26.94100 49.57800 21.48300
H  25.58300 52.10700 21.79100
H  28.53800 52.03300 21.47000
H  27.24300 52.21900 20.32200
H  28.30200 50.88200 20.16000
H  23.66600 50.12200 22.59100
H  24.55800 49.57900 21.21700
H  23.83900 51.64700 20.04900
H  23.09900 52.36700 21.46300
H  22.36400 50.90000 20.74900
H  21.70000 52.58500 24.94900
H  22.08000 54.18200 25.55600
H  21.15000 53.08500 26.62500
H  23.65200 51.23900 30.79500
H  24.76800 54.79400 33.03500
H  25.46600 53.52800 33.89600
H  23.77000 53.77100 34.22400

