158

Mg 47.78000 34.66800 27.12800
C  46.02300 33.30700 29.71200
C  48.26000 37.51300 29.21000
C  48.80300 36.57300 24.53200
C  46.62800 32.33100 24.92700
N  47.07600 35.34800 29.05100
C  46.70400 34.45200 30.02600
C  46.92900 34.91700 31.47600
C  47.20100 36.45400 31.22500
C  47.51600 36.47100 29.76400
C  45.95900 37.43400 31.55000
C  48.22500 34.23400 32.06200
C  48.41400 34.28100 33.61100
H  47.75800 35.41500 34.45500
N  48.49800 36.70100 26.96300
C  48.69500 37.62000 27.89800
C  49.37900 38.77800 27.38200
C  49.72300 38.47200 26.03100
C  49.00200 37.21300 25.74500
C  49.57300 40.01800 28.24400
C  50.53700 39.27200 24.99100
O  50.67400 38.94200 23.77000
C  51.34300 40.45300 25.52500
N  47.42300 34.64700 24.96200
C  48.13900 35.43200 24.16400
C  48.33500 34.79400 22.68200
C  47.70400 33.40200 22.90900
C  47.20200 33.42200 24.38700
C  47.64400 35.65600 21.61900
C  48.71700 32.17200 22.70600
C  49.72800 31.72500 23.86000
N  46.63200 33.07400 27.24900
C  46.25500 32.21000 26.25200
C  45.51300 31.11600 26.91600
C  45.26000 31.59400 28.21800
C  45.99700 32.73700 28.41500
C  45.01700 29.84900 26.37300
C  44.60900 31.27400 29.43600
O  43.95700 30.32900 29.76900
C  44.94300 32.47600 30.41100
C  45.26500 31.92500 31.81300
O  46.03100 31.03300 32.10700
O  44.39900 32.44800 32.70900
C  44.39200 32.11700 34.13700
H  48.56500 38.27100 29.93500
H  49.22900 36.98600 23.61500
H  46.32600 31.43900 24.37300
H  46.02800 34.76200 32.07000
H  48.06600 36.83400 31.76900
H  45.22700 37.46700 30.74300
H  46.22900 38.48600 31.64700
H  45.33100 37.06600 32.36200
H  49.14500 34.65400 31.65600
H  48.14400 33.19400 31.74400
H  49.48400 34.27500 33.82000
H  47.97800 33.38500 34.05300
H  48.90700 40.03600 29.10700
H  49.57100 40.99000 27.75000
H  50.44800 39.93200 28.88800
H  52.06200 40.70600 24.74500
H  51.82300 40.18100 26.46500
H  50.62100 41.25900 25.65500
H  49.41000 34.71700 22.51400
H  46.86000 33.15000 22.26700
H  47.10800 36.52200 22.00800
H  46.95800 35.05100 21.02500
H  48.38500 36.12400 20.97200
H  49.42300 32.41500 21.91200
H  48.01300 31.37900 22.45400
H  49.66800 30.63700 23.84300
H  49.54000 32.14300 24.85000
H  50.77400 31.96100 23.66600
H  44.85200 28.99700 27.03300
H  45.70200 29.59000 25.56600
H  44.05500 30.06800 25.91200
H  44.03900 33.08500 30.45500
H  45.39900 32.35000 34.48400
H  44.03700 31.11200 34.36600
H  43.76200 32.87500 34.60200
Mg -2.09000 34.63600 26.06800
C  -3.65900 32.86700 28.60200
C  -0.86000 36.81000 28.43600
C  -0.85200 36.54900 23.57800
C  -3.74000 32.58600 23.74600
N  -2.21400 34.80600 28.25600
C  -2.80700 33.93100 29.09000
C  -2.51100 34.27400 30.54100
C  -1.80100 35.67100 30.43100
C  -1.58300 35.77300 28.90400
C  -2.66700 36.85600 31.02700
C  -1.72500 33.18200 31.37200
C  -2.37100 32.75000 32.74500
H  -1.44100 33.00800 33.99200
N  -0.87300 36.17600 26.02000
C  -0.40000 36.89800 27.10700
C  0.57900 37.88300 26.62200
C  0.64300 37.79000 25.20700
C  -0.39500 36.81700 24.87200
C  1.29900 38.76400 27.64200
C  1.57800 38.38300 24.20700
O  1.57900 38.05900 23.01100
C  2.73500 39.34600 24.56400
N  -2.49200 34.70900 23.94300
C  -1.79900 35.58400 23.16000
C  -1.90700 35.11100 21.68000
C  -2.76900 33.82200 21.74700
C  -3.05300 33.68100 23.19500
C  -2.53500 36.27300 20.84900
C  -2.00700 32.53300 21.20100
C  -1.21400 31.63900 22.07200
N  -3.46500 33.10500 26.06900
C  -4.03100 32.35300 25.06000
C  -4.80400 31.29700 25.60500
C  -4.71500 31.50700 26.95600
C  -3.89800 32.58100 27.22100
C  -5.62700 30.28500 24.77600
C  -5.22900 30.97600 28.20300
O  -6.02300 30.08900 28.48700
C  -4.57600 31.88500 29.32900
C  -5.64000 32.54800 30.14300
O  -6.04700 33.66200 29.87800
O  -5.94900 31.81800 31.27700
C  -6.90600 32.55100 32.18800
H  -0.51600 37.55000 29.16200
H  -0.59900 37.22100 22.75600
H  -4.13900 31.85600 23.03900
H  -3.49500 34.25300 31.00700
H  -0.86100 35.78900 30.96800
H  -3.17500 37.30000 30.17100
H  -1.92100 37.51500 31.47200
H  -3.43200 36.47900 31.70600
H  -0.70900 33.48500 31.62600
H  -1.84600 32.34900 30.67900
H  -2.67100 31.70200 32.75800
H  -3.33600 33.25200 32.81900
H  1.48500 39.77200 27.27000
H  2.26900 38.26900 27.69400
H  0.84900 38.83300 28.63200
H  3.07700 39.90500 23.69300
H  3.57200 38.77700 24.96900
H  2.29700 40.12000 25.19400
H  -0.89200 34.87600 21.36000
H  -3.72500 33.97600 21.24600
H  -2.74400 37.11000 21.51600
H  -3.45500 36.02300 20.32200
H  -1.77300 36.70300 20.19900
H  -1.34200 32.96900 20.45600
H  -2.76400 31.92400 20.70800
H  -1.63600 30.63500 22.03100
H  -1.13500 32.00600 23.09500
H  -0.15500 31.53300 21.83900
H  -5.51200 29.35200 25.32700
H  -5.04600 30.16400 23.86200
H  -6.62300 30.70800 24.64200
H  -4.05100 31.18000 29.97400
H  -6.43900 33.50600 32.42900
H  -7.17600 32.01300 33.09600
H  -7.78800 32.72000 31.57000

