158

Mg 1.89700 -2.52100 45.17400
C  5.29300 -1.70700 44.49300
C  0.82700 0.10500 43.41900
C  -1.16400 -3.82100 45.50700
C  3.27800 -5.57700 46.52500
N  2.98700 -1.21900 43.89700
C  4.34900 -0.95300 43.82300
C  4.62000 0.22000 42.92500
C  3.25400 0.94600 42.93100
C  2.23600 -0.18100 43.39000
C  3.31300 2.19400 43.85800
C  5.26100 -0.08300 41.53900
C  6.25800 1.02400 40.99700
H  5.74400 1.77200 39.82300
N  0.01400 -1.85800 44.62400
C  -0.20000 -0.72500 43.92000
C  -1.65100 -0.58700 43.73300
C  -2.22400 -1.80700 44.25500
C  -1.15000 -2.54100 44.82600
C  -2.31400 0.60400 43.09600
C  -3.63500 -2.11300 44.21500
O  -4.41800 -1.36200 43.64800
C  -4.16300 -3.39400 44.62300
N  1.22300 -4.41300 45.85800
C  -0.12500 -4.65400 45.98600
C  -0.44300 -5.96200 46.79900
C  0.98700 -6.61500 46.78100
C  1.90800 -5.41600 46.45500
C  -0.93600 -5.66100 48.24500
C  1.13100 -7.81800 45.77700
C  2.15700 -8.84800 46.23000
N  3.95600 -3.43900 45.65600
C  4.28400 -4.66700 46.18500
C  5.74400 -4.77200 46.14900
C  6.18700 -3.54800 45.63500
C  5.07400 -2.80400 45.26800
C  6.61300 -5.87400 46.65800
C  7.34800 -2.76500 45.24000
O  8.52300 -2.95600 45.41600
C  6.78900 -1.49600 44.44000
C  7.31100 -0.34800 45.24300
O  8.39100 0.19700 45.10300
O  6.37600 0.09300 46.07500
C  6.52000 1.43500 46.70000
H  0.58400 0.94100 42.75900
H  -2.16400 -4.23000 45.67000
H  3.66300 -6.50000 46.96300
H  5.32500 0.84400 43.47500
H  2.88400 1.22200 41.94400
H  4.27200 2.70500 43.94400
H  3.09900 1.85300 44.87100
H  2.62400 2.97700 43.53900
H  4.46600 -0.11200 40.79300
H  5.63300 -1.10700 41.57300
H  7.17200 0.49200 40.73100
H  6.44400 1.76200 41.77700
H  -2.64400 0.31800 42.09800
H  -1.62900 1.45200 43.10500
H  -3.27500 0.83200 43.55900
H  -4.13200 -3.47100 45.71000
H  -3.53800 -4.14300 44.13700
H  -5.15000 -3.63600 44.22800
H  -1.20000 -6.55900 46.29100
H  1.35100 -6.90200 47.76700
H  -0.16100 -5.52100 48.99900
H  -1.72700 -6.34400 48.55400
H  -1.48000 -4.71900 48.18300
H  1.37700 -7.40600 44.79800
H  0.16400 -8.31900 45.73400
H  2.72500 -8.37800 47.03300
H  2.88700 -9.07200 45.45300
H  1.68200 -9.75100 46.61300
H  6.01500 -6.78500 46.63400
H  7.03500 -5.78800 47.65900
H  7.41500 -6.05700 45.94300
H  7.26900 -1.34900 43.47300
H  5.52200 1.83800 46.87000
H  6.97100 2.09000 45.95400
H  7.06400 1.37600 47.64200
Mg 26.80500 49.94900 26.53700
C  24.51000 51.06400 29.02500
C  28.95300 48.93700 29.08100
C  29.10000 49.25700 24.27600
C  24.60800 51.26700 24.13700
N  26.73200 49.97500 28.81400
C  25.61700 50.34800 29.53500
C  26.00300 50.24100 31.01600
C  27.56300 49.82500 31.00300
C  27.74200 49.47400 29.52200
C  28.50000 50.94800 31.55900
C  25.04200 49.41300 31.84000
C  24.47100 49.99000 33.12000
H  24.52000 49.12900 34.43000
N  28.67800 49.14500 26.68500
C  29.38900 48.76900 27.79600
C  30.63000 48.12900 27.39200
C  30.69200 48.19300 25.95000
C  29.41100 48.80600 25.56000
C  31.60200 47.57100 28.33800
C  31.81000 47.80000 25.06800
O  31.82000 48.00400 23.85100
C  33.03000 47.21100 25.53800
N  26.84100 50.11300 24.60700
C  27.92800 49.80200 23.83800
C  27.62600 49.83100 22.35700
C  26.15700 50.28900 22.37800
C  25.83200 50.62100 23.80300
C  28.50400 50.78600 21.57200
C  25.26500 49.16900 21.75600
C  24.70100 49.66000 20.40700
N  24.92400 50.99200 26.56800
C  24.21200 51.44200 25.48100
C  23.04500 52.07100 25.98000
C  23.14800 52.02500 27.38300
C  24.31900 51.29500 27.63200
C  21.93800 52.76900 25.17100
C  22.50800 52.36000 28.49500
O  21.39600 52.82700 28.57400
C  23.35500 51.71900 29.64300
C  23.78600 52.86500 30.44400
O  24.69800 53.70600 30.17100
O  22.88100 52.86600 31.50200
C  22.99800 53.96700 32.42100
H  29.50500 48.57900 29.95200
H  29.74400 48.96900 23.44200
H  23.90200 51.62200 23.38400
H  25.87500 51.21400 31.49100
H  27.69200 48.98400 31.68500
H  28.89000 51.43100 30.66300
H  29.23400 50.40000 32.15000
H  27.95100 51.72900 32.08500
H  25.54600 48.46600 32.03400
H  24.28100 49.11400 31.11900
H  23.38500 50.05500 33.04900
H  24.92200 50.95900 33.33300
H  32.53500 47.99500 27.96600
H  31.59000 46.48600 28.23100
H  31.42100 47.80300 29.38800
H  32.80700 46.35800 26.17900
H  33.50700 48.03400 26.06900
H  33.75500 46.98700 24.75600
H  27.76100 48.82000 21.97200
H  25.99500 51.21400 21.82400
H  29.32000 51.15200 22.19500
H  27.86700 51.53700 21.10400
H  29.09000 50.30600 20.78800
H  24.37900 48.90000 22.33200
H  25.74900 48.19900 21.64000
H  23.64700 49.88200 20.57400
H  24.83300 48.84400 19.69600
H  25.27900 50.48000 19.97900
H  22.38900 52.95300 24.19500
H  21.70900 53.76300 25.55700
H  21.07800 52.10100 25.14600
H  22.79300 51.04600 30.29100
H  23.35400 54.89200 31.96600
H  23.74200 53.72400 33.18000
H  22.07400 54.08300 32.98700

