158

Mg 23.65200 -5.08200 44.78900
C  25.89400 -2.68300 43.50600
C  21.29200 -3.72500 42.72600
C  21.77500 -7.81700 45.36600
C  26.32200 -6.53300 46.56000
N  23.68400 -3.47900 43.21400
C  24.61500 -2.53700 43.00600
C  24.17300 -1.43400 42.07900
C  22.58100 -1.66000 41.99800
C  22.50900 -3.05800 42.61900
C  21.74100 -0.71400 42.86700
C  24.99900 -1.38800 40.78900
C  24.89400 0.01200 40.10000
H  24.17800 0.03900 38.72800
N  21.78100 -5.70000 44.11600
C  20.96300 -4.94300 43.30700
C  19.73800 -5.62900 43.15700
C  19.77300 -6.87700 43.87400
C  21.15000 -6.86900 44.50400
C  18.55000 -4.98500 42.39300
C  18.71000 -7.96400 44.02000
O  17.54800 -7.67500 43.64700
C  18.94000 -9.40600 44.53900
N  24.05000 -7.00600 45.74000
C  23.05600 -7.97600 45.88900
C  23.50400 -9.06000 46.85400
C  24.94700 -8.62100 47.33600
C  25.12800 -7.33300 46.52700
C  22.63700 -9.39100 48.00700
C  26.11200 -9.69300 47.04100
C  26.13300 -10.83400 47.99600
N  25.67400 -4.70300 45.10600
C  26.64400 -5.34400 45.88800
C  27.89800 -4.69900 45.73000
C  27.68300 -3.65600 44.83700
C  26.36900 -3.71600 44.37900
C  29.14500 -4.94500 46.47400
C  28.25600 -2.52200 44.18100
O  29.42600 -2.10400 44.18000
C  27.18100 -1.84100 43.22700
C  26.94600 -0.44100 43.53500
O  26.47700 -0.09900 44.61100
O  27.28700 0.38800 42.52800
C  27.05600 1.83800 42.78300
H  20.44400 -3.26900 42.21100
H  21.06900 -8.52900 45.79900
H  27.13200 -6.96100 47.15500
H  24.27500 -0.47100 42.58000
H  22.22100 -1.49700 40.98300
H  20.67200 -0.87900 42.72700
H  21.86900 0.32200 42.55200
H  21.98400 -0.82800 43.92300
H  24.57800 -2.10200 40.08100
H  26.02300 -1.74200 40.90700
H  25.92700 0.27500 39.87100
H  24.42100 0.73700 40.76100
H  17.61600 -5.29600 42.86000
H  18.47600 -5.27200 41.34400
H  18.46800 -3.89800 42.39400
H  17.99900 -9.90700 44.31300
H  19.20400 -9.58300 45.58200
H  19.81000 -9.80700 44.02000
H  23.46600 -10.00300 46.30900
H  24.91300 -8.40000 48.40300
H  22.45800 -8.57600 48.70800
H  23.11900 -10.18300 48.58000
H  21.62600 -9.58200 47.64400
H  27.02500 -9.11400 46.89700
H  25.85100 -10.17400 46.09900
H  26.12400 -11.74400 47.39600
H  25.25800 -10.82900 48.64500
H  26.99800 -10.75400 48.65500
H  29.46300 -5.98700 46.44300
H  28.84200 -4.74300 47.50100
H  29.85900 -4.15800 46.23100
H  27.60700 -1.90100 42.22500
H  27.83600 2.24600 43.42500
H  26.01400 1.99200 43.06500
H  27.10500 2.33300 41.81300
Mg 27.52500 49.69100 26.96600
C  25.58300 50.58400 29.75200
C  30.15800 49.15600 29.21800
C  29.51000 48.61200 24.39400
C  24.98000 50.45500 24.89100
N  27.77900 49.87400 29.24800
C  26.86400 50.20100 30.15900
C  27.26800 49.82400 31.59200
C  28.78300 49.56800 31.42900
C  28.93600 49.59100 29.86300
C  29.74100 50.65100 31.95400
C  26.44500 48.70400 32.29300
C  25.49500 49.11600 33.51100
H  25.80200 48.47000 34.87500
N  29.55600 48.99100 26.86300
C  30.45600 48.84400 27.86100
C  31.71700 48.19800 27.30400
C  31.60400 48.29500 25.88000
C  30.17200 48.63600 25.66000
C  32.84500 47.80300 28.19800
C  32.51600 48.01000 24.85200
O  32.28400 48.27000 23.63000
C  33.84200 47.48300 25.18300
N  27.33200 49.69000 24.99000
C  28.23200 49.10900 24.11800
C  27.68400 49.07300 22.66200
C  26.25500 49.62500 22.83000
C  26.19800 49.99400 24.36000
C  28.57700 49.82400 21.62700
C  25.04300 48.60900 22.48600
C  23.82000 49.20200 21.76500
N  25.67900 50.44800 27.18000
C  24.75800 50.74500 26.25500
C  23.60500 51.29400 26.85900
C  23.83100 51.20800 28.29500
C  25.11000 50.65900 28.40300
C  22.27300 51.70100 26.21600
C  23.30300 51.48400 29.66100
O  22.20300 51.80800 30.03600
C  24.49300 51.11800 30.66600
C  24.78300 52.33900 31.47100
O  25.62600 53.23900 31.29100
O  23.98200 52.20200 32.52700
C  24.08700 53.38300 33.41700
H  30.97800 49.05300 29.93200
H  30.07300 48.18800 23.56000
H  24.08300 50.73300 24.33400
H  27.10000 50.73800 32.16200
H  29.15200 48.56800 31.65700
H  29.24200 51.42600 32.53600
H  30.27400 51.08400 31.10800
H  30.45400 50.12000 32.58400
H  27.19400 48.07400 32.77200
H  25.92500 48.07400 31.57100
H  24.51700 48.76100 33.18600
H  25.25800 50.17600 33.60300
H  32.53800 47.55600 29.21400
H  33.51700 48.65900 28.26900
H  33.32600 46.88100 27.87000
H  34.20200 48.09100 26.01300
H  34.49100 47.58800 24.31300
H  33.78000 46.42900 25.45500
H  27.66800 48.03100 22.34500
H  26.19900 50.51600 22.20400
H  29.50800 50.15400 22.08700
H  28.13400 50.64200 21.05800
H  28.95800 49.07900 20.92800
H  24.68100 48.09000 23.37400
H  25.41700 47.89800 21.75000
H  24.04100 50.19600 21.37500
H  23.01200 49.43300 22.46000
H  23.42900 48.52300 21.00800
H  22.26500 51.38400 25.17300
H  22.15100 52.77400 26.37000
H  21.43700 51.28800 26.78000
H  24.06200 50.39100 31.35300
H  24.02700 54.39600 33.01800
H  24.95500 53.41400 34.07500
H  23.30400 53.41000 34.17400

