158

Mg -9.77500 40.15700 42.16900
C  -8.61700 36.82000 41.02000
C  -6.88300 41.43300 40.85800
C  -11.39600 43.08400 42.21500
C  -12.89000 38.41700 42.78100
N  -7.94900 39.20000 41.01800
C  -7.67600 37.85200 40.76800
C  -6.24700 37.72100 40.08700
C  -5.68900 39.17700 40.23300
C  -6.89300 40.01700 40.68300
C  -4.50400 39.31300 41.19500
C  -6.45100 37.08900 38.67200
C  -5.50000 35.90800 38.34300
H  -4.55600 36.25900 37.09300
N  -9.16100 41.99400 41.80600
C  -7.96600 42.31900 41.31200
C  -7.95400 43.77100 41.22100
C  -9.16000 44.27600 41.73000
C  -9.94600 43.12900 42.00600
C  -6.76600 44.52000 40.65200
C  -9.56300 45.75500 41.94400
O  -8.84100 46.70500 41.52800
C  -10.73600 46.12200 42.62500
N  -11.82300 40.62400 42.32800
C  -12.21500 41.90200 42.33900
C  -13.75700 42.04100 42.44300
C  -14.22800 40.53700 42.63100
C  -12.88700 39.79300 42.57200
C  -14.19900 43.05200 43.59400
C  -15.22600 40.02000 41.59200
C  -16.47200 39.24100 42.27600
N  -10.54700 38.09600 42.07900
C  -11.80700 37.64700 42.44600
C  -11.82300 36.17700 42.35300
C  -10.56100 35.86100 41.77800
C  -9.88000 37.03800 41.54400
C  -12.84400 35.25400 42.85000
C  -9.80700 34.73600 41.26400
O  -9.97900 33.47300 41.28200
C  -8.52900 35.34100 40.76600
C  -7.36800 34.67600 41.60400
O  -7.15800 34.63700 42.79900
O  -6.56200 34.06500 40.66000
C  -5.27300 33.53600 41.25300
H  -5.98800 41.99400 40.58200
H  -12.06100 43.95000 42.18900
H  -13.77800 37.81900 43.00100
H  -5.74100 36.97200 40.69700
H  -5.32400 39.33900 39.21800
H  -4.05200 38.35000 41.43200
H  -4.86600 39.82500 42.08600
H  -3.68200 39.92500 40.82300
H  -6.36700 37.90300 37.95200
H  -7.44600 36.66400 38.54200
H  -6.14300 35.10300 37.98900
H  -4.91900 35.67400 39.23500
H  -7.21100 45.37900 40.15000
H  -6.19500 43.84900 40.01100
H  -6.14000 44.81500 41.49400
H  -10.66200 47.10400 43.09300
H  -11.08900 45.40800 43.36900
H  -11.48400 46.23900 41.84100
H  -14.15400 42.51500 41.54500
H  -14.68600 40.32300 43.59600
H  -13.34200 43.44100 44.14300
H  -14.91000 42.58700 44.27800
H  -14.71200 43.89500 43.13100
H  -14.80600 39.37900 40.81700
H  -15.55700 40.84700 40.96300
H  -16.46700 39.09200 43.35500
H  -16.61400 38.20100 41.98300
H  -17.42600 39.69300 42.00500
H  -13.44400 35.84900 43.53700
H  -12.37200 34.43100 43.38700
H  -13.51400 34.83800 42.09800
H  -8.52600 35.02700 39.72200
H  -4.75300 32.97700 40.47500
H  -5.55300 32.80000 42.00600
H  -4.62000 34.26900 41.72700
Mg 0.44100 42.86900 25.87700
C  2.88800 42.49900 28.69000
C  -1.99800 42.22000 28.21300
C  -1.73000 42.82800 23.42200
C  3.16500 43.22000 23.76400
N  0.48900 42.33100 28.14500
C  1.50700 42.34700 29.05800
C  0.96300 42.20200 30.47700
C  -0.44300 41.52700 30.24000
C  -0.69900 42.05200 28.77200
C  -0.30700 39.99400 30.39400
C  0.79900 43.48100 31.23500
C  0.99800 43.42700 32.73900
H  1.03200 42.10200 33.53400
N  -1.60900 42.60600 25.79300
C  -2.41200 42.40100 26.81800
C  -3.76300 42.46100 26.39300
C  -3.73900 42.51300 25.01200
C  -2.33500 42.66200 24.68500
C  -4.92600 42.46600 27.39700
C  -4.89800 42.58800 24.02300
O  -4.80200 42.83200 22.79300
C  -6.27200 42.14900 24.57300
N  0.69300 43.03100 23.92100
C  -0.36500 43.00000 23.06200
C  0.11800 42.99700 21.59700
C  1.69000 43.15400 21.73600
C  1.87100 43.16700 23.22100
C  -0.24300 41.61800 20.91400
C  2.37900 44.41500 21.15300
C  2.09700 45.75700 21.90800
N  2.58200 42.88000 26.07800
C  3.51200 43.12700 25.13600
C  4.81300 43.03300 25.72600
C  4.66600 42.81000 27.12100
C  3.29200 42.77800 27.31200
C  6.11000 43.22500 24.97300
C  5.36800 42.60800 28.38700
O  6.52600 42.56100 28.74200
C  4.16300 42.42400 29.46500
C  4.29400 41.24100 30.35700
O  4.00300 40.05800 30.10700
O  4.92400 41.57800 31.54200
C  5.30000 40.52900 32.46700
H  -2.75700 42.07000 28.98400
H  -2.37800 42.78200 22.54500
H  4.09300 43.35100 23.20300
H  1.69900 41.54200 30.93600
H  -1.32400 41.83400 30.80400
H  -1.02600 39.62300 31.12400
H  0.69900 39.67800 30.67200
H  -0.56200 39.48000 29.46800
H  -0.22200 43.78400 31.00100
H  1.40800 44.21800 30.71200
H  0.26400 44.07000 33.22500
H  1.92700 43.95500 32.95100
H  -5.58900 43.30600 27.18700
H  -4.50800 42.76600 28.35800
H  -5.53700 41.57600 27.55000
H  -6.66800 42.87200 25.28600
H  -6.12800 41.18400 25.05900
H  -6.93500 42.11400 23.70800
H  -0.37300 43.75300 20.98400
H  2.20000 42.31800 21.25900
H  -0.67300 41.00600 21.70700
H  0.50700 41.00300 20.41600
H  -0.95800 41.92700 20.15200
H  1.90100 44.52800 20.18000
H  3.40300 44.14200 20.89500
H  2.13700 46.55800 21.17000
H  2.93100 45.94900 22.58300
H  1.13300 45.77700 22.41600
H  6.43900 44.26500 24.96900
H  6.02300 42.70500 24.02000
H  6.88100 42.70600 25.54200
H  4.29500 43.23500 30.18200
H  6.35000 40.52400 32.76200
H  5.02800 39.49400 32.26000
H  4.78300 40.88200 33.35900

