158

Mg 39.84600 9.27000 29.09400
C  41.96700 10.36200 31.70600
C  37.62800 8.18700 31.43100
C  38.03700 7.90600 26.58500
C  42.26000 10.14000 26.82400
N  39.78800 9.33600 31.23400
C  40.74400 9.81300 32.13300
C  40.30200 9.76600 33.57200
C  39.04100 8.93100 33.50300
C  38.72000 8.88500 31.94800
C  39.13500 7.63700 34.31500
C  39.97300 11.21300 34.15000
C  39.07400 11.31200 35.45600
H  39.41100 12.40300 36.47900
N  37.94900 8.41000 28.96700
C  37.23900 7.95200 30.05100
C  36.03100 7.24700 29.62400
C  36.19400 7.12700 28.19000
C  37.39400 7.86800 27.84300
C  34.98900 6.65200 30.56700
C  35.30300 6.30600 27.21700
O  35.61300 6.06000 26.05500
C  34.07200 5.65000 27.71000
N  40.10900 9.03800 26.99900
C  39.25200 8.40500 26.19000
C  39.55200 8.70900 24.72100
C  40.82500 9.55000 24.81800
C  41.11100 9.54000 26.26600
C  39.53000 7.44700 23.84400
C  40.67300 11.04500 24.31500
C  40.02200 12.23600 25.17500
N  41.75900 9.99600 29.21100
C  42.66300 10.38100 28.20400
C  43.81700 10.96800 28.75400
C  43.62700 10.87300 30.11700
C  42.37300 10.33300 30.38200
C  44.94300 11.53200 28.00900
C  44.20900 11.23000 31.31200
O  45.36200 11.55400 31.54400
C  43.20300 10.80100 32.46300
C  43.91100 9.84600 33.29000
O  44.43000 8.79500 32.90100
O  43.87500 10.18200 34.63800
C  44.30100 9.27400 35.67600
H  37.00300 7.82100 32.24800
H  37.43300 7.66700 25.70700
H  42.92100 10.60100 26.08700
H  41.12600 9.32100 34.13000
H  38.25100 9.51500 33.97600
H  38.31300 7.70000 35.02800
H  40.00600 7.64200 34.97000
H  39.08300 6.72100 33.72700
H  39.51300 11.83700 33.38400
H  40.93600 11.70700 34.27900
H  39.14900 10.35700 35.97600
H  38.03600 11.38500 35.13300
H  34.00700 7.05000 30.31100
H  35.07300 6.93100 31.61800
H  34.78500 5.59400 30.40500
H  34.42500 4.89800 28.41500
H  33.50800 5.09800 26.95900
H  33.34300 6.30500 28.18800
H  38.75600 9.40200 24.44900
H  41.68400 9.11700 24.30500
H  40.43800 7.10900 23.34500
H  38.82700 7.60500 23.02600
H  39.18400 6.54100 24.34000
H  40.20500 11.10500 23.33200
H  41.68200 11.36300 24.05300
H  39.73200 12.05600 26.21000
H  39.12200 12.56200 24.65200
H  40.67400 13.10400 25.26600
H  44.69700 11.87800 27.00600
H  45.70900 10.75700 28.01900
H  45.27700 12.42900 28.53100
H  43.09600 11.67100 33.11100
H  43.79100 8.34000 35.44100
H  43.89800 9.56800 36.64600
H  45.36300 9.05200 35.77300
Mg 16.93200 52.81600 26.62300
C  18.75900 51.32200 29.22600
C  14.51700 53.62400 28.89600
C  14.82300 53.73800 24.12100
C  19.27900 51.76100 24.34900
N  16.76900 52.64500 28.84400
C  17.63400 52.04700 29.67300
C  17.07300 51.91300 31.12400
C  15.67700 52.66400 31.00900
C  15.58900 52.96700 29.47200
C  14.43300 51.84200 31.61200
C  17.83700 52.62800 32.22000
C  17.60900 51.69800 33.47800
H  17.21100 52.52400 34.71500
N  15.03000 53.56300 26.53200
C  14.17200 53.87400 27.55300
C  12.89600 54.41900 27.11500
C  13.06800 54.68000 25.71400
C  14.36100 53.94100 25.41300
C  11.91800 54.83700 28.04600
C  12.20300 55.30800 24.71400
O  12.52100 55.44900 23.54400
C  10.93400 55.95500 25.11800
N  17.19000 52.94100 24.55000
C  16.12700 53.19500 23.72100
C  16.49200 53.05600 22.19800
C  18.07800 52.75800 22.35800
C  18.24700 52.50800 23.81400
C  15.87400 51.93400 21.38600
C  19.04500 53.98100 21.96200
C  20.36000 53.76100 21.08000
N  18.73100 51.80600 26.74100
C  19.51700 51.39900 25.66800
C  20.55100 50.58200 26.18700
C  20.35400 50.53700 27.57300
C  19.19400 51.29500 27.87600
C  21.53300 49.86700 25.26400
C  20.72300 49.92200 28.83500
O  21.65200 49.15200 29.05900
C  19.74600 50.50600 29.96400
C  19.09000 49.31000 30.65600
O  18.45600 48.38100 30.11500
O  19.60700 49.18800 31.94200
C  19.15400 48.03200 32.63100
H  13.68200 53.87800 29.55200
H  14.22900 53.99800 23.24200
H  20.00200 51.46000 23.58700
H  16.76800 50.88100 31.29600
H  15.64500 53.62100 31.53000
H  13.89200 52.35500 32.40700
H  14.90400 50.96100 32.04800
H  13.79400 51.65400 30.74900
H  17.52600 53.64800 32.44600
H  18.89100 52.63900 31.94600
H  18.52000 51.22000 33.83900
H  16.92600 50.86600 33.31000
H  12.25400 55.78300 28.47000
H  11.70900 54.11300 28.83400
H  10.95300 54.97400 27.55800
H  11.13000 56.62000 25.95900
H  10.31100 55.20100 25.60000
H  10.40600 56.35400 24.25200
H  16.35100 54.03700 21.74500
H  18.41400 51.90200 21.77200
H  15.10700 51.45400 21.99500
H  16.56200 51.21900 20.93400
H  15.36600 52.27100 20.48300
H  19.29600 54.55500 22.85400
H  18.45900 54.64200 21.32400
H  20.65400 54.63100 20.49200
H  20.16900 52.92600 20.40500
H  21.27500 53.43500 21.57400
H  22.23900 50.62700 24.92900
H  21.16900 49.40500 24.34500
H  21.92100 49.00000 25.79800
H  20.31600 51.12400 30.65700
H  19.74100 48.11600 33.54600
H  19.34500 47.12800 32.05300
H  18.09200 48.12100 32.85800

