158

Mg 9.22100 3.00200 27.70100
C  10.60600 1.44000 30.44100
C  7.45500 5.02500 29.82200
C  7.69800 4.24200 24.95500
C  10.56300 0.43100 25.68400
N  8.83100 3.07500 29.91900
C  9.75600 2.50100 30.85400
C  9.56600 3.02300 32.29400
C  8.46800 4.10800 32.03900
C  8.16400 4.06100 30.52300
C  7.21900 3.98800 32.94800
C  10.84200 3.69700 32.88200
C  10.73700 4.20100 34.29600
H  11.59600 3.64500 35.40800
N  7.86400 4.45600 27.46900
C  7.27000 5.22100 28.44200
C  6.49000 6.26700 27.82400
C  6.51000 6.02700 26.43000
C  7.37000 4.84200 26.24500
C  5.95500 7.48300 28.52900
C  5.74900 6.74600 25.32400
O  5.81300 6.41800 24.11800
C  4.89600 7.89600 25.63400
N  9.27800 2.52300 25.64200
C  8.56500 3.17700 24.72900
C  8.78500 2.66900 23.32200
C  9.71900 1.49600 23.55600
C  10.00800 1.51200 25.05400
C  7.44400 2.20500 22.60200
C  11.06400 1.58400 22.70200
C  11.04700 1.09000 21.23800
N  10.33900 1.35400 27.98100
C  10.75200 0.36800 27.06600
C  11.46400 -0.71900 27.73700
C  11.44700 -0.27800 29.06600
C  10.72400 0.97600 29.12000
C  11.94400 -2.03200 27.17200
C  11.84300 -0.56500 30.42200
O  12.43000 -1.53500 30.87700
C  11.46700 0.59900 31.29200
C  10.84300 0.03000 32.52100
O  9.81400 -0.62300 32.61900
O  11.58200 0.36600 33.58400
C  11.14600 -0.21200 34.84000
H  7.01700 5.86400 30.36600
H  7.24500 4.70200 24.07500
H  10.92000 -0.46200 25.16700
H  9.23000 2.17700 32.89300
H  9.02500 5.02600 32.23100
H  7.00300 4.89300 33.51500
H  7.43600 3.20100 33.67000
H  6.38400 3.57200 32.38400
H  11.21300 4.45300 32.19000
H  11.61600 2.92900 32.87800
H  9.68100 4.08200 34.54100
H  10.84000 5.28400 34.35400
H  6.22800 8.30800 27.87100
H  6.24200 7.53000 29.57900
H  4.87000 7.38400 28.57400
H  3.99300 7.68500 26.20700
H  4.54300 8.34300 24.70500
H  5.41600 8.75800 26.05200
H  9.22300 3.41900 22.66300
H  9.32900 0.50400 23.32800
H  7.45700 1.11900 22.51200
H  7.46600 2.49300 21.55100
H  6.57200 2.45000 23.20900
H  11.75100 0.92800 23.23700
H  11.52800 2.56900 22.73900
H  10.04800 0.86700 20.86400
H  11.69400 0.21800 21.13800
H  11.41400 1.77600 20.47500
H  12.73300 -2.46400 27.78800
H  12.30000 -2.07100 26.14300
H  11.25300 -2.87500 27.20900
H  12.28000 1.14400 31.77100
H  12.06200 -0.58400 35.29900
H  10.46000 -1.05200 34.73000
H  10.64100 0.54300 35.44300
Mg 30.62600 59.23600 39.52300
C  27.75400 57.52300 38.56400
C  32.54900 56.65200 38.37200
C  33.31500 61.16300 39.88600
C  28.52300 62.02100 40.15300
N  30.20800 57.41600 38.42100
C  28.92900 56.90900 38.04100
C  29.12400 55.64500 37.16200
C  30.66300 55.23800 37.35700
C  31.20000 56.44300 38.18200
C  30.88700 53.75200 38.04800
C  28.60700 55.73000 35.64200
C  27.70700 54.55000 35.23000
H  26.44400 54.93300 34.40800
N  32.69600 58.86800 39.20900
C  33.29000 57.75600 38.77800
C  34.72400 57.94700 38.71300
C  35.02100 59.21800 39.15100
C  33.67600 59.82400 39.44400
C  35.64900 56.83100 38.25200
C  36.40200 59.80700 39.37400
O  37.38900 59.08600 39.02400
C  36.69900 61.17800 39.94100
N  30.79600 61.24900 39.98900
C  32.09000 61.81700 40.13400
C  32.05000 63.31700 40.54100
C  30.54700 63.64400 40.37500
C  29.85900 62.24500 40.18300
C  32.66500 63.60100 41.95800
C  30.21600 64.55300 39.16900
C  29.68300 65.95000 39.53000
N  28.54400 59.70500 39.53600
C  27.78300 60.83900 39.88500
C  26.35700 60.50800 39.71700
C  26.34700 59.22300 39.25500
C  27.64000 58.77200 39.13300
C  25.12700 61.42400 39.91200
C  25.42700 58.22600 38.85500
O  24.21500 58.21200 38.74600
C  26.33000 57.05000 38.35600
C  25.96700 55.79800 39.00800
O  26.26000 55.36000 40.10600
O  25.10400 55.09000 38.19200
C  24.70600 53.76100 38.67600
H  33.17300 55.85600 37.96100
H  34.14800 61.86400 39.98100
H  27.87500 62.88700 40.30900
H  28.63200 54.77100 37.58800
H  31.20400 55.15800 36.41400
H  31.00200 53.02200 37.24600
H  30.02400 53.56600 38.68700
H  31.81200 53.83000 38.61900
H  29.43500 55.80500 34.93800
H  28.05200 56.64200 35.42200
H  27.37200 54.21400 36.21100
H  28.21600 53.77000 34.66300
H  36.64000 57.14300 37.92200
H  35.18500 56.29800 37.42300
H  35.86200 56.09900 39.03200
H  37.78800 61.20200 39.92100
H  36.42900 61.27900 40.99300
H  36.26400 61.94400 39.30000
H  32.64200 63.96700 39.89600
H  30.03100 64.06800 41.23700
H  33.06000 62.66900 42.36400
H  31.93400 64.03500 42.64000
H  33.43100 64.35700 41.78500
H  29.46300 64.08200 38.53700
H  31.09600 64.64600 38.53400
H  30.22000 66.74400 39.01100
H  29.87400 66.08000 40.59500
H  28.60400 65.97900 39.37900
H  24.16500 60.97900 39.65700
H  25.29700 62.34600 39.35600
H  25.05700 61.72000 40.95900
H  26.23900 56.88000 37.28300
H  24.27600 53.02500 37.99600
H  23.89600 54.10800 39.31800
H  25.39700 53.17200 39.27900

