158

Mg 2.59300 -2.04300 44.65400
C  5.52900 -0.68600 43.52600
C  0.83600 0.02100 42.58700
C  -0.26100 -3.85000 45.37900
C  4.50500 -4.48500 46.38900
N  3.12700 -0.62600 43.13100
C  4.44200 -0.17700 42.82800
C  4.42900 0.98800 41.82300
C  2.88000 1.36100 41.80200
C  2.24900 0.23200 42.61200
C  2.57800 2.80600 42.32300
C  5.02000 0.63300 40.43500
C  6.28400 1.37000 40.09100
H  6.59600 1.94100 38.66700
N  0.53500 -1.84600 44.08900
C  0.00100 -0.93500 43.18800
C  -1.32900 -1.19500 43.03900
C  -1.72800 -2.22200 43.93800
C  -0.43900 -2.71700 44.52600
C  -2.32000 -0.37400 42.14800
C  -3.13000 -2.68300 44.21400
O  -4.01000 -2.33100 43.42000
C  -3.55900 -3.77400 45.18800
N  2.23900 -3.93400 45.76100
C  0.96100 -4.37100 45.96000
C  0.92500 -5.66600 46.84700
C  2.44300 -5.99300 46.94500
C  3.10500 -4.76600 46.30700
C  0.27300 -5.65000 48.25200
C  2.93500 -7.27800 46.19600
C  3.22300 -8.40000 47.16400
N  4.64700 -2.49700 44.97600
C  5.23900 -3.44700 45.76700
C  6.66900 -3.20800 45.79000
C  6.82800 -2.14300 44.93400
C  5.55600 -1.73600 44.49700
C  7.76500 -3.94700 46.56100
C  7.84000 -1.28300 44.39700
O  9.03600 -1.21300 44.60300
C  7.06100 -0.31300 43.50500
C  7.22700 1.04600 44.07400
O  8.09100 1.79300 43.66300
O  6.38300 1.34500 45.07000
C  6.65300 2.55200 45.87600
H  0.27000 0.65400 41.90000
H  -1.15200 -4.45000 45.57400
H  5.05600 -5.17600 47.03000
H  4.95000 1.81200 42.30900
H  2.38000 1.32400 40.83400
H  2.67500 3.47900 41.47200
H  3.13900 3.16800 43.18400
H  1.53400 2.82300 42.63500
H  4.32700 0.65600 39.59400
H  5.35900 -0.39900 40.52500
H  7.14500 0.76500 40.37500
H  6.24400 2.22900 40.76100
H  -1.99800 0.66700 42.17300
H  -3.27400 -0.06800 42.57800
H  -2.52500 -0.77500 41.15600
H  -3.03500 -3.63100 46.13200
H  -3.32700 -4.71000 44.68000
H  -4.63100 -3.71700 45.37600
H  0.40800 -6.37400 46.19900
H  2.61100 -6.01000 48.02200
H  -0.81400 -5.62400 48.17300
H  0.55000 -4.73700 48.77900
H  0.50900 -6.54400 48.83000
H  3.90700 -7.09500 45.73900
H  2.20000 -7.52000 45.42800
H  2.46100 -9.17900 47.15000
H  3.23300 -8.02200 48.18600
H  4.18300 -8.85800 46.92300
H  8.29200 -4.58800 45.85300
H  7.27300 -4.49600 47.36400
H  8.41300 -3.23200 47.06800
H  7.59300 -0.33400 42.55400
H  7.68100 2.66600 46.22100
H  5.92100 2.66000 46.67600
H  6.50600 3.33500 45.13200
Mg 30.37100 58.20700 38.95700
C  27.82000 56.05400 38.22000
C  32.63600 55.59400 38.02800
C  32.99800 60.47700 38.83200
C  28.10400 60.81100 39.14900
N  30.25700 56.09900 38.12300
C  29.05300 55.40800 38.01100
C  29.30400 53.92200 37.60200
C  30.88800 53.79400 37.99500
C  31.33200 55.26500 38.03000
C  31.12700 53.00000 39.29300
C  29.08000 53.61300 36.11900
C  29.34900 54.69400 35.03800
H  28.14700 55.13900 34.09300
N  32.49000 58.05400 38.54300
C  33.19200 56.86500 38.23900
C  34.59400 57.23400 38.24200
C  34.73500 58.63200 38.50400
C  33.36600 59.10900 38.62600
C  35.63500 56.20200 38.11500
C  36.09100 59.35200 38.66400
O  37.22000 58.80800 38.63800
C  36.17900 60.92000 38.88700
N  30.58100 60.38000 38.85500
C  31.76600 61.03000 39.00900
C  31.53800 62.50800 39.14400
C  29.97600 62.61900 39.06500
C  29.46200 61.18100 39.05000
C  32.21100 63.30200 40.27300
C  29.40600 63.40300 37.86300
C  29.30900 64.92500 38.12500
N  28.38400 58.36600 38.91600
C  27.60600 59.47500 38.99700
C  26.19900 59.03500 38.99000
C  26.19800 57.69600 38.70900
C  27.56200 57.36100 38.61400
C  25.04900 59.90700 39.14600
C  25.40300 56.53500 38.42200
O  24.19900 56.37000 38.26000
C  26.51800 55.35000 38.19500
C  26.33100 54.44100 39.33700
O  26.86500 54.51200 40.41300
O  25.47900 53.42800 38.95100
C  24.98800 52.56100 40.01400
H  33.36400 54.79600 37.86100
H  33.78600 61.22400 38.94200
H  27.41700 61.64500 39.30600
H  28.74000 53.18500 38.17300
H  31.41300 53.20500 37.24300
H  30.26700 52.74600 39.91100
H  31.88400 53.36200 39.98900
H  31.66900 52.09900 39.00600
H  28.02800 53.33500 36.05100
H  29.69900 52.75900 35.84500
H  30.14200 54.21200 34.46600
H  29.84800 55.60400 35.37200
H  35.38600 55.55000 37.27800
H  35.54000 55.65400 39.05200
H  36.66500 56.54200 38.00500
H  35.65200 61.10900 39.82200
H  35.76600 61.49600 38.05900
H  37.18700 61.33100 38.94800
H  31.84700 62.96000 38.20200
H  29.66100 63.01500 40.03000
H  32.91600 64.05400 39.91800
H  32.86000 62.69100 40.90000
H  31.46800 63.76400 40.92300
H  28.41100 63.02300 37.63100
H  30.01100 63.18300 36.98300
H  29.86800 65.09200 39.04600
H  28.24500 65.16300 38.14000
H  29.82800 65.48300 37.34600
H  24.17900 59.37600 38.76000
H  25.19700 60.82700 38.58100
H  24.98100 60.13000 40.21100
H  26.37400 54.80000 37.26400
H  25.82400 52.34500 40.67900
H  24.75400 51.54700 39.68900
H  24.10000 52.86000 40.57200

