158

Mg 5.01400 54.59100 40.90200
C  4.90400 51.08300 40.63600
C  8.08300 54.51100 39.37000
C  4.76100 57.88100 40.58300
C  1.86500 54.52300 42.41600
N  6.23900 52.99300 40.02700
C  6.03900 51.66400 40.00100
C  7.21500 50.92500 39.41800
C  8.30800 52.00700 39.26900
C  7.53800 53.25400 39.59200
C  9.53100 51.82600 40.25900
C  6.82400 50.07400 38.17400
C  5.88300 50.80200 37.17200
H  6.54500 51.03400 35.78800
N  6.28300 56.11400 40.15100
C  7.57500 55.81900 39.57900
C  8.22300 57.08700 39.27400
C  7.31400 58.14300 39.68100
C  6.00500 57.36900 40.14000
C  9.68400 57.10100 38.65600
C  7.58600 59.59400 39.50800
O  8.60800 60.04700 39.08000
C  6.63200 60.56500 40.03500
N  3.50900 55.93500 41.23700
C  3.64500 57.26400 41.10000
C  2.35900 58.00500 41.43300
C  1.34400 56.86900 41.95900
C  2.32800 55.71800 41.88400
C  2.45700 59.06100 42.51000
C  0.12700 56.65500 41.03700
C  -1.09900 56.05200 41.65800
N  3.59800 53.15200 41.47700
C  2.41500 53.23900 42.19600
C  2.01200 51.85600 42.49300
C  2.91300 51.01800 41.87600
C  3.84200 51.87800 41.23800
C  0.79500 51.48400 43.40600
C  3.17900 49.62500 41.67600
O  2.57900 48.58700 42.03800
C  4.53800 49.66300 40.90400
C  4.15500 48.81700 39.76500
O  3.36100 49.04400 38.93800
O  4.93600 47.65100 39.85700
C  4.62200 46.60300 38.88500
H  9.09000 54.53700 38.94900
H  4.60400 58.96000 40.51400
H  1.05300 54.57300 43.14500
H  7.54600 50.28800 40.23700
H  8.78800 52.03700 38.29100
H  10.26700 51.17700 39.78400
H  9.19500 51.36900 41.19000
H  9.90400 52.79800 40.58200
H  6.49500 49.05200 38.35800
H  7.83500 50.05700 37.76800
H  5.67000 51.80400 37.54500
H  4.91700 50.31700 37.02900
H  10.53000 56.98000 39.33200
H  9.94300 58.01500 38.12200
H  9.69100 56.33000 37.88600
H  5.66500 60.67200 39.54400
H  6.98400 61.58600 39.89000
H  6.43300 60.43700 41.09900
H  1.95100 58.53900 40.57600
H  1.01600 56.92100 42.99800
H  1.93400 58.83000 43.43800
H  2.06200 59.97500 42.06700
H  3.46600 59.39400 42.75200
H  0.47700 55.92300 40.30900
H  -0.05700 57.58700 40.50200
H  -1.39500 55.10700 41.20200
H  -1.91600 56.77300 41.62500
H  -0.90400 55.86200 42.71400
H  0.02900 50.86900 42.93400
H  0.26700 52.38300 43.72400
H  1.10900 50.91400 44.28000
H  5.37900 49.23000 41.44600
H  5.28200 45.77500 39.14400
H  4.63700 46.83200 37.82000
H  3.62100 46.19300 39.01600
Mg 9.03900 48.86400 25.96400
C  6.97900 48.98000 28.71300
C  11.69200 49.83900 27.81200
C  10.90000 48.67600 23.16900
C  6.11600 48.15800 23.97700
N  9.24300 49.33000 27.98600
C  8.31000 49.32400 28.96400
C  8.95500 49.60600 30.34700
C  10.25600 50.35900 29.95300
C  10.44600 49.86500 28.47100
C  10.00600 51.95900 29.94800
C  9.33600 48.27500 31.14200
C  9.63800 48.48300 32.70200
H  9.20500 47.30800 33.58900
N  10.96600 49.18500 25.54900
C  11.96100 49.50300 26.46200
C  13.30300 49.38100 25.81500
C  13.02200 49.14200 24.43700
C  11.57000 49.02100 24.35100
C  14.54100 49.56800 26.52700
C  14.00200 49.16300 23.20000
O  13.61100 49.30200 22.07200
C  15.47900 49.18200 23.41100
N  8.55600 48.60300 23.84800
C  9.54400 48.54700 22.94700
C  9.06200 48.03000 21.57600
C  7.53300 47.84800 21.79100
C  7.36900 48.16900 23.29700
C  9.33200 49.05100 20.48300
C  7.00000 46.43300 21.41300
C  5.81800 46.44900 20.48200
N  6.98000 48.70300 26.20700
C  5.93000 48.34400 25.35100
C  4.69900 48.31400 26.09700
C  5.04900 48.51400 27.45500
C  6.44400 48.73200 27.42000
C  3.34000 48.02900 25.47400
C  4.53700 48.67600 28.77700
O  3.40900 48.59400 29.26300
C  5.82500 48.89700 29.62800
C  5.94600 47.80500 30.54700
O  6.11900 46.70800 30.21200
O  5.64200 48.29000 31.81400
C  5.52600 47.29200 32.86400
H  12.45400 50.18200 28.51500
H  11.59300 48.47900 22.34900
H  5.22600 47.90800 23.39500
H  8.31500 50.23200 30.96800
H  11.16300 50.04400 30.46900
H  9.99000 52.24700 28.89700
H  10.88300 52.54400 30.22300
H  9.10600 52.11100 30.54300
H  10.21600 47.90000 30.62000
H  8.54100 47.54300 30.99700
H  9.28300 49.47400 32.98300
H  10.72500 48.41600 32.73800
H  14.28000 49.62800 27.58400
H  15.02800 50.53400 26.39600
H  15.24300 48.75300 26.35400
H  15.82400 48.18500 23.68600
H  15.71100 49.92800 24.17000
H  15.89000 49.58500 22.48500
H  9.52500 47.05300 21.43300
H  6.82900 48.58500 21.40400
H  9.72600 50.02200 20.78300
H  8.48700 49.14300 19.80000
H  10.09400 48.58700 19.85800
H  6.65900 45.96500 22.33600
H  7.80800 45.95900 20.85600
H  5.47700 47.45100 20.22000
H  4.95100 45.95000 20.91400
H  6.08100 46.00300 19.52300
H  3.23900 46.96100 25.28000
H  3.15100 48.62800 24.58400
H  2.57000 48.18700 26.22900
H  5.77200 49.88000 30.09600
H  6.27700 46.50900 32.76700
H  4.55900 46.80500 32.74100
H  5.67600 47.60200 33.89900

