158

Mg 8.39400 3.91200 27.70300
C  9.40700 2.05100 30.36200
C  6.19900 5.67000 29.87200
C  7.01200 5.45400 25.05300
C  9.57200 1.43300 25.45900
N  7.64900 3.68900 29.88400
C  8.54400 3.11200 30.73900
C  8.30300 3.60900 32.22700
C  7.16400 4.65500 32.07300
C  6.93600 4.65400 30.54100
C  5.83000 4.41000 32.94500
C  9.58200 4.09000 32.93000
C  9.47500 5.22100 33.95600
H  10.36100 5.13800 35.26500
N  6.96400 5.46900 27.49600
C  6.25000 6.07500 28.46700
C  5.51000 7.14700 27.93600
C  5.83000 7.20900 26.51500
C  6.65000 6.00600 26.32000
C  4.62000 8.07100 28.76500
C  5.45500 8.19600 25.42800
O  5.93000 8.21700 24.35100
C  4.67800 9.45900 25.85400
N  8.33700 3.56400 25.48400
C  7.69300 4.36700 24.63000
C  7.65700 3.86200 23.16000
C  8.71000 2.64900 23.24300
C  8.81400 2.46500 24.79800
C  6.26500 3.31100 22.66900
C  10.16600 3.06000 22.76400
C  10.82300 1.95400 21.94300
N  9.44300 2.06200 27.75800
C  9.88500 1.22100 26.81800
C  10.63800 0.18100 27.51400
C  10.54500 0.47500 28.89200
C  9.82300 1.66700 29.01700
C  11.24600 -0.93000 26.82000
C  10.95500 0.08000 30.23600
O  11.73300 -0.78100 30.64000
C  10.20200 1.08400 31.22500
C  9.39600 0.24700 32.16200
O  8.32600 -0.30200 31.97300
O  9.99000 0.33700 33.37700
C  9.43700 -0.41700 34.55100
H  5.77500 6.37100 30.59400
H  6.65700 5.92900 24.13600
H  10.06200 0.76200 24.75100
H  7.81300 2.79600 32.76300
H  7.55300 5.64800 32.29700
H  6.13800 4.01000 33.91100
H  5.18400 3.74400 32.37300
H  5.32100 5.34900 33.16200
H  10.24100 4.40000 32.11800
H  10.05200 3.20600 33.36000
H  8.44900 5.32700 34.30800
H  9.82100 6.10800 33.42400
H  4.60300 7.77000 29.81200
H  3.59100 8.02200 28.40900
H  4.88900 9.12600 28.80200
H  5.10700 9.67300 26.83400
H  3.61700 9.24200 25.97100
H  4.81500 10.26300 25.13100
H  8.09500 4.57100 22.45800
H  8.23800 1.78000 22.78400
H  5.48500 3.74700 23.29400
H  6.02500 2.25100 22.75400
H  6.30000 3.74500 21.67000
H  10.82900 3.34900 23.57900
H  10.07000 3.93100 22.11500
H  10.19900 1.06200 21.88100
H  11.82900 1.64200 22.22100
H  10.93500 2.25500 20.90200
H  12.28900 -0.69500 26.60600
H  10.82300 -1.19900 25.85200
H  11.19600 -1.68900 27.60000
H  10.89600 1.63300 31.86200
H  10.19500 -1.07300 34.97900
H  8.52500 -0.98900 34.38200
H  9.15800 0.38600 35.23400
Mg -0.72700 34.56600 26.65600
C  -3.05500 32.88600 28.83700
C  -0.02400 36.65700 29.29700
C  0.89100 36.56400 24.55400
C  -1.87300 32.56000 24.06700
N  -1.47800 34.71300 28.89600
C  -2.36500 33.91100 29.56400
C  -2.38600 34.37200 31.04200
C  -1.58800 35.67500 30.96600
C  -0.90300 35.65600 29.61300
C  -2.39200 36.85600 31.13400
C  -1.92200 33.24100 32.07600
C  -3.01100 33.05100 33.12600
H  -3.14900 34.14300 34.22300
N  0.42000 36.24800 26.92300
C  0.63700 36.92800 28.09900
C  1.52000 38.00100 27.89100
C  1.90600 37.96900 26.48100
C  1.03600 36.93700 25.89400
C  1.91900 38.90000 29.06800
C  2.79100 38.83300 25.66000
O  2.90400 38.76800 24.46800
C  3.51200 39.96000 26.35100
N  -0.46200 34.54100 24.56800
C  0.22600 35.51000 23.90100
C  0.27000 35.16100 22.37200
C  -0.33900 33.72900 22.29500
C  -0.98200 33.56400 23.74000
C  -0.56700 36.24400 21.53400
C  0.62800 32.52200 22.06400
C  1.69300 32.25600 23.18400
N  -2.15200 32.99700 26.39100
C  -2.53200 32.32500 25.26500
C  -3.61700 31.52100 25.56000
C  -3.80800 31.61200 26.96600
C  -2.90100 32.51400 27.44800
C  -4.48100 30.77800 24.60400
C  -4.66800 31.16400 28.05400
O  -5.61500 30.35200 28.15600
C  -4.10100 31.92000 29.35500
C  -5.21900 32.58900 29.95200
O  -5.72900 33.61900 29.51700
O  -5.58900 31.88200 31.09300
C  -6.71000 32.51600 31.81400
H  0.24800 37.30500 30.13300
H  1.35700 37.20900 23.80600
H  -2.09600 31.82600 23.29000
H  -3.43500 34.53500 31.28900
H  -0.85300 35.73000 31.76900
H  -2.43200 37.46500 30.23100
H  -2.02500 37.37800 32.01700
H  -3.41800 36.60700 31.40900
H  -1.03300 33.48900 32.65700
H  -1.77400 32.35300 31.46100
H  -2.69600 32.12100 33.60000
H  -4.04300 32.99700 32.77900
H  1.71000 39.86300 28.60300
H  2.95700 38.84300 29.39400
H  1.32400 38.86900 29.98100
H  2.66100 40.55400 26.68700
H  4.32300 40.35500 25.73900
H  4.11800 39.62800 27.19400
H  1.34900 35.18000 22.22100
H  -1.14600 33.61900 21.57000
H  -1.27300 36.73500 22.20300
H  -1.29300 35.79800 20.85500
H  0.03400 36.97500 20.99300
H  1.17200 32.84900 21.17800
H  0.05100 31.62400 21.84200
H  1.50500 31.49700 23.94300
H  1.94400 33.21600 23.63600
H  2.61700 31.82700 22.79700
H  -5.29500 30.22300 25.07100
H  -3.86200 30.13500 23.97900
H  -4.97800 31.53900 24.00200
H  -3.72200 31.25100 30.12800
H  -6.38400 33.37300 32.40300
H  -7.09900 31.89300 32.61900
H  -7.62000 32.68400 31.23800

