158

Mg 25.67600 -7.37500 47.90200
C  27.74300 -4.75300 46.85900
C  23.35500 -6.60700 45.58400
C  23.71200 -9.79700 49.33900
C  28.39900 -8.71400 49.84400
N  25.71300 -5.92800 46.26300
C  26.58300 -4.87800 46.05000
C  26.00300 -3.81500 45.10500
C  24.62100 -4.47000 44.68700
C  24.47700 -5.72600 45.62300
C  23.43100 -3.47200 44.66300
C  26.93000 -3.47600 43.89000
C  27.05900 -2.03300 43.58300
H  26.63300 -1.67000 42.20300
N  23.75900 -8.14600 47.46500
C  23.01800 -7.75400 46.42100
C  21.89400 -8.63000 46.35000
C  21.86900 -9.40900 47.48700
C  23.16000 -9.08900 48.20700
C  20.96800 -8.67600 45.17400
C  20.68300 -10.38000 47.94900
O  19.61400 -10.52400 47.35500
C  20.75100 -11.16000 49.28000
N  26.05400 -9.04500 49.32300
C  25.03800 -9.86100 49.76500
C  25.55900 -11.02400 50.64200
C  27.03200 -10.58700 50.85700
C  27.20900 -9.38000 49.93100
C  24.74800 -11.17200 51.99700
C  28.01100 -11.80400 50.58000
C  29.06600 -12.00000 51.67800
N  27.67000 -6.88000 48.32600
C  28.61900 -7.48700 49.08400
C  29.72900 -6.55100 49.11000
C  29.42700 -5.44900 48.32500
C  28.17300 -5.72000 47.80400
C  31.16700 -6.76700 49.62200
C  30.01000 -4.21400 47.74100
O  31.03800 -3.64300 47.93400
C  28.81500 -3.66200 46.90200
C  28.26100 -2.34300 47.57500
O  27.74000 -2.25000 48.66900
O  28.42700 -1.29100 46.66600
C  27.87900 0.04400 46.94300
H  22.60000 -6.40300 44.82200
H  23.04900 -10.44500 49.91600
H  29.36500 -9.00300 50.26300
H  25.89500 -2.90600 45.69700
H  24.65900 -4.81300 43.65300
H  22.53600 -3.95500 45.05400
H  23.34200 -3.18200 43.61600
H  23.62100 -2.53600 45.18900
H  26.48600 -3.97600 43.02800
H  27.88800 -3.96200 44.07200
H  28.12900 -1.82500 43.57300
H  26.40700 -1.49500 44.27100
H  21.43100 -8.07100 44.39400
H  19.97500 -8.29800 45.41900
H  20.92400 -9.73400 44.91700
H  21.60100 -11.84100 49.24300
H  19.86600 -11.78500 49.39300
H  20.84600 -10.57000 50.19200
H  25.54400 -11.97500 50.11000
H  27.17000 -10.10700 51.82600
H  24.20000 -12.11300 52.03100
H  24.04500 -10.38300 52.26600
H  25.44200 -11.26900 52.83300
H  28.55300 -11.58300 49.66100
H  27.50600 -12.75600 50.41900
H  30.04100 -11.86000 51.21200
H  29.04600 -13.03600 52.01700
H  28.85000 -11.40400 52.56500
H  31.78600 -7.20600 48.83900
H  31.26900 -7.43300 50.47800
H  31.51600 -5.81600 50.02400
H  29.14900 -3.35900 45.91000
H  26.82000 0.04300 47.20300
H  28.00900 0.66500 46.05700
H  28.46500 0.28000 47.83100
Mg -1.42600 34.90300 26.05400
C  -3.00300 32.98900 28.45500
C  -0.15400 36.85200 28.45600
C  -0.30700 36.82500 23.57200
C  -2.84100 32.70700 23.52600
N  -1.59500 34.89100 28.26100
C  -2.17600 33.97600 29.03400
C  -2.06800 34.29400 30.52700
C  -1.34100 35.67900 30.51300
C  -1.02200 35.84700 28.97200
C  -1.97800 36.91300 31.05900
C  -1.20900 33.22100 31.30600
C  -2.02300 32.42900 32.38200
H  -1.36100 32.22200 33.71100
N  -0.34700 36.59300 26.00300
C  0.13400 37.26700 27.11000
C  0.95400 38.36300 26.69200
C  0.79800 38.45000 25.29600
C  -0.07200 37.32200 24.88500
C  1.69900 39.30400 27.74200
C  1.42900 39.49100 24.40400
O  1.28100 39.54300 23.20400
C  2.30100 40.54400 24.97600
N  -1.51900 34.79000 23.89900
C  -0.95600 35.71000 23.12700
C  -1.09100 35.35900 21.67100
C  -1.67700 33.94200 21.70700
C  -2.06800 33.82000 23.12700
C  -1.89700 36.43700 20.98100
C  -0.63500 32.88800 21.22500
C  0.35200 32.27700 22.20500
N  -2.73700 33.24300 25.92100
C  -3.14800 32.39400 24.87300
C  -4.05600 31.34900 25.37100
C  -4.07400 31.59200 26.80900
C  -3.20300 32.68200 27.03600
C  -4.83400 30.43500 24.53200
C  -4.71800 31.18500 28.11000
O  -5.64200 30.44900 28.33200
C  -3.80500 31.92500 29.17200
C  -4.77700 32.48100 30.12800
O  -5.37500 33.53700 29.97300
O  -4.94600 31.66700 31.21600
C  -5.65200 32.24100 32.37500
H  0.17600 37.63800 29.13800
H  0.19700 37.45700 22.83900
H  -3.26400 32.04100 22.77200
H  -3.07100 34.47500 30.91400
H  -0.46400 35.52600 31.14300
H  -3.04200 36.68300 31.00800
H  -1.81200 37.71700 30.34200
H  -1.71900 37.25400 32.06100
H  -0.32400 33.58300 31.82900
H  -0.88300 32.49200 30.56300
H  -2.26000 31.45600 31.95100
H  -2.93100 32.99700 32.57900
H  2.00900 38.73900 28.62200
H  0.93800 40.02300 28.04700
H  2.58400 39.84900 27.41600
H  1.82500 41.19900 25.70600
H  2.54100 41.10600 24.07400
H  3.24500 40.22700 25.41800
H  -0.08600 35.36400 21.24700
H  -2.52700 33.81200 21.03700
H  -2.17800 37.18700 21.72100
H  -2.80800 36.00800 20.56500
H  -1.21400 36.87800 20.25500
H  -0.12800 33.49100 20.47100
H  -1.26600 32.07400 20.86700
H  0.09300 32.50700 23.23900
H  1.41300 32.43900 22.01400
H  0.18300 31.20200 22.27000
H  -4.22100 30.00500 23.73900
H  -5.68500 30.96000 24.09900
H  -5.27900 29.62700 25.11400
H  -3.31800 31.10800 29.70400
H  -6.57800 32.69400 32.02200
H  -4.97400 32.94100 32.86200
H  -5.88500 31.45800 33.09600

