158

Mg 5.78200 55.22500 41.05400
C  5.15700 51.71200 40.94300
C  8.80700 54.40500 39.50800
C  6.27700 58.44100 40.37600
C  2.53600 55.71500 42.01200
N  6.89600 53.19200 40.38600
C  6.38700 51.96800 40.46300
C  7.36400 50.98100 39.79600
C  8.67500 51.84000 39.88300
C  8.16600 53.23100 39.87600
C  9.62800 51.67700 41.08300
C  7.03600 50.48000 38.41200
C  6.30500 51.49400 37.44400
H  7.17000 52.09900 36.28500
N  7.37500 56.23200 40.11400
C  8.56200 55.73500 39.68600
C  9.43100 56.76000 39.26600
C  8.75000 58.01900 39.59500
C  7.42800 57.60700 40.02900
C  10.89900 56.54700 38.81300
C  9.34900 59.38800 39.36900
O  10.42900 59.55200 38.85300
C  8.57000 60.61300 39.74700
N  4.61700 56.79900 41.11900
C  5.04200 58.04400 40.80200
C  3.89200 59.08700 41.15100
C  2.65300 58.19600 41.48900
C  3.29200 56.80600 41.59300
C  4.21200 60.20000 42.17200
C  1.51400 58.22500 40.45200
C  0.13300 58.62300 41.01900
N  4.21300 54.03300 41.54100
C  2.92300 54.33300 42.03600
C  2.22900 53.08800 42.38800
C  3.13900 52.12400 42.05500
C  4.30400 52.67300 41.49100
C  0.84000 53.03000 42.90900
C  3.26100 50.67100 41.95500
O  2.49300 49.80000 42.29600
C  4.54400 50.37100 41.22400
C  4.20100 49.58300 40.00800
O  3.66900 49.96100 39.01000
O  4.67100 48.34100 40.16900
C  4.42000 47.35700 39.14200
H  9.64700 54.06500 38.89900
H  6.35000 59.50500 40.14300
H  1.53300 55.98400 42.35100
H  7.31700 50.08800 40.41900
H  9.23000 51.90200 38.94600
H  9.67600 52.60100 41.65800
H  10.56600 51.36500 40.62400
H  9.24300 50.95000 41.79900
H  6.58800 49.48700 38.42600
H  8.04100 50.32300 38.02000
H  5.95200 52.38400 37.96500
H  5.58700 50.80200 37.00600
H  11.25500 57.15500 37.98200
H  11.15400 55.50000 38.64800
H  11.61600 57.02700 39.47900
H  7.72800 60.76900 39.07200
H  9.20500 61.47400 39.95600
H  8.28200 60.35800 40.76600
H  3.77800 59.62600 40.21000
H  2.29800 58.41200 42.49600
H  5.20600 60.09600 42.60700
H  3.49100 60.23500 42.98800
H  4.15300 61.16100 41.66100
H  1.43100 57.26100 39.95100
H  1.80400 58.90600 39.65100
H  0.07700 58.50500 42.10100
H  -0.56800 57.91800 40.57200
H  -0.11700 59.62300 40.66400
H  0.25900 53.38600 42.05800
H  0.71600 53.61400 43.82100
H  0.61400 51.99000 43.14200
H  5.19500 49.76600 41.85600
H  4.45100 47.78400 38.14000
H  3.46200 46.89700 39.38400
H  5.16500 46.56200 39.11800
Mg -1.99200 34.99300 26.73400
C  -3.99200 33.57400 29.03600
C  -1.07800 37.39200 28.96700
C  -0.23000 36.49400 24.30500
C  -3.16100 32.67800 24.41700
N  -2.47700 35.39400 28.75800
C  -3.23400 34.63600 29.54600
C  -3.30700 35.07900 31.04600
C  -2.52300 36.43800 30.91400
C  -2.01900 36.47400 29.43700
C  -3.36000 37.71800 31.45600
C  -2.60100 33.98300 31.92800
C  -3.35200 33.16000 32.92500
H  -2.82300 32.93400 34.34200
N  -0.77700 36.79000 26.62300
C  -0.53100 37.59400 27.71400
C  0.35600 38.57200 27.23200
C  0.63500 38.35900 25.84600
C  -0.13000 37.17600 25.58400
C  0.90600 39.77800 28.07400
C  1.38800 39.07200 24.74000
O  1.39700 38.74200 23.54600
C  2.18500 40.19800 25.12500
N  -1.85400 34.75000 24.56300
C  -0.91800 35.31800 23.91000
C  -0.66500 34.64900 22.57400
C  -1.59100 33.41300 22.60800
C  -2.23200 33.57100 23.98100
C  -0.94600 35.55400 21.33600
C  -0.79300 32.08600 22.50400
C  0.59300 31.94000 23.22500
N  -3.38500 33.49800 26.60000
C  -3.72500 32.59300 25.68200
C  -4.62700 31.61900 26.17100
C  -4.78700 31.95000 27.53200
C  -4.04300 33.12800 27.72700
C  -5.24300 30.54200 25.36600
C  -5.40700 31.53500 28.78400
O  -6.17200 30.62700 29.12900
C  -4.92200 32.60700 29.80600
C  -6.10200 33.35900 30.36900
O  -6.74000 34.31900 29.85400
O  -6.36200 32.89500 31.60500
C  -7.23600 33.67000 32.45200
H  -0.80900 38.17900 29.67500
H  0.27000 36.80900 23.38700
H  -3.35400 31.87900 23.69800
H  -4.33600 35.20800 31.38000
H  -1.60000 36.52200 31.48800
H  -4.39500 37.46600 31.68300
H  -3.39400 38.49600 30.69400
H  -2.81700 38.08600 32.32700
H  -1.80800 34.53000 32.43900
H  -2.06800 33.29900 31.26800
H  -3.52200 32.16400 32.51700
H  -4.32300 33.63100 33.08100
H  1.99300 39.75300 28.15700
H  0.41700 39.97400 29.02900
H  0.76500 40.70000 27.51000
H  2.98900 40.23300 24.39000
H  2.74200 40.03000 26.04700
H  1.58500 41.10700 25.16500
H  0.38200 34.35800 22.49100
H  -2.32300 33.55600 21.81300
H  -1.42000 35.00200 20.52400
H  -0.00200 35.76600 20.83400
H  -1.37300 36.51100 21.63600
H  -0.67400 31.91400 21.43400
H  -1.47000 31.28800 22.80700
H  0.55800 32.57400 24.11100
H  1.44600 32.12500 22.57200
H  0.57200 30.89700 23.54300
H  -4.44300 29.84800 25.10900
H  -5.75300 30.92800 24.48300
H  -6.00500 30.22000 26.07600
H  -4.44800 31.99200 30.57100
H  -8.27900 33.85500 32.19300
H  -6.81200 34.66800 32.55700
H  -7.09600 33.21000 33.43000

