158

Mg 44.33200 4.93900 47.45300
C  42.30300 7.65300 46.50400
C  41.74300 2.84100 46.50400
C  46.57600 2.48400 47.32200
C  47.03200 7.25400 47.14900
N  42.19300 5.26900 46.80000
C  41.63500 6.43100 46.42400
C  40.30700 6.26200 45.75400
C  39.98400 4.73500 46.12100
C  41.39500 4.18800 46.52400
C  38.95800 4.60700 47.31200
C  40.31000 6.52700 44.23700
C  39.47000 7.71000 43.71600
H  40.11900 8.55900 42.60600
N  44.08300 2.86400 47.22800
C  43.01000 2.27100 46.73900
C  43.35900 0.84800 46.51600
C  44.70000 0.68500 46.93500
C  45.23900 2.01500 47.22500
C  42.42200 -0.18800 46.07300
C  45.42600 -0.65700 47.01600
O  44.92700 -1.70900 46.63500
C  46.74800 -0.79400 47.57800
N  46.53000 4.86600 47.16100
C  47.19100 3.73800 47.25300
C  48.66800 3.88100 47.16200
C  48.87500 5.44200 47.18300
C  47.42100 5.92200 47.16300
C  49.48700 3.13900 48.18500
C  49.59000 6.10400 45.92400
C  50.71500 5.31900 45.19300
N  44.60700 7.06800 47.07800
C  45.77700 7.80200 47.11500
C  45.41500 9.17500 47.08300
C  44.03900 9.20800 46.81000
C  43.61000 7.88800 46.83800
C  46.28300 10.40900 47.13700
C  42.91200 9.97900 46.50100
O  42.86200 11.15400 46.13500
C  41.69600 9.00200 46.36700
C  40.82600 9.13500 47.54400
O  40.93900 8.68800 48.67900
O  39.73800 9.89800 47.28200
C  38.71000 10.28100 48.34000
H  40.98100 2.20700 46.04400
H  47.39400 1.80300 47.07600
H  47.86900 7.95300 47.09200
H  39.55000 6.91000 46.19600
H  39.52200 4.08200 45.38000
H  39.36200 4.33700 48.28700
H  38.23700 3.81700 47.10300
H  38.39200 5.53900 47.30200
H  39.98000 5.62700 43.71900
H  41.29900 6.74600 43.83300
H  39.23100 8.36600 44.55200
H  38.53600 7.31000 43.32100
H  41.59000 0.27200 45.54100
H  42.02100 -0.73200 46.92800
H  42.96800 -0.83800 45.38900
H  47.44600 -0.45400 46.81200
H  46.84800 -1.84300 47.85900
H  46.81000 -0.21900 48.50200
H  49.00000 3.48700 46.20200
H  49.43300 5.89300 48.00400
H  50.17700 3.83400 48.66300
H  50.11000 2.35500 47.75400
H  48.87600 2.85100 49.04200
H  50.17000 6.95900 46.27200
H  48.81700 6.46300 45.24400
H  51.60300 5.92000 45.00100
H  50.17900 4.90100 44.34100
H  50.92000 4.51500 45.90000
H  46.29300 10.79900 48.15500
H  45.89600 11.24700 46.55900
H  47.25200 9.99700 46.85500
H  41.13500 9.25600 45.46800
H  37.75900 10.41800 47.82600
H  38.89800 11.23100 48.84000
H  38.65600 9.52700 49.12500
Mg 17.22900 52.98400 26.57800
C  19.45000 51.50200 29.14300
C  14.97600 53.55300 29.07300
C  15.06500 53.91600 24.16800
C  19.45900 51.71600 24.22600
N  17.31000 52.64300 28.84900
C  18.25500 52.06600 29.65500
C  17.82700 52.28400 31.16400
C  16.32000 52.64700 31.11800
C  16.16800 52.99100 29.59300
C  15.37000 51.54100 31.53200
C  18.61900 53.45200 31.92300
C  18.99000 53.18100 33.35900
H  17.92300 52.36000 34.14500
N  15.38600 53.69100 26.61900
C  14.60800 53.83600 27.72600
C  13.32600 54.42700 27.36300
C  13.44000 54.67100 26.02100
C  14.61600 54.03600 25.53400
C  12.19100 54.79900 28.31800
C  12.52500 55.48300 25.12000
O  12.67000 55.64100 23.89900
C  11.29200 56.03600 25.68100
N  17.20400 52.75100 24.50400
C  16.22900 53.30900 23.68900
C  16.72500 53.53600 22.27100
C  18.09700 52.77900 22.20800
C  18.32600 52.38600 23.77100
C  15.61900 53.14800 21.20700
C  19.22800 53.77600 21.67800
C  20.10600 53.18700 20.55900
N  19.01400 51.82900 26.56200
C  19.79700 51.45800 25.51900
C  21.02100 50.76400 25.96100
C  20.93500 50.77700 27.38400
C  19.68100 51.39400 27.70600
C  22.11900 50.19700 25.05600
C  21.64000 50.44400 28.60900
O  22.71300 49.85200 28.74400
C  20.70800 50.95300 29.83700
C  20.43400 49.81100 30.76000
O  20.18400 48.69300 30.35800
O  20.52100 50.24800 31.99800
C  20.50600 49.21100 33.05700
H  14.30200 53.70000 29.92000
H  14.39700 54.29800 23.39300
H  20.15700 51.44300 23.43300
H  17.92400 51.31900 31.66100
H  16.07800 53.58800 31.61000
H  14.75300 52.01700 32.29500
H  15.75100 50.58400 31.88900
H  14.62900 51.19000 30.81400
H  18.30900 54.49500 31.85900
H  19.55400 53.60100 31.38300
H  18.98900 54.09700 33.94900
H  19.97000 52.73600 33.53400
H  11.21700 54.39900 28.03800
H  12.18300 55.87700 28.47800
H  12.36400 54.54200 29.36300
H  10.49500 55.39400 26.05600
H  10.83300 56.51800 24.81800
H  11.80200 56.65400 26.41900
H  16.93600 54.58700 22.07700
H  17.97900 51.85300 21.64500
H  14.93600 52.40100 21.61200
H  16.22300 52.80900 20.36500
H  15.16000 54.07800 20.87100
H  19.96600 54.16500 22.38000
H  18.89100 54.71100 21.23100
H  20.07500 52.09700 20.53800
H  21.11100 53.55400 20.76800
H  19.86100 53.52600 19.55200
H  21.89200 50.31600 23.99600
H  22.14200 49.13000 25.27500
H  23.08800 50.59000 25.36300
H  21.17800 51.78800 30.35600
H  19.47500 49.17200 33.40900
H  21.23200 49.50600 33.81400
H  20.70500 48.19000 32.73400

