158

Mg 49.59500 46.71300 42.87600
C  46.16600 47.17100 42.00900
C  49.48000 43.62100 41.30600
C  52.98900 46.50800 43.07700
C  49.80300 50.16200 43.51900
N  47.95100 45.54200 41.81600
C  46.66200 45.87500 41.67400
C  45.91200 44.74500 40.92900
C  47.00200 43.58700 40.75300
C  48.23200 44.24000 41.45200
C  46.58300 42.28900 41.39700
C  45.48700 45.21900 39.41600
C  44.03800 44.76300 38.99900
H  43.35100 45.40200 37.78800
N  51.03700 45.16900 42.41800
C  50.80600 44.04400 41.71700
C  52.03100 43.37900 41.35200
C  53.06100 44.06600 42.10300
C  52.36300 45.35000 42.53500
C  52.11000 42.19400 40.40800
C  54.48300 43.58500 42.18400
O  54.87700 42.51500 41.68400
C  55.54300 44.36200 43.06900
N  51.08000 48.08100 43.46900
C  52.44700 47.72500 43.54600
C  53.36900 48.85500 43.58900
C  52.39500 50.09000 43.76700
C  51.00000 49.48400 43.61300
C  54.57200 48.90300 44.61200
C  52.69800 51.22400 42.66900
C  52.75700 52.66300 43.26500
N  48.26600 48.31400 42.90800
C  48.52600 49.64500 43.21500
C  47.29400 50.42400 43.20900
C  46.32100 49.46000 42.72700
C  46.97100 48.22900 42.58000
C  47.01300 51.81000 43.53000
C  44.95000 49.26800 42.36900
O  43.99400 50.05600 42.52900
C  44.77400 47.74500 41.88200
C  43.78300 47.11500 42.77600
O  43.92500 46.85700 43.95800
O  42.71700 46.67700 42.00800
C  41.80700 45.85900 42.77700
H  49.53600 42.65500 40.79900
H  54.07000 46.45200 43.22200
H  49.82300 51.25200 43.58100
H  45.03100 44.38600 41.46200
H  47.21100 43.36900 39.70600
H  45.78500 42.47200 42.11600
H  47.36800 41.73700 41.91500
H  46.18900 41.55200 40.69600
H  46.15200 44.88500 38.62000
H  45.49300 46.30800 39.39200
H  43.37600 44.84000 39.86200
H  44.04100 43.68200 38.85700
H  51.31400 41.54800 40.77900
H  52.88700 41.43300 40.47500
H  51.97400 42.64300 39.42400
H  55.22000 44.53000 44.09700
H  55.64200 45.38400 42.70200
H  56.48000 43.80900 43.01000
H  53.91900 48.91400 42.65000
H  52.56000 50.38800 44.80300
H  54.49500 48.03100 45.26100
H  54.39800 49.71700 45.31600
H  55.54400 48.97500 44.12400
H  51.87400 51.21000 41.95500
H  53.59300 51.01800 42.08200
H  52.83900 52.57800 44.34800
H  51.77800 53.11800 43.11300
H  53.55700 53.19600 42.75000
H  47.73400 52.56300 43.21000
H  46.66000 51.90400 44.55700
H  46.08400 52.03700 43.00700
H  44.41400 47.87400 40.86100
H  41.80000 46.25500 43.79300
H  41.95100 44.77900 42.73700
H  40.81300 46.00500 42.35500
Mg 30.50800 58.00900 39.21800
C  27.79200 55.90600 38.36500
C  32.53600 55.35800 38.19800
C  32.98500 60.09900 39.18600
C  28.26400 60.55700 39.86300
N  30.16200 55.82900 38.22400
C  28.96500 55.21700 38.12400
C  29.17200 53.73600 37.86100
C  30.70800 53.52200 38.18100
C  31.18500 54.98000 38.12700
C  31.03900 52.79500 39.51700
C  28.78200 53.24700 36.41900
C  29.17800 54.35000 35.26700
H  28.10100 54.89800 34.38500
N  32.54700 57.72900 38.70000
C  33.21000 56.55100 38.38500
C  34.62800 56.90200 38.19000
C  34.77300 58.30700 38.42900
C  33.43200 58.82000 38.74400
C  35.64700 55.91000 37.78000
C  36.04400 59.15300 38.44700
O  37.14800 58.66700 38.19500
C  36.04500 60.58200 38.79500
N  30.67700 60.02700 39.46400
C  31.81300 60.67500 39.52400
C  31.71000 62.12500 39.94600
C  30.14700 62.26800 40.16900
C  29.64900 60.85600 39.81200
C  32.54200 62.61300 41.18900
C  29.45000 63.40800 39.31400
C  28.60900 64.39300 40.08900
N  28.37300 58.23100 39.22800
C  27.63100 59.32900 39.51000
C  26.27000 59.01900 39.36300
C  26.25100 57.66500 38.94800
C  27.61000 57.24300 38.78900
C  25.12400 59.91300 39.63600
C  25.38100 56.52500 38.62600
O  24.17900 56.48400 38.69900
C  26.37000 55.30000 38.28800
C  26.06800 54.22800 39.27000
O  26.52700 54.13800 40.39900
O  25.06000 53.49900 38.80000
C  24.49500 52.63400 39.76700
H  33.21400 54.52400 38.00300
H  33.66100 60.93000 39.40000
H  27.50700 61.34400 39.85700
H  28.43700 53.27000 38.51700
H  31.23300 52.92800 37.43200
H  30.11700 52.29600 39.81500
H  31.15400 53.55700 40.28900
H  31.84700 52.09400 39.31300
H  27.72400 52.99800 36.34000
H  29.42100 52.41000 36.13800
H  29.87700 53.86300 34.58800
H  29.84200 55.13000 35.64000
H  35.21700 54.97900 37.40900
H  36.13400 55.76300 38.74400
H  36.40000 56.26100 37.07600
H  37.04600 61.00500 38.88400
H  35.64800 60.49500 39.80600
H  35.44900 61.08300 38.03200
H  32.03300 62.75900 39.12000
H  29.83000 62.54800 41.17400
H  33.37300 61.96000 41.45800
H  31.96600 62.81300 42.09200
H  33.01400 63.54500 40.87700
H  28.84500 63.09000 38.46500
H  30.11300 64.16600 38.89800
H  28.01900 65.01100 39.41300
H  29.20100 65.11500 40.65000
H  27.92500 63.83900 40.73200
H  25.22600 60.99400 39.74100
H  24.57500 59.63300 40.53500
H  24.47400 59.69500 38.78900
H  26.04100 55.06000 37.27800
H  24.17500 53.13300 40.68200
H  25.16600 51.84600 40.10900
H  23.62000 52.12700 39.35900

