158

Mg -1.61700 17.07000 27.27000
C  -2.16600 14.79600 29.86700
C  -1.95100 19.61400 29.26400
C  -1.63300 19.09300 24.50800
C  -1.36600 14.31400 25.00100
N  -2.08700 17.15600 29.25100
C  -2.31500 16.14100 30.25200
C  -2.61200 16.75000 31.63600
C  -2.47200 18.28100 31.35000
C  -2.08600 18.37800 29.84800
C  -3.70700 19.08500 31.88400
C  -1.59100 16.32900 32.81400
C  -1.63200 17.12500 34.18400
H  -1.54200 16.19600 35.44600
N  -1.67400 19.03600 26.96100
C  -1.78500 19.95600 27.92900
C  -1.77000 21.32200 27.35400
C  -1.72300 21.14700 25.93300
C  -1.66600 19.69600 25.71900
C  -1.87000 22.61800 28.23000
C  -1.82200 22.23400 24.83800
O  -1.77900 21.94700 23.62000
C  -1.82500 23.71100 25.22000
N  -1.48000 16.71300 25.07700
C  -1.54200 17.74300 24.16000
C  -1.41700 17.25400 22.69600
C  -1.14000 15.74800 22.90500
C  -1.31000 15.57900 24.42700
C  -2.53300 17.62100 21.69700
C  0.15700 15.28800 22.26100
C  1.42700 16.05200 22.85300
N  -1.71000 14.99600 27.35700
C  -1.57900 13.98900 26.39400
C  -1.84000 12.73700 26.92800
C  -1.95800 12.96800 28.36700
C  -1.89100 14.34400 28.55400
C  -1.77400 11.40600 26.27600
C  -2.20500 12.29600 29.63800
O  -2.31300 11.10000 29.94500
C  -2.26500 13.46500 30.66200
C  -1.03500 13.34900 31.39500
O  0.02400 13.78000 31.10100
O  -1.28500 12.80300 32.62900
C  -0.17000 12.76500 33.60700
H  -2.04100 20.33700 30.07800
H  -1.61300 19.67200 23.58200
H  -1.10700 13.43800 24.40300
H  -3.55900 16.39100 32.04000
H  -1.58200 18.67500 31.84100
H  -4.13600 18.50600 32.70200
H  -4.47900 19.45700 31.21000
H  -3.16900 19.89900 32.37000
H  -0.55600 16.18800 32.50000
H  -1.87800 15.32600 33.13100
H  -2.49400 17.78200 34.29200
H  -0.76200 17.77800 34.24200
H  -2.88100 22.98500 28.05200
H  -1.24300 23.47100 27.97200
H  -1.83100 22.27700 29.26500
H  -0.86100 23.91300 25.68700
H  -2.59500 24.01600 25.92900
H  -1.95100 24.38300 24.37100
H  -0.55600 17.72900 22.22700
H  -2.01800 15.29500 22.44500
H  -3.13200 18.42200 22.12900
H  -3.28900 16.87800 21.44100
H  -2.13700 17.90300 20.72100
H  0.14000 15.30100 21.17100
H  0.36100 14.28800 22.64300
H  1.14200 16.83800 23.55300
H  2.08300 16.47200 22.09000
H  2.00900 15.36800 23.47000
H  -1.08900 10.78600 26.85400
H  -1.49100 11.50600 25.22800
H  -2.77000 10.96500 26.27600
H  -3.06100 13.41200 31.40500
H  0.30500 13.74400 33.56000
H  0.60600 12.01100 33.47400
H  -0.63900 12.66700 34.58600
Mg 9.61400 47.94500 26.77300
C  8.12100 48.40700 29.78100
C  12.60400 49.16700 28.22600
C  11.10700 47.84000 23.72700
C  6.63000 47.31700 25.34300
N  10.28100 48.70200 28.78400
C  9.46100 48.71700 29.84300
C  10.33400 49.09500 31.10500
C  11.67000 49.62100 30.49200
C  11.49200 49.09500 29.05600
C  11.82100 51.14200 30.59700
C  10.41900 47.97100 32.21000
C  9.85000 48.28300 33.61400
H  9.80900 47.17400 34.73200
N  11.59700 48.33300 26.11100
C  12.68900 48.82900 26.84200
C  13.88700 48.72700 26.00800
C  13.46800 48.40000 24.66900
C  11.97000 48.17300 24.79700
C  15.34200 48.89200 26.67100
C  14.30800 48.26300 23.44400
O  13.81000 48.06300 22.31700
C  15.87200 48.46600 23.44400
N  8.96600 47.56300 24.84300
C  9.69700 47.64700 23.70600
C  8.92700 47.33400 22.40200
C  7.54400 46.88600 22.97200
C  7.67200 47.30700 24.48700
C  8.86400 48.55200 21.50800
C  7.11200 45.40400 22.65800
C  8.13000 44.37900 23.09400
N  7.73800 47.95600 27.36500
C  6.58000 47.57000 26.74800
C  5.45800 47.57400 27.66200
C  6.07800 47.86100 28.85300
C  7.45000 48.09600 28.62400
C  4.07100 47.07400 27.40000
C  5.74200 47.98800 30.23700
O  4.67200 47.85200 30.83000
C  7.09000 48.20800 30.96100
C  7.17900 46.89900 31.64800
O  7.92100 45.97900 31.29000
O  6.53300 46.92600 32.81600
C  6.49600 45.70300 33.67500
H  13.45000 49.58100 28.77700
H  11.61700 47.76400 22.76400
H  5.63000 47.08600 24.97100
H  9.90700 49.87400 31.73800
H  12.54500 49.16700 30.95700
H  11.74800 51.66900 29.64500
H  12.72800 51.43100 31.12800
H  10.97300 51.37900 31.24000
H  11.47100 47.71700 32.33900
H  9.86200 47.10900 31.84300
H  8.83400 48.56600 33.34000
H  10.48300 49.11000 33.93500
H  15.23900 48.89500 27.75600
H  15.75000 49.85900 26.37800
H  15.98300 48.04000 26.44600
H  16.28400 48.72300 22.46800
H  16.05900 47.42200 23.69700
H  16.32500 49.14300 24.16700
H  9.35200 46.51200 21.82700
H  6.80000 47.58300 22.58500
H  9.53700 49.31800 21.89100
H  7.92400 49.10000 21.56500
H  9.14900 48.26200 20.49700
H  7.01900 45.22900 21.58600
H  6.09600 45.21200 23.00200
H  8.56500 44.11700 22.12900
H  7.86700 43.41600 23.53300
H  8.87100 44.81800 23.76100
H  3.87400 46.24000 28.07300
H  3.90600 46.88700 26.33900
H  3.24100 47.72900 27.66500
H  6.87800 48.99400 31.68600
H  6.14400 44.76500 33.24500
H  5.86400 45.91900 34.53700
H  7.54200 45.49500 33.89800

