158

Mg 47.07100 24.47200 28.61700
C  47.47500 26.79100 31.19400
C  46.27200 22.06800 30.91600
C  47.55800 22.19500 26.18400
C  48.62900 26.85400 26.33200
N  46.86100 24.46700 30.82400
C  47.09100 25.51100 31.67600
C  46.75700 25.12700 33.12900
C  46.42100 23.61800 33.04100
C  46.52300 23.35200 31.54200
C  47.20700 22.69400 33.95100
C  45.59300 25.96500 33.78600
C  45.72100 26.65500 35.20400
H  44.55300 26.52300 36.24400
N  46.62000 22.55000 28.51700
C  46.25100 21.71500 29.55300
C  46.04500 20.43100 29.01800
C  46.46800 20.39500 27.67000
C  46.90700 21.79000 27.40500
C  45.55300 19.36300 29.89200
C  46.63500 19.27100 26.74800
O  46.96000 19.46200 25.56100
C  46.52500 17.84700 27.22200
N  47.88400 24.53300 26.56200
C  47.98200 23.42300 25.76800
C  48.63100 23.71500 24.44700
C  48.49800 25.27100 24.37700
C  48.39800 25.59900 25.88300
C  50.18200 23.19200 24.46800
C  47.09900 25.61700 23.57100
C  46.45600 27.05300 23.71400
N  47.89900 26.40200 28.71300
C  48.50000 27.26000 27.71700
C  48.75400 28.48800 28.27600
C  48.38900 28.30800 29.62500
C  47.83100 27.08500 29.87200
C  49.12500 29.78800 27.48200
C  48.45600 29.01800 30.88500
O  48.93300 30.08700 31.16900
C  47.84500 28.03200 31.96800
C  48.90400 27.72000 33.05300
O  49.99600 27.26500 32.77300
O  48.49600 28.06800 34.38200
C  49.35900 27.78600 35.55600
H  46.01100 21.27400 31.61900
H  47.76000 21.49300 25.37300
H  49.13800 27.48100 25.59600
H  47.68700 25.28200 33.67800
H  45.38600 23.34000 33.24200
H  47.88100 22.03300 33.40800
H  46.49400 22.16000 34.58000
H  47.87700 23.24700 34.60900
H  44.67300 25.40200 33.94300
H  45.25800 26.74400 33.10100
H  45.91700 27.70700 34.99700
H  46.58100 26.21200 35.70600
H  44.95600 18.74700 29.21900
H  44.93200 19.62800 30.74800
H  46.44200 18.79100 30.15700
H  47.28500 17.67300 27.98300
H  46.74000 17.24500 26.33800
H  45.50600 17.64700 27.55400
H  48.02000 23.20100 23.70600
H  49.24800 25.79300 23.78300
H  50.64800 23.16200 25.45300
H  50.81100 23.85000 23.86900
H  50.18400 22.16400 24.10500
H  46.33300 24.89900 23.86400
H  47.24500 25.46900 22.50100
H  45.53900 26.91000 24.28600
H  46.15300 27.57900 22.80900
H  47.23300 27.64200 24.20200
H  48.41900 29.97700 26.67300
H  50.03900 29.55000 26.93600
H  49.25200 30.69500 28.07200
H  47.05700 28.59400 32.47000
H  49.92900 26.85700 35.55000
H  48.74100 27.66500 36.44600
H  50.06800 28.61500 35.54200
Mg 9.36600 47.17200 28.01600
C  7.46100 46.99300 31.02300
C  12.13100 47.50100 29.90900
C  10.92600 47.88600 25.23900
C  6.17100 47.45000 26.22300
N  9.71000 47.44500 30.27900
C  8.84000 47.15900 31.20100
C  9.55200 47.32500 32.59500
C  10.95800 47.51600 32.18700
C  10.97000 47.44800 30.67600
C  11.49400 48.95100 32.61300
C  9.20900 46.05600 33.42400
C  10.22200 45.52700 34.49000
H  9.68300 44.75700 35.72900
N  11.24900 47.44900 27.64500
C  12.26200 47.57500 28.51900
C  13.52400 47.79600 27.76500
C  13.21000 47.68200 26.35500
C  11.76700 47.57500 26.34900
C  14.86200 47.88600 28.42700
C  14.11200 47.69400 25.05200
O  13.60700 47.68400 23.94400
C  15.52800 47.62600 25.06500
N  8.63800 47.53700 25.91200
C  9.56100 47.86800 25.02300
C  8.88200 48.29600 23.76200
C  7.36100 48.21400 23.95600
C  7.35600 47.66900 25.44800
C  9.33400 49.67700 23.14600
C  6.49600 47.27300 22.93900
C  6.58900 47.79100 21.48500
N  7.26800 47.28200 28.47000
C  6.16400 47.26200 27.65100
C  4.95100 47.20700 28.45100
C  5.40400 47.02800 29.73900
C  6.82200 47.06400 29.71800
C  3.55500 47.36500 27.99100
C  4.99400 46.82200 31.09800
O  3.87900 46.59900 31.56100
C  6.29800 46.80800 32.00600
C  6.18800 45.40500 32.62100
O  6.34800 44.39400 31.96900
O  5.66800 45.50600 33.88400
C  5.69300 44.24400 34.59300
H  13.03500 47.58100 30.51600
H  11.45400 48.27100 24.36300
H  5.18100 47.32100 25.78000
H  9.13900 48.17600 33.13500
H  11.59700 46.77300 32.66400
H  10.73700 49.45800 33.21100
H  11.77900 49.55400 31.75100
H  12.39100 48.82800 33.22000
H  9.13900 45.14900 32.82400
H  8.23800 46.13000 33.91400
H  10.67900 46.42000 34.91600
H  11.14400 45.07200 34.12800
H  15.33500 46.90700 28.50700
H  14.72100 48.32300 29.41600
H  15.52800 48.44100 27.76700
H  15.80500 47.09800 25.97800
H  16.14200 48.52600 25.09800
H  15.90200 47.05400 24.21500
H  9.07400 47.47200 23.07400
H  6.88700 49.19600 23.94500
H  10.18800 50.06800 23.70000
H  8.59000 50.47100 23.22000
H  9.60000 49.59300 22.09200
H  5.48000 47.20500 23.32900
H  6.84000 46.24100 22.87700
H  7.21100 48.68000 21.38400
H  5.60300 48.12600 21.16200
H  6.99900 47.01900 20.83400
H  3.42800 48.07300 27.17100
H  3.10500 47.89300 28.83200
H  3.16400 46.35500 27.87500
H  6.31500 47.60400 32.75100
H  5.37900 44.31400 35.63500
H  6.67800 43.77800 34.57800
H  5.09400 43.48600 34.08800

