158

Mg -9.03600 40.38200 39.20200
C  -9.01900 37.05100 38.23600
C  -5.76400 40.74100 38.11100
C  -9.49400 43.78300 39.23700
C  -12.47800 40.00200 39.89300
N  -7.63100 39.11400 38.21900
C  -7.81000 37.74800 38.07600
C  -6.44300 37.12000 37.58500
C  -5.38600 38.21100 38.01100
C  -6.28500 39.44300 38.14100
C  -4.50000 37.86300 39.27600
C  -6.36600 36.63400 36.11300
C  -6.87300 37.59500 35.01600
H  -7.85500 37.13900 33.97400
N  -7.85900 42.02800 38.74600
C  -6.53800 41.95100 38.40500
C  -6.07700 43.29500 38.25300
C  -7.09100 44.23600 38.40800
C  -8.18600 43.34400 38.83400
C  -4.70100 43.60900 37.96300
C  -7.04300 45.76500 38.31000
O  -6.06600 46.34400 37.88100
C  -8.21400 46.73000 38.58900
N  -10.76600 41.73700 39.44600
C  -10.63900 43.03500 39.52300
C  -11.92100 43.78000 39.96500
C  -12.84600 42.56800 40.25400
C  -12.04700 41.32400 39.73300
C  -11.77800 44.75400 41.19600
C  -14.35700 42.64300 39.82800
C  -15.46700 42.94300 40.95800
N  -10.44800 38.87900 39.12200
C  -11.85200 38.87500 39.48400
C  -12.34100 37.54300 39.35700
C  -11.26400 36.80100 38.85700
C  -10.17800 37.64800 38.71600
C  -13.66200 36.93500 39.73800
C  -10.80900 35.46200 38.53600
O  -11.38400 34.34600 38.51100
C  -9.27800 35.53100 38.22800
C  -8.42600 34.76600 39.24500
O  -8.42200 34.78300 40.47000
O  -7.60200 34.05800 38.48600
C  -6.49700 33.48000 39.23300
H  -4.70700 40.99100 38.00100
H  -9.62100 44.86800 39.26300
H  -13.47600 39.90200 40.32500
H  -6.47800 36.23600 38.22100
H  -4.71200 38.37800 37.17000
H  -4.70300 38.50500 40.13300
H  -3.43600 37.86300 39.03700
H  -4.74500 36.86200 39.63300
H  -6.96500 35.74300 35.92600
H  -5.32500 36.39000 35.89800
H  -5.98100 38.05000 34.58400
H  -7.40400 38.44000 35.45400
H  -4.49900 43.70900 36.89700
H  -3.98000 42.86100 38.29500
H  -4.34300 44.45200 38.55500
H  -8.66600 46.69900 39.58100
H  -8.86300 46.43900 37.76300
H  -7.94700 47.78100 38.47900
H  -12.29900 44.38300 39.14000
H  -12.86600 42.34100 41.32000
H  -12.33200 44.50100 42.10000
H  -12.11900 45.78000 41.05400
H  -10.74300 44.80600 41.53300
H  -14.59200 41.68900 39.35600
H  -14.47700 43.47200 39.13100
H  -16.22100 42.16100 41.05200
H  -15.92700 43.89800 40.70600
H  -14.88400 42.93000 41.87900
H  -14.18300 37.54300 40.47800
H  -13.50900 35.98200 40.24500
H  -14.22100 36.78200 38.81400
H  -9.03600 35.07800 37.26700
H  -5.91800 34.33000 39.59500
H  -5.86300 32.87900 38.58200
H  -6.88700 32.81600 40.00400
Mg -5.67800 25.29300 26.17900
C  -4.21900 26.97800 28.95000
C  -7.21100 23.15200 28.48700
C  -6.60800 23.45700 23.67000
C  -3.51800 27.13900 24.14000
N  -5.70600 25.15700 28.49100
C  -5.10900 26.00400 29.39300
C  -5.56700 25.71500 30.87200
C  -6.17200 24.26800 30.71700
C  -6.47100 24.19200 29.16600
C  -5.18800 23.14700 31.11900
C  -6.46700 26.81700 31.39400
C  -6.69600 26.94700 32.89700
H  -6.21300 25.70100 33.75300
N  -6.97300 23.71200 26.06000
C  -7.46800 23.00400 27.10000
C  -8.34200 21.99000 26.61100
C  -8.21600 22.03200 25.18900
C  -7.26300 23.14900 24.88000
C  -9.14800 20.99200 27.55100
C  -8.87600 21.09600 24.08900
O  -8.62400 21.19900 22.85600
C  -9.81500 20.06700 24.49000
N  -5.04600 25.20400 24.22900
C  -5.65400 24.41100 23.35700
C  -5.17000 24.55800 21.93300
C  -4.38500 25.88300 21.99400
C  -4.26900 26.09200 23.58400
C  -4.29500 23.41700 21.44700
C  -5.04300 27.02400 21.24200
C  -4.26800 27.67500 20.03900
N  -4.19200 26.76900 26.39500
C  -3.45400 27.46600 25.49700
C  -2.64400 28.48300 26.11900
C  -2.86700 28.29200 27.44100
C  -3.87200 27.27100 27.63500
C  -1.67100 29.38500 25.42300
C  -2.45600 28.79700 28.73200
O  -1.72500 29.75800 29.00600
C  -3.22200 27.91600 29.78300
C  -2.29200 27.05500 30.53900
O  -1.82000 25.96800 30.21600
O  -2.22200 27.59400 31.82900
C  -1.46100 26.89900 32.89600
H  -7.62100 22.46800 29.23300
H  -6.84500 22.73300 22.88700
H  -2.81600 27.59400 23.43700
H  -4.64900 25.59100 31.44600
H  -7.07100 24.21700 31.33000
H  -5.76700 22.34900 31.58300
H  -4.39900 23.42400 31.81800
H  -4.76400 22.79100 30.18000
H  -7.42800 26.63200 30.91500
H  -6.07800 27.79200 31.10100
H  -7.75600 27.18600 32.98200
H  -5.99900 27.74800 33.14100
H  -10.12200 20.61300 27.24300
H  -9.41700 21.30400 28.56000
H  -8.50400 20.12400 27.69600
H  -10.17900 19.66100 23.54700
H  -10.64800 20.62500 24.91900
H  -9.28700 19.32200 25.08600
H  -5.99700 24.63800 21.22800
H  -3.37000 25.92000 21.59800
H  -4.18100 22.68000 22.24300
H  -3.30600 23.65200 21.05500
H  -4.86400 23.01000 20.61100
H  -5.03200 27.77700 22.03000
H  -6.11800 26.95800 21.07300
H  -3.25500 27.27400 19.99300
H  -4.15400 28.75600 20.12500
H  -4.82000 27.39800 19.14100
H  -2.24800 29.95900 24.69800
H  -0.77200 28.90400 25.03700
H  -1.22500 30.15000 26.05900
H  -3.81800 28.55100 30.43700
H  -2.06500 26.12500 33.36900
H  -0.94800 27.60600 33.54800
H  -0.64400 26.35400 32.42300

