158

Mg 17.69700 53.19400 26.00900
C  19.61100 51.84500 28.59400
C  15.59400 54.26600 28.46100
C  15.51300 53.98200 23.60700
C  19.87700 51.87500 23.69200
N  17.70800 53.16400 28.33200
C  18.50100 52.45200 29.17900
C  18.10200 52.63600 30.68400
C  16.66100 53.21900 30.58400
C  16.60300 53.56800 29.05400
C  15.52400 52.19000 30.95400
C  19.01300 53.63600 31.41200
C  19.45900 53.45500 32.85900
H  18.48700 52.87100 33.89400
N  15.81500 54.07000 25.99500
C  15.19000 54.58900 27.09500
C  13.93000 55.19200 26.65700
C  13.77500 54.91500 25.28300
C  15.04100 54.29500 24.87700
C  13.02300 55.74300 27.65200
C  12.58900 55.08400 24.41900
O  12.51500 54.60800 23.33900
C  11.34700 55.87100 24.85100
N  17.68300 53.03500 23.95500
C  16.69100 53.47900 23.18500
C  17.08700 53.38300 21.64200
C  18.56700 52.73100 21.72000
C  18.79600 52.59000 23.22500
C  16.07800 52.64500 20.76700
C  19.66800 53.62300 21.03900
C  20.34100 52.97500 19.83900
N  19.36500 52.12600 26.04400
C  20.17600 51.62000 25.05900
C  21.30200 50.89600 25.62500
C  21.14600 51.13800 27.02300
C  19.95000 51.79400 27.21500
C  22.51300 50.34500 24.87400
C  21.70600 50.86300 28.39200
O  22.75200 50.39300 28.75600
C  20.64000 51.19100 29.38900
C  20.28800 49.94700 30.08100
O  19.61600 49.09500 29.62400
O  20.66400 49.94700 31.41900
C  20.14100 48.88900 32.25000
H  14.99000 54.75600 29.22700
H  14.82900 54.37400 22.85100
H  20.44200 51.33200 22.93100
H  18.12800 51.64500 31.13600
H  16.52700 54.14100 31.15100
H  15.70200 51.66700 31.89400
H  15.43300 51.49500 30.11900
H  14.58400 52.73100 31.06900
H  18.56800 54.63100 31.38500
H  19.91000 53.61800 30.79300
H  19.86300 54.40800 33.20100
H  20.36700 52.85400 32.90700
H  12.47200 56.60000 27.26700
H  13.42300 56.11500 28.59500
H  12.37900 54.95900 28.05200
H  10.84900 55.33800 25.66100
H  10.60100 55.90900 24.05700
H  11.61100 56.88900 25.13700
H  17.08500 54.37500 21.18900
H  18.44200 51.68200 21.45200
H  15.08900 52.69900 21.22200
H  16.24800 51.59000 20.55100
H  15.99500 53.12000 19.78900
H  20.39900 53.74400 21.83800
H  19.05500 54.47300 20.73600
H  21.35100 52.70700 20.14700
H  20.32400 53.67000 19.00000
H  19.83600 52.15400 19.32800
H  22.79600 49.29800 24.98500
H  23.43000 50.88200 25.11600
H  22.36200 50.51800 23.80800
H  21.07200 51.90800 30.08600
H  20.99500 48.58000 32.85300
H  19.77400 48.04600 31.66400
H  19.31700 49.26300 32.85700
Mg -4.80300 25.73000 26.42100
C  -3.19500 26.85000 29.30700
C  -6.64400 23.58000 28.28300
C  -5.82000 24.29200 23.57600
C  -2.33600 27.68100 24.58300
N  -4.81600 25.18400 28.53000
C  -4.22700 25.92600 29.54700
C  -4.86600 25.58300 30.93000
C  -5.76600 24.28400 30.66300
C  -5.75100 24.30000 29.09900
C  -5.17500 22.91300 31.03500
C  -5.63300 26.69400 31.77200
C  -5.67400 26.57300 33.28400
H  -5.41900 25.24100 34.03100
N  -6.18900 24.23300 26.02200
C  -6.90400 23.48700 26.92000
C  -7.87200 22.65700 26.23700
C  -7.65400 22.86300 24.85000
C  -6.50000 23.79300 24.73800
C  -8.86300 21.88400 27.02800
C  -8.32700 22.23000 23.65400
O  -7.96100 22.34800 22.49800
C  -9.53400 21.37000 23.86100
N  -3.89400 25.72700 24.41700
C  -4.63000 25.04000 23.40100
C  -4.18200 25.60700 21.96500
C  -3.00400 26.60900 22.37900
C  -3.06200 26.67700 23.88300
C  -3.64100 24.59000 20.89000
C  -3.25400 28.04700 21.71100
C  -2.71100 28.16600 20.28200
N  -3.11500 27.07600 26.75800
C  -2.25300 27.77100 25.96100
C  -1.39300 28.55400 26.81700
C  -1.77700 28.26900 28.09800
C  -2.78400 27.33200 27.98100
C  -0.23000 29.53100 26.45500
C  -1.43900 28.53700 29.45100
O  -0.53000 29.23600 29.92100
C  -2.37200 27.64600 30.26200
C  -1.55000 26.79700 31.09500
O  -0.88900 25.77600 30.70600
O  -1.57800 27.34600 32.36500
C  -1.00200 26.46100 33.39100
H  -7.25600 23.00000 28.97700
H  -6.27900 23.99800 22.63000
H  -1.78500 28.42800 24.00800
H  -4.07800 25.23800 31.59900
H  -6.72900 24.50600 31.12300
H  -4.41800 23.03700 31.81000
H  -4.80200 22.27300 30.23600
H  -6.02600 22.44600 31.53100
H  -6.66800 26.66500 31.43300
H  -5.12500 27.61400 31.48300
H  -6.69600 26.81200 33.57600
H  -4.97300 27.33800 33.61700
H  -9.63900 22.59500 27.31400
H  -8.38000 21.52600 27.93700
H  -9.21400 20.98100 26.53000
H  -9.17100 20.61600 24.55900
H  -9.76700 21.00100 22.86200
H  -10.38900 21.97500 24.16500
H  -5.12800 25.94300 21.53900
H  -2.08000 26.22500 21.94700
H  -4.12800 24.68900 19.92000
H  -3.89900 23.56600 21.16000
H  -2.60300 24.82800 20.65900
H  -2.81500 28.91200 22.20900
H  -4.31500 28.08900 21.46100
H  -2.12100 27.28900 20.01900
H  -1.96300 28.95400 20.19400
H  -3.43100 28.52200 19.54500
H  -0.53400 30.24600 25.69100
H  0.62100 28.94000 26.11700
H  0.18500 30.09100 27.29400
H  -3.02300 28.20700 30.93300
H  0.08800 26.47200 33.37200
H  -1.41900 25.46100 33.27900
H  -1.28200 26.74100 34.40600

