158

Mg 17.60600 -0.55900 27.31000
C  16.16600 1.07100 30.09000
C  19.36700 -2.57200 29.33000
C  18.68700 -1.78900 24.58600
C  15.80800 1.83800 25.28500
N  17.81700 -0.64300 29.53800
C  17.08300 0.05300 30.48700
C  17.62400 -0.34300 31.95600
C  18.65200 -1.55900 31.59400
C  18.61800 -1.67900 30.06100
C  20.09700 -1.38000 32.07000
C  16.54200 -0.72900 33.02200
C  16.56300 -0.04300 34.43400
H  17.84300 0.60500 34.99600
N  18.86200 -1.96000 27.03300
C  19.45700 -2.70600 27.98200
C  20.33600 -3.64800 27.28100
C  20.12000 -3.53700 25.89800
C  19.13000 -2.39800 25.77700
C  21.21300 -4.70300 28.03500
C  20.42200 -4.44500 24.76200
O  20.00200 -4.19100 23.64800
C  21.26800 -5.69800 25.03500
N  17.38300 0.07800 25.23700
C  17.86400 -0.69400 24.31600
C  17.77900 -0.14300 22.87100
C  16.67800 1.02700 23.15400
C  16.68500 1.04900 24.64400
C  19.24300 0.40500 22.41800
C  15.27000 0.79100 22.48100
C  14.20300 -0.09300 23.19700
N  16.21600 1.04400 27.54200
C  15.58200 1.90100 26.63600
C  14.71000 2.73200 27.31000
C  14.84600 2.43600 28.68500
C  15.79800 1.39700 28.72800
C  13.87300 3.69100 26.69800
C  14.39100 2.74900 30.04800
O  13.51700 3.52400 30.50100
C  15.33100 1.97500 30.98000
C  16.22700 2.82300 31.74000
O  17.29100 3.33100 31.41300
O  15.53600 3.13800 32.87400
C  16.21600 4.03700 33.78500
H  20.09300 -3.19100 29.86000
H  18.99700 -2.15400 23.60500
H  15.18000 2.50000 24.68300
H  18.27700 0.44600 32.32900
H  18.27400 -2.53200 31.90800
H  20.38700 -2.33900 32.49700
H  20.22600 -0.50500 32.70800
H  20.78600 -1.15400 31.25600
H  16.52500 -1.79600 33.24300
H  15.54400 -0.66300 32.58900
H  16.25500 -0.73700 35.21700
H  15.77300 0.68900 34.26600
H  22.14800 -4.76200 27.47900
H  20.64000 -5.62900 28.08800
H  21.56900 -4.32500 28.99300
H  22.28500 -5.32800 25.16600
H  21.19800 -6.28900 24.12200
H  21.02900 -6.28500 25.92300
H  17.45200 -0.94700 22.21100
H  17.04100 2.00200 22.82800
H  20.07100 0.21400 23.10100
H  19.17600 1.47500 22.22100
H  19.51600 -0.11200 21.49800
H  15.37600 0.40100 21.46900
H  14.87900 1.77400 22.22100
H  13.48700 -0.53100 22.50200
H  13.59500 0.59500 23.78300
H  14.69300 -0.93300 23.69000
H  14.40400 4.51600 26.22400
H  13.32800 4.21100 27.48600
H  13.23000 3.34200 25.89000
H  14.81900 1.29700 31.66300
H  15.54400 4.77200 34.22900
H  17.01900 4.58600 33.29300
H  16.71000 3.42700 34.54100
Mg 35.48500 2.83200 30.51500
C  33.09200 3.83700 32.85100
C  37.85700 2.77300 32.97800
C  37.72000 1.97700 28.24200
C  33.08800 3.36900 27.93400
N  35.41300 3.20800 32.70900
C  34.31100 3.47700 33.44800
C  34.63100 3.12900 34.97000
C  36.24300 3.33900 34.94100
C  36.54300 3.05800 33.50300
C  36.76800 4.74700 35.39100
C  34.06600 1.73100 35.34700
C  33.99900 1.40000 36.83200
H  34.74400 2.17200 37.81700
N  37.51900 2.38700 30.59500
C  38.33900 2.41300 31.70200
C  39.65300 2.03100 31.34000
C  39.59700 1.75400 29.95400
C  38.27300 2.07000 29.50800
C  40.74000 1.94000 32.35700
C  40.73200 1.22800 29.00800
O  40.66900 1.09200 27.80000
C  41.92300 0.71100 29.58800
N  35.34000 2.52400 28.44300
C  36.44400 2.22200 27.71100
C  36.16400 2.23800 26.18700
C  34.62200 2.46600 26.19800
C  34.35000 2.89300 27.60300
C  37.02000 3.33800 25.43700
C  33.67900 1.26400 25.81500
C  32.55500 1.52100 24.75700
N  33.51000 3.56700 30.37200
C  32.68100 3.70700 29.26900
C  31.35900 4.25600 29.70900
C  31.51000 4.31800 31.11600
C  32.79600 3.81800 31.48900
C  30.18300 4.67900 28.90900
C  30.85600 4.68400 32.28900
O  29.76600 5.22500 32.49900
C  31.73600 4.12900 33.47000
C  31.95900 5.20000 34.45100
O  32.56600 6.25400 34.32700
O  31.08800 4.82900 35.49800
C  31.00800 5.77500 36.55900
H  38.64500 2.90300 33.72400
H  38.51600 1.86500 27.50200
H  32.42200 3.53300 27.08400
H  34.13700 3.86100 35.60900
H  36.70100 2.55000 35.53700
H  35.90000 5.17400 35.89300
H  37.11400 5.20800 34.46600
H  37.67000 4.61300 35.98900
H  34.59400 0.90000 34.87800
H  33.07000 1.78000 34.90700
H  34.13000 0.32700 36.97300
H  32.96300 1.59000 37.11400
H  40.57200 0.98200 32.85000
H  40.79700 2.73900 33.09600
H  41.71300 1.98000 31.86900
H  42.44800 0.07200 28.87900
H  41.69500 0.19400 30.52000
H  42.55800 1.55000 29.87300
H  36.30600 1.20400 25.87200
H  34.45800 3.31600 25.53500
H  36.40900 4.06900 24.90800
H  37.58600 2.91900 24.60500
H  37.59800 3.92300 26.15300
H  33.27100 0.68000 26.64000
H  34.24400 0.46500 25.33500
H  32.86400 1.19800 23.76300
H  32.35700 2.59300 24.77100
H  31.65700 0.99600 25.08200
H  29.55600 5.33400 29.51300
H  29.64500 3.75800 28.68600
H  30.49800 5.20200 28.00600
H  31.30400 3.25300 33.95500
H  30.45900 5.36200 37.40600
H  30.56400 6.74100 36.31900
H  32.04800 5.92700 36.84700

