158

Mg 40.85000 8.35900 29.47800
C  42.59800 9.90900 32.13800
C  38.48000 7.22700 31.83300
C  39.43600 6.50500 27.08300
C  43.56100 9.07000 27.36500
N  40.59300 8.56300 31.75300
C  41.35800 9.36700 32.58900
C  40.78900 9.48300 33.95700
C  39.51100 8.46500 33.81600
C  39.48100 8.11600 32.35600
C  39.48200 7.30700 34.82900
C  40.44300 10.92800 34.48500
C  41.06000 11.22900 35.83300
H  40.17200 11.95200 36.80300
N  39.14200 7.11800 29.43200
C  38.29600 6.73900 30.50500
C  37.19500 6.06200 29.95500
C  37.36200 5.92300 28.56800
C  38.64600 6.49600 28.29200
C  36.09200 5.45300 30.76600
C  36.45200 5.23900 27.43100
O  36.77100 5.16900 26.19100
C  35.14500 4.77800 27.84200
N  41.36600 7.83700 27.46600
C  40.65500 7.07500 26.71300
C  41.27000 6.92900 25.31200
C  42.59800 7.68900 25.40600
C  42.49600 8.26000 26.82800
C  41.37800 5.47100 24.78800
C  42.84400 8.71700 24.28300
C  41.93200 9.95200 24.31100
N  42.64800 9.30800 29.62300
C  43.69900 9.49200 28.73300
C  44.73600 10.24800 29.32500
C  44.34600 10.43700 30.64600
C  43.06400 9.81800 30.80100
C  45.99300 10.73100 28.68100
C  44.83300 11.00400 31.90100
O  45.91800 11.47300 32.27300
C  43.59200 10.77500 32.89500
C  44.18000 10.12300 34.09800
O  44.55300 9.00500 34.23100
O  44.33900 11.13300 35.03100
C  44.98300 10.91100 36.28200
H  37.72800 7.19200 32.62400
H  38.96000 5.88500 26.32100
H  44.28800 9.40600 26.62200
H  41.60900 9.07700 34.55100
H  38.59100 9.03600 33.94300
H  39.44900 6.29200 34.43200
H  38.58500 7.30300 35.44700
H  40.33400 7.37400 35.50500
H  39.35500 10.93800 34.55000
H  40.68900 11.72000 33.77800
H  41.85700 11.87300 35.46100
H  41.55500 10.40300 36.34400
H  36.17200 4.36600 30.77200
H  35.05100 5.55800 30.46000
H  36.11500 5.72900 31.82000
H  34.71200 4.19600 27.02800
H  34.58700 5.61100 28.27000
H  35.28200 3.94100 28.52600
H  40.76800 7.54900 24.57000
H  43.34700 6.89700 25.43800
H  40.83000 5.41800 23.84800
H  40.95300 4.71300 25.44600
H  42.41200 5.27100 24.50700
H  42.85900 8.24800 23.29900
H  43.84700 9.13200 24.38100
H  41.15600 9.95400 25.07700
H  41.42700 10.11600 23.35900
H  42.56900 10.79200 24.58900
H  46.24200 9.89700 28.02400
H  46.74300 10.86900 29.46000
H  45.85000 11.71300 28.23000
H  43.17400 11.76400 33.08600
H  44.28400 10.44900 36.97900
H  45.36700 11.81400 36.75600
H  45.72200 10.19800 35.91600
Mg -11.62200 16.20300 43.12500
C  -8.24600 16.88800 43.15300
C  -12.27700 19.52200 41.99300
C  -14.76500 15.33800 42.58100
C  -10.80700 12.71400 43.49600
N  -10.41200 17.94000 42.50700
C  -9.04300 17.96700 42.79900
C  -8.52400 19.35700 42.35800
C  -9.82600 20.23800 42.42100
C  -10.92800 19.20100 42.30900
C  -9.92100 20.93200 43.81800
C  -7.86700 19.30400 40.89400
C  -6.59600 20.09500 40.55400
H  -5.46000 19.38500 39.74300
N  -13.28900 17.25600 42.21700
C  -13.36800 18.57500 41.84900
C  -14.74200 18.97100 41.61400
C  -15.46800 17.73100 41.61600
C  -14.51500 16.72000 42.20200
C  -15.20200 20.34900 41.26600
C  -16.94800 17.69300 41.27700
O  -17.55500 18.70300 41.01800
C  -17.67100 16.30700 41.12400
N  -12.59900 14.30400 43.02400
C  -13.97300 14.29400 42.94500
C  -14.53600 12.83800 43.17400
C  -13.32100 11.92600 43.18100
C  -12.14900 13.00200 43.26100
C  -15.56200 12.70100 44.26100
C  -13.19800 11.00400 41.92400
C  -13.58900 9.52900 42.19200
N  -9.87500 14.97000 43.43800
C  -9.73500 13.59800 43.56600
C  -8.28900 13.26900 43.71900
C  -7.62800 14.55000 43.62300
C  -8.71200 15.50700 43.34900
C  -7.69000 11.91300 43.93800
C  -6.38700 15.28500 43.60200
O  -5.25600 14.95800 43.90100
C  -6.70000 16.75700 43.11300
C  -6.02500 17.77400 43.88000
O  -6.16700 17.92000 45.07600
O  -5.16300 18.48100 43.09200
C  -4.36100 19.57800 43.64700
H  -12.46300 20.56400 41.72600
H  -15.80100 15.02600 42.42900
H  -10.48100 11.70900 43.77400
H  -7.75900 19.77100 43.01500
H  -9.77500 21.03000 41.67400
H  -9.04300 21.43400 44.22500
H  -10.04000 20.07700 44.48200
H  -10.70100 21.68600 43.92400
H  -8.67800 19.61900 40.23800
H  -7.58900 18.26500 40.71800
H  -6.22300 20.70600 41.37600
H  -6.89900 20.86900 39.84900
H  -15.57700 20.39200 40.24400
H  -14.36200 21.02700 41.40900
H  -15.98800 20.49000 42.00900
H  -18.56600 16.52600 40.54200
H  -17.92700 15.94000 42.11800
H  -17.03000 15.59100 40.60900
H  -15.14000 12.70300 42.27700
H  -13.24500 11.35400 44.10500
H  -15.39000 11.67800 44.59500
H  -16.60300 12.74000 43.94100
H  -15.33000 13.42800 45.03900
H  -12.14800 11.00200 41.63200
H  -13.82800 11.40200 41.12800
H  -12.67200 8.94000 42.17000
H  -14.37900 9.30900 41.47400
H  -14.00200 9.44300 43.19700
H  -6.62300 12.10600 44.05400
H  -7.91000 11.30600 43.06000
H  -8.04300 11.38800 44.82600
H  -6.35300 16.75800 42.07900
H  -3.58700 19.12800 44.27000
H  -4.88200 20.11100 44.44300
H  -3.90400 20.20100 42.87800

