158

Mg 2.30500 -1.99100 44.43700
C  5.51600 -1.14100 43.62200
C  1.03600 0.60500 42.72400
C  -0.77000 -3.29100 44.82400
C  3.61800 -5.17100 45.64700
N  3.21900 -0.50400 43.20900
C  4.52400 -0.31300 43.06600
C  4.83000 0.94200 42.24000
C  3.31600 1.63000 42.06500
C  2.45200 0.49700 42.69300
C  3.11900 3.09200 42.71800
C  5.56900 0.80800 40.91100
C  6.51600 1.97900 40.55900
H  6.82800 2.30300 39.08600
N  0.35800 -1.49300 43.70300
C  0.06900 -0.26900 43.15400
C  -1.39200 -0.14000 42.98300
C  -1.89000 -1.23000 43.73100
C  -0.73200 -2.10900 44.09900
C  -2.08500 1.03400 42.22700
C  -3.31000 -1.49300 44.10900
O  -4.08700 -0.70300 43.63700
C  -3.77300 -2.57800 45.02900
N  1.49700 -3.99300 45.10700
C  0.18000 -4.18400 45.25600
C  -0.15400 -5.55900 45.89800
C  1.30100 -6.22200 45.89800
C  2.21200 -5.02800 45.60500
C  -0.97400 -5.50300 47.21300
C  1.68300 -7.45000 44.98000
C  2.60800 -8.53000 45.54700
N  4.12000 -2.94800 44.68900
C  4.56400 -4.18600 45.19500
C  5.99500 -4.23800 45.34200
C  6.44400 -3.08500 44.71300
C  5.25400 -2.29000 44.31200
C  6.75800 -5.39100 45.91100
C  7.55900 -2.27300 44.37000
O  8.75800 -2.37200 44.58100
C  7.03900 -1.06500 43.56300
C  7.60000 0.13200 44.27200
O  7.22300 0.54000 45.35200
O  8.65600 0.57100 43.48300
C  9.10100 1.89700 43.91300
H  0.54400 1.39000 42.14700
H  -1.74300 -3.78500 44.85900
H  4.03800 -6.11400 46.00200
H  5.45900 1.62100 42.81600
H  2.95500 1.71900 41.04000
H  2.42500 3.19700 43.55200
H  2.78300 3.81700 41.97600
H  4.05000 3.56700 43.02900
H  4.88600 0.61900 40.08200
H  6.17600 -0.09100 41.01600
H  7.40600 1.68600 41.11500
H  6.14500 2.86000 41.08200
H  -2.97600 0.66500 41.72000
H  -1.39500 1.43000 41.48200
H  -2.32600 1.86400 42.89100
H  -4.82500 -2.44600 45.28200
H  -2.94700 -2.75700 45.71800
H  -3.90500 -3.48400 44.43800
H  -0.77200 -6.12400 45.20000
H  1.53900 -6.43100 46.94100
H  -1.17900 -4.43400 47.25400
H  -0.54300 -5.70600 48.19300
H  -1.90100 -6.07500 47.17800
H  2.32500 -6.92700 44.27100
H  0.84300 -7.95300 44.50100
H  3.65500 -8.54200 45.24600
H  2.04000 -9.42900 45.30700
H  2.46500 -8.59500 46.62600
H  6.72700 -6.26000 45.25300
H  6.30000 -5.81100 46.80700
H  7.76200 -5.01400 46.10300
H  7.36800 -0.98800 42.52700
H  9.86500 2.30400 43.25100
H  9.30800 2.01300 44.97700
H  8.22500 2.53000 43.77100
Mg 5.32000 55.12700 41.36600
C  4.77200 51.57900 40.79600
C  8.40800 54.85500 40.00300
C  5.48000 58.40900 41.54100
C  1.82200 55.13500 42.54900
N  6.40200 53.36000 40.44600
C  5.95500 52.10100 40.25400
C  7.11800 51.21200 39.64800
C  8.38100 52.17900 39.78000
C  7.71700 53.56200 40.07000
C  9.42500 51.83900 40.88300
C  6.84800 50.77100 38.18400
C  6.13900 51.77900 37.26500
H  6.88500 52.09700 35.92200
N  6.68400 56.42100 40.69800
C  7.93300 56.12400 40.29800
C  8.66500 57.37200 40.10200
C  7.88700 58.49700 40.56800
C  6.59100 57.81100 40.99700
C  10.13900 57.35700 39.60200
C  8.32700 59.88600 40.55200
O  9.44700 60.16500 40.16100
C  7.46900 61.01200 41.10700
N  3.71900 56.55400 41.80200
C  4.16200 57.86400 41.88100
C  3.05300 58.74700 42.20300
C  1.95400 57.72700 42.77300
C  2.44800 56.42300 42.25700
C  3.38800 59.79500 43.27200
C  0.63100 58.12900 42.09700
C  -0.53200 58.01600 42.98000
N  3.65900 53.65800 41.78500
C  2.35900 53.84700 42.29500
C  1.71500 52.58300 42.34100
C  2.62700 51.64900 41.87400
C  3.75000 52.37900 41.46400
C  0.35300 52.30200 42.86500
C  2.88500 50.25700 41.70800
O  2.22000 49.25100 41.92700
C  4.29100 50.13900 40.99500
C  4.13800 49.25200 39.77800
O  3.83500 49.60900 38.65100
O  4.46100 47.96600 40.09300
C  4.49300 47.00400 38.97300
H  9.49600 54.83500 39.91500
H  5.71100 59.45300 41.76000
H  0.77300 55.13800 42.85100
H  7.29600 50.29300 40.20700
H  8.91800 52.25800 38.83500
H  9.28700 50.80400 41.19800
H  9.35700 52.46300 41.77400
H  10.41500 51.95800 40.44200
H  6.53600 49.74000 38.35100
H  7.84300 50.65700 37.75200
H  6.00000 52.68500 37.85500
H  5.12100 51.40200 37.16600
H  10.35500 58.05800 38.79500
H  10.37200 56.48500 38.99000
H  10.84800 57.52100 40.41300
H  6.55700 61.17800 40.53400
H  7.88500 61.98300 40.83600
H  7.36300 60.94200 42.19000
H  2.77200 59.28100 41.29500
H  2.02700 57.69200 43.86000
H  4.24600 59.57600 43.90800
H  2.56500 59.93000 43.97500
H  3.47100 60.76000 42.77400
H  0.57100 57.64100 41.12400
H  0.68400 59.15500 41.73400
H  -0.36500 57.41200 43.87100
H  -1.32900 57.61200 42.35500
H  -0.73700 58.99800 43.40600
H  0.18300 53.04200 43.64600
H  0.23800 51.28100 43.22900
H  -0.25800 52.54800 41.99700
H  4.85300 49.59700 41.75500
H  5.33500 46.31400 39.01600
H  4.76000 47.35900 37.97800
H  3.66800 46.29300 38.99900

