158

Mg 24.13700 -5.56000 45.33900
C  26.19600 -3.13900 43.86200
C  21.41700 -4.28400 43.55500
C  22.50900 -8.36600 45.83400
C  26.98900 -6.76700 47.03900
N  23.84500 -3.86500 43.93200
C  24.84400 -3.03300 43.47600
C  24.34700 -2.10400 42.34300
C  22.78700 -2.29500 42.48000
C  22.62100 -3.58200 43.40700
C  21.97700 -0.96900 42.92600
C  24.91400 -2.49300 40.94400
C  25.39800 -1.31000 40.07100
H  25.07900 -1.44000 38.56100
N  22.18000 -6.16900 44.94300
C  21.16800 -5.49300 44.23000
C  20.05600 -6.28200 44.09000
C  20.32000 -7.45400 44.75900
C  21.71700 -7.35200 45.20900
C  18.72800 -5.83900 43.36500
C  19.31800 -8.61600 44.99200
O  18.19900 -8.49300 44.46700
C  19.59300 -9.69300 45.97100
N  24.66700 -7.32700 46.39500
C  23.76900 -8.31100 46.44900
C  24.44700 -9.49700 47.18100
C  25.90000 -9.00500 47.63000
C  25.90200 -7.59900 47.00800
C  23.52600 -10.07100 48.36600
C  27.01400 -9.93300 47.10100
C  28.19300 -10.28400 47.96400
N  26.18900 -4.93700 45.57200
C  27.15600 -5.55900 46.33500
C  28.49800 -4.85900 46.20600
C  28.16800 -3.87700 45.16400
C  26.71100 -4.02800 44.83300
C  29.80500 -5.38900 46.70000
C  28.71500 -2.86900 44.15000
O  29.91400 -2.51400 43.88300
C  27.49200 -2.34300 43.39200
C  27.45400 -0.88100 43.60800
O  26.87300 -0.35500 44.57000
O  27.98100 -0.23900 42.55800
C  27.85100 1.22900 42.61800
H  20.61000 -3.91800 42.91600
H  22.01700 -9.32900 45.98800
H  27.81600 -7.18500 47.61600
H  24.57200 -1.08100 42.64500
H  22.38400 -2.63900 41.52800
H  22.64000 -0.11100 43.04100
H  21.70500 -1.24200 43.94500
H  21.11100 -0.76700 42.29500
H  24.12500 -2.89500 40.30800
H  25.70200 -3.22500 41.11600
H  26.46800 -1.12600 40.16600
H  24.97500 -0.44000 40.57400
H  18.79700 -6.02100 42.29200
H  18.74200 -4.76600 43.55700
H  17.76900 -6.24000 43.69200
H  18.62700 -10.02300 46.35200
H  20.17100 -9.26900 46.79200
H  20.16300 -10.44800 45.42900
H  24.48700 -10.30300 46.44900
H  25.83800 -8.89300 48.71300
H  24.13100 -10.39500 49.21200
H  23.16300 -11.03200 48.00100
H  22.68400 -9.41200 48.58000
H  27.34500 -9.50900 46.15300
H  26.56700 -10.87900 46.79600
H  28.13500 -11.32400 48.28800
H  28.17300 -9.63200 48.83800
H  29.01100 -10.12200 47.26100
H  30.13700 -4.90200 47.61700
H  30.55000 -5.36300 45.90500
H  29.86300 -6.40700 47.08400
H  27.63000 -2.48500 42.32000
H  27.83100 1.56300 41.58100
H  28.76700 1.66200 43.02100
H  26.99900 1.68400 43.12200
Mg -11.77400 38.40000 42.27900
C  -9.57400 35.93300 41.05400
C  -9.85700 40.72100 40.53200
C  -14.27700 40.54300 42.58200
C  -13.98400 35.79600 43.47400
N  -10.05600 38.27300 40.81500
C  -9.19600 37.19100 40.61700
C  -7.84900 37.53300 39.92200
C  -8.02200 39.04400 39.74400
C  -9.41300 39.39100 40.35800
C  -6.89100 39.89300 40.30500
C  -7.63400 36.82300 38.55500
C  -6.31600 36.03800 38.35900
H  -5.47100 36.31600 37.11300
N  -11.94800 40.41300 41.79000
C  -11.04500 41.14200 41.09400
C  -11.56600 42.46700 41.00000
C  -12.83300 42.48100 41.54500
C  -13.07000 41.11000 42.04500
C  -10.74200 43.66100 40.42800
C  -13.78500 43.67800 41.54800
O  -13.46000 44.74700 41.05800
C  -15.18200 43.57800 42.06800
N  -13.93500 38.18100 42.97200
C  -14.66600 39.27700 42.99200
C  -16.06700 38.95400 43.54700
C  -15.94000 37.35300 43.84700
C  -14.50900 37.09700 43.45900
C  -16.67600 39.84400 44.72600
C  -16.94500 36.46300 43.11900
C  -18.17400 36.01600 43.86300
N  -11.84100 36.25500 42.23500
C  -12.75300 35.40700 42.82600
C  -12.10800 34.07000 42.83700
C  -10.86400 34.23600 42.20100
C  -10.78200 35.57200 41.79100
C  -12.60900 32.79200 43.44600
C  -9.58400 33.58000 41.83100
O  -9.15500 32.44900 42.13000
C  -8.73000 34.56600 41.00800
C  -7.39500 34.58600 41.63000
O  -6.46700 33.80800 41.32100
O  -7.28000 35.48900 42.68600
C  -6.04700 35.24200 43.53500
H  -9.14200 41.43100 40.11100
H  -15.07500 41.28500 42.64300
H  -14.65200 35.09100 43.97300
H  -7.03900 37.27400 40.60400
H  -8.09600 39.36100 38.70400
H  -7.09500 40.07300 41.36100
H  -6.70700 40.82100 39.76300
H  -5.97300 39.31500 40.19900
H  -7.68300 37.51100 37.71100
H  -8.51000 36.20600 38.35400
H  -6.63400 34.99600 38.32800
H  -5.78500 36.24600 39.28800
H  -10.80000 43.75200 39.34400
H  -9.71700 43.42000 40.70900
H  -11.00600 44.58800 40.93800
H  -15.74200 44.47800 41.81700
H  -15.06700 43.38900 43.13500
H  -15.73600 42.77500 41.58100
H  -16.76000 39.14500 42.72800
H  -16.07100 37.17100 44.91400
H  -15.75300 40.33200 45.04000
H  -17.07700 39.31000 45.58800
H  -17.34200 40.59600 44.30200
H  -16.48000 35.55000 42.74800
H  -17.20200 36.95300 42.17900
H  -18.79800 35.66900 43.03900
H  -18.66800 36.77400 44.47200
H  -17.97200 35.11900 44.44800
H  -12.84100 32.07800 42.65600
H  -13.48800 33.00700 44.05400
H  -11.80500 32.42700 44.08400
H  -8.63600 34.37400 39.93900
H  -6.16400 35.80800 44.45900
H  -5.11500 35.51600 43.04000
H  -6.00000 34.20800 43.87700

