158

Mg 17.15700 -1.77900 27.69800
C  16.33600 0.18500 30.42600
C  19.04200 -3.79500 29.84700
C  18.35900 -3.46500 25.07300
C  15.81900 0.68600 25.56400
N  17.66500 -1.77000 29.89400
C  17.07900 -0.94400 30.82500
C  17.57900 -1.34200 32.20400
C  18.56000 -2.52200 31.97300
C  18.39600 -2.72800 30.46000
C  20.07400 -2.17400 32.27000
C  16.42500 -1.65100 33.19200
C  16.42100 -0.77600 34.49000
H  17.78000 -0.48000 35.18700
N  18.34300 -3.46800 27.52700
C  18.97300 -4.23800 28.49000
C  19.50700 -5.47500 27.86000
C  19.37800 -5.28400 26.44400
C  18.62400 -4.05600 26.34700
C  19.85300 -6.67100 28.67700
C  19.88800 -6.16400 25.33100
O  19.60500 -6.01500 24.12600
C  20.71700 -7.32900 25.68200
N  16.97000 -1.51300 25.60000
C  17.71900 -2.25600 24.82500
C  17.66700 -1.64000 23.40900
C  16.52600 -0.51700 23.51400
C  16.37700 -0.44300 24.98900
C  19.11600 -1.04100 22.87400
C  15.16100 -1.00100 22.93200
C  14.21100 -0.05900 22.25000
N  16.16800 0.03100 27.89700
C  15.66000 0.91700 26.97700
C  14.93800 1.98800 27.68100
C  15.24400 1.76800 29.02800
C  16.00500 0.54600 29.12600
C  14.22900 3.10300 27.11300
C  15.05200 2.23000 30.34600
O  14.41100 3.17900 30.75900
C  15.87300 1.29000 31.33800
C  16.90100 2.10600 32.05500
O  17.99500 2.39200 31.68400
O  16.42300 2.62100 33.25500
C  17.24500 3.49700 34.09700
H  19.56800 -4.38500 30.60100
H  18.95400 -3.73800 24.19900
H  15.40000 1.42400 24.87700
H  18.06800 -0.49300 32.68200
H  18.32600 -3.44200 32.50900
H  20.35000 -1.23700 32.75500
H  20.76800 -2.20900 31.43000
H  20.39300 -2.95900 32.95600
H  16.41700 -2.72700 33.36500
H  15.50500 -1.48200 32.63200
H  15.94700 -1.27200 35.33700
H  15.76100 0.08700 34.40100
H  19.39300 -6.71600 29.66500
H  20.93300 -6.53200 28.64700
H  19.72300 -7.66300 28.24400
H  21.54900 -7.07800 26.34100
H  21.05000 -7.77200 24.74400
H  20.10800 -8.11800 26.12500
H  17.35800 -2.44600 22.74300
H  16.78400 0.42100 23.02200
H  19.77000 -1.04900 23.74600
H  19.08200 -0.02400 22.48400
H  19.71900 -1.61700 22.17200
H  14.47400 -1.52000 23.60100
H  15.45000 -1.66000 22.11400
H  13.23200 -0.15700 22.71900
H  14.13200 -0.22400 21.17600
H  14.55400 0.95600 22.44900
H  13.49600 2.65600 26.44300
H  14.82000 3.83800 26.56600
H  13.71200 3.62300 27.91900
H  15.17500 0.76200 31.98800
H  17.74900 2.93800 34.88500
H  16.41900 4.12300 34.43300
H  17.91100 4.05900 33.44100
Mg 40.62400 41.75600 26.51300
C  39.94600 43.85400 29.39200
C  41.70000 39.32500 28.80600
C  41.49000 39.67600 23.90800
C  40.00200 44.34500 24.46000
N  40.85400 41.70400 28.83900
C  40.38900 42.55700 29.81300
C  40.38700 42.05600 31.24300
C  40.98400 40.60100 31.05600
C  41.18500 40.52900 29.46700
C  42.32100 40.44900 31.79200
C  38.96400 42.02900 31.88900
C  38.81300 41.19400 33.12500
H  38.10500 41.88400 34.32200
N  41.55100 39.85600 26.40800
C  41.84500 39.03700 27.46600
C  42.21300 37.71400 26.99300
C  42.17900 37.72800 25.54600
C  41.81100 39.13700 25.20900
C  42.55300 36.51300 27.94100
C  42.52300 36.69600 24.53700
O  42.69600 36.93500 23.30800
C  42.73400 35.23400 25.06500
N  40.69100 41.98900 24.48700
C  40.98700 40.96800 23.56400
C  41.11800 41.53400 22.14200
C  40.35000 42.91300 22.33900
C  40.43700 43.15600 23.87900
C  42.61500 41.64700 21.78300
C  38.90500 42.77000 21.93600
C  38.27600 44.07800 21.33800
N  39.96500 43.63300 26.77800
C  39.67800 44.60700 25.84100
C  39.20000 45.83800 26.47300
C  39.26800 45.59500 27.85900
C  39.67800 44.25800 28.01900
C  38.96800 47.13500 25.72000
C  39.06200 46.19000 29.18900
O  38.81300 47.34200 29.54100
C  39.34300 45.01100 30.16000
C  40.33700 45.47700 31.12900
O  41.47800 45.72000 30.91800
O  39.68900 45.85000 32.30100
C  40.52800 46.43400 33.36200
H  41.64700 38.57000 29.59300
H  41.62200 38.94400 23.10800
H  39.72200 45.12800 23.75100
H  41.06300 42.62900 31.87800
H  40.49000 39.72000 31.46500
H  43.09100 40.27100 31.04000
H  42.15900 39.60000 32.45600
H  42.58900 41.16000 32.57300
H  38.28800 41.60900 31.14400
H  38.70800 43.04500 32.18900
H  39.77000 40.78500 33.44800
H  38.21000 40.32200 32.87000
H  43.53100 36.17000 27.60100
H  41.85900 35.67300 27.95000
H  42.61600 36.78800 28.99400
H  41.87700 34.89300 25.64600
H  43.68500 35.16800 25.59200
H  42.84100 34.61900 24.17100
H  40.57500 40.86900 21.47000
H  40.81300 43.75900 21.83000
H  43.17500 41.08800 22.53200
H  42.94800 42.68400 21.79500
H  42.83900 41.11900 20.85600
H  38.40300 42.42100 22.83800
H  38.67000 42.05100 21.15200
H  37.60000 43.69700 20.57200
H  39.00200 44.82700 21.02400
H  37.60500 44.52800 22.06900
H  38.99100 48.04500 26.31900
H  37.98500 47.16500 25.25000
H  39.79200 47.24700 25.01400
H  38.50300 44.64100 30.74800
H  41.42800 45.83200 33.48300
H  39.96800 46.48600 34.29600
H  40.74100 47.48900 33.18900

