158

Mg -2.44800 17.24600 27.43700
C  -2.65700 15.14800 30.14700
C  -3.14000 19.94900 29.47400
C  -2.13000 19.28300 24.80000
C  -2.32800 14.56800 25.25000
N  -2.91200 17.47600 29.54300
C  -2.85200 16.48900 30.47800
C  -3.21900 17.02400 31.87900
C  -3.30300 18.54400 31.62800
C  -3.17700 18.69500 30.11600
C  -4.51200 19.14800 32.33000
C  -2.25200 16.47500 33.03800
C  -2.02600 17.41700 34.18400
H  -1.39300 16.77000 35.41900
N  -2.62300 19.27800 27.12900
C  -2.90200 20.24700 28.07300
C  -2.83300 21.60300 27.47200
C  -2.28800 21.35900 26.20000
C  -2.29400 19.91100 26.01900
C  -2.95000 22.84900 28.23900
C  -1.66000 22.38800 25.25600
O  -1.05000 21.93300 24.33700
C  -1.63600 23.89000 25.64100
N  -2.40700 16.93100 25.33500
C  -2.18300 17.95800 24.45100
C  -2.08500 17.51300 22.99400
C  -1.88000 15.98100 23.16700
C  -2.14300 15.80400 24.68800
C  -3.28200 17.84600 21.96600
C  -0.46300 15.46900 22.59400
C  0.82200 16.12700 23.15000
N  -2.36900 15.28400 27.63200
C  -2.36700 14.31300 26.61200
C  -2.51600 13.08700 27.28000
C  -2.59500 13.32600 28.65300
C  -2.52400 14.67500 28.84400
C  -2.63600 11.81700 26.50500
C  -2.60400 12.56900 29.85700
O  -2.49000 11.32300 30.12700
C  -2.66900 13.79700 30.96200
C  -1.39600 13.71000 31.74900
O  -0.34700 14.32200 31.54800
O  -1.57900 12.97500 32.91600
C  -0.62900 13.12600 33.92800
H  -3.24100 20.83900 30.09800
H  -1.90400 19.76700 23.84800
H  -2.36200 13.60500 24.73500
H  -4.18200 16.62800 32.19900
H  -2.45200 19.02400 32.11100
H  -4.23500 19.97000 32.99000
H  -5.21700 18.50000 32.85000
H  -5.06700 19.54300 31.47900
H  -1.26900 16.40000 32.57200
H  -2.52300 15.55600 33.55700
H  -3.03700 17.74500 34.42800
H  -1.36100 18.20700 33.83700
H  -2.07700 23.47900 28.41200
H  -3.40900 22.60000 29.19600
H  -3.66000 23.40300 27.62500
H  -0.99400 24.07600 26.50200
H  -2.70900 24.03200 25.77500
H  -1.17900 24.39600 24.79100
H  -1.19500 17.94100 22.53400
H  -2.67200 15.36100 22.74700
H  -4.22900 18.20600 22.36900
H  -3.53200 16.88700 21.51000
H  -2.89600 18.55500 21.23400
H  -0.48600 15.82200 21.56300
H  -0.33100 14.39000 22.52100
H  1.53400 15.37300 23.48400
H  0.52600 16.71400 24.01900
H  1.41700 16.74300 22.47600
H  -1.95000 11.71900 25.66300
H  -3.54600 11.70200 25.91800
H  -2.54300 10.95100 27.16000
H  -3.59100 13.65300 31.52500
H  -0.07000 12.19200 33.99000
H  -1.06600 13.42200 34.88100
H  0.07900 13.94600 33.80600
Mg -5.46200 25.05000 26.59900
C  -4.06600 26.50200 29.47700
C  -7.63400 23.16200 28.53900
C  -6.44600 23.51900 23.88800
C  -3.13000 26.86300 24.74000
N  -5.77200 24.88600 28.75000
C  -5.08400 25.53100 29.74300
C  -5.47800 24.92600 31.04800
C  -6.53100 23.83000 30.77600
C  -6.67100 24.00100 29.25900
C  -6.15400 22.45500 31.34800
C  -5.94900 26.02700 32.03900
C  -5.64800 25.70700 33.50100
H  -5.08000 24.38200 33.88800
N  -6.90100 23.66300 26.30300
C  -7.65000 22.94100 27.20200
C  -8.59000 21.98700 26.51500
C  -8.30300 22.16000 25.15600
C  -7.16400 23.16800 25.06200
C  -9.45900 21.13600 27.24000
C  -9.04700 21.58600 23.98400
O  -8.66500 21.71800 22.82700
C  -10.27300 20.64000 24.20400
N  -4.88100 25.22600 24.63300
C  -5.42100 24.41800 23.68600
C  -4.70400 24.51900 22.31200
C  -3.86600 25.84200 22.58000
C  -3.97900 26.06300 24.06800
C  -3.91100 23.22800 21.77700
C  -4.40500 27.10400 21.84300
C  -3.51500 27.71000 20.78800
N  -3.92500 26.53000 26.96900
C  -3.06900 27.17700 26.13000
C  -2.13900 28.03700 26.82600
C  -2.44100 27.77600 28.17800
C  -3.58100 26.80200 28.17600
C  -1.04900 28.81700 26.16100
C  -2.09000 28.02800 29.57900
O  -1.35300 28.74500 30.20500
C  -3.13200 27.22700 30.40000
C  -2.41200 26.38800 31.33900
O  -2.05500 25.19900 31.09400
O  -1.99700 27.09900 32.47000
C  -1.38800 26.32100 33.50100
H  -8.42900 22.70600 29.13300
H  -6.70400 22.95700 22.98800
H  -2.38500 27.35100 24.10800
H  -4.51300 24.49600 31.31400
H  -7.48300 24.18600 31.17000
H  -6.16800 21.69100 30.57100
H  -6.86800 22.13200 32.10600
H  -5.17400 22.39100 31.82100
H  -7.02300 26.21600 32.06600
H  -5.53600 27.00100 31.77800
H  -6.50700 25.92500 34.13700
H  -4.93400 26.43200 33.89000
H  -9.18600 20.18300 26.78700
H  -10.48300 21.35200 26.93500
H  -9.34800 21.06200 28.32200
H  -10.02000 19.73200 24.75300
H  -10.50700 20.23400 23.22000
H  -11.10600 21.19600 24.63300
H  -5.47500 24.68500 21.56000
H  -2.82100 25.61900 22.36500
H  -2.83700 23.36400 21.65000
H  -4.28000 22.84400 20.82600
H  -3.99900 22.40600 22.48800
H  -4.68800 27.88600 22.54800
H  -5.34500 26.82900 21.36500
H  -4.15300 27.84600 19.91500
H  -2.61500 27.10300 20.68200
H  -3.22300 28.69600 21.14800
H  -0.48600 29.36300 26.91800
H  -1.26100 29.48800 25.32900
H  -0.29100 28.14400 25.76100
H  -3.63900 28.00200 30.97400
H  -2.10200 26.28100 34.32400
H  -0.53900 26.94600 33.77900
H  -1.09100 25.32600 33.16900

