158

Mg 27.46100 50.95900 26.17600
C  25.20700 52.17200 28.71100
C  29.46600 49.72500 28.65500
C  29.68700 50.30900 23.73300
C  25.19500 52.45600 23.69700
N  27.21400 50.85100 28.40500
C  26.17500 51.34800 29.23900
C  26.47500 51.00800 30.73200
C  27.98400 50.38800 30.73200
C  28.24300 50.23600 29.17300
C  29.13600 51.27600 31.42900
C  25.46900 49.99100 31.25300
C  25.13100 50.14400 32.75100
H  26.21900 50.69500 33.75500
N  29.35000 50.25100 26.21100
C  30.00200 49.75000 27.32200
C  31.27200 49.23500 26.86800
C  31.34500 49.45000 25.47800
C  30.08900 50.03800 25.06400
C  32.31300 48.62000 27.87000
C  32.52700 49.10800 24.58600
O  32.48900 49.26700 23.33500
C  33.79700 48.31500 25.09100
N  27.46600 51.39800 24.03300
C  28.48800 50.93200 23.26300
C  28.23700 51.22500 21.76700
C  26.77200 51.77500 21.75600
C  26.39700 51.84900 23.22600
C  29.35600 52.03000 21.07300
C  25.75300 50.95300 20.89300
C  24.80000 51.75000 19.96200
N  25.57700 52.09000 26.09400
C  24.82900 52.68500 25.07700
C  23.69100 53.34500 25.67400
C  23.82300 53.25600 27.06800
C  24.95600 52.42900 27.27400
C  22.71200 54.14800 24.89400
C  23.23500 53.55900 28.34700
O  22.19000 54.18100 28.63700
C  24.14300 52.81600 29.45100
C  24.58200 53.84900 30.47600
O  25.39200 54.74300 30.36400
O  24.03200 53.56600 31.69400
C  24.38600 54.35100 32.91100
H  30.02200 49.16500 29.41000
H  30.26500 49.82200 22.94400
H  24.46400 52.80500 22.96600
H  26.50100 51.97300 31.23700
H  28.06400 49.41300 31.21200
H  29.74100 51.63500 30.59600
H  29.80700 50.62700 31.99300
H  28.59900 51.99400 32.04800
H  25.91500 48.99800 31.19700
H  24.53400 49.96700 30.69400
H  24.76600 49.19800 33.15100
H  24.25400 50.79100 32.74100
H  33.22300 49.21800 27.93300
H  32.58100 47.63900 27.47800
H  31.83600 48.40700 28.82600
H  34.15000 48.53700 26.09800
H  34.60900 48.52800 24.39600
H  33.63900 47.23900 25.17200
H  28.13600 50.22300 21.34900
H  26.98000 52.74100 21.29500
H  30.34600 52.08300 21.52700
H  29.09900 53.06800 20.86200
H  29.35100 51.53400 20.10200
H  25.11500 50.43300 21.60700
H  26.30800 50.26600 20.25300
H  24.98900 52.81000 20.13200
H  23.77300 51.40300 20.06800
H  25.14300 51.49600 18.95900
H  23.18400 55.10700 24.67900
H  21.80600 54.34000 25.46900
H  22.45000 53.60200 23.98800
H  23.65000 52.01800 30.00600
H  24.68300 55.37400 32.68200
H  25.31600 53.90000 33.25800
H  23.61500 54.33200 33.68100
Mg 5.23600 54.28500 40.95400
C  4.18800 50.87500 40.71700
C  7.95500 53.39300 38.92000
C  6.11400 57.49700 40.77400
C  2.11800 55.00000 42.30900
N  5.90600 52.34500 39.83700
C  5.32800 51.11700 39.91000
C  5.99700 50.16000 38.92500
C  7.37600 50.91400 38.69900
C  7.09500 52.33100 39.20800
C  8.63600 50.25100 39.28800
C  5.12500 49.80600 37.75900
C  4.98400 48.33000 37.31300
H  5.46800 47.84100 35.94500
N  6.85200 55.27600 40.07100
C  7.84100 54.75400 39.31300
C  8.92500 55.81100 39.16000
C  8.39300 57.03300 39.65400
C  7.13600 56.64900 40.19600
C  10.30100 55.39900 38.65200
C  9.12200 58.30100 39.71500
O  10.22200 58.41100 39.14000
C  8.65500 59.53100 40.51100
N  4.21200 55.95700 41.37400
C  4.77800 57.17300 41.23800
C  3.80100 58.25900 41.70900
C  2.49000 57.47400 42.07400
C  2.93500 56.03800 41.86600
C  4.27300 59.14800 42.86000
C  1.33000 57.76700 41.04600
C  -0.06300 57.98400 41.59000
N  3.47000 53.21200 41.62600
C  2.28800 53.61700 42.16200
C  1.61900 52.41400 42.56100
C  2.27400 51.34000 42.04100
C  3.42400 51.87300 41.42200
C  0.32100 52.35500 43.43500
C  2.31100 49.83600 41.97000
O  1.72600 48.92100 42.50800
C  3.57700 49.49000 41.11600
C  3.22500 48.47900 40.13500
O  2.24000 48.51500 39.40300
O  4.09600 47.37100 40.28200
C  3.52600 46.11100 39.78500
H  8.89500 53.14000 38.42600
H  6.30100 58.57300 40.79900
H  1.19400 55.34200 42.78000
H  6.23900 49.16800 39.30700
H  7.43700 51.02300 37.61600
H  9.55100 50.46300 38.73500
H  8.55500 49.22700 39.65000
H  8.69600 50.83400 40.20700
H  5.36400 50.42400 36.89300
H  4.07400 50.05600 37.90000
H  3.90800 48.15800 37.28300
H  5.35000 47.56200 37.99400
H  10.45400 54.37100 38.98200
H  10.99900 55.93700 39.29300
H  10.44400 55.61100 37.59200
H  7.78400 59.99300 40.04600
H  9.53100 60.16800 40.63700
H  8.45300 59.20200 41.53000
H  3.63200 58.92300 40.86100
H  2.08400 57.66200 43.06800
H  4.33500 60.19500 42.56300
H  5.17600 58.75500 43.32500
H  3.49000 59.18600 43.61700
H  1.32500 56.99000 40.28200
H  1.38600 58.69300 40.47400
H  -0.78500 57.47900 40.94900
H  -0.30800 59.03300 41.42500
H  -0.21100 57.59900 42.59900
H  -0.19300 53.31300 43.36200
H  0.41800 52.29400 44.51900
H  -0.37000 51.56700 43.13400
H  4.38300 49.11200 41.74400
H  3.64900 46.01500 38.70600
H  2.54200 45.87400 40.18800
H  4.21500 45.35300 40.15900

