158

Mg 9.26200 4.20700 27.67600
C  10.66300 2.69100 30.64700
C  7.74000 6.51700 29.77600
C  7.93200 5.42600 24.94400
C  10.90800 1.72700 25.81000
N  9.25600 4.53300 29.92600
C  9.92500 3.85600 30.86800
C  9.61700 4.46300 32.24400
C  8.73200 5.62800 31.99000
C  8.54800 5.56100 30.46100
C  7.37400 5.79500 32.73000
C  10.83200 4.94500 33.21600
C  10.79700 4.35900 34.65900
H  11.41000 5.17800 35.85300
N  7.98500 5.74600 27.36700
C  7.45400 6.60700 28.35800
C  6.62500 7.58200 27.71800
C  6.70500 7.25100 26.32000
C  7.61000 6.13300 26.12100
C  5.84300 8.63600 28.50200
C  5.87800 7.95000 25.22000
O  5.90300 7.63100 24.04300
C  4.94000 8.96900 25.62200
N  9.42300 3.59600 25.70700
C  8.74800 4.31800 24.73200
C  9.03500 3.82200 23.34600
C  10.18400 2.81300 23.62800
C  10.12600 2.66300 25.14700
C  7.85100 3.02700 22.69700
C  11.58700 3.47100 23.37700
C  12.10100 3.20700 21.92700
N  10.35900 2.44600 28.15600
C  10.99900 1.65400 27.25800
C  11.71500 0.62100 28.01100
C  11.64900 1.04000 29.37500
C  10.83500 2.16400 29.36500
C  12.47600 -0.58500 27.40500
C  12.03700 0.71000 30.68700
O  12.57900 -0.27400 31.14000
C  11.45000 1.80000 31.59900
C  10.74200 1.17700 32.69100
O  9.52300 0.94500 32.58500
O  11.46100 0.99200 33.83400
C  10.71400 0.38900 34.94700
H  7.22700 7.20200 30.45500
H  7.60800 5.91800 24.02400
H  11.47000 0.98400 25.23900
H  9.11100 3.74400 32.88800
H  9.39900 6.48300 32.10400
H  7.21100 5.01100 33.47000
H  6.51900 5.93700 32.06900
H  7.42100 6.67500 33.37100
H  10.82400 6.02700 33.34800
H  11.72300 4.52800 32.74800
H  11.36800 3.43100 34.66700
H  9.80500 4.12200 35.04500
H  6.02700 9.60600 28.04100
H  6.25700 8.74800 29.50400
H  4.77600 8.42600 28.42500
H  5.48200 9.82600 26.02000
H  4.24900 8.41300 26.25600
H  4.33300 9.28100 24.77200
H  9.31400 4.62000 22.65600
H  10.13000 1.86800 23.08800
H  7.40200 3.64700 21.92100
H  7.06800 2.99800 23.45500
H  8.05600 2.02100 22.33000
H  12.32400 2.99900 24.02600
H  11.71200 4.52300 23.63300
H  12.98000 2.56500 21.96900
H  12.46900 4.10000 21.42200
H  11.35000 2.71200 21.31100
H  12.48200 -1.42900 28.09400
H  13.52600 -0.30700 27.32200
H  12.09300 -0.78200 26.40300
H  12.32900 2.38200 31.87400
H  10.22100 -0.54100 34.66400
H  10.06800 1.14800 35.39000
H  11.38700 0.16400 35.77400
Mg 16.44300 51.30200 25.28300
C  18.26300 50.24000 28.11100
C  14.00900 52.39500 27.39100
C  14.49200 51.68700 22.54000
C  18.93500 49.81500 23.30600
N  16.18900 51.21300 27.52900
C  17.12800 50.93400 28.43900
C  16.61400 51.26800 29.91500
C  15.18900 51.83200 29.65300
C  15.11300 51.81900 28.11600
C  13.96900 51.05100 30.17900
C  17.48200 52.30500 30.61900
C  18.13800 51.93200 31.96600
H  17.29400 51.18100 32.94100
N  14.52200 51.97800 24.98400
C  13.68900 52.42600 25.99000
C  12.52000 52.98500 25.38600
C  12.69700 52.94700 23.98500
C  13.97800 52.17400 23.75900
C  11.28100 53.52900 26.15600
C  11.80900 53.54800 22.86600
O  12.09600 53.36400 21.66400
C  10.44100 54.26600 23.18300
N  16.74400 50.87600 23.25500
C  15.71200 51.07700 22.35300
C  16.18400 50.80500 20.84500
C  17.70200 50.39400 21.06300
C  17.81100 50.34400 22.60200
C  15.33100 49.73400 20.23100
C  18.72200 51.39400 20.41300
C  19.03900 51.14800 18.92700
N  18.28800 50.24800 25.59500
C  19.13700 49.64200 24.69300
C  20.32300 49.14400 25.39500
C  19.92100 49.32600 26.69300
C  18.78100 50.04500 26.78600
C  21.56000 48.56600 24.86800
C  20.37800 49.00000 28.05400
O  21.35500 48.31300 28.42500
C  19.37800 49.68600 28.97600
C  18.92200 48.59700 29.90300
O  18.09000 47.72900 29.59900
O  19.62700 48.63300 31.06700
C  19.17200 47.67500 32.05200
H  13.22100 52.71700 28.07500
H  13.97900 51.85900 21.59200
H  19.64300 49.40400 22.58400
H  16.60400 50.34000 30.48700
H  15.10200 52.86400 29.99300
H  13.24600 51.75100 30.59900
H  14.25700 50.32000 30.93500
H  13.45400 50.48000 29.40700
H  16.96400 53.25500 30.75200
H  18.44600 52.35500 30.11400
H  18.46400 52.86200 32.43300
H  19.04300 51.35200 31.78500
H  11.46100 53.59300 27.22900
H  10.45500 52.81800 26.14300
H  11.03700 54.53400 25.81200
H  9.99400 54.48000 22.21300
H  10.64400 55.12000 23.82800
H  9.74000 53.64100 23.73700
H  16.07100 51.75300 20.32000
H  17.81400 49.34400 20.79500
H  14.47000 50.04900 19.64200
H  15.02300 49.04800 21.02000
H  15.85800 49.08800 19.52900
H  19.64800 51.40300 20.98700
H  18.26300 52.38200 20.44800
H  19.06700 50.12500 18.55200
H  20.03100 51.54700 18.71800
H  18.23600 51.68000 18.41500
H  21.64200 47.48100 24.94200
H  22.27200 49.16500 25.43600
H  21.61700 48.88300 23.82700
H  19.85700 50.51200 29.50100
H  19.68800 47.82200 33.00100
H  19.42700 46.69900 31.63700
H  18.13100 47.73400 32.36900

