158

Mg 2.05200 -2.12500 44.81300
C  5.37900 -1.26000 43.93700
C  0.93600 0.60600 42.89600
C  -1.02900 -3.28000 45.22600
C  3.38000 -5.05100 46.11300
N  3.16200 -0.56100 43.47300
C  4.49700 -0.38400 43.32500
C  4.79200 0.86100 42.46200
C  3.32600 1.44900 42.11600
C  2.37500 0.42100 42.85900
C  2.99900 2.92300 42.65900
C  5.63300 0.64400 41.20900
C  6.82900 1.62700 40.99100
H  6.78600 2.42100 39.64300
N  0.24600 -1.47400 44.16300
C  -0.02600 -0.36400 43.39700
C  -1.45700 -0.33300 43.07700
C  -2.05700 -1.46400 43.72500
C  -0.91300 -2.18000 44.36500
C  -2.04500 0.85800 42.31900
C  -3.49500 -1.75200 43.73000
O  -4.40400 -1.02000 43.33300
C  -3.99700 -3.02700 44.11500
N  1.28000 -3.99000 45.35500
C  0.00800 -4.07400 45.73700
C  -0.35100 -5.24600 46.69600
C  1.09400 -5.85300 46.82300
C  1.97900 -4.90900 46.02400
C  -1.01500 -5.04200 48.03900
C  1.40300 -7.30800 46.23400
C  1.68500 -8.47800 47.28700
N  3.99600 -3.09100 45.02000
C  4.38500 -4.28600 45.58100
C  5.81800 -4.36300 45.71900
C  6.24500 -3.15200 45.14300
C  5.12900 -2.47400 44.66800
C  6.55900 -5.37500 46.50800
C  7.35800 -2.34500 44.94400
O  8.49200 -2.54900 45.26300
C  6.88100 -1.19700 43.98100
C  7.27000 0.04600 44.64500
O  7.06400 0.41000 45.78300
O  8.20200 0.65900 43.79800
C  8.69600 1.99100 44.21400
H  0.77800 1.48800 42.27200
H  -2.04900 -3.54300 45.51400
H  3.55900 -5.95000 46.70700
H  5.24000 1.57300 43.15500
H  3.09100 1.33500 41.05800
H  3.93300 3.42300 42.91600
H  2.37400 3.06700 43.54000
H  2.37400 3.35400 41.87700
H  5.09600 0.50700 40.27000
H  6.03000 -0.36700 41.30400
H  7.75400 1.05100 40.95400
H  7.01500 2.33200 41.80000
H  -2.88600 0.48200 41.73500
H  -1.47700 1.37500 41.54600
H  -2.37800 1.71200 42.90800
H  -4.17500 -3.16600 45.18100
H  -3.24000 -3.75200 43.81600
H  -4.97300 -3.21800 43.66800
H  -0.92600 -5.95400 46.10000
H  1.48200 -5.74000 47.83500
H  -1.98700 -4.57800 47.86900
H  -0.34800 -4.49900 48.70700
H  -1.14600 -6.01300 48.51800
H  2.22100 -7.24700 45.51600
H  0.61100 -7.70900 45.60000
H  2.63200 -8.97300 47.07200
H  0.78400 -9.08900 47.22100
H  1.71500 -8.03300 48.28100
H  7.54900 -5.04100 46.81800
H  6.69500 -6.23100 45.84700
H  6.13900 -5.82800 47.40600
H  7.36700 -1.37900 43.02300
H  7.79600 2.54100 44.48600
H  9.23800 2.45200 43.38800
H  9.34000 1.91400 45.09000
Mg 1.51500 42.51600 26.79700
C  3.73600 42.67400 29.61000
C  -0.97400 41.59600 29.01500
C  -0.37400 41.73300 24.14200
C  4.21500 42.99600 24.65700
N  1.44100 42.15800 29.11000
C  2.44000 42.35500 30.01300
C  1.87900 42.31000 31.38300
C  0.45500 41.72300 31.21500
C  0.31900 41.92200 29.69300
C  0.37700 40.16800 31.56200
C  1.84000 43.81500 31.77500
C  1.89300 44.24900 33.28300
H  1.80000 43.05500 34.27400
N  -0.40300 41.75800 26.55700
C  -1.28200 41.46600 27.57600
C  -2.42200 40.93200 26.98700
C  -2.32900 40.89200 25.59100
C  -0.99000 41.42800 25.32300
C  -3.62200 40.50600 27.81400
C  -3.30900 40.46200 24.49000
O  -2.90900 40.38400 23.34300
C  -4.72900 40.08200 24.76900
N  1.80400 42.65300 24.77200
C  0.86900 42.28000 23.84900
C  1.31400 42.54200 22.37700
C  2.76900 43.10000 22.58700
C  2.98200 42.90500 24.06300
C  1.36700 41.21700 21.49800
C  2.76100 44.60500 22.13900
C  3.10800 44.77200 20.62300
N  3.51400 42.78100 27.07600
C  4.47500 42.99500 26.05500
C  5.77900 43.25100 26.68600
C  5.51200 43.08200 28.06600
C  4.10200 42.84500 28.27300
C  7.05700 43.62100 25.98600
C  6.15900 43.02200 29.32300
O  7.37200 42.97900 29.57400
C  5.04900 42.84300 30.39100
C  5.26300 41.66400 31.29300
O  5.39100 40.49800 30.85100
O  5.32600 42.02900 32.62700
C  5.50100 40.97500 33.68000
H  -1.80400 41.35100 29.68100
H  -1.07300 41.57000 23.31900
H  5.08700 43.09000 24.00800
H  2.48100 41.67800 32.03700
H  -0.30400 42.26900 31.77600
H  -0.50800 39.69700 31.13600
H  0.41000 40.00100 32.63900
H  1.27500 39.79100 31.07200
H  0.86100 44.18500 31.47100
H  2.48200 44.46700 31.18300
H  1.04500 44.91100 33.45700
H  2.85800 44.70400 33.50700
H  -3.88200 39.47200 27.59000
H  -4.51400 41.11500 27.67000
H  -3.45100 40.43100 28.88800
H  -4.85700 39.01300 24.94100
H  -5.25400 40.28900 23.83700
H  -5.16800 40.65900 25.58200
H  0.64200 43.27100 21.92500
H  3.51400 42.58500 21.98000
H  1.12800 40.31600 22.06200
H  2.35500 40.95100 21.12300
H  0.75800 41.21200 20.59400
H  3.54100 45.18200 22.63400
H  1.77800 45.06700 22.23600
H  3.71100 45.66400 20.45200
H  2.19800 44.76400 20.02300
H  3.64300 43.92400 20.19400
H  7.21400 44.69000 26.12800
H  7.09000 43.35300 24.93000
H  7.75300 42.98500 26.53400
H  5.01600 43.76100 30.97700
H  4.68800 40.25800 33.56200
H  5.31800 41.50900 34.61300
H  6.49100 40.51800 33.70600

