158

Mg 42.88900 42.26800 26.48900
C  41.80600 44.37500 29.04000
C  44.61400 40.45500 28.87100
C  44.27200 40.61900 24.03300
C  41.51700 44.67500 24.14200
N  43.05200 42.33000 28.75000
C  42.45600 43.21800 29.57800
C  42.68600 42.97500 31.07700
C  43.65000 41.75400 31.02200
C  43.87700 41.51500 29.45700
C  45.01600 41.78500 31.79900
C  41.35200 42.59200 31.67500
C  41.27800 41.95900 33.08100
H  40.32100 42.52700 34.07800
N  44.24400 40.68300 26.47100
C  44.79300 40.04500 27.54500
C  45.50100 38.90700 27.10900
C  45.33300 38.90100 25.63700
C  44.65000 40.11200 25.29200
C  46.28400 38.01500 27.93500
C  45.82700 37.89500 24.60000
O  45.61600 37.97800 23.35400
C  46.66100 36.68000 25.10300
N  43.12100 42.70200 24.42700
C  43.52300 41.69900 23.62500
C  43.34900 42.02200 22.05900
C  42.29300 43.17400 22.19000
C  42.28300 43.53800 23.69600
C  44.60500 42.52900 21.34600
C  40.95000 42.84300 21.57800
C  40.08600 41.86400 22.44300
N  41.95700 44.23300 26.49100
C  41.40300 45.02800 25.51700
C  40.63400 46.11700 26.11100
C  40.80100 45.90800 27.48000
C  41.59700 44.71300 27.65400
C  39.99200 47.23900 25.31700
C  40.45100 46.40300 28.78600
O  39.82300 47.38200 29.16700
C  40.97000 45.41100 29.80700
C  41.79700 46.19200 30.81700
O  42.90600 46.70200 30.62700
O  41.10700 46.17100 31.98700
C  41.65500 46.82000 33.11500
H  44.92500 39.74800 29.64300
H  44.55100 39.99000 23.18500
H  40.97400 45.19100 23.34700
H  43.22500 43.79500 31.55100
H  43.20900 40.85400 31.45000
H  45.17300 42.82000 32.10400
H  45.97100 41.38100 31.46100
H  44.80300 41.25900 32.73000
H  40.66100 42.02800 31.04800
H  40.78900 43.51100 31.83900
H  42.28200 42.05500 33.49500
H  40.99300 40.91000 33.00300
H  46.31700 38.50700 28.90800
H  47.26900 37.72700 27.56900
H  45.77600 37.05900 28.06000
H  47.10500 36.18300 24.24000
H  46.05200 35.95300 25.63900
H  47.56300 37.11200 25.53800
H  42.79900 41.22200 21.56400
H  42.60000 44.06300 21.63900
H  44.86100 43.56300 21.57600
H  44.48400 42.35400 20.27700
H  45.44300 41.94000 21.71800
H  41.12900 42.39700 20.60000
H  40.37700 43.76900 21.62700
H  40.35000 41.91400 23.50000
H  40.10400 40.81000 22.16600
H  39.04900 42.19600 22.50100
H  40.74400 47.94300 24.96000
H  39.26500 47.71400 25.97600
H  39.56900 46.83900 24.39600
H  40.08500 44.98200 30.27800
H  41.89200 46.16900 33.95700
H  40.85200 47.50200 33.39300
H  42.61700 47.32500 33.03200
Mg 16.55800 51.53300 26.15700
C  18.35600 49.97300 28.81900
C  14.43400 52.88700 28.47200
C  14.73900 52.73100 23.57000
C  18.65700 49.86800 23.85200
N  16.33500 51.32100 28.38600
C  17.21800 50.75500 29.27400
C  16.88800 51.00600 30.77700
C  15.45200 51.69400 30.63500
C  15.34900 51.99400 29.09500
C  14.25900 50.88700 31.12600
C  17.92500 51.82000 31.60500
C  17.58000 52.06500 33.11800
H  16.44600 51.27000 33.77000
N  14.91100 52.76400 26.02800
C  14.13900 53.17600 27.09900
C  13.06200 54.10800 26.63900
C  13.27700 54.12700 25.22500
C  14.37900 53.17500 24.84600
C  11.93400 54.59900 27.55600
C  12.52300 54.96800 24.17600
O  12.80500 54.96500 23.00900
C  11.50900 56.00400 24.64900
N  16.61100 51.23900 24.03900
C  15.72700 51.77900 23.19500
C  15.81600 51.03600 21.82200
C  17.24500 50.50900 21.87300
C  17.53200 50.54900 23.34900
C  14.68000 49.99700 21.69800
C  18.31700 51.39000 21.20100
C  19.58800 50.59200 20.79000
N  18.20500 50.25200 26.28800
C  18.92800 49.62000 25.25900
C  20.09100 48.82400 25.82200
C  19.83400 48.96900 27.21800
C  18.79700 49.86700 27.47000
C  21.20400 48.02300 25.16800
C  20.30600 48.48800 28.53700
O  21.26800 47.77800 28.77500
C  19.44200 49.19500 29.63700
C  18.87900 48.24000 30.56900
O  17.97700 47.46600 30.29200
O  19.47100 48.24400 31.78500
C  18.88800 47.47100 32.85900
H  13.86800 53.44800 29.21900
H  14.01300 53.05200 22.82100
H  19.19400 49.21300 23.16300
H  16.81900 49.97900 31.13700
H  15.39600 52.64000 31.17300
H  13.74900 51.43100 31.92000
H  14.59000 49.93300 31.53600
H  13.49200 50.72600 30.36900
H  18.09100 52.78000 31.11600
H  18.89300 51.32800 31.50900
H  17.29300 53.11700 33.13300
H  18.49400 51.89900 33.68700
H  11.75100 55.66500 27.69700
H  11.99200 54.20300 28.57000
H  10.98900 54.27100 27.12400
H  11.01700 56.46500 23.79300
H  11.95800 56.87200 25.13000
H  10.80700 55.38100 25.20400
H  15.69400 51.90900 21.18000
H  17.26100 49.53500 21.38400
H  14.03300 50.34400 20.89200
H  14.11500 49.87500 22.62200
H  14.97500 48.97900 21.44200
H  18.62300 52.20900 21.85200
H  17.93200 51.95700 20.35400
H  19.73100 50.59100 19.70900
H  19.47200 49.52400 20.97400
H  20.49100 51.03700 21.20800
H  21.94600 48.78100 24.91700
H  20.82400 47.63000 24.22500
H  21.69400 47.25200 25.76300
H  20.17400 49.90600 30.01900
H  19.14300 46.41200 32.82400
H  17.82400 47.69500 32.93100
H  19.15400 47.93900 33.80700

