158

Mg 2.01400 8.46800 27.25800
C  2.50400 10.55500 30.19300
C  1.92100 5.83900 29.62300
C  1.90800 6.37400 24.78400
C  2.64300 11.12600 25.26200
N  2.03400 8.23200 29.68700
C  2.13500 9.29400 30.60100
C  1.84800 8.80500 32.03200
C  1.76300 7.20000 31.83900
C  1.88600 7.06400 30.34300
C  2.92700 6.45700 32.62500
C  0.49900 9.39000 32.62600
C  0.27700 9.00500 34.05900
H  1.38800 8.48800 35.00600
N  1.93400 6.47500 27.18500
C  1.90400 5.55900 28.23200
C  1.71500 4.23300 27.75300
C  1.63900 4.34200 26.29400
C  1.89800 5.75200 26.02100
C  1.47600 2.99900 28.57500
C  1.44000 3.30100 25.20000
O  1.31000 3.58800 24.01700
C  1.21800 1.84700 25.56100
N  2.42200 8.67900 25.36000
C  2.20300 7.69300 24.47900
C  2.06900 8.24000 23.08500
C  1.96400 9.79300 23.24100
C  2.37200 9.85500 24.72200
C  3.37200 7.88300 22.27600
C  0.64600 10.46300 22.82600
C  0.81800 11.56900 21.78200
N  2.47500 10.45300 27.60300
C  2.77900 11.40100 26.62600
C  3.01900 12.63900 27.35100
C  3.13600 12.30600 28.69600
C  2.70400 10.94300 28.83900
C  3.12400 13.96200 26.76400
C  3.38200 12.94200 29.96200
O  3.55400 14.13400 30.30700
C  2.85900 11.75600 31.00700
C  3.97700 11.40700 31.97700
O  5.05300 10.84500 31.75600
O  3.58700 11.91300 33.18400
C  4.56000 11.66200 34.28200
H  1.63600 5.07300 30.34800
H  2.03800 5.81200 23.85700
H  2.64400 11.91000 24.50300
H  2.69400 9.09500 32.65500
H  0.82200 6.75000 32.15500
H  2.65500 5.75300 33.41100
H  3.60900 7.13500 33.13800
H  3.59800 5.96700 31.91900
H  -0.26200 9.00800 31.94600
H  0.24700 10.44700 32.54500
H  -0.54800 8.29600 34.12600
H  -0.13200 9.86800 34.58500
H  0.39500 2.86000 28.58500
H  1.75200 3.00600 29.62900
H  1.92100 2.09000 28.17000
H  0.78300 1.37500 24.67900
H  0.67500 1.70900 26.49600
H  2.19500 1.37700 25.66900
H  1.12200 7.87600 22.68700
H  2.74300 10.32300 22.69400
H  3.98600 8.78100 22.21200
H  3.05900 7.55800 21.28400
H  3.97300 7.12800 22.78200
H  0.10400 10.77500 23.71900
H  0.05800 9.70200 22.31300
H  1.71900 11.35900 21.20500
H  0.78800 12.56900 22.21600
H  0.00100 11.54300 21.06000
H  2.10100 14.25200 26.52300
H  3.62200 13.82200 25.80500
H  3.63900 14.66000 27.42400
H  1.94000 12.16700 31.42600
H  4.39400 12.26500 35.17500
H  5.56700 11.98400 34.01500
H  4.59700 10.57800 34.39600
Mg 4.57500 55.21800 41.00000
C  3.85000 51.81500 41.09100
C  7.81000 54.34000 40.05900
C  5.05500 58.41900 39.80200
C  1.15800 55.86000 41.58000
N  5.57700 53.33600 40.37500
C  5.10400 52.06600 40.62600
C  6.20500 51.00600 40.37900
C  7.50000 51.86600 40.28700
C  6.93700 53.25800 40.24900
C  8.47500 51.63900 41.50800
C  5.99200 49.97600 39.16100
C  5.56500 50.61400 37.81600
H  6.55700 50.57400 36.71900
N  6.17200 56.23500 40.16200
C  7.40600 55.70300 39.89700
C  8.29800 56.74700 39.51800
C  7.50200 57.94600 39.27200
C  6.17200 57.58700 39.75200
C  9.80600 56.48100 39.42700
C  8.04200 59.21700 38.73400
O  9.25700 59.29700 38.65700
C  7.19400 60.45900 38.45500
N  3.23300 56.83900 40.42300
C  3.72900 58.10300 40.16000
C  2.72900 59.18900 40.58300
C  1.43500 58.33000 40.98400
C  1.95400 56.90700 41.04000
C  3.23100 60.16400 41.67700
C  0.25200 58.37700 39.88700
C  -1.20700 58.32700 40.38000
N  2.89100 54.12900 41.50600
C  1.63300 54.51900 41.84200
C  0.86200 53.43100 42.34700
C  1.63400 52.28700 42.02000
C  2.89200 52.80700 41.53700
C  -0.51100 53.58100 42.93600
C  1.67700 50.85400 42.05000
O  0.85900 50.04300 42.32600
C  3.08400 50.48400 41.45900
C  3.01300 49.47100 40.36000
O  2.71200 49.74900 39.21300
O  3.34800 48.27800 40.83200
C  3.12500 47.17200 39.91600
H  8.78900 53.86700 39.94700
H  5.23300 59.46800 39.55300
H  0.12200 56.09900 41.83300
H  6.21100 50.43900 41.30900
H  7.94400 51.66300 39.31200
H  8.77400 52.56000 42.00800
H  9.45000 51.24900 41.21700
H  8.02600 50.91400 42.18600
H  5.28500 49.22100 39.50600
H  6.91600 49.43500 38.95700
H  5.21300 51.62400 38.02700
H  4.67100 50.08800 37.48100
H  10.30800 57.04100 40.21500
H  10.13400 56.57400 38.39200
H  10.08000 55.43700 39.57500
H  7.78500 61.13100 37.83300
H  7.09400 60.88400 39.45400
H  6.33800 60.10200 37.88300
H  2.58500 59.87900 39.75100
H  0.98600 58.70200 41.90500
H  4.22600 59.90100 42.03500
H  2.65400 60.15500 42.60200
H  3.21800 61.19000 41.30800
H  0.35100 57.48500 39.26800
H  0.38200 59.15200 39.13100
H  -1.74900 57.38100 40.39900
H  -1.79700 59.03000 39.79300
H  -1.34400 58.64900 41.41200
H  -1.03600 52.62700 42.89900
H  -1.04200 54.34100 42.36200
H  -0.50800 54.03100 43.92900
H  3.56300 49.96500 42.28900
H  2.10500 46.78900 39.94600
H  3.71000 46.43500 40.46700
H  3.55500 47.31600 38.92400

