158

Mg 53.80600 24.10100 44.47800
C  51.23800 26.26900 43.45100
C  51.79900 21.63000 43.34400
C  56.43100 22.15100 44.82100
C  55.66900 26.87400 45.47100
N  51.86500 24.01100 43.30200
C  51.02000 25.03300 43.00300
C  49.88900 24.49700 42.12200
C  49.71900 23.09600 42.76600
C  51.16800 22.89700 43.24700
C  48.65000 22.99000 43.88800
C  50.09900 24.63800 40.61400
C  48.97500 25.13000 39.70000
H  49.59200 25.80600 38.46100
N  54.08000 22.10300 44.17400
C  53.11700 21.24300 43.72500
C  53.69700 19.92300 43.69100
C  54.99200 20.00800 44.28200
C  55.23700 21.47700 44.45500
C  52.97400 18.68300 43.17300
C  55.87000 18.80400 44.68700
O  55.54200 17.65300 44.52300
C  57.24900 18.98900 45.38000
N  55.80600 24.48300 44.79900
C  56.66300 23.48000 45.01900
C  58.03700 24.00600 45.34000
C  57.87400 25.55500 45.29000
C  56.37200 25.64200 45.23100
C  58.65300 23.60100 46.70100
C  58.48300 26.27000 44.04800
C  59.06400 27.69200 44.21500
N  53.54400 26.17600 44.57200
C  54.31500 27.16500 45.09400
C  53.61900 28.47500 45.08900
C  52.39000 28.12900 44.48900
C  52.38900 26.76200 44.11300
C  54.02800 29.73400 45.67900
C  51.03500 28.59500 44.06500
O  50.56300 29.72800 44.13300
C  50.26400 27.41400 43.51800
C  49.79700 27.78700 42.13200
O  50.54700 27.89600 41.19100
O  48.50000 28.15300 42.17700
C  47.87000 28.72400 40.99900
H  51.08100 20.82200 43.18900
H  57.32300 21.54400 44.98700
H  56.31000 27.62600 45.93600
H  48.99900 25.07500 42.36800
H  49.44200 22.28000 42.09800
H  47.80900 23.56600 43.50000
H  49.04900 23.48000 44.77600
H  48.40600 21.94300 44.06700
H  50.45100 23.65800 40.29400
H  51.02200 25.16600 40.37400
H  48.36700 25.91500 40.15000
H  48.37200 24.29800 39.33700
H  52.17700 18.90400 42.46300
H  52.51300 18.22800 44.05000
H  53.55600 17.85800 42.76200
H  57.07500 19.73100 46.16000
H  57.98500 19.34300 44.65800
H  57.65000 18.09800 45.86300
H  58.72500 23.56500 44.61900
H  58.38500 25.91100 46.18500
H  59.14300 22.62900 46.63300
H  57.90900 23.37700 47.46500
H  59.37700 24.28900 47.13700
H  57.73100 26.21100 43.26100
H  59.27000 25.55900 43.80000
H  60.15300 27.73000 44.25700
H  58.65600 28.27900 45.03700
H  58.73900 28.39400 43.44700
H  54.89300 30.19800 45.20600
H  54.21900 29.47300 46.72000
H  53.19000 30.42600 45.58600
H  49.39700 27.20500 44.14400
H  48.03900 28.24900 40.03300
H  48.28600 29.72700 41.09400
H  46.81300 28.95800 41.12400
Mg 6.89400 54.30300 41.83100
C  6.52700 50.89600 41.50300
C  10.26600 53.96300 40.71000
C  7.20000 57.72100 41.69200
C  3.52400 54.55200 42.89400
N  8.19300 52.56800 41.16900
C  7.87400 51.24000 41.12700
C  9.11800 50.41500 40.66300
C  10.29600 51.45200 40.85900
C  9.51300 52.77300 40.78900
C  10.97000 51.30800 42.25700
C  9.06800 49.86600 39.22000
C  8.47500 50.79700 38.10900
H  8.00500 50.18500 36.86500
N  8.50900 55.62700 41.24400
C  9.77200 55.29600 40.78700
C  10.57700 56.48300 40.62500
C  9.77900 57.57000 41.04900
C  8.44800 57.01900 41.39000
C  12.02600 56.43800 40.09600
C  10.23300 59.00700 41.15200
O  11.39600 59.28900 40.86600
C  9.39500 60.15700 41.73900
N  5.46900 55.89300 41.99600
C  5.85100 57.22700 41.93300
C  4.66600 58.11800 42.28700
C  3.54600 57.14600 42.77100
C  4.18000 55.76100 42.49200
C  4.92000 59.45300 43.12900
C  2.16200 57.32200 41.98100
C  2.09800 56.90300 40.53500
N  5.34300 53.07700 42.22600
C  4.08200 53.22400 42.63400
C  3.43800 51.95300 42.87600
C  4.38000 51.00700 42.47100
C  5.49400 51.74100 41.99800
C  2.18000 51.79900 43.56400
C  4.59200 49.58300 42.35800
O  3.97300 48.62500 42.66900
C  5.92700 49.48500 41.57800
C  5.89200 48.67000 40.31600
O  5.59300 49.05600 39.20900
O  6.16600 47.34600 40.63200
C  6.02100 46.40800 39.50600
H  11.33200 53.77400 40.57000
H  7.23900 58.78300 41.44300
H  2.50700 54.80200 43.20200
H  9.15700 49.53500 41.30500
H  10.99200 51.34800 40.02600
H  10.50300 50.47600 42.78500
H  10.82100 52.30400 42.67400
H  12.02900 51.07400 42.14300
H  8.66600 48.85400 39.26200
H  10.11600 49.79900 38.92700
H  9.37200 51.40500 38.00200
H  7.70900 51.41000 38.58400
H  12.06200 57.23000 39.34800
H  12.38700 55.50600 39.66200
H  12.79300 56.67400 40.83400
H  9.88600 61.12200 41.86600
H  9.05000 59.86900 42.73200
H  8.49900 60.29200 41.13400
H  4.29100 58.60600 41.38700
H  3.35800 57.24000 43.84100
H  4.23000 59.47100 43.97200
H  4.71800 60.31800 42.49700
H  5.97400 59.50900 43.40100
H  1.93500 58.38600 41.90700
H  1.42200 56.69200 42.47400
H  1.44900 56.03200 40.44400
H  3.06300 56.78600 40.04200
H  1.60800 57.74200 40.04100
H  2.37500 51.66800 44.62800
H  1.71600 50.87300 43.22400
H  1.51900 52.64500 43.37400
H  6.68400 48.92700 42.12900
H  6.56900 45.48300 39.68600
H  6.31100 46.89200 38.57300
H  4.94700 46.23200 39.43300

