158

Mg 40.88300 9.10900 29.94600
C  42.40400 10.30100 32.78100
C  38.17900 8.19000 31.94400
C  39.34500 7.87600 27.22500
C  43.61500 9.99000 28.12800
N  40.43500 9.06500 32.13600
C  41.07900 9.83200 33.05800
C  40.27800 9.89900 34.39300
C  39.03400 8.97100 34.12500
C  39.22100 8.65800 32.69700
C  38.83500 7.73900 35.12400
C  40.04300 11.32700 34.86900
C  39.80700 11.46400 36.40200
H  40.94700 12.04000 37.29100
N  39.02100 8.07300 29.66500
C  38.05600 7.84500 30.52700
C  36.91400 7.09500 29.88700
C  37.22200 7.00700 28.48000
C  38.56600 7.68400 28.36400
C  35.71500 6.45500 30.60600
C  36.38700 6.51100 27.34900
O  36.79000 6.49800 26.19300
C  35.02900 6.13000 27.71000
N  41.48400 8.94500 28.01900
C  40.64600 8.37000 27.06900
C  41.41200 8.25500 25.70500
C  42.60700 9.27000 25.91800
C  42.52400 9.47000 27.43800
C  41.78600 6.79500 25.33700
C  42.50400 10.65700 25.17100
C  41.14000 11.49300 25.30200
N  42.66900 9.98900 30.36600
C  43.70500 10.29900 29.48600
C  44.72600 10.94200 30.20100
C  44.26300 10.94700 31.55300
C  43.02600 10.33100 31.55900
C  45.91600 11.51500 29.58000
C  44.52900 11.48400 32.93200
O  45.39900 12.17700 33.37500
C  43.33800 10.95300 33.78500
C  43.68700 10.00600 34.78400
O  43.64200 8.77500 34.68200
O  44.02800 10.65000 35.91300
C  44.51200 9.76700 37.03200
H  37.18500 8.06500 32.37700
H  38.97000 7.51500 26.26500
H  44.55900 10.21300 27.62500
H  40.74800 9.32300 35.19100
H  38.12400 9.53900 34.31500
H  39.20500 7.97400 36.12300
H  39.42800 6.88700 34.79200
H  37.76500 7.55000 35.20900
H  39.08100 11.55100 34.40700
H  40.66300 12.11600 34.44400
H  39.56400 10.46300 36.75900
H  38.87500 12.01800 36.51900
H  34.78100 6.97800 30.39700
H  35.84100 6.51100 31.68700
H  35.63500 5.39200 30.37900
H  34.45800 5.73600 26.86900
H  34.59500 7.05100 28.10100
H  35.19700 5.26800 28.35500
H  40.85000 8.59600 24.83500
H  43.53600 8.70900 25.81900
H  41.21800 6.07300 25.92300
H  42.82900 6.75800 25.65000
H  41.54800 6.45500 24.32900
H  42.52500 10.49200 24.09400
H  43.33200 11.30700 25.45400
H  40.61700 11.77300 24.38800
H  41.19100 12.47400 25.77300
H  40.36700 11.01100 25.90000
H  45.85400 12.60300 29.61200
H  46.19700 11.00600 28.65800
H  46.71500 11.16600 30.23500
H  42.92800 11.84200 34.26400
H  44.91300 8.80000 36.73000
H  43.63000 9.61500 37.65400
H  45.26700 10.31500 37.59700
Mg -2.05000 33.97000 25.57300
C  -3.81800 32.49400 28.29200
C  -0.86200 36.34500 27.93500
C  -1.04700 35.88800 23.08900
C  -3.59700 31.80700 23.43600
N  -2.32800 34.37100 27.75800
C  -3.06900 33.56500 28.67100
C  -2.78900 33.96900 30.09000
C  -2.12700 35.40500 29.91800
C  -1.75600 35.36200 28.45700
C  -2.99900 36.61300 30.32800
C  -1.84800 32.93900 30.89300
C  -2.26800 32.31400 32.19900
H  -1.17700 31.83700 33.12500
N  -1.03800 35.83400 25.50500
C  -0.52500 36.58400 26.59500
C  0.26000 37.65200 26.02800
C  0.14500 37.53800 24.55100
C  -0.72300 36.41200 24.34200
C  1.15600 38.63000 26.84700
C  0.76600 38.43800 23.49600
O  0.52100 38.26800 22.29100
C  1.71800 39.49900 23.86900
N  -2.40900 33.92900 23.54600
C  -1.83300 34.83300 22.66900
C  -1.94700 34.30600 21.23400
C  -2.54800 32.92200 21.43900
C  -2.79300 32.81500 22.91800
C  -2.76600 35.11200 20.31400
C  -1.78000 31.67300 20.93800
C  -0.43700 31.33300 21.54900
N  -3.44400 32.47700 25.76400
C  -3.89800 31.60500 24.83400
C  -4.87400 30.72000 25.41500
C  -4.76900 31.00100 26.78300
C  -3.91800 32.05000 26.94500
C  -5.87500 29.87800 24.72500
C  -5.37000 30.64000 28.01800
O  -6.25700 29.84600 28.33200
C  -4.55200 31.45700 29.13400
C  -5.41300 32.12500 30.18000
O  -6.11200 33.10200 29.99900
O  -5.15300 31.49200 31.35500
C  -5.95600 31.91400 32.46100
H  -0.24100 36.96700 28.58200
H  -0.63700 36.48500 22.27200
H  -3.99500 31.09300 22.71100
H  -3.67100 34.19300 30.68900
H  -1.26600 35.45300 30.58500
H  -2.98600 37.38000 29.55400
H  -2.62000 37.04300 31.25500
H  -4.00000 36.26600 30.58300
H  -0.80300 33.21900 31.02900
H  -1.74200 32.05900 30.26000
H  -2.97500 31.49700 32.05000
H  -2.84800 33.05200 32.75300
H  2.16800 38.82800 26.49600
H  1.19400 38.29900 27.88500
H  0.66500 39.60100 26.92300
H  1.37700 40.34500 24.46400
H  1.98600 39.84400 22.87100
H  2.57200 38.98300 24.31000
H  -0.95300 34.27500 20.78800
H  -3.58200 32.87500 21.10000
H  -3.22000 35.90200 20.91300
H  -3.61900 34.61600 19.85000
H  -2.14300 35.57700 19.55000
H  -1.58700 31.90800 19.89200
H  -2.48400 30.84100 20.97800
H  0.39000 31.57300 20.88100
H  -0.37000 30.27200 21.79000
H  -0.23600 31.84600 22.48900
H  -5.77400 30.00400 23.64700
H  -6.88400 30.09700 25.07300
H  -5.67100 28.83700 24.97800
H  -3.75900 30.95400 29.68700
H  -6.99200 32.14300 32.21100
H  -5.47200 32.81300 32.84100
H  -5.98100 31.15000 33.23800

