158

Mg 8.84400 3.00600 27.86500
C  9.63500 1.28300 30.75000
C  7.50700 5.52500 29.67400
C  7.15000 4.17000 25.02500
C  9.75700 0.16300 25.89400
N  8.37100 3.23200 30.10800
C  8.99100 2.45900 31.08300
C  8.83100 3.17200 32.42200
C  8.15700 4.52100 32.02700
C  7.92600 4.41400 30.48100
C  6.90900 4.99700 32.80200
C  10.17100 3.39200 33.08000
C  10.41300 4.57800 34.04900
H  10.97400 4.33900 35.41900
N  7.73500 4.71500 27.37900
C  7.39200 5.70800 28.23200
C  6.72600 6.75800 27.53400
C  6.50000 6.35100 26.22400
C  7.18300 5.01000 26.13000
C  6.34600 8.10900 28.26500
C  5.67400 7.11600 25.14200
O  5.45800 6.63200 24.05300
C  5.23200 8.50200 25.46600
N  8.47000 2.29200 25.84700
C  7.71000 2.94300 24.88600
C  7.78300 2.12600 23.52100
C  8.83300 0.98900 23.75600
C  8.99300 1.12700 25.27800
C  6.38800 1.47400 23.10200
C  10.20700 1.40300 23.11700
C  10.64000 0.38100 22.02300
N  9.56600 1.11400 28.24800
C  9.99000 0.13100 27.34600
C  10.84500 -0.83100 28.14800
C  10.69600 -0.44100 29.43600
C  9.85400 0.72700 29.43900
C  11.58700 -1.99000 27.65000
C  11.11200 -0.70500 30.76700
O  11.85600 -1.59400 31.13700
C  10.45400 0.43000 31.73100
C  9.49000 -0.26100 32.68200
O  8.31100 -0.54600 32.45900
O  10.05400 -0.46600 33.87900
C  9.27200 -1.08900 34.95400
H  7.17800 6.38100 30.26700
H  6.78000 4.52500 24.06100
H  10.15800 -0.73500 25.42000
H  8.33800 2.61400 33.21800
H  8.87800 5.32700 32.16100
H  7.13800 6.00800 33.14000
H  6.82300 4.29200 33.62900
H  5.92500 5.01400 32.33300
H  10.92500 3.37700 32.29300
H  10.27900 2.51900 33.72400
H  9.45700 5.04900 34.28200
H  10.87100 5.40400 33.50400
H  7.17100 8.81800 28.19600
H  6.27700 7.90900 29.33400
H  5.46700 8.64500 27.90700
H  4.38900 8.37200 26.14400
H  4.85500 9.07200 24.61800
H  6.06300 9.13400 25.78200
H  8.05300 2.87000 22.77200
H  8.54100 -0.04300 23.55800
H  5.74700 1.77900 23.92900
H  6.49600 0.39000 23.12600
H  6.04100 1.71800 22.09800
H  10.95200 1.40300 23.91200
H  10.18300 2.45300 22.82600
H  9.94000 -0.42700 21.80900
H  11.42800 -0.14200 22.56500
H  11.13300 0.82500 21.15900
H  12.13600 -1.62900 26.78000
H  10.92400 -2.72900 27.20000
H  12.27700 -2.37700 28.40000
H  11.23200 0.96100 32.28000
H  9.93000 -1.68900 35.58100
H  8.54200 -1.72200 34.44800
H  8.71100 -0.38100 35.56400
Mg 15.92300 52.92300 25.82700
C  17.79500 52.18100 28.82500
C  13.46300 54.27500 27.78900
C  14.08500 53.42400 23.01600
C  18.27900 51.24100 24.05600
N  15.63700 53.08200 28.05900
C  16.50000 52.77400 29.12600
C  15.83700 53.10000 30.47500
C  14.42500 53.70100 30.08600
C  14.47200 53.60800 28.53400
C  13.17400 52.95500 30.63800
C  16.78900 54.04400 31.38500
C  17.15100 53.42600 32.75000
H  16.10900 52.53900 33.43800
N  14.06900 53.88800 25.44600
C  13.21700 54.31800 26.40200
C  12.01200 54.88900 25.76700
C  12.28600 54.77900 24.36200
C  13.52900 54.04800 24.23200
C  10.86600 55.49700 26.46100
C  11.35000 55.15500 23.20300
O  11.71000 55.03500 22.05100
C  10.03000 55.79800 23.38900
N  16.17100 52.40200 23.83200
C  15.21400 52.61600 22.88900
C  15.64000 52.00500 21.54300
C  17.12300 51.52100 21.87200
C  17.26300 51.77100 23.28800
C  14.71000 50.88100 20.94100
C  18.22600 52.29100 21.16600
C  19.39100 51.44400 20.61600
N  17.72400 51.89300 26.28700
C  18.64900 51.25900 25.42600
C  19.69200 50.66300 26.16800
C  19.39400 51.01800 27.52000
C  18.16300 51.76600 27.54300
C  20.85200 49.98300 25.65100
C  19.85100 50.87100 28.86900
O  20.79700 50.27600 29.36300
C  18.75500 51.67300 29.86000
C  18.23700 50.59000 30.78400
O  17.14400 50.05900 30.70400
O  19.20900 50.37200 31.69600
C  18.90000 49.23200 32.60300
H  12.75400 54.71900 28.49100
H  13.61300 53.57300 22.04300
H  18.98800 50.70700 23.42000
H  15.77700 52.16100 31.02500
H  14.31100 54.74700 30.37000
H  12.40500 53.68600 30.89000
H  13.45200 52.16700 31.33800
H  12.73300 52.40900 29.80500
H  16.44500 55.07800 31.42900
H  17.75800 53.90500 30.90500
H  17.39300 54.19700 33.48100
H  18.11500 52.92000 32.78500
H  11.03600 56.57300 26.48800
H  10.78700 55.20500 27.50800
H  9.89900 55.21100 26.05000
H  10.19800 56.83400 23.68100
H  9.38500 55.19200 24.02600
H  9.59600 55.79000 22.39000
H  15.63800 52.73200 20.73000
H  17.13000 50.45400 21.65000
H  13.81500 50.92900 21.56100
H  15.05600 49.84800 20.91800
H  14.36900 51.13200 19.93600
H  18.68800 53.07300 21.76800
H  17.73400 52.87100 20.38500
H  19.23200 50.37200 20.73800
H  20.30600 51.68900 21.15400
H  19.42300 51.66200 19.54800
H  21.19200 49.33400 26.45900
H  21.76300 50.56800 25.52200
H  20.54700 49.44200 24.75500
H  19.21400 52.49800 30.40500
H  19.85900 48.94400 33.03300
H  18.74100 48.33800 32.00000
H  18.02800 49.29300 33.25400

