158

Mg 1.39400 41.24600 26.54400
C  3.95900 41.97300 28.77500
C  -0.39900 39.95000 29.23900
C  -0.95300 40.25600 24.37200
C  3.54600 42.18300 23.92900
N  1.68500 41.04500 28.75700
C  2.79700 41.52900 29.45700
C  2.56700 41.55200 31.03600
C  1.28000 40.63500 31.07300
C  0.81300 40.50500 29.56700
C  1.54200 39.40800 31.92300
C  2.29900 42.96000 31.59800
C  2.52300 43.18700 33.09700
H  2.59300 41.95800 34.09500
N  -0.47800 40.36400 26.76300
C  -0.97300 39.83100 27.94200
C  -2.16800 39.20000 27.61600
C  -2.48500 39.41300 26.20000
C  -1.29100 39.99900 25.69300
C  -2.99200 38.57000 28.66900
C  -3.79400 39.11800 25.34200
O  -3.90700 39.38500 24.12800
C  -4.82800 38.10800 25.80500
N  1.38900 41.10400 24.51700
C  0.21400 40.84800 23.81400
C  0.41100 41.04700 22.28800
C  1.70100 41.84500 22.31200
C  2.33400 41.59100 23.64300
C  0.40500 39.83600 21.38600
C  1.49900 43.35400 21.86100
C  2.48400 43.74000 20.69300
N  3.38000 41.97000 26.30200
C  4.15300 42.29000 25.20500
C  5.51400 42.66400 25.56300
C  5.39500 42.56600 26.94600
C  4.11300 42.18200 27.33900
C  6.64200 43.03800 24.73700
C  6.21300 42.78800 28.12500
O  7.37400 43.09100 28.26400
C  5.30500 42.38000 29.35200
C  5.94900 41.26800 30.09300
O  5.95300 40.13600 29.65900
O  6.32900 41.66900 31.32700
C  6.57000 40.51700 32.22900
H  -0.85600 39.54100 30.14200
H  -1.69400 40.07300 23.59200
H  4.16400 42.41800 23.06000
H  3.47300 41.20900 31.53600
H  0.58000 41.22500 31.66500
H  1.01000 39.55100 32.86400
H  2.60500 39.17100 31.96600
H  1.03600 38.51300 31.56300
H  1.33400 43.30800 31.23100
H  3.10200 43.54400 31.14900
H  1.70800 43.81400 33.45800
H  3.44600 43.76300 33.16800
H  -3.99400 38.54400 28.24000
H  -3.00100 39.09600 29.62300
H  -2.72200 37.51700 28.74700
H  -5.38400 38.53500 26.63900
H  -4.29200 37.22300 26.14700
H  -5.51200 37.79100 25.01900
H  -0.40600 41.70400 21.99000
H  2.45600 41.36300 21.69200
H  1.37300 39.58200 20.95300
H  -0.29900 40.00700 20.57100
H  0.10000 38.94500 21.93400
H  1.67700 44.01700 22.70800
H  0.44200 43.52600 21.65800
H  2.00500 44.42400 19.99300
H  2.79100 42.81000 20.21400
H  3.36000 44.25200 21.09200
H  7.33900 43.51200 25.42800
H  6.39800 43.91700 24.14100
H  6.98300 42.17500 24.16400
H  5.17000 43.23200 30.01800
H  7.49400 39.99500 31.98200
H  5.77100 39.77500 32.25100
H  6.61600 41.03600 33.18700
Mg -5.62100 25.71800 25.99400
C  -3.85100 26.83300 28.88400
C  -7.39600 23.71000 27.82300
C  -6.47400 24.16500 23.11500
C  -3.40100 27.78700 24.08700
N  -5.67000 25.34600 28.12800
C  -4.87900 25.87500 29.10000
C  -5.41000 25.51700 30.43000
C  -6.44700 24.30100 30.10400
C  -6.61200 24.53300 28.64000
C  -5.93500 22.87300 30.42400
C  -6.14400 26.78900 31.01800
C  -5.78200 27.11900 32.38300
H  -5.24400 26.03600 33.33400
N  -6.83000 24.25800 25.52900
C  -7.48300 23.50400 26.45300
C  -8.23600 22.40800 25.86600
C  -7.97600 22.48900 24.49900
C  -7.08000 23.67200 24.31900
C  -9.21200 21.51800 26.59200
C  -8.42800 21.58400 23.37100
O  -8.14500 21.83500 22.23700
C  -9.40000 20.35200 23.59200
N  -5.15500 26.07200 23.85200
C  -5.63900 25.29700 22.84200
C  -5.06100 25.69800 21.44300
C  -4.14000 26.91300 21.78400
C  -4.23100 26.93900 23.33100
C  -4.39900 24.46900 20.80700
C  -4.54400 28.30500 21.17000
C  -3.35800 29.25000 20.74400
N  -3.95000 27.01700 26.28000
C  -3.25000 27.84400 25.43900
C  -2.22400 28.51600 26.23100
C  -2.44100 28.06500 27.53500
C  -3.53800 27.23400 27.52600
C  -1.03100 29.36200 25.82100
C  -1.90800 28.20900 28.90500
O  -0.89400 28.88400 29.27500
C  -2.95600 27.52000 29.87900
C  -2.05600 26.60700 30.58000
O  -1.53000 25.59600 30.08300
O  -1.78200 27.23000 31.79100
C  -0.77500 26.40800 32.42900
H  -8.07800 23.28400 28.56200
H  -6.69000 23.58900 22.21400
H  -2.68000 28.41300 23.55800
H  -4.67300 25.00200 31.04700
H  -7.36300 24.35100 30.69300
H  -5.13600 22.80000 31.16200
H  -5.71700 22.33000 29.50400
H  -6.75900 22.25000 30.77200
H  -7.21000 26.58300 30.92200
H  -6.00200 27.66500 30.38600
H  -6.68000 27.41000 32.92700
H  -4.97500 27.83200 32.21000
H  -10.19000 21.57500 26.11400
H  -9.30300 21.83800 27.63000
H  -8.90900 20.47500 26.68200
H  -9.00000 19.77400 24.42500
H  -9.37900 19.79900 22.65300
H  -10.38300 20.71800 23.88900
H  -6.00100 25.98600 20.97200
H  -3.07700 26.77500 21.58500
H  -5.08700 24.16900 20.01600
H  -4.27600 23.63100 21.49300
H  -3.38500 24.66600 20.45800
H  -5.09100 28.75800 21.99700
H  -5.36900 28.15400 20.47400
H  -2.35900 29.04500 21.12900
H  -3.36800 30.28900 21.07600
H  -3.24500 29.29000 19.66100
H  -0.63100 28.92200 24.90700
H  -0.23100 29.37900 26.56100
H  -1.40100 30.33900 25.51200
H  -3.36400 28.16500 30.65700
H  0.19800 26.59800 31.97700
H  -1.08700 25.36800 32.53200
H  -0.71800 26.63300 33.49400

