158

Mg 49.63500 46.89300 42.59100
C  46.37000 47.08300 41.24600
C  49.67600 43.51200 41.90600
C  53.04800 47.01100 42.88400
C  49.56900 50.41700 43.06700
N  48.20700 45.57100 41.64600
C  46.92300 45.76700 41.18600
C  46.18900 44.40500 40.81700
C  47.29400 43.36600 41.12500
C  48.51700 44.20300 41.64900
C  46.95200 42.26200 42.20900
C  45.79300 44.52700 39.27600
C  44.38600 43.97600 38.88200
H  43.97500 44.35600 37.44400
N  51.14500 45.48200 42.52900
C  50.89200 44.16600 42.30000
C  52.13600 43.43300 42.52100
C  53.14800 44.44700 42.72200
C  52.46100 45.74100 42.74200
C  52.26000 41.90700 42.62600
C  54.64200 44.08600 42.82700
O  55.02700 42.91600 42.74900
C  55.76500 45.12000 43.00400
N  51.05900 48.46900 42.91900
C  52.37300 48.22400 43.03700
C  53.18200 49.46800 43.53200
C  52.05700 50.67000 43.49900
C  50.82300 49.79900 43.21500
C  53.81800 49.27400 44.95600
C  52.35900 51.91300 42.55300
C  53.25900 53.04300 43.15900
N  48.20600 48.54300 42.29100
C  48.30600 49.89600 42.52300
C  46.98400 50.49800 42.23000
C  46.21600 49.43700 41.75900
C  46.99300 48.25400 41.77400
C  46.60700 51.85600 42.46300
C  44.92300 49.12600 41.14100
O  44.05600 49.86000 40.72900
C  44.93800 47.55800 40.89800
C  43.91300 46.90800 41.80700
O  44.06500 46.61100 42.95900
O  42.65700 46.88300 41.29100
C  41.55000 46.93200 42.15400
H  49.84300 42.45000 41.71800
H  54.12000 47.21700 42.90800
H  49.59700 51.49500 43.23900
H  45.31800 44.32500 41.46800
H  47.55200 42.83600 40.20800
H  47.19500 41.25300 41.87500
H  45.87200 42.36200 42.31700
H  47.36400 42.43800 43.20300
H  46.46200 43.80200 38.81300
H  46.01800 45.49100 38.82000
H  43.59800 44.51100 39.41200
H  44.27300 42.89900 39.00900
H  52.93800 41.69700 43.45300
H  52.66600 41.49000 41.70500
H  51.38300 41.40400 43.03400
H  55.75600 45.76600 42.12600
H  56.71500 44.60500 43.14300
H  55.60600 45.74300 43.88400
H  53.98000 49.63200 42.80800
H  51.84700 51.05900 44.49600
H  53.46900 49.98700 45.70200
H  54.88500 49.38400 44.76100
H  53.52700 48.30400 45.35900
H  51.40300 52.27400 42.17400
H  52.85200 51.57100 41.64200
H  53.87300 52.65000 43.96900
H  52.59900 53.90300 43.27300
H  54.00200 53.39000 42.44000
H  47.18500 52.61300 41.93300
H  46.66500 51.99400 43.54200
H  45.53800 51.98000 42.28900
H  44.74100 47.40700 39.83600
H  41.39400 47.98900 42.37100
H  41.43000 46.27700 43.01700
H  40.75700 46.56700 41.50100
Mg 9.97900 47.62400 25.97000
C  8.23900 47.90500 28.96900
C  12.65500 49.17600 27.56200
C  11.71000 47.58000 23.09500
C  7.06800 46.63600 24.40600
N  10.25400 48.59900 28.00400
C  9.48600 48.45500 29.07400
C  10.12500 48.98400 30.41800
C  11.37600 49.74700 29.82200
C  11.45700 49.12700 28.38400
C  11.11600 51.27900 29.79100
C  10.57700 47.84100 31.40600
C  9.96500 47.87200 32.82200
H  10.19100 46.62000 33.76000
N  11.90900 48.18100 25.44700
C  12.86100 48.76800 26.25700
C  14.12800 48.83600 25.56700
C  13.94900 48.37700 24.23100
C  12.44700 48.01200 24.21700
C  15.28400 49.50900 26.25500
C  14.90900 48.13500 23.14100
O  14.69900 47.58800 22.04400
C  16.27500 48.61100 23.36100
N  9.42300 47.39400 24.05000
C  10.37200 47.28500 22.95300
C  9.69400 46.85200 21.69000
C  8.40700 46.33500 22.22100
C  8.23200 46.87300 23.63800
C  9.53700 47.82700 20.43400
C  8.21900 44.81400 21.96200
C  9.18600 44.08400 22.90600
N  8.00100 47.50700 26.44900
C  6.93700 46.99300 25.78800
C  5.73800 46.98800 26.61700
C  6.28400 47.26400 27.87800
C  7.64500 47.58700 27.77000
C  4.37700 46.62700 26.22400
C  5.90800 47.29700 29.28200
O  4.82000 47.11800 29.77000
C  7.17700 47.67300 30.06500
C  7.45400 46.41500 30.83800
O  8.03800 45.41500 30.41600
O  6.93400 46.43200 32.17500
C  7.11500 45.17800 32.95200
H  13.47200 49.49900 28.21000
H  12.34800 47.69000 22.21500
H  6.29400 46.07400 23.87800
H  9.45600 49.68000 30.92300
H  12.19600 49.54500 30.51100
H  11.89200 51.79800 30.35400
H  10.19000 51.50100 30.32200
H  11.13600 51.55100 28.73600
H  11.65700 47.82800 31.55100
H  10.22100 46.89400 31.00200
H  8.90100 48.07600 32.70100
H  10.31900 48.81900 33.22800
H  15.90900 49.92300 25.46300
H  15.77600 48.96900 27.06400
H  15.10500 50.43600 26.79900
H  16.69500 48.15400 24.25600
H  16.25900 49.69800 23.29000
H  17.02200 48.33500 22.61700
H  10.31400 46.00600 21.39500
H  7.58000 46.71500 21.62200
H  9.95300 48.78300 20.75000
H  8.49400 47.88700 20.12300
H  10.11600 47.41400 19.60800
H  8.36200 44.59400 20.90400
H  7.19300 44.58100 22.24600
H  8.62400 43.73100 23.77000
H  10.03700 44.62500 23.31800
H  9.46500 43.19000 22.34800
H  3.97800 47.44900 25.63000
H  3.75700 46.40600 27.09300
H  4.34500 45.79900 25.51700
H  7.00200 48.45200 30.80700
H  7.51400 45.36300 33.95000
H  7.78400 44.47900 32.45100
H  6.18300 44.63400 33.10300

