158

Mg -1.82800 17.75300 26.34700
C  -2.11000 15.43000 29.03100
C  -2.30200 20.29300 28.56400
C  -2.27100 19.85900 23.73400
C  -1.79600 15.02900 24.24200
N  -2.18200 17.83100 28.56000
C  -2.10000 16.79900 29.47600
C  -2.27700 17.29400 30.92000
C  -2.43500 18.85200 30.75100
C  -2.33000 19.03200 29.18500
C  -3.62800 19.57800 31.44200
C  -1.09200 16.77100 31.82500
C  -0.48600 17.62000 32.96800
H  -0.15400 16.90100 34.27800
N  -2.11700 19.69100 26.21600
C  -2.26300 20.65800 27.22900
C  -2.12100 22.02700 26.66100
C  -2.13900 21.85800 25.23600
C  -2.15500 20.41700 25.02700
C  -1.84300 23.21200 27.59000
C  -1.98500 22.92400 24.17000
O  -1.78700 22.69500 22.98300
C  -2.23900 24.34100 24.58100
N  -2.17200 17.47600 24.26100
C  -2.18100 18.48500 23.36100
C  -2.03600 18.00400 21.90200
C  -1.99800 16.47200 22.10900
C  -1.92900 16.28300 23.63700
C  -3.31500 18.46800 21.11300
C  -0.74700 15.77400 21.39200
C  0.64600 16.02700 21.95700
N  -1.98700 15.66700 26.56200
C  -1.91700 14.68200 25.60500
C  -1.98300 13.39600 26.24200
C  -2.10000 13.62600 27.60300
C  -2.01300 15.01200 27.74600
C  -1.96600 12.18500 25.46600
C  -2.21600 12.93900 28.85600
O  -2.25000 11.78600 29.23400
C  -2.25400 14.11700 29.77500
C  -1.15900 13.74300 30.65400
O  -0.01600 13.96700 30.45800
O  -1.62300 13.05700 31.74200
C  -0.64100 12.75500 32.83500
H  -2.27200 20.99800 29.39800
H  -2.35700 20.57000 22.91000
H  -1.71600 14.17800 23.56300
H  -3.19300 16.84900 31.31000
H  -1.47000 19.26600 31.04100
H  -3.20000 20.49900 31.83700
H  -4.20800 19.06100 32.20600
H  -4.32000 19.90400 30.66500
H  -0.27300 16.62000 31.12100
H  -1.43500 15.81200 32.21400
H  -1.21300 18.39600 33.20700
H  0.40200 18.03900 32.49700
H  -1.05300 23.88700 27.26200
H  -1.57600 23.00200 28.62600
H  -2.72300 23.85600 27.60000
H  -3.00700 24.34500 25.35500
H  -2.52700 25.08600 23.84000
H  -1.33700 24.68500 25.08600
H  -1.09700 18.43300 21.55300
H  -2.96600 16.06200 21.82100
H  -3.09500 19.00800 20.19200
H  -4.06000 19.14200 21.53500
H  -3.78500 17.56200 20.72900
H  -0.64900 16.31900 20.45300
H  -0.95300 14.71000 21.27700
H  0.93700 15.05000 22.34400
H  0.61700 16.69600 22.81600
H  1.38700 16.41700 21.26000
H  -1.54600 11.31800 25.97700
H  -1.23900 12.38100 24.67900
H  -2.96000 11.97700 25.07100
H  -3.15500 14.27700 30.36700
H  -0.00300 12.02100 32.34000
H  -1.01800 12.31900 33.76000
H  -0.06700 13.65200 33.06500
Mg 26.58200 0.36000 29.15300
C  28.32100 -0.15100 32.09900
C  23.68800 0.95300 30.98000
C  24.80100 0.31100 26.19600
C  29.40200 -0.70300 27.33700
N  26.09600 0.27900 31.28200
C  27.00200 0.21000 32.30300
C  26.34300 0.34600 33.74500
C  24.79000 0.45800 33.27600
C  24.85400 0.54300 31.76100
C  23.75400 -0.56600 33.72300
C  26.90700 1.43700 34.60700
C  27.36400 1.02800 36.06300
H  27.03500 1.91400 37.17200
N  24.56000 0.78800 28.66200
C  23.52300 1.04700 29.56400
C  22.32400 1.36800 28.80800
C  22.64600 1.16300 27.42000
C  24.06200 0.70200 27.39200
C  21.07200 1.80200 29.49900
C  21.72300 1.27000 26.21800
O  22.01500 1.03400 25.05100
C  20.28600 1.50500 26.59700
N  27.04900 -0.21700 26.95300
C  26.14900 -0.05900 26.00900
C  26.74200 0.05700 24.55500
C  28.32800 -0.13800 24.97700
C  28.28300 -0.40600 26.52300
C  26.23400 -1.03000 23.50600
C  29.24600 1.00600 24.59400
C  29.57900 1.12200 23.11700
N  28.44000 -0.33700 29.52800
C  29.48500 -0.78300 28.75400
C  30.63100 -1.14700 29.55400
C  30.22400 -0.91000 30.89800
C  28.88600 -0.39900 30.83100
C  31.89600 -1.57200 28.99600
C  30.67900 -0.94300 32.30600
O  31.71500 -1.08200 32.87300
C  29.41000 -0.46800 33.10300
C  29.04100 -1.44200 34.10100
O  28.25800 -2.37600 33.89100
O  29.75200 -1.15200 35.21700
C  29.56000 -2.11500 36.36100
H  22.83700 1.24900 31.59700
H  24.19400 0.27500 25.28900
H  30.33500 -0.90100 26.80600
H  26.46300 -0.63400 34.20800
H  24.38900 1.37300 33.71200
H  24.32200 -1.30900 34.28300
H  23.21300 -1.08800 32.93400
H  23.02200 -0.10300 34.38400
H  26.11200 2.17600 34.71100
H  27.72800 1.96800 34.12600
H  28.44200 0.87000 36.09700
H  26.96100 0.05000 36.32600
H  20.79300 2.82500 29.24500
H  21.19400 1.84500 30.58100
H  20.27100 1.06800 29.41100
H  19.84800 0.71600 27.20800
H  19.73100 1.63600 25.66800
H  20.31500 2.51400 27.00900
H  26.56900 1.07200 24.19900
H  28.68800 -1.05300 24.50500
H  25.50700 -1.69900 23.96800
H  27.08900 -1.56400 23.09200
H  25.69700 -0.51400 22.71000
H  30.14500 1.05200 25.20900
H  28.68100 1.91700 24.78900
H  28.99900 1.95700 22.72400
H  29.31800 0.18500 22.62400
H  30.63500 1.37800 23.03300
H  32.12800 -1.06200 28.06100
H  31.89400 -2.61400 28.67500
H  32.73600 -1.40000 29.66900
H  29.69300 0.40400 33.69300
H  29.43200 -3.14600 36.03200
H  28.67800 -1.75100 36.88900
H  30.43800 -2.09400 37.00600

