158

Mg 40.90900 9.01900 29.62600
C  42.74200 10.40100 32.22300
C  38.92100 7.47400 31.97000
C  39.44900 7.38800 27.02300
C  43.61600 9.88200 27.45000
N  40.92900 8.87800 31.94400
C  41.55800 9.68800 32.72800
C  41.04400 9.60000 34.22200
C  40.00000 8.44700 34.11400
C  39.93400 8.25500 32.54200
C  40.45400 7.06700 34.74300
C  40.54800 11.00500 34.64100
C  39.72000 11.10100 35.94300
H  40.13900 12.08200 37.12800
N  39.31100 7.72300 29.53900
C  38.58200 7.22700 30.61200
C  37.39500 6.67200 30.07900
C  37.53100 6.56200 28.67800
C  38.80200 7.20800 28.35200
C  36.27300 6.22200 30.96100
C  36.61100 5.92600 27.63500
O  36.86000 5.83400 26.46100
C  35.28200 5.23200 27.99300
N  41.49500 8.59700 27.45100
C  40.64400 7.98900 26.61200
C  41.32800 7.95700 25.18000
C  42.51300 8.96400 25.30000
C  42.58200 9.12100 26.81300
C  41.68300 6.57400 24.72900
C  42.18500 10.23500 24.47300
C  41.32200 11.36200 25.19200
N  42.73700 10.00100 29.71800
C  43.72100 10.25200 28.78000
C  44.75600 11.00000 29.38600
C  44.44700 11.06100 30.74600
C  43.17700 10.48600 30.87400
C  46.08500 11.35700 28.81900
C  44.91400 11.52300 32.04000
O  45.96700 11.97000 32.46100
C  43.75600 11.15400 33.08100
C  44.40200 10.35100 34.11600
O  44.86700 9.21300 33.97900
O  44.27400 11.05600 35.25700
C  44.37200 10.28100 36.47900
H  38.33200 7.06100 32.79200
H  38.91500 7.00700 26.15000
H  44.40000 10.27700 26.80100
H  41.81900 9.26800 34.91400
H  39.07400 8.74700 34.60500
H  41.47500 7.26600 35.07000
H  40.38600 6.27000 34.00200
H  39.73700 6.85100 35.53500
H  40.15700 11.53300 33.77100
H  41.48700 11.50700 34.87500
H  39.73600 10.15100 36.47700
H  38.68000 11.34300 35.72000
H  36.34600 5.15000 31.14400
H  35.37200 6.46000 30.39700
H  36.23600 6.74500 31.91700
H  34.98800 4.64300 27.12400
H  34.59800 5.93000 28.47500
H  35.59000 4.57300 28.80500
H  40.70900 8.30500 24.35300
H  43.50800 8.62000 25.01900
H  41.16700 5.71500 25.15800
H  42.77000 6.55900 24.81400
H  41.58600 6.53600 23.64400
H  41.78200 9.93800 23.50400
H  43.18800 10.61400 24.27700
H  41.78100 12.34800 25.27000
H  41.02000 11.05400 26.19300
H  40.42000 11.45500 24.58800
H  46.26000 12.42900 28.90800
H  46.25900 11.06400 27.78400
H  46.84300 10.81000 29.37900
H  43.33900 12.07600 33.48600
H  43.60700 10.77200 37.08100
H  45.39100 10.42600 36.83700
H  43.93900 9.29400 36.32000
Mg 54.24600 22.97900 44.69600
C  52.09100 25.53000 43.64800
C  52.02600 20.66200 44.01800
C  56.76000 20.67700 44.90700
C  56.68800 25.56700 45.53300
N  52.34300 23.11300 43.82700
C  51.54600 24.24300 43.52000
C  50.13200 23.85600 43.11600
C  50.00500 22.38200 43.65400
C  51.53400 21.98600 43.80700
C  49.21400 22.18000 45.03400
C  49.86100 24.05300 41.70300
C  48.56700 24.71800 41.39800
H  47.80300 24.24400 40.19600
N  54.40400 20.82000 44.36800
C  53.30900 20.07800 44.11000
C  53.69100 18.74500 44.08300
C  55.17600 18.71000 44.25900
C  55.54800 20.10400 44.49000
C  52.75500 17.62700 43.73300
C  56.00600 17.45900 44.42600
O  55.49700 16.42500 44.17900
C  57.48500 17.30300 44.99000
N  56.53300 23.20900 44.85500
C  57.27100 22.03200 45.01900
C  58.73400 22.40200 45.59700
C  58.68600 23.95400 45.82400
C  57.20400 24.28900 45.35700
C  59.33300 21.51900 46.78500
C  59.73000 24.73500 44.87700
C  60.80700 25.61400 45.46900
N  54.42700 25.06700 44.68200
C  55.41200 25.95900 44.97600
C  54.97100 27.33900 44.79700
C  53.71000 27.17000 44.19700
C  53.41200 25.80600 44.15700
C  55.67700 28.64300 45.05000
C  52.54800 27.90700 43.65400
O  52.48200 29.13400 43.69300
C  51.50700 26.86200 43.08900
C  51.53500 27.02200 41.58700
O  52.52600 26.86000 40.89200
O  50.36700 27.57500 41.17800
C  50.27700 28.22800 39.85400
H  51.08900 20.10500 43.94600
H  57.48600 19.86700 45.00000
H  57.39900 26.30500 45.91100
H  49.42700 24.45600 43.69100
H  49.41200 21.89600 42.87800
H  49.73200 21.64900 45.83400
H  48.37600 21.54200 44.75100
H  48.83600 23.12600 45.42200
H  49.84500 23.10300 41.16900
H  50.65100 24.67500 41.28200
H  48.73900 25.78600 41.26500
H  47.88000 24.84200 42.23500
H  52.80600 17.38300 42.67200
H  51.71200 17.91800 43.86400
H  52.92300 16.74400 44.34900
H  57.42600 17.70800 46.00000
H  58.03100 18.03000 44.38800
H  57.89300 16.31100 44.79500
H  59.33800 22.25100 44.70300
H  58.90100 24.17700 46.86900
H  58.77200 20.59000 46.88600
H  59.40400 22.04500 47.73600
H  60.35400 21.20600 46.56500
H  59.15400 25.35900 44.19300
H  60.20500 24.08000 44.14700
H  60.62900 25.56900 46.54400
H  60.75100 26.65300 45.14500
H  61.79700 25.23200 45.22400
H  56.72200 28.56700 45.34800
H  55.09200 29.04500 45.87800
H  55.62200 29.34700 44.21900
H  50.53900 27.03300 43.56100
H  49.67800 27.58300 39.21100
H  51.19600 28.39700 39.29300
H  49.68300 29.13300 39.97300

