158

Mg 46.27600 24.62600 27.92600
C  47.45700 26.72200 30.29700
C  45.16700 22.43100 30.40600
C  45.29100 22.52800 25.54100
C  47.70700 26.69500 25.38100
N  46.38900 24.54500 30.06100
C  46.79500 25.63200 30.89000
C  46.40500 25.48800 32.39400
C  45.75000 24.03300 32.36600
C  45.74400 23.57700 30.85500
C  46.31900 23.00000 33.38200
C  45.69300 26.66200 33.11100
C  44.91000 26.34700 34.34300
H  45.33100 26.92300 35.71700
N  45.45300 22.73100 27.99700
C  44.99800 22.03800 29.05300
C  44.50100 20.78500 28.65700
C  44.60600 20.69400 27.24300
C  45.15400 22.02600 26.90800
C  43.99300 19.76000 29.65400
C  44.43200 19.51300 26.25300
O  44.48200 19.54700 25.02200
C  43.95700 18.19700 26.80100
N  46.61000 24.50700 25.72600
C  45.83600 23.67300 25.08800
C  45.76500 24.12100 23.51200
C  46.63800 25.42200 23.42600
C  47.00200 25.60400 24.89300
C  46.24300 23.05000 22.50600
C  45.69000 26.59800 22.98300
C  45.49400 26.63600 21.43900
N  47.43200 26.29200 27.81100
C  47.94000 27.01800 26.73500
C  48.68300 28.18800 27.23300
C  48.42300 28.09900 28.64600
C  47.70700 26.90300 28.89300
C  49.39400 29.23100 26.47100
C  48.64100 28.79700 29.80700
O  49.13100 29.94300 29.90100
C  47.97800 27.97500 30.96100
C  48.95500 27.78300 32.07300
O  49.85300 26.94400 32.17300
O  48.65400 28.68700 33.04000
C  49.52800 28.67600 34.26200
H  44.80800 21.78600 31.21000
H  44.79400 21.90200 24.79700
H  48.04500 27.46500 24.68500
H  47.40000 25.47100 32.83800
H  44.70100 24.15100 32.63700
H  46.74500 22.17500 32.81100
H  45.66000 22.61800 34.16200
H  47.20800 23.35700 33.90300
H  45.13900 27.26100 32.38800
H  46.48700 27.32600 33.45200
H  44.86600 25.25800 34.37600
H  43.86700 26.55400 34.10200
H  43.07700 19.36800 29.21200
H  43.76100 20.19700 30.62500
H  44.76600 19.00700 29.80900
H  44.60600 17.84200 27.60200
H  44.11800 17.44700 26.02700
H  42.91800 18.27800 27.12000
H  44.68300 24.12200 23.38100
H  47.54200 25.30200 22.83000
H  46.79100 22.24200 22.99100
H  46.80200 23.43100 21.65100
H  45.41500 22.46700 22.10200
H  46.01500 27.61100 23.22100
H  44.71100 26.49300 23.45000
H  45.71500 25.70500 20.91800
H  45.97500 27.49300 20.96800
H  44.44200 26.81200 21.21500
H  50.46600 29.07200 26.59100
H  49.17200 30.23900 26.82300
H  49.12900 29.24200 25.41400
H  47.10300 28.56100 31.24400
H  50.53600 28.63600 33.84900
H  49.39300 27.78100 34.87000
H  49.39200 29.53300 34.92200
Mg 4.20000 55.03800 41.10000
C  4.45600 51.64900 40.25500
C  7.19700 55.49400 39.25800
C  3.74000 58.43800 41.23700
C  1.02600 54.49500 42.33700
N  5.46700 53.70500 39.65900
C  5.43000 52.37600 39.61700
C  6.56100 51.79900 38.78600
C  7.61500 52.89300 38.98700
C  6.72500 54.12500 39.28900
C  8.72200 52.83900 40.02400
C  6.03000 51.42800 37.29500
C  6.14900 52.54700 36.23800
H  5.45200 52.28800 34.84100
N  5.27900 56.71200 40.33000
C  6.46900 56.68300 39.64000
C  6.95100 58.01000 39.39400
C  5.95500 58.89100 39.96000
C  4.94000 58.02300 40.59600
C  8.35800 58.36200 38.95900
C  6.00300 60.38600 39.85500
O  6.95600 60.94500 39.37500
C  4.99000 61.30600 40.38600
N  2.53400 56.25800 41.48500
C  2.60500 57.61100 41.55200
C  1.39000 58.22800 42.13300
C  0.56300 57.04300 42.51000
C  1.37600 55.87300 42.04100
C  1.66000 59.15400 43.41300
C  -0.92300 57.12500 42.07400
C  -1.90400 56.96200 43.26200
N  2.99300 53.43700 41.42900
C  1.77600 53.33300 42.05800
C  1.50900 51.91800 42.24300
C  2.52500 51.25000 41.52100
C  3.32600 52.19600 40.96700
C  0.36900 51.29600 42.99700
C  2.97900 49.93200 41.13600
O  2.55200 48.85000 41.44500
C  4.36800 50.10000 40.38200
C  4.25600 49.19400 39.24300
O  3.35200 49.27400 38.42200
O  5.33700 48.36200 39.23500
C  5.18900 47.34200 38.23600
H  8.21800 55.72000 38.94300
H  3.52900 59.50600 41.32300
H  0.08600 54.34800 42.87300
H  6.90200 50.89400 39.28900
H  8.15300 53.00800 38.04600
H  9.67500 52.93500 39.50400
H  8.63600 51.92400 40.61000
H  8.54900 53.56800 40.81500
H  4.99100 51.11400 37.19300
H  6.60400 50.58000 36.92000
H  7.19900 52.76500 36.04500
H  5.81700 53.51600 36.61200
H  8.83800 58.78000 39.84400
H  8.21500 59.02000 38.10200
H  8.97900 57.52000 38.65300
H  5.27400 62.33800 40.17900
H  4.91300 61.14500 41.46100
H  4.12100 61.03000 39.78900
H  0.85700 58.78900 41.36500
H  0.54500 56.90500 43.59100
H  2.66300 58.97600 43.80100
H  0.84400 59.02500 44.12400
H  1.58900 60.16200 43.00500
H  -1.04000 56.41800 41.25200
H  -1.20200 58.08100 41.63100
H  -2.64000 57.76300 43.19200
H  -1.42200 57.03000 44.23700
H  -2.40700 55.99900 43.35200
H  0.58900 50.34000 43.47200
H  -0.38100 50.98300 42.27200
H  -0.08300 51.94300 43.74900
H  5.12400 49.69900 41.05800
H  4.16800 47.09800 37.94100
H  5.57100 46.37600 38.56600
H  5.73200 47.50500 37.30600

