158

Mg 17.21000 -1.83600 28.33400
C  16.19800 0.38600 30.80700
C  19.28700 -3.38700 30.58900
C  18.44600 -3.59100 25.79600
C  15.47600 0.32400 26.00400
N  17.62300 -1.55200 30.43900
C  17.03500 -0.58500 31.24600
C  17.48800 -0.83500 32.66800
C  18.60600 -1.96900 32.61500
C  18.45000 -2.38000 31.13800
C  20.07400 -1.72500 32.97700
C  16.24900 -1.28300 33.61000
C  16.20500 -0.47000 34.88600
H  17.52100 -0.08300 35.55000
N  18.74800 -3.24400 28.23200
C  19.40400 -3.83300 29.24400
C  20.05500 -5.01600 28.83400
C  19.77400 -5.20900 27.39300
C  18.90300 -4.00500 27.06600
C  20.87700 -5.94600 29.75900
C  20.28100 -6.17800 26.41000
O  20.07500 -6.23400 25.16000
C  21.25100 -7.21400 26.89200
N  16.93400 -1.74300 26.24000
C  17.67900 -2.50400 25.39500
C  17.29400 -2.18700 23.92100
C  16.34900 -0.92800 23.98900
C  16.25000 -0.71900 25.51900
C  18.52300 -1.95800 23.01200
C  14.97100 -1.16100 23.28000
C  13.99500 -2.03500 24.03100
N  15.92800 -0.07500 28.38100
C  15.34700 0.67600 27.39000
C  14.46000 1.69600 27.97300
C  14.79900 1.67300 29.33300
C  15.72400 0.64400 29.48400
C  13.47700 2.65800 27.33500
C  14.62600 2.37100 30.65100
O  13.92600 3.32800 30.94900
C  15.49000 1.50400 31.63400
C  16.35800 2.30900 32.35200
O  17.42400 2.70700 32.01200
O  15.83300 2.71600 33.52500
C  16.47400 3.73600 34.34000
H  19.96600 -3.85700 31.30400
H  18.82700 -4.12400 24.92400
H  14.98400 0.99900 25.30100
H  18.04800 0.04500 32.98300
H  18.29800 -2.83900 33.19600
H  20.05000 -0.87500 33.65800
H  20.59000 -1.55300 32.03200
H  20.42000 -2.60400 33.52000
H  16.39500 -2.31200 33.93900
H  15.34200 -1.16600 33.01600
H  15.52900 -1.04200 35.52100
H  15.66600 0.42100 34.56200
H  20.46800 -6.94300 29.59800
H  20.83300 -5.70500 30.82100
H  21.92000 -5.84600 29.45700
H  20.73800 -7.82100 27.63900
H  22.20400 -6.80000 27.22000
H  21.58200 -7.88100 26.09600
H  16.78100 -3.08400 23.57500
H  16.71700 -0.02300 23.50700
H  18.34100 -1.31600 22.15100
H  18.75800 -2.97000 22.68200
H  19.30100 -1.45900 23.59100
H  15.08100 -1.64500 22.30900
H  14.41000 -0.22900 23.20700
H  13.08800 -1.45100 24.18900
H  14.39300 -2.40200 24.97700
H  13.67600 -2.89700 23.44500
H  13.10400 2.16000 26.44000
H  14.04800 3.51600 26.97900
H  12.61600 2.97500 27.92300
H  14.73500 1.04800 32.27400
H  17.23100 4.28500 33.78000
H  17.00500 3.37100 35.22000
H  15.62100 4.34100 34.64600
Mg 25.65700 1.11600 29.58400
C  27.45100 0.71400 32.47400
C  22.84200 1.61300 31.42100
C  23.84400 1.09100 26.67500
C  28.35600 -0.25000 27.78100
N  25.27200 1.11800 31.69300
C  26.12100 1.08200 32.79800
C  25.52900 1.56200 34.13700
C  24.04100 1.71700 33.67100
C  24.01400 1.50100 32.14700
C  23.08200 0.76100 34.49500
C  26.20000 2.90700 34.57600
C  27.00700 2.77500 35.98900
H  26.59100 3.64900 37.19000
N  23.65100 1.53200 29.11500
C  22.61000 1.65000 29.99100
C  21.38400 1.60800 29.32900
C  21.66300 1.50000 27.94500
C  23.16900 1.36000 27.86900
C  20.03500 1.71100 29.94100
C  20.68700 1.49800 26.82200
O  21.06900 1.62000 25.67100
C  19.17900 1.36200 26.96100
N  26.04300 0.57400 27.53000
C  25.21100 0.79100 26.51000
C  25.83200 0.59000 25.09900
C  27.27100 0.14500 25.44700
C  27.24100 0.18100 27.03600
C  24.95800 -0.37500 24.22700
C  28.25700 1.26500 24.92100
C  29.65600 0.87900 24.57100
N  27.57600 0.41900 29.92300
C  28.58000 -0.04100 29.17400
C  29.75700 -0.24000 29.93200
C  29.37400 0.13900 31.23600
C  27.99700 0.42800 31.17900
C  31.12100 -0.72500 29.54900
C  29.78900 0.37500 32.62600
O  30.89700 0.36500 33.12600
C  28.55600 0.76300 33.43900
C  28.39800 -0.21500 34.54400
O  27.51500 -1.07700 34.56500
O  29.36800 -0.01500 35.49100
C  29.22600 -0.83800 36.71400
H  21.97100 1.81300 32.04800
H  23.31000 1.05900 25.72300
H  29.13700 -0.65900 27.13600
H  25.61100 0.77800 34.89000
H  23.77000 2.75100 33.88200
H  22.16600 1.26100 34.81000
H  23.50000 0.27900 35.37800
H  22.61400 0.05700 33.80600
H  25.44400 3.67500 34.73900
H  26.85300 3.26300 33.78000
H  28.08900 2.81000 35.85700
H  26.73000 1.78300 36.34600
H  20.18500 1.76900 31.01900
H  19.59600 0.75800 29.64500
H  19.47600 2.55300 29.53400
H  18.63700 1.18900 26.03100
H  18.81800 2.21800 27.53000
H  19.04200 0.47200 27.57500
H  25.84200 1.57900 24.64100
H  27.47200 -0.82300 24.98800
H  25.62700 -1.10200 23.76500
H  24.49900 0.20200 23.42500
H  24.25500 -0.94800 24.83100
H  28.25100 2.02800 25.69900
H  27.90000 1.68700 23.98100
H  29.87700 1.28600 23.58400
H  29.71200 -0.21000 24.55600
H  30.26700 1.21700 25.40800
H  31.21500 -1.63300 28.95300
H  31.60000 -1.02600 30.48000
H  31.52700 0.09400 28.95400
H  28.53700 1.81300 33.73100
H  28.28100 -0.73400 37.24900
H  30.08600 -0.73800 37.37500
H  29.43800 -1.86000 36.39900

