158

Mg 35.39000 1.95200 29.06100
C  33.21700 3.09400 31.76800
C  37.86800 2.14600 31.40900
C  37.44800 1.42500 26.64600
C  32.70900 2.41500 26.81400
N  35.52300 2.54500 31.40900
C  34.48900 2.86000 32.28500
C  35.00700 2.93100 33.70300
C  36.52100 2.82600 33.48000
C  36.68000 2.37700 32.01900
C  37.35700 4.14600 33.61500
C  34.44100 1.77100 34.66900
C  34.06100 2.18300 36.13000
H  34.80000 3.49900 36.68800
N  37.40800 1.72600 29.08000
C  38.24500 1.77200 30.12700
C  39.60700 1.51500 29.70500
C  39.51900 1.39000 28.27100
C  38.07600 1.49700 27.90400
C  40.67900 1.49300 30.61600
C  40.68900 1.22100 27.22400
O  40.42800 1.00500 26.06200
C  42.14700 1.32800 27.59000
N  35.07200 1.82100 27.03800
C  36.13100 1.49600 26.23000
C  35.65200 1.22300 24.79400
C  34.10700 1.34400 24.91900
C  33.95000 1.93700 26.30400
C  36.20000 2.29300 23.77600
C  33.43200 -0.01500 24.74500
C  31.93400 0.00400 24.32800
N  33.35000 2.68600 29.15400
C  32.41100 2.79900 28.19300
C  31.20600 3.28800 28.76800
C  31.45700 3.39800 30.18400
C  32.80900 3.06300 30.34700
C  29.91900 3.53900 28.08600
C  30.86600 3.69700 31.47200
O  29.73100 4.00800 31.76300
C  32.04100 3.55900 32.60200
C  32.24100 4.81200 33.31200
O  32.79700 5.80600 32.86500
O  31.65200 4.61900 34.60200
C  31.80800 5.88500 35.36900
H  38.75100 2.08100 32.04800
H  38.12600 1.27400 25.80300
H  31.89900 2.52200 26.08900
H  34.65700 3.86900 34.13500
H  36.93800 2.09100 34.16900
H  37.32900 4.70700 32.68100
H  38.36400 3.86900 33.92700
H  37.17600 4.79600 34.47100
H  35.09200 0.89700 34.68200
H  33.50100 1.51500 34.17900
H  34.42500 1.35100 36.73200
H  32.99400 2.17700 36.35600
H  41.47700 0.80200 30.34600
H  40.29600 0.93600 31.47100
H  41.03300 2.47300 30.93700
H  42.60200 0.50700 28.14400
H  42.24500 2.27500 28.12000
H  42.70500 1.29600 26.65300
H  35.95300 0.20500 24.54600
H  33.73100 2.08300 24.21200
H  37.17500 2.63700 24.12000
H  35.57200 3.17100 23.62300
H  36.29800 1.77500 22.82200
H  33.57800 -0.58000 25.66500
H  33.92700 -0.54600 23.93300
H  31.80300 -0.44400 23.34300
H  31.59900 1.02400 24.14200
H  31.24000 -0.42600 25.05000
H  29.57200 2.64100 27.57500
H  30.28400 4.23100 27.32800
H  29.10100 4.02900 28.61600
H  31.60900 2.78600 33.23700
H  31.85600 5.74200 36.44900
H  30.93400 6.46400 35.07100
H  32.68100 6.50500 35.16800
Mg -6.20600 25.71000 26.15100
C  -4.35200 27.09400 28.63800
C  -7.56800 23.41300 28.35400
C  -7.66000 24.11300 23.52500
C  -4.24000 27.52100 23.78800
N  -5.87900 25.25100 28.23900
C  -5.22700 26.07400 29.09800
C  -5.65400 25.84500 30.59500
C  -6.25400 24.44000 30.40500
C  -6.62200 24.36300 28.92100
C  -5.48900 23.17500 30.87400
C  -6.63100 26.99600 31.30200
C  -7.63000 26.59300 32.42200
H  -7.13900 25.56200 33.47200
N  -7.67600 24.15400 26.02200
C  -8.07500 23.31000 27.05100
C  -9.10200 22.40800 26.54900
C  -9.22700 22.68700 25.15400
C  -8.14400 23.66400 24.83500
C  -9.81700 21.39800 27.52300
C  -10.21300 22.07300 24.14200
O  -10.16400 22.45800 22.97400
C  -11.28800 20.98700 24.55200
N  -5.89500 25.71600 23.93200
C  -6.61500 24.94800 23.09800
C  -6.14000 25.14100 21.66100
C  -5.01700 26.29900 21.73300
C  -5.02600 26.51100 23.22500
C  -5.65400 23.88000 20.91400
C  -5.46000 27.62300 20.98500
C  -4.34500 28.24200 20.15700
N  -4.64700 27.05100 26.19100
C  -4.04900 27.77300 25.12600
C  -3.12300 28.75700 25.74200
C  -3.31900 28.53300 27.10900
C  -4.13300 27.42900 27.31600
C  -2.22000 29.78200 25.13400
C  -3.08800 29.11500 28.44200
O  -2.47300 30.11000 28.79700
C  -3.74800 28.23500 29.50800
C  -2.75400 27.77600 30.50200
O  -1.71900 27.09600 30.35500
O  -3.20700 28.15100 31.67100
C  -2.44500 27.60400 32.84800
H  -8.01000 22.79100 29.13500
H  -8.22500 23.78200 22.65100
H  -3.59000 28.01600 23.06400
H  -4.84300 25.85700 31.32300
H  -7.19300 24.37800 30.95500
H  -5.93500 22.75000 31.77300
H  -4.51700 23.57000 31.17100
H  -5.47100 22.48100 30.03300
H  -7.19900 27.31500 30.42800
H  -6.05400 27.75600 31.82900
H  -8.39100 26.03600 31.87500
H  -8.11400 27.47200 32.84900
H  -10.83800 21.63200 27.82600
H  -9.25300 21.20400 28.43500
H  -9.91600 20.41800 27.05700
H  -10.95000 19.98700 24.82400
H  -11.89100 20.82600 23.65900
H  -11.88300 21.51500 25.29700
H  -6.99100 25.48000 21.07000
H  -4.05400 25.90400 21.40900
H  -4.73500 24.07600 20.36300
H  -6.36700 23.50100 20.18200
H  -5.39500 23.05100 21.57300
H  -5.58600 28.45800 21.67300
H  -6.39200 27.46100 20.44200
H  -4.74800 28.28600 19.14500
H  -3.41500 27.67600 20.20400
H  -4.05600 29.21600 20.55300
H  -1.20900 29.37800 25.18500
H  -2.33700 30.69300 25.72100
H  -2.48400 29.86000 24.07900
H  -4.51800 28.85000 29.97500
H  -2.17900 26.55000 32.76000
H  -3.22100 27.56600 33.61300
H  -1.74000 28.29900 33.30200

