158

Mg 25.38600 1.08000 29.56100
C  27.39100 1.11900 32.33600
C  22.59100 1.42500 31.68000
C  23.40600 1.18000 26.83300
C  28.10600 0.60000 27.56300
N  25.05700 1.29600 31.79100
C  26.06200 1.31400 32.75100
C  25.39700 1.65500 34.16000
C  23.86000 1.66000 33.85200
C  23.83600 1.50600 32.36800
C  22.90100 0.63300 34.65100
C  25.96400 3.04700 34.75300
C  26.70100 2.89000 36.12400
H  26.15200 3.75000 37.30200
N  23.32500 1.01500 29.30200
C  22.36900 1.15900 30.25400
C  21.03400 1.06600 29.66500
C  21.28300 0.86700 28.26100
C  22.70400 1.03100 28.06100
C  19.78400 1.12600 30.51000
C  20.26300 0.57400 27.22200
O  20.52000 0.33100 26.05900
C  18.82500 0.42300 27.64900
N  25.74500 0.93500 27.46700
C  24.78800 1.09900 26.50300
C  25.27700 1.04700 25.05600
C  26.82000 1.01500 25.34300
C  26.95300 0.94800 26.84600
C  24.74700 -0.06500 24.12200
C  27.71300 2.16800 24.67400
C  27.32400 2.49500 23.20600
N  27.31700 0.76500 29.87700
C  28.33400 0.64900 28.94100
C  29.53400 0.55200 29.69600
C  29.22400 0.71400 31.04200
C  27.84600 0.89800 31.08000
C  30.81400 0.18200 29.10600
C  29.75500 0.77600 32.40300
O  30.87500 0.64000 32.75700
C  28.53600 1.05200 33.24000
C  28.24900 -0.01200 34.29800
O  27.68000 -1.11900 34.12900
O  28.80800 0.37200 35.48200
C  28.63300 -0.54100 36.61500
H  21.71300 1.61000 32.30200
H  22.69000 1.21300 26.00800
H  29.00000 0.57300 26.93800
H  25.55500 0.78900 34.80300
H  23.48800 2.66700 34.03900
H  22.39200 0.00800 33.91700
H  22.15600 1.24000 35.16400
H  23.41000 -0.02800 35.35300
H  25.16000 3.76600 34.90800
H  26.65700 3.50100 34.04500
H  27.68400 3.25600 35.82800
H  26.69900 1.85100 36.45400
H  19.19900 0.20600 30.50500
H  19.23600 1.97200 30.09500
H  20.06000 1.23600 31.55900
H  18.65900 -0.57800 28.04700
H  18.24900 0.32800 26.72800
H  18.51100 1.20300 28.34300
H  24.98800 2.03700 24.70300
H  27.17700 0.06300 24.95100
H  24.01000 -0.75300 24.53500
H  25.54700 -0.66800 23.69400
H  24.29500 0.49800 23.30400
H  28.74000 1.80300 24.69100
H  27.51900 2.98100 25.37400
H  26.72800 3.40200 23.10100
H  26.79500 1.64400 22.77800
H  28.25700 2.64800 22.66400
H  31.58900 0.52500 29.79200
H  30.98600 0.73900 28.18400
H  30.80500 -0.90500 29.02700
H  28.74200 1.99400 33.74900
H  27.57000 -0.54600 36.85500
H  29.21500 -0.13600 37.44300
H  29.07800 -1.52900 36.50000
Mg 30.39200 58.73800 40.49500
C  27.74500 56.76500 39.15500
C  32.50700 56.37700 39.57900
C  32.68200 61.02100 41.09800
C  27.87500 61.22700 41.28300
N  30.10800 56.84600 39.47800
C  29.02700 56.22100 38.94900
C  29.34200 55.00100 38.10800
C  30.72400 54.71600 38.64900
C  31.17600 56.07500 39.19800
C  30.81900 53.62700 39.76700
C  29.18100 55.39800 36.66800
C  28.46800 54.45000 35.71000
H  28.86700 54.53900 34.23300
N  32.37700 58.66300 40.45300
C  33.10500 57.60300 40.07900
C  34.45600 57.84600 40.40200
C  34.57400 59.22300 40.84600
C  33.19900 59.69600 40.77100
C  35.54900 56.92000 40.13700
C  35.87200 59.84600 41.28100
O  36.92800 59.31800 41.03600
C  35.99000 61.29400 41.85300
N  30.21800 60.84500 41.05900
C  31.38900 61.52800 41.25300
C  31.09200 62.89100 41.76000
C  29.59500 62.83800 42.22300
C  29.16500 61.58700 41.44400
C  32.11800 63.47800 42.76700
C  28.80100 64.06100 41.93700
C  28.14800 64.69800 43.17000
N  28.29800 59.05500 40.15700
C  27.43000 60.04400 40.59100
C  26.05300 59.70700 40.16400
C  26.16800 58.43600 39.63700
C  27.50700 58.03000 39.72600
C  24.84500 60.60900 40.33200
C  25.34800 57.37700 39.16000
O  24.14300 57.31200 38.94700
C  26.42200 56.23000 38.80300
C  26.25500 55.04400 39.61200
O  26.43500 55.01300 40.83700
O  25.87100 53.98600 38.81300
C  25.90300 52.72600 39.57400
H  33.36300 55.73200 39.37100
H  33.48700 61.74000 41.26200
H  27.12700 61.97500 41.55200
H  28.71600 54.16700 38.42800
H  31.36300 54.22400 37.91600
H  30.91100 54.13300 40.72800
H  31.69300 53.02300 39.52700
H  29.95400 52.96400 39.73600
H  30.18900 55.50300 36.26500
H  28.63600 56.34100 36.62800
H  27.40100 54.62200 35.85300
H  28.69500 53.41500 35.96500
H  36.11800 57.23100 39.26100
H  35.26800 55.88100 39.96400
H  36.23400 56.93400 40.98400
H  37.03900 61.54200 42.01500
H  35.33500 61.37400 42.72100
H  35.65600 62.05700 41.15000
H  31.15500 63.48400 40.84800
H  29.63100 62.55300 43.27400
H  32.69300 62.71900 43.29600
H  31.74000 64.20900 43.48300
H  32.83500 64.07800 42.20700
H  28.05500 63.80200 41.18600
H  29.48800 64.75000 41.44500
H  28.48100 65.73400 43.09600
H  28.63000 64.36400 44.08900
H  27.06900 64.54600 43.16200
H  24.37300 60.25500 41.24800
H  24.20300 60.33400 39.49500
H  25.15500 61.65400 40.32500
H  26.32700 56.02900 37.73600
H  25.48400 52.85900 40.57200
H  26.92000 52.41400 39.81000
H  25.32600 51.97800 39.03000

