158

Mg 1.37200 7.62100 25.47900
C  1.98200 9.48700 28.41500
C  1.42900 4.81600 27.39900
C  0.73200 5.82500 22.69500
C  1.64200 10.46500 23.58200
N  1.76800 7.22500 27.70700
C  1.76900 8.10500 28.68700
C  1.77700 7.45300 30.13600
C  1.81900 5.96100 29.73800
C  1.60900 5.95300 28.18900
C  3.00800 5.18000 30.27800
C  0.53800 8.05300 30.96100
C  0.91600 8.51400 32.37100
H  1.99200 7.68600 33.04400
N  1.22400 5.51600 25.09000
C  1.25700 4.53000 25.98300
C  1.08900 3.19300 25.30900
C  0.96000 3.58300 23.91900
C  0.92800 5.01900 23.83100
C  1.17700 1.81900 25.95100
C  0.85900 2.56800 22.76700
O  0.63200 2.96100 21.65000
C  0.85400 1.12300 22.92100
N  1.24200 8.03700 23.38500
C  0.88500 7.18300 22.45900
C  0.65600 7.88100 21.04500
C  0.93000 9.40500 21.38600
C  1.21000 9.32800 22.92500
C  1.63700 7.21800 20.03600
C  -0.23600 10.33200 21.00500
C  0.29400 11.62200 20.29800
N  1.68700 9.61100 25.89200
C  1.83800 10.64200 24.97400
C  2.19300 11.86500 25.73700
C  2.26900 11.41800 27.05400
C  1.96600 10.05900 27.09700
C  2.38900 13.25000 25.24300
C  2.51600 11.88900 28.44000
O  2.82800 13.02500 28.75400
C  2.25900 10.66300 29.41900
C  3.44700 10.54400 30.23600
O  4.51900 10.27400 29.88200
O  3.18000 11.08100 31.48100
C  4.28500 11.42000 32.38600
H  1.37200 3.83800 27.88300
H  0.35200 5.33800 21.79500
H  1.75300 11.36500 22.97200
H  2.64100 7.87400 30.65000
H  0.90800 5.51700 30.13900
H  3.72800 5.92700 30.61100
H  3.31900 4.49800 29.48700
H  2.60200 4.54700 31.06700
H  -0.30000 7.36100 31.04800
H  0.20800 8.94700 30.43100
H  0.07100 8.53600 33.05900
H  1.28100 9.52500 32.18800
H  1.27900 1.92800 27.03100
H  2.00800 1.21900 25.57900
H  0.24800 1.28000 25.76600
H  0.86300 0.63300 21.94700
H  -0.08000 0.95000 23.45500
H  1.65200 0.60600 23.45500
H  -0.38100 7.69600 20.76200
H  1.80600 9.77300 20.85100
H  2.61000 7.11000 20.51700
H  1.60000 7.82100 19.12900
H  1.39500 6.17800 19.81800
H  -0.70200 10.80300 21.87000
H  -0.95700 9.78200 20.40100
H  -0.32000 12.39600 20.75800
H  -0.02600 11.45500 19.27000
H  1.36100 11.84700 20.30300
H  2.86200 13.86900 26.00500
H  1.43500 13.64300 24.89200
H  3.00900 13.22000 24.34600
H  1.41900 10.91100 30.06800
H  3.97000 11.44800 33.42900
H  4.62300 12.42400 32.13000
H  5.06800 10.66600 32.29500
Mg 46.78800 34.53600 28.44000
C  45.43700 32.74500 31.07200
C  47.15700 37.22900 30.53700
C  47.79800 36.50000 25.84400
C  46.08700 31.97900 26.36000
N  46.24800 34.85700 30.60000
C  45.83200 33.97700 31.51400
C  45.98900 34.61600 32.96500
C  45.97000 36.14700 32.58600
C  46.53800 36.07600 31.09700
C  44.59600 36.83100 32.57600
C  47.18200 34.11800 33.75000
C  47.16300 33.72400 35.19600
H  46.70800 34.81600 36.10500
N  47.35800 36.62100 28.22600
C  47.54900 37.51400 29.20200
C  48.09500 38.73300 28.68300
C  48.36500 38.52000 27.29700
C  47.81900 37.20100 27.03700
C  48.47100 39.92600 29.47500
C  48.98300 39.47600 26.28200
O  49.24400 39.09300 25.16800
C  49.40400 40.74800 26.68500
N  46.94400 34.31200 26.38300
C  47.47400 35.18900 25.48500
C  47.57400 34.58200 24.02900
C  46.96600 33.12800 24.25100
C  46.60100 33.15300 25.74500
C  46.63500 35.41200 23.10400
C  47.97000 32.00000 23.80200
C  47.45800 31.00500 22.74100
N  45.95500 32.72300 28.60700
C  45.85800 31.74300 27.66900
C  45.34200 30.60800 28.28000
C  45.00700 30.94800 29.59000
C  45.52900 32.20900 29.76100
C  44.92400 29.27700 27.63900
C  44.51700 30.48800 30.89300
O  44.04800 29.42400 31.27600
C  44.51800 31.78200 31.80200
C  44.92100 31.42600 33.12800
O  46.01700 30.99500 33.46700
O  43.90100 31.64300 33.99000
C  44.01500 30.96200 35.25900
H  47.31600 38.03600 31.25500
H  48.04400 37.07900 24.95100
H  45.83300 31.22200 25.61500
H  45.08000 34.41100 33.53000
H  46.72900 36.67600 33.16200
H  44.67400 37.70100 33.22800
H  43.80000 36.21300 32.99100
H  44.20300 37.14300 31.60900
H  48.10800 34.68300 33.63700
H  47.44600 33.12300 33.39400
H  48.05800 33.17900 35.49600
H  46.31200 33.04300 35.20600
H  49.54600 40.06200 29.35800
H  48.21100 39.84500 30.53100
H  48.01700 40.85100 29.12100
H  49.85000 41.22400 25.81200
H  50.16200 40.69800 27.46700
H  48.47100 41.22300 26.98700
H  48.54400 34.59300 23.53300
H  46.05200 33.02400 23.66500
H  46.48400 36.38700 23.56700
H  45.61200 35.03800 23.09400
H  46.96200 35.54800 22.07300
H  48.20300 31.40700 24.68700
H  48.90700 32.45300 23.47800
H  47.15600 30.11900 23.30000
H  48.14800 30.62500 21.98700
H  46.61600 31.35400 22.14300
H  45.41600 29.06800 26.68900
H  43.86200 29.34400 27.40100
H  45.17500 28.48300 28.34200
H  43.47700 32.10500 31.82000
H  44.50300 29.99800 35.11100
H  43.01400 30.64600 35.55300
H  44.47600 31.51900 36.07500

