158

Mg 35.65000 2.33700 29.09600
C  33.48600 3.11600 31.68100
C  38.30200 2.49600 31.32500
C  37.77800 2.23100 26.39300
C  32.94500 2.73300 26.80300
N  35.84600 2.73400 31.23600
C  34.79800 2.80500 32.09100
C  35.24100 2.93600 33.48400
C  36.83000 2.94400 33.43600
C  37.03900 2.73900 31.86700
C  37.53100 4.23000 34.03400
C  34.63900 1.74400 34.36800
C  34.48800 2.08900 35.87900
H  34.90600 3.49600 36.46700
N  37.71700 2.25500 28.94300
C  38.64100 2.35900 29.98400
C  39.94800 2.18100 29.44600
C  39.83900 2.08300 28.01300
C  38.39300 2.23700 27.69600
C  41.19000 2.12900 30.30300
C  41.01300 1.94300 27.05200
O  40.81900 1.98300 25.79100
C  42.36000 1.62900 27.50700
N  35.43200 2.37400 27.00800
C  36.40600 2.37300 26.09000
C  35.94100 2.64100 24.65700
C  34.41800 2.38300 24.74200
C  34.19400 2.44200 26.25200
C  36.27100 4.08800 24.07400
C  33.89900 1.10200 24.06300
C  33.24400 1.39700 22.73000
N  33.58700 2.81400 29.15500
C  32.60500 2.96100 28.14500
C  31.39200 3.56800 28.72900
C  31.70000 3.58200 30.13600
C  33.03100 3.15900 30.32500
C  30.11300 3.90600 28.00900
C  31.13500 3.86100 31.52900
O  29.98200 3.96500 31.90700
C  32.28400 3.60800 32.53500
C  32.48000 4.83000 33.27700
O  33.16400 5.83600 33.01500
O  31.67900 4.66700 34.47200
C  31.45600 5.89300 35.27800
H  39.15800 2.35100 31.98800
H  38.49800 2.16400 25.57500
H  32.02800 2.83400 26.22000
H  34.94500 3.87500 33.95200
H  37.21300 2.04900 33.92600
H  38.24800 3.91900 34.79400
H  36.76900 4.93400 34.37000
H  38.17000 4.69000 33.28000
H  35.36700 0.93700 34.27900
H  33.69900 1.42800 33.91600
H  35.05200 1.30500 36.38600
H  33.46300 1.90400 36.20000
H  41.93700 2.84300 29.95500
H  41.52200 1.09200 30.35100
H  41.13600 2.40700 31.35600
H  42.65200 2.45500 28.15600
H  42.91800 1.49100 26.58100
H  42.33700 0.67400 28.03100
H  36.35900 1.88500 23.99200
H  33.82000 3.22100 24.38600
H  36.67400 4.00900 23.06400
H  36.96800 4.49300 24.80800
H  35.40900 4.74200 23.93900
H  33.21700 0.57300 24.72800
H  34.68400 0.36600 23.88900
H  32.17700 1.36900 22.95200
H  33.42000 0.56100 22.05300
H  33.70000 2.31800 22.36600
H  29.65100 2.98700 27.64600
H  30.37300 4.65000 27.25600
H  29.36100 4.30300 28.69000
H  32.02600 2.89200 33.31600
H  31.38900 6.84400 34.75000
H  32.12300 5.89700 36.14000
H  30.48200 5.78900 35.75400
Mg 26.70900 50.19700 26.36800
C  24.61300 51.17500 29.02400
C  29.24500 49.71400 28.66200
C  28.67700 49.51500 23.84200
C  24.26600 51.57300 24.11300
N  26.91500 50.53600 28.58500
C  25.92800 50.81800 29.48600
C  26.39900 50.70800 30.96500
C  27.94500 50.43300 30.81500
C  28.07900 50.14500 29.28700
C  28.86300 51.53800 31.30100
C  25.72900 49.63100 31.91200
C  24.88600 50.15400 33.04000
H  24.54000 49.30000 34.26200
N  28.69300 49.73900 26.29100
C  29.53800 49.54200 27.29200
C  30.81600 49.01700 26.78600
C  30.71600 49.09300 25.36100
C  29.35200 49.47000 25.10000
C  31.91000 48.50700 27.63700
C  31.74400 48.85400 24.34500
O  31.48900 49.01400 23.22000
C  33.21700 48.58100 24.70300
N  26.53400 50.50400 24.29800
C  27.43100 49.91900 23.44600
C  26.89900 50.01700 22.04100
C  25.48800 50.65500 22.13800
C  25.40700 50.96500 23.59900
C  28.04100 50.85000 21.22200
C  24.33700 49.84800 21.52500
C  23.31600 50.62100 20.66600
N  24.85000 51.16800 26.43500
C  23.99200 51.65800 25.47300
C  22.82400 52.16600 26.10400
C  22.98600 52.02300 27.46500
C  24.26500 51.41100 27.68000
C  21.60200 52.72900 25.37200
C  22.44300 52.23600 28.81500
O  21.36800 52.74600 29.16000
C  23.49500 51.69600 29.83600
C  23.92700 52.83000 30.77500
O  24.79300 53.69900 30.47100
O  23.09200 52.84600 31.80700
C  23.34200 53.77200 32.90900
H  30.02900 49.51700 29.39600
H  29.28200 49.28300 22.96400
H  23.52700 51.98100 23.42000
H  26.33000 51.67900 31.45700
H  28.22900 49.45800 31.21100
H  28.30200 52.41100 31.63300
H  29.32400 51.91300 30.38700
H  29.52500 51.10300 32.05000
H  26.46200 48.98800 32.39900
H  25.15800 48.99300 31.23800
H  23.93900 50.32700 32.53000
H  25.10500 51.19400 33.28200
H  31.88100 47.41900 27.68400
H  31.76000 48.77000 28.68500
H  32.93600 48.78200 27.39300
H  33.30300 47.81400 25.47300
H  33.84200 49.39700 25.06400
H  33.59400 48.31100 23.71700
H  26.85700 49.01000 21.62600
H  25.64700 51.66300 21.75400
H  28.53100 50.13700 20.56000
H  28.75500 51.28500 21.92200
H  27.76700 51.77900 20.72300
H  23.94000 49.15400 22.26600
H  24.72400 49.16000 20.77300
H  22.41100 50.49200 21.26000
H  23.16300 50.29000 19.63900
H  23.53700 51.68800 20.64100
H  21.02400 51.91800 24.92900
H  21.88300 53.42300 24.58000
H  20.93800 53.12300 26.14100
H  22.90500 50.95000 30.36800
H  23.73200 54.72700 32.55800
H  24.09200 53.28300 33.53000
H  22.46800 53.98700 33.52300

