158

Mg 0.46000 8.17200 26.00600
C  1.38300 10.09800 28.97500
C  0.32400 5.43200 27.88900
C  0.20100 6.62800 23.06300
C  1.00400 11.25500 24.31100
N  0.78900 7.82900 28.13200
C  1.06200 8.74600 29.17300
C  0.93200 8.10400 30.55500
C  1.19300 6.59900 30.11600
C  0.67200 6.57800 28.60700
C  2.63100 6.07300 30.53900
C  -0.47000 8.41000 31.27200
C  -0.43400 8.55500 32.86500
H  0.74100 7.89300 33.68000
N  0.10500 6.32100 25.56000
C  0.10700 5.27600 26.47400
C  -0.24000 4.09500 25.78000
C  -0.17300 4.41500 24.34700
C  0.03700 5.87800 24.29100
C  -0.38500 2.73900 26.42600
C  -0.41700 3.46600 23.16000
O  -0.38400 3.76900 21.94200
C  -0.74600 2.00000 23.49600
N  0.50000 8.89000 24.08700
C  0.34100 8.04400 23.04200
C  0.45700 8.77400 21.70300
C  0.16800 10.21000 22.15300
C  0.71600 10.07900 23.56700
C  1.78800 8.69100 21.02900
C  -1.35400 10.68400 22.13600
C  -1.65200 11.71000 21.00900
N  1.22300 10.26500 26.46300
C  1.31300 11.39400 25.66400
C  1.67800 12.52300 26.41000
C  1.63800 12.03600 27.69500
C  1.37600 10.69700 27.70400
C  2.08000 13.91900 25.87100
C  1.75000 12.48000 29.04400
O  2.03100 13.63900 29.40400
C  1.52600 11.23700 29.92600
C  2.62100 11.05500 30.89300
O  3.63500 10.34800 30.85300
O  2.29600 11.87500 31.93000
C  3.11200 11.65500 33.13100
H  0.30500 4.63100 28.63000
H  0.16500 6.12400 22.09500
H  0.89500 12.12300 23.65600
H  1.67400 8.54600 31.22000
H  0.43700 6.05600 30.68500
H  3.09700 6.74400 31.26000
H  3.27700 6.05300 29.66000
H  2.51500 5.14400 31.09600
H  -1.23300 7.81300 30.77100
H  -0.79000 9.40800 30.97100
H  -1.32600 8.07800 33.27000
H  -0.37500 9.60000 33.17200
H  -1.42500 2.42200 26.35000
H  -0.07000 2.78400 27.46900
H  0.44700 2.14800 26.04200
H  -1.00700 1.48400 22.57200
H  -1.60900 2.04800 24.16000
H  0.07400 1.50200 24.01300
H  -0.38400 8.45700 21.08600
H  0.74300 10.93900 21.58300
H  2.53400 9.31700 21.51900
H  1.71500 9.05800 20.00600
H  2.06800 7.63800 20.98400
H  -1.49900 11.23300 23.06600
H  -2.09600 9.88700 22.09600
H  -0.97400 11.68000 20.15600
H  -1.58400 12.68900 21.48200
H  -2.66100 11.57700 20.61900
H  2.47300 13.66300 24.88700
H  2.91400 14.34200 26.43200
H  1.28200 14.64700 25.72600
H  0.59500 11.44500 30.45400
H  2.57800 11.75600 34.07500
H  3.96000 12.34000 33.11500
H  3.63700 10.70800 33.25300
Mg 40.81700 9.90700 30.07500
C  42.38300 10.95200 32.94500
C  38.04600 8.90300 31.87900
C  39.52000 8.66700 27.15800
C  43.49900 11.23900 28.21200
N  40.35900 9.71800 32.21000
C  41.09300 10.34200 33.14600
C  40.31800 10.51200 34.45000
C  39.09900 9.63700 34.19400
C  39.09000 9.45500 32.63000
C  38.90700 8.28300 34.98300
C  40.05600 11.99900 34.76200
C  39.56300 12.20500 36.15500
H  40.44600 13.02100 37.09700
N  39.02700 8.94900 29.59300
C  38.00200 8.56800 30.45900
C  37.04700 7.69300 29.67500
C  37.46000 7.66700 28.33500
C  38.69400 8.48700 28.28400
C  35.86300 7.06900 30.28700
C  36.82200 6.96900 27.15500
O  37.24100 7.15600 26.06600
C  35.61200 6.26300 27.30400
N  41.47300 9.89200 27.95100
C  40.67000 9.37600 26.98900
C  41.27100 9.69200 25.64400
C  42.40600 10.77900 25.99200
C  42.48000 10.69400 27.45200
C  41.73000 8.47900 24.72800
C  42.13000 12.21400 25.43600
C  41.01600 12.97500 26.14100
N  42.68500 10.69900 30.44900
C  43.63500 11.20400 29.59500
C  44.74400 11.67700 30.40300
C  44.30100 11.64400 31.71200
C  43.02800 11.09600 31.71600
C  45.98500 12.26600 29.85300
C  44.57600 12.03200 33.05200
O  45.58400 12.57600 33.56000
C  43.33500 11.60000 33.91600
C  43.80400 10.66300 34.94300
O  44.49600 9.64800 34.65500
O  43.40800 11.13800 36.21800
C  43.66700 10.21100 37.31900
H  37.10100 8.63200 32.35400
H  39.29200 8.16400 26.21500
H  44.27600 11.63700 27.55700
H  40.80100 10.02200 35.29500
H  38.22800 10.17500 34.56900
H  39.84600 8.16000 35.52200
H  38.76500 7.42300 34.32800
H  38.09100 8.44500 35.68800
H  39.31200 12.40800 34.07800
H  40.96800 12.58000 34.62800
H  39.44800 11.31900 36.78000
H  38.59800 12.70600 36.07400
H  35.09700 7.83500 30.17600
H  35.99300 6.88900 31.35500
H  35.66700 6.06600 29.90600
H  35.42100 5.98400 26.26700
H  34.85400 7.02200 27.49400
H  35.62300 5.34100 27.88400
H  40.56300 10.30300 25.08400
H  43.38500 10.42800 25.66500
H  41.30700 7.54400 25.09600
H  42.80600 8.31600 24.66000
H  41.31700 8.73100 23.75100
H  41.92500 12.01500 24.38400
H  43.03400 12.81300 25.54100
H  41.31900 13.99300 26.38800
H  40.55200 12.48100 26.99500
H  40.23600 13.07100 25.38700
H  46.66400 12.44500 30.68700
H  45.64800 13.05400 29.18000
H  46.51600 11.54800 29.22900
H  43.03100 12.53300 34.39100
H  44.46600 9.49200 37.13900
H  42.74000 9.74900 37.65800
H  43.99600 10.86100 38.13000

