158

Mg 28.38200 56.99800 41.39700
C  25.75100 54.99800 40.42300
C  30.55200 54.85700 39.62500
C  30.81100 59.39300 41.54900
C  26.06900 59.27900 42.81800
N  28.19300 55.11000 40.14900
C  26.99200 54.53800 39.88300
C  27.08400 53.37800 38.84700
C  28.61400 53.04200 39.11400
C  29.17300 54.44700 39.55800
C  28.82800 51.99000 40.26300
C  26.88900 54.00100 37.45300
C  26.48000 53.06500 36.27300
H  27.04500 53.42500 34.90800
N  30.44300 57.11200 40.76100
C  31.16200 56.07100 40.19100
C  32.56400 56.47700 40.02100
C  32.60300 57.74800 40.51700
C  31.27100 58.13200 40.96400
C  33.59400 55.67000 39.42600
C  33.82000 58.61200 40.56500
O  34.94600 58.14100 40.29200
C  33.83400 60.04300 41.03400
N  28.35200 59.02500 42.07100
C  29.53200 59.71300 42.04600
C  29.26800 61.15600 42.61400
C  27.90000 61.02200 43.39400
C  27.37000 59.69000 42.70900
C  30.40000 61.84000 43.49100
C  26.89100 62.18200 43.35300
C  26.15700 62.54900 44.64500
N  26.30000 57.10100 41.67600
C  25.54200 58.08100 42.26300
C  24.13900 57.62900 42.25800
C  24.16200 56.43400 41.48300
C  25.49500 56.17700 41.15800
C  22.99800 58.08400 43.04000
C  23.35700 55.36700 40.85400
O  22.16400 55.14400 40.87200
C  24.36100 54.34600 40.20600
C  24.31300 53.05600 40.91200
O  24.99000 52.69000 41.89200
O  23.39800 52.20600 40.33900
C  23.49600 50.85900 40.82200
H  31.29700 54.28100 39.07400
H  31.53000 60.21400 41.53300
H  25.40500 60.01300 43.27900
H  26.36200 52.60200 39.10200
H  28.94200 52.58100 38.18200
H  29.29200 52.39600 41.16200
H  29.43700 51.18100 39.85900
H  27.96900 51.49100 40.71400
H  27.82700 54.46100 37.14100
H  26.17900 54.82800 37.45700
H  25.39900 53.16600 36.18000
H  26.54600 52.02200 36.58000
H  33.57900 55.72100 38.33800
H  33.37000 54.62200 39.63000
H  34.58900 55.81100 39.84800
H  33.17800 60.63700 40.39800
H  34.82500 60.48400 40.92500
H  33.64700 59.95600 42.10400
H  29.04900 61.78300 41.75000
H  28.13200 60.80600 44.43700
H  30.45800 62.87900 43.17000
H  31.39800 61.45700 43.27800
H  30.19800 61.94400 44.55700
H  26.11700 61.89300 42.64200
H  27.34400 63.10500 42.99500
H  25.10700 62.30000 44.49300
H  26.11800 63.63800 44.66100
H  26.57600 62.05400 45.52100
H  23.15000 57.92600 44.10800
H  22.06500 57.62700 42.70800
H  22.87100 59.15200 42.86400
H  24.05300 54.25300 39.16500
H  23.18100 50.81000 41.86400
H  24.43800 50.34400 40.63500
H  22.83400 50.33100 40.13600
Mg -12.18400 38.72000 41.36700
C  -9.86600 36.08900 40.58200
C  -9.89700 40.94800 39.69200
C  -14.47700 41.17300 41.29800
C  -14.51500 36.47500 42.18800
N  -10.09900 38.45700 40.14600
C  -9.38500 37.31600 40.04300
C  -8.12300 37.51700 39.17500
C  -8.08600 39.08900 39.00800
C  -9.45600 39.58500 39.66300
C  -6.79600 39.80600 39.55100
C  -8.15400 36.80100 37.78400
C  -7.00600 35.89200 37.42300
H  -5.90600 36.51000 36.56400
N  -12.12900 40.84700 40.79800
C  -11.04900 41.51300 40.24700
C  -11.44100 42.89100 40.02000
C  -12.79700 43.01500 40.38600
C  -13.22900 41.66200 40.85000
C  -10.54300 43.92800 39.33100
C  -13.63800 44.29600 40.36500
O  -13.05400 45.28500 40.00700
C  -15.09900 44.41400 40.76000
N  -14.12700 38.80000 41.65300
C  -14.83700 39.91400 41.73300
C  -16.23100 39.67600 42.26000
C  -16.30100 38.15100 42.28100
C  -14.90300 37.77800 42.08000
C  -16.48600 40.51300 43.48800
C  -17.30100 37.46900 41.34300
C  -18.15100 36.29700 41.94700
N  -12.16000 36.74100 41.54100
C  -13.21800 35.92100 41.92700
C  -12.75700 34.61400 42.15100
C  -11.45400 34.66900 41.55800
C  -11.14100 35.99200 41.20700
C  -13.47700 33.48700 42.81100
C  -10.30700 33.82500 41.26800
O  -10.11700 32.61200 41.53200
C  -9.28900 34.72400 40.65600
C  -7.98600 34.47800 41.42300
O  -7.27000 33.52900 41.27200
O  -7.77100 35.45100 42.37100
C  -6.73100 35.09000 43.26100
H  -9.24700 41.58400 39.08700
H  -15.33300 41.85000 41.30700
H  -15.34000 35.79200 42.40100
H  -7.29600 37.16500 39.79200
H  -8.17500 39.38300 37.96300
H  -6.23600 39.12700 40.19300
H  -6.92700 40.72000 40.13100
H  -6.09800 40.11200 38.77100
H  -8.42000 37.44500 36.94500
H  -8.98900 36.11900 37.93800
H  -7.22800 34.97300 36.88100
H  -6.51400 35.65100 38.36500
H  -11.07900 44.65900 38.72500
H  -9.81100 43.39200 38.72700
H  -9.87100 44.29200 40.10900
H  -15.41300 45.45300 40.65400
H  -15.27900 44.26100 41.82400
H  -15.84900 43.80900 40.25000
H  -16.92700 39.93900 41.46400
H  -16.62200 37.90500 43.29300
H  -15.62400 41.16600 43.62800
H  -16.60100 39.95600 44.41700
H  -17.35600 41.13400 43.27300
H  -16.65900 37.13700 40.52800
H  -17.92000 38.23400 40.87500
H  -19.13200 36.27800 41.47200
H  -18.28000 36.45900 43.01700
H  -17.65700 35.34000 41.78300
H  -12.71700 32.84300 43.25400
H  -14.14000 33.07400 42.05100
H  -13.94700 33.98100 43.66100
H  -9.10500 34.46200 39.61400
H  -5.81200 34.91300 42.70100
H  -6.91400 34.17400 43.82200
H  -6.65400 35.90100 43.98500

