158

Mg 34.22900 3.76800 29.61500
C  32.17300 4.74300 32.25900
C  36.88100 3.56500 31.75900
C  36.13000 2.84500 27.02300
C  31.47200 4.29700 27.41300
N  34.49400 4.29500 31.66600
C  33.51100 4.49200 32.60700
C  34.08600 4.37500 34.06500
C  35.59300 4.40200 33.79700
C  35.65800 3.99200 32.32000
C  36.27100 5.76500 34.25800
C  33.44500 3.19400 34.86800
C  33.34200 3.22500 36.35500
H  33.97200 4.40400 37.08700
N  36.21000 3.37600 29.36700
C  37.15500 3.29400 30.37000
C  38.43100 2.94100 29.77100
C  38.27100 2.65700 28.42400
C  36.77700 2.94200 28.22700
C  39.75200 2.91100 30.54000
C  39.31200 2.28500 27.37500
O  39.06500 2.44800 26.19600
C  40.59200 1.65400 27.75100
N  33.76000 3.38900 27.61000
C  34.80000 3.08100 26.69700
C  34.30700 3.10600 25.29100
C  32.85200 3.61300 25.36100
C  32.64200 3.73300 26.90300
C  35.17000 3.94100 24.34900
C  31.96100 2.61000 24.57900
C  31.39000 1.37000 25.28100
N  32.22400 4.31900 29.78500
C  31.23700 4.54000 28.81500
C  29.97600 4.92400 29.42600
C  30.26200 5.02200 30.83500
C  31.62200 4.66700 30.98100
C  28.61200 5.18100 28.68000
C  29.76600 5.28200 32.16700
O  28.61800 5.58200 32.51000
C  30.99500 5.18000 33.14100
C  31.10500 6.49000 33.82200
O  31.25500 7.60600 33.27000
O  31.04000 6.32600 35.13000
C  31.41400 7.47800 35.97800
H  37.79800 3.45200 32.34000
H  36.81700 2.58600 26.21500
H  30.70400 4.60000 26.69800
H  33.62000 5.22300 34.56600
H  35.94600 3.55000 34.37800
H  37.00800 5.56500 35.03600
H  35.42900 6.39300 34.54800
H  36.69400 6.19200 33.34900
H  33.96400 2.28700 34.55800
H  32.44100 3.01000 34.48500
H  33.73000 2.29200 36.76500
H  32.27700 3.30400 36.57400
H  39.64400 3.56100 31.40900
H  40.60300 3.20400 29.92500
H  40.07900 1.90500 30.80100
H  40.99400 1.02000 26.96100
H  40.40800 0.99400 28.59900
H  41.37800 2.37300 27.98100
H  34.40800 2.09000 24.90800
H  32.82300 4.56700 24.83400
H  35.92000 4.51000 24.89800
H  34.61600 4.67600 23.76600
H  35.69300 3.30800 23.63200
H  32.40200 2.33000 23.62300
H  31.09500 3.19200 24.26200
H  31.37600 0.54100 24.57300
H  30.36800 1.56500 25.60500
H  32.10900 1.00100 26.01300
H  27.87100 5.40900 29.44700
H  28.23100 4.31000 28.14800
H  28.71900 6.01100 27.98100
H  30.80100 4.35900 33.83200
H  31.61300 7.05000 36.96100
H  30.65800 8.26300 35.96200
H  32.35500 7.87900 35.60100
Mg 48.52100 25.39400 27.87200
C  49.20200 27.64800 30.49600
C  47.38200 23.26900 30.20400
C  48.31400 23.17200 25.39100
C  50.04800 27.65800 25.64400
N  48.23900 25.49100 30.09200
C  48.64800 26.43300 30.93800
C  48.47300 26.07700 32.41100
C  47.93400 24.62100 32.34500
C  47.78300 24.41700 30.80200
C  48.79500 23.51400 33.02800
C  47.65800 27.11600 33.24100
C  46.68000 26.73900 34.27200
H  46.46400 27.70500 35.43400
N  47.80300 23.48700 27.83800
C  47.33200 22.79000 28.87800
C  46.98300 21.47500 28.39900
C  47.20000 21.44600 26.96200
C  47.74600 22.74500 26.65100
C  46.41000 20.37500 29.28800
C  46.86600 20.30700 25.91100
O  47.06800 20.50800 24.73600
C  46.26300 18.97600 26.41700
N  49.19200 25.32900 25.81700
C  49.03800 24.30100 24.98500
C  49.49400 24.50400 23.49600
C  49.64900 26.05100 23.60900
C  49.60100 26.42200 25.14000
C  50.83600 23.79800 23.10300
C  48.56100 26.89100 22.81200
C  49.17500 27.68600 21.60500
N  49.38900 27.27700 27.95700
C  49.93200 28.11300 26.99800
C  50.50000 29.29000 27.61900
C  50.15500 29.17000 28.97300
C  49.44500 27.99700 29.10200
C  51.48200 30.29800 26.96400
C  50.29600 29.82000 30.25100
O  50.85000 30.87700 30.57000
C  49.64700 28.85300 31.29200
C  50.64000 28.66400 32.31600
O  51.52600 27.82500 32.25100
O  50.38200 29.37400 33.43600
C  51.20800 29.03900 34.65200
H  47.23300 22.53100 30.99500
H  48.33000 22.45700 24.56600
H  50.31200 28.37600 24.86400
H  49.45700 26.01900 32.87600
H  46.88500 24.54000 32.63100
H  49.44900 24.10100 33.67300
H  49.44300 22.89700 32.40700
H  48.20600 22.91700 33.72500
H  47.02200 27.59900 32.49900
H  48.32100 27.83900 33.71700
H  46.90400 25.76600 34.71000
H  45.68700 26.61100 33.84100
H  47.03400 19.48700 29.18600
H  45.45900 19.99000 28.92000
H  46.23700 20.74000 30.30000
H  46.97900 18.54200 27.11600
H  46.07300 18.49300 25.45800
H  45.31600 19.11600 26.93700
H  48.70900 24.05700 22.88600
H  50.60200 26.31800 23.15300
H  51.24600 23.18400 23.90500
H  51.53800 24.52000 22.68600
H  50.54100 23.10800 22.31300
H  48.05900 27.56200 23.50900
H  47.80500 26.23800 22.37700
H  48.89500 28.72800 21.75900
H  48.93400 27.31000 20.61000
H  50.25800 27.62200 21.70700
H  52.18400 29.76100 26.32600
H  52.05300 30.80700 27.74000
H  51.08800 31.16900 26.44100
H  48.87700 29.50200 31.71000
H  50.75100 28.15000 35.08600
H  51.12700 29.89300 35.32400
H  52.25900 28.88800 34.40600

