158

Mg 0.18900 7.35300 26.02500
C  1.32600 9.21400 28.90200
C  0.49600 4.48300 28.03800
C  -0.44400 5.51500 23.46600
C  0.64000 10.25000 24.10100
N  0.74900 6.92500 28.17600
C  1.02000 7.85300 29.11600
C  1.16400 7.21300 30.49900
C  1.35700 5.70900 30.12700
C  0.69500 5.68800 28.69800
C  2.83800 5.30300 30.32500
C  -0.05100 7.61200 31.43700
C  0.16700 7.77900 32.94100
H  1.41000 7.07800 33.48300
N  0.00300 5.28000 25.80800
C  0.27000 4.22700 26.67300
C  0.14500 2.94600 25.99800
C  -0.18000 3.27800 24.62900
C  -0.25000 4.73600 24.61800
C  0.15100 1.59700 26.85700
C  -0.50300 2.34700 23.44500
O  -1.01200 2.69800 22.35700
C  -0.41800 0.89400 23.66300
N  0.01900 7.87300 24.03000
C  -0.33800 6.90300 23.15400
C  -0.53900 7.50000 21.75800
C  -0.20300 9.02000 21.90800
C  0.23300 9.07300 23.42200
C  0.14300 6.93800 20.51400
C  -1.26500 10.02400 21.45000
C  -0.91000 10.85900 20.21200
N  0.68000 9.39500 26.39800
C  0.74200 10.42400 25.49500
C  1.19700 11.65000 26.17300
C  1.50800 11.23400 27.48100
C  1.12000 9.86700 27.59900
C  1.30700 13.07800 25.63000
C  1.99800 11.63800 28.75200
O  2.50900 12.68700 29.07300
C  1.78600 10.42600 29.73600
C  2.91600 10.29700 30.73200
O  3.91900 9.59900 30.57900
O  2.73800 11.15600 31.81000
C  3.85300 11.17000 32.77900
H  0.80000 3.65600 28.68200
H  -0.64800 4.92800 22.56800
H  0.70900 11.15300 23.49000
H  2.11100 7.50200 30.95400
H  0.65000 5.21000 30.79000
H  3.43400 6.20500 30.46200
H  3.21900 4.67400 29.52100
H  2.92200 4.74500 31.25800
H  -0.80700 6.83300 31.34700
H  -0.53900 8.56100 31.21700
H  -0.70100 7.43500 33.50300
H  0.40900 8.83200 33.09000
H  0.69800 1.68400 27.79600
H  0.35200 0.82100 26.11700
H  -0.84100 1.23700 27.12700
H  -1.10300 0.58400 24.45200
H  0.63900 0.74400 23.88300
H  -0.74600 0.35100 22.77600
H  -1.62000 7.35500 21.76200
H  0.78800 9.16800 21.47800
H  0.55000 7.63800 19.78400
H  -0.72000 6.43800 20.07300
H  1.06300 6.38000 20.68600
H  -1.34600 10.67000 22.32500
H  -2.17900 9.52700 21.12500
H  0.08700 10.59500 19.86000
H  -1.11900 11.91600 20.38100
H  -1.56900 10.40900 19.47000
H  1.45200 13.11900 24.55000
H  2.09900 13.67900 26.07600
H  0.37300 13.52300 25.97200
H  0.98900 10.80700 30.37500
H  3.99300 12.23700 32.95500
H  4.75700 10.60800 32.54500
H  3.34800 10.85100 33.69100
Mg 41.97700 41.07700 27.13600
C  41.19800 43.54200 29.51400
C  42.64500 38.88200 29.61200
C  42.93300 38.89600 24.74000
C  41.09300 43.37700 24.58200
N  42.15900 41.32500 29.30700
C  41.70300 42.36000 30.10700
C  41.50800 41.84700 31.56200
C  42.35800 40.51400 31.53700
C  42.35100 40.19300 30.03100
C  43.73000 40.79500 32.14700
C  40.03500 41.72600 32.00500
C  39.52500 42.80700 32.96200
H  39.38000 42.51300 34.44400
N  42.72400 39.11900 27.22800
C  42.88900 38.35500 28.32900
C  43.32100 37.08100 27.92300
C  43.47900 37.07800 26.51100
C  43.08000 38.36600 26.09000
C  43.78300 36.02300 28.87100
C  44.07900 36.04500 25.58800
O  44.50500 36.24500 24.44700
C  44.25100 34.68300 26.04800
N  41.97200 41.11600 24.96400
C  42.43600 40.08000 24.23400
C  42.29000 40.40100 22.72900
C  41.68500 41.79700 22.69900
C  41.58100 42.13700 24.17800
C  43.67600 40.17100 21.97800
C  40.36600 41.90900 21.89100
C  39.10700 41.34000 22.54900
N  41.33800 43.04200 27.02700
C  41.01600 43.81700 25.91500
C  40.70900 45.15500 26.35300
C  40.68700 45.06900 27.79200
C  41.18300 43.81600 28.17400
C  40.41800 46.47300 25.49100
C  40.55600 45.83300 29.05100
O  40.37400 46.99400 29.19900
C  40.71800 44.79600 30.19500
C  41.73600 45.37500 31.11200
O  42.96900 45.28900 30.90700
O  41.10900 46.03600 32.13300
C  42.02300 46.80500 32.96500
H  42.75600 38.21400 30.46900
H  43.17900 38.15700 23.97400
H  40.93800 44.08800 23.76800
H  41.94300 42.50800 32.31100
H  41.92300 39.64800 32.03600
H  44.54400 40.47700 31.49500
H  43.83000 40.12700 33.00200
H  43.90500 41.80800 32.50800
H  39.82600 40.74200 32.42400
H  39.45200 41.97700 31.11900
H  38.55800 43.11500 32.56300
H  40.09500 43.72800 32.84600
H  43.20200 35.12000 28.68600
H  43.65700 36.39900 29.88700
H  44.83000 35.72200 28.86000
H  44.43800 33.94900 25.26400
H  43.29600 34.37800 26.47600
H  45.00300 34.71000 26.83700
H  41.61200 39.64500 22.33400
H  42.34900 42.50100 22.19900
H  44.15700 39.25200 22.31400
H  44.35300 40.97700 22.25900
H  43.46300 39.89700 20.94400
H  40.48900 41.39900 20.93600
H  40.26200 42.98900 21.78600
H  39.33500 40.88300 23.51100
H  38.55700 40.68900 21.87000
H  38.43500 42.18000 22.72400
H  39.72700 47.07000 26.08600
H  39.88700 46.27200 24.56100
H  41.34600 46.96400 25.20000
H  39.75300 44.57100 30.65000
H  43.07300 46.51500 32.99900
H  41.60000 46.62500 33.95300
H  41.81400 47.85900 32.78200

