158

Mg 53.50800 24.92800 44.37300
C  50.90900 27.23600 43.63700
C  51.56000 22.47900 43.01100
C  56.22400 22.96600 44.56500
C  55.59100 27.73000 44.89100
N  51.46400 24.93600 43.33100
C  50.57400 25.96200 43.18000
C  49.25800 25.35700 42.57200
C  49.38700 23.86100 42.78900
C  50.94700 23.71800 42.98500
C  48.61000 23.24400 43.97500
C  48.75200 25.71100 41.14700
C  49.69300 25.99300 40.02700
H  49.49800 25.26000 38.73700
N  53.77500 22.99300 43.93600
C  52.90500 22.17400 43.28600
C  53.55700 20.89400 43.11200
C  54.82400 20.91600 43.84400
C  54.97000 22.34300 44.20500
C  52.89600 19.64000 42.52400
C  55.73700 19.73900 44.09400
O  55.45900 18.60700 43.62400
C  56.79900 19.75700 45.10600
N  55.73300 25.34600 44.50100
C  56.59200 24.31900 44.67700
C  58.03900 24.82900 44.76100
C  57.78800 26.39300 44.91900
C  56.26000 26.51000 44.71200
C  58.91000 24.07700 45.80700
C  58.66200 27.30800 44.15000
C  59.38300 28.41500 44.93900
N  53.33300 27.00800 44.27700
C  54.23100 27.98400 44.75300
C  53.57700 29.22900 45.04000
C  52.24100 28.95800 44.64200
C  52.20300 27.61600 44.09800
C  54.18700 30.48700 45.55000
C  50.92500 29.60200 44.38000
O  50.46500 30.74600 44.64700
C  50.03800 28.49700 43.70100
C  49.60400 28.94400 42.28300
O  50.46100 29.08200 41.40400
O  48.29200 29.21900 42.20000
C  47.86700 29.65300 40.83000
H  50.95700 21.66800 42.59700
H  57.07800 22.28600 44.59500
H  56.28400 28.48900 45.26200
H  48.44900 25.73800 43.19500
H  49.17100 23.26200 41.90400
H  47.80400 23.87800 44.34500
H  49.32000 22.92000 44.73500
H  48.07900 22.35300 43.63700
H  48.07100 26.53900 41.33900
H  48.09100 24.96400 40.70600
H  50.71100 25.77400 40.34900
H  49.58900 27.04300 39.75500
H  53.58600 19.30500 41.75000
H  51.86100 19.80600 42.22600
H  52.82500 18.80600 43.22200
H  56.76400 18.80700 45.63900
H  56.51800 20.61200 45.72200
H  57.78700 19.98400 44.70500
H  58.56800 24.66400 43.82200
H  57.96200 26.67300 45.95800
H  58.44500 23.21000 46.27700
H  59.11500 24.72600 46.65900
H  59.84300 23.70800 45.38200
H  58.07200 27.84100 43.40500
H  59.38200 26.74500 43.55500
H  59.58100 29.20600 44.21600
H  60.24500 27.95000 45.41800
H  58.67400 28.87400 45.62800
H  55.25600 30.44600 45.75800
H  53.80300 30.74800 46.53600
H  54.00000 31.39300 44.97400
H  49.12800 28.21500 44.23200
H  48.56600 29.37000 40.04300
H  47.60800 30.70200 40.68500
H  47.04300 28.95600 40.68100
Mg -5.71400 25.21000 26.00000
C  -4.45700 26.44100 28.91900
C  -7.79900 23.13300 27.83900
C  -6.73700 23.63600 23.18100
C  -3.28700 27.06100 24.13000
N  -5.98100 24.81800 28.11400
C  -5.48400 25.53900 29.12400
C  -6.06100 25.20000 30.51300
C  -6.95900 23.90100 30.16200
C  -6.85700 23.89100 28.63100
C  -6.45400 22.48300 30.77200
C  -6.89500 26.42400 30.98900
C  -6.66800 26.76400 32.42200
H  -6.05000 25.64900 33.26700
N  -7.18800 23.70900 25.56700
C  -8.02200 23.05700 26.44000
C  -8.94800 22.18200 25.76500
C  -8.53900 22.23300 24.41100
C  -7.46000 23.27200 24.32500
C  -10.07600 21.39900 26.38000
C  -9.02000 21.38900 23.22800
O  -8.52000 21.44800 22.09900
C  -10.14000 20.44700 23.39500
N  -5.16900 25.37600 23.94700
C  -5.70100 24.57000 22.99200
C  -5.08200 24.83700 21.62500
C  -4.22000 26.14600 21.89200
C  -4.19100 26.20000 23.43900
C  -4.28400 23.62200 21.09000
C  -4.73400 27.46200 21.22500
C  -3.61800 28.40200 20.62700
N  -4.13300 26.43700 26.41300
C  -3.21500 27.11100 25.56800
C  -2.34100 27.86800 26.40800
C  -2.77800 27.70000 27.76000
C  -3.88700 26.84700 27.70200
C  -1.19100 28.66000 25.91900
C  -2.48500 27.96500 29.16500
O  -1.54000 28.58600 29.61200
C  -3.62800 27.17100 30.00700
C  -2.85200 26.28600 30.93700
O  -2.57900 25.11400 30.83400
O  -2.58300 27.08200 32.11800
C  -1.84500 26.43000 33.20500
H  -8.50600 22.50200 28.38100
H  -7.04900 23.15100 22.25400
H  -2.61800 27.63500 23.48500
H  -5.21300 24.94500 31.14900
H  -8.02700 24.01100 30.34900
H  -5.43600 22.57900 31.14900
H  -6.54100 21.71400 30.00400
H  -7.15100 22.28700 31.58700
H  -7.95800 26.26800 30.80100
H  -6.60100 27.29600 30.40500
H  -7.61900 27.00900 32.89600
H  -6.01800 27.64000 32.42500
H  -10.31000 21.56800 27.43100
H  -9.75700 20.35700 26.37400
H  -10.98900 21.48200 25.79100
H  -10.41500 20.09700 22.40000
H  -11.02100 20.94000 23.80700
H  -9.94300 19.65500 24.11700
H  -5.96900 25.07500 21.03800
H  -3.19900 25.83300 21.66900
H  -3.31200 23.88000 20.67100
H  -4.80700 23.13300 20.26800
H  -4.11200 22.89400 21.88200
H  -5.31100 28.06300 21.92700
H  -5.44500 27.25400 20.42500
H  -3.80500 29.38800 21.05200
H  -3.75000 28.45900 19.54700
H  -2.58200 28.15100 20.85600
H  -1.50400 29.57900 25.42300
H  -0.41000 28.11200 25.39000
H  -0.68500 29.04300 26.80500
H  -4.28900 27.76600 30.63700
H  -1.60500 25.37500 33.07300
H  -2.48800 26.56400 34.07500
H  -0.93700 26.97900 33.45600

