158

Mg 7.79100 2.68400 27.58300
C  9.06100 0.97900 30.34200
C  5.58500 4.47800 29.77600
C  6.02700 3.65200 24.90100
C  9.31800 0.11900 25.54600
N  7.32800 2.67800 29.82100
C  8.14100 2.00000 30.73000
C  7.85700 2.43400 32.17400
C  6.67500 3.54500 31.95700
C  6.52000 3.59000 30.46400
C  5.39400 3.21500 32.77400
C  9.23900 3.01800 32.72500
C  9.47800 2.75500 34.16000
H  9.37900 3.89800 35.12800
N  6.25700 4.07000 27.34900
C  5.45500 4.63200 28.33800
C  4.66600 5.66800 27.67100
C  4.79100 5.47300 26.26800
C  5.74200 4.35600 26.08000
C  3.75700 6.59400 28.50600
C  4.19600 6.28200 25.04400
O  4.32400 5.98500 23.81500
C  3.32400 7.48800 25.32600
N  7.55200 1.79100 25.46100
C  6.81300 2.52000 24.58800
C  7.08400 2.04700 23.08300
C  8.17100 0.89400 23.36300
C  8.42300 0.94000 24.87500
C  5.86500 1.61500 22.29400
C  9.49500 0.97200 22.60800
C  9.86600 -0.17600 21.73100
N  9.01600 0.98800 27.80300
C  9.56000 0.03700 26.88800
C  10.34100 -0.87600 27.62600
C  10.19600 -0.54600 28.98700
C  9.39500 0.59500 29.02300
C  11.02000 -1.99300 27.00000
C  10.58800 -0.91100 30.34300
O  11.30400 -1.74600 30.82700
C  9.90400 0.09300 31.18200
C  9.09300 -0.66300 32.19200
O  8.12800 -1.32500 31.91500
O  9.68900 -0.47500 33.41400
C  8.76700 -1.04900 34.48100
H  4.99400 5.13300 30.42000
H  5.55200 4.09000 24.02100
H  9.88400 -0.61800 24.97200
H  7.52300 1.47600 32.57300
H  7.06000 4.55300 32.10600
H  4.68400 2.78800 32.06600
H  5.03900 4.13400 33.24100
H  5.59400 2.49100 33.56400
H  9.18600 4.10700 32.69400
H  10.07000 2.75300 32.07200
H  10.48100 2.36600 34.33200
H  8.73200 2.03200 34.49100
H  4.14600 6.87800 29.48400
H  2.85600 5.99900 28.65000
H  3.42000 7.50300 28.00700
H  3.92100 8.04500 26.04800
H  2.36200 7.19700 25.74700
H  3.38700 8.19300 24.49800
H  7.55900 2.78400 22.43500
H  7.64100 -0.04800 23.22300
H  4.95600 1.69200 22.89000
H  6.02900 0.58100 21.99100
H  5.61600 2.32400 21.50300
H  10.36500 1.15200 23.23900
H  9.54900 1.89500 22.03100
H  10.38400 0.20700 20.85200
H  9.03600 -0.80000 21.40100
H  10.59400 -0.83200 22.20800
H  11.57900 -2.45500 27.81300
H  11.70600 -1.56900 26.26600
H  10.28900 -2.71300 26.63300
H  10.71100 0.65600 31.64900
H  7.70300 -1.19000 34.29100
H  8.93200 -0.38400 35.32900
H  9.22300 -1.98400 34.80800
Mg 10.20300 47.11700 26.04400
C  8.09000 47.33700 28.65300
C  12.74400 48.59300 27.85300
C  12.34200 47.10900 23.23700
C  7.57400 46.72400 23.87800
N  10.42300 47.77600 28.04000
C  9.46800 47.67400 29.00000
C  10.00200 48.19600 30.36500
C  11.27900 48.97200 29.86600
C  11.51000 48.44000 28.49300
C  10.90700 50.47800 29.67000
C  10.25000 47.13400 31.44300
C  9.81800 47.35600 32.91100
H  9.76400 46.01100 33.64500
N  12.26800 47.59900 25.66100
C  13.13500 48.04200 26.61700
C  14.47600 48.09400 26.06400
C  14.42500 47.63700 24.71900
C  12.97400 47.40800 24.48500
C  15.69100 48.41900 26.80000
C  15.55700 47.39900 23.68400
O  15.33700 47.10900 22.50900
C  16.97900 47.68700 24.08200
N  10.00200 46.86000 23.90200
C  10.98700 46.80200 23.01500
C  10.48900 46.42700 21.64000
C  8.94900 46.33600 21.78800
C  8.83200 46.61800 23.28100
C  10.91600 47.24500 20.41200
C  8.29200 44.97800 21.23300
C  6.82000 45.07000 20.82100
N  8.14800 46.96300 26.21800
C  7.17700 46.77500 25.23000
C  5.87000 46.70000 25.90100
C  6.14200 46.97100 27.22200
C  7.54700 47.09200 27.37300
C  4.56600 46.32200 25.31700
C  5.61500 46.99800 28.56900
O  4.48900 46.84600 28.92900
C  6.80400 47.25300 29.54000
C  6.92300 46.03800 30.39700
O  7.44000 44.97700 30.05200
O  6.43000 46.32600 31.66700
C  6.54800 45.26600 32.68400
H  13.48600 49.15900 28.42000
H  12.83400 47.17100 22.26500
H  6.61700 46.68400 23.35400
H  9.27700 48.90800 30.75900
H  12.16300 48.71700 30.45100
H  11.32400 51.06200 30.49000
H  9.83400 50.66800 29.64400
H  11.28900 50.83100 28.71100
H  11.32100 46.99600 31.59000
H  9.86000 46.20500 31.02700
H  8.82500 47.80600 32.92600
H  10.55000 47.97500 33.43000
H  15.51100 48.39400 27.87400
H  16.21000 49.33600 26.52000
H  16.42600 47.61700 26.72200
H  17.16900 47.00300 24.91000
H  17.05300 48.70800 24.45600
H  17.59100 47.51300 23.19700
H  10.84100 45.45600 21.29200
H  8.47800 47.17000 21.26800
H  11.07800 48.20000 20.91100
H  10.07800 47.21600 19.71500
H  11.82200 46.95600 19.87800
H  8.42900 44.27500 22.05400
H  8.86200 44.66600 20.35800
H  6.34300 44.36100 21.49800
H  6.51300 44.67700 19.85200
H  6.36400 46.05400 20.93500
H  4.75600 46.06400 24.27500
H  3.94400 47.19300 25.52000
H  4.25700 45.40900 25.82700
H  6.60000 48.19000 30.05900
H  6.89200 45.93300 33.47500
H  7.23800 44.43900 32.51400
H  5.60700 44.77500 32.93200

