158

Mg 0.29500 8.13000 26.26900
C  0.87400 10.14500 29.26200
C  0.78400 5.46300 28.12200
C  0.35900 6.50300 23.49100
C  0.69200 11.21300 24.40000
N  0.84000 7.80400 28.46200
C  0.82400 8.74300 29.48100
C  0.97900 8.00400 30.83300
C  0.96100 6.47600 30.44500
C  0.80100 6.58300 28.93700
C  2.28600 5.73900 30.94900
C  -0.19700 8.42000 31.82700
C  0.09200 8.43700 33.37900
H  1.17500 7.56900 34.00100
N  0.51200 6.18600 25.81700
C  0.66600 5.19700 26.72200
C  0.46300 3.88500 26.04500
C  0.46700 4.18100 24.59400
C  0.38400 5.70000 24.58000
C  0.32500 2.54100 26.78700
C  0.27900 3.28100 23.34400
O  0.02200 3.81200 22.32000
C  0.35900 1.79600 23.46300
N  0.45200 8.78400 24.27900
C  0.31900 7.87100 23.28700
C  0.21100 8.51700 21.87600
C  -0.04600 9.99900 22.22500
C  0.47300 10.00100 23.71200
C  1.58000 8.25300 21.17300
C  -1.54300 10.33100 22.18400
C  -1.87500 11.51900 21.23400
N  0.67900 10.26700 26.72300
C  0.78500 11.31800 25.82500
C  0.92900 12.55400 26.54600
C  1.00300 12.19000 27.93100
C  0.82400 10.74400 27.98200
C  1.09500 13.94100 25.98200
C  1.27200 12.67300 29.24000
O  1.60600 13.78700 29.68600
C  1.08500 11.36000 30.21000
C  2.19300 11.23500 31.15800
O  3.14500 10.51900 30.93500
O  1.96200 11.95300 32.29100
C  3.09500 12.10400 33.18100
H  1.00100 4.56500 28.70300
H  0.30600 6.02900 22.50800
H  0.74100 12.16400 23.86500
H  1.91700 8.29300 31.30600
H  0.09100 5.93500 30.81600
H  1.99500 4.87600 31.54700
H  3.03400 6.32600 31.48200
H  2.85600 5.37100 30.09500
H  -1.02100 7.73700 31.61800
H  -0.54300 9.42700 31.59500
H  -0.77000 8.32400 34.03600
H  0.45800 9.41700 33.68400
H  0.16000 2.68600 27.85500
H  1.21300 1.93800 26.60100
H  -0.63900 2.13600 26.47900
H  -0.38100 1.40200 24.15900
H  1.28700 1.51600 23.96000
H  0.38500 1.33400 22.47600
H  -0.60900 8.18600 21.23800
H  0.59300 10.63300 21.61100
H  2.17400 7.49600 21.68500
H  2.19600 9.15100 21.12500
H  1.49300 8.03100 20.10900
H  -1.79900 10.74300 23.16000
H  -2.18200 9.48700 21.92400
H  -1.99000 12.43600 21.81100
H  -2.87800 11.26400 20.89200
H  -1.25200 11.75100 20.37000
H  0.44600 13.96700 25.10600
H  2.13600 14.15400 25.74000
H  0.75200 14.68300 26.70300
H  0.20800 11.59300 30.81300
H  3.58900 13.03500 32.90100
H  3.69900 11.20000 33.25900
H  2.60400 12.15000 34.15200
Mg 49.32100 35.21000 26.20300
C  47.65500 34.13200 29.08900
C  49.91300 38.13800 27.62200
C  50.78200 36.05100 23.38300
C  48.31000 32.01800 24.63500
N  48.97200 35.98600 28.19900
C  48.22400 35.39800 29.20300
C  47.98800 36.41400 30.34300
C  48.54500 37.77600 29.74800
C  49.24200 37.24300 28.43700
C  47.46000 38.81600 29.47800
C  48.82200 36.03600 31.69200
C  48.03000 35.84800 33.01500
H  47.85700 36.96500 34.05300
N  50.22600 36.84900 25.54600
C  50.33900 38.00100 26.28100
C  51.21200 38.90800 25.52800
C  51.55800 38.35400 24.29000
C  50.88600 36.99800 24.36100
C  51.62500 40.32300 26.02200
C  52.32800 38.86700 23.11800
O  52.66300 38.20700 22.08200
C  52.92200 40.26000 23.16200
N  49.42800 34.17800 24.35300
C  50.13200 34.84200 23.33700
C  50.22200 33.89100 22.16600
C  49.60400 32.53800 22.54200
C  49.11800 32.93800 23.95900
C  49.61700 34.56100 20.82300
C  50.60200 31.32500 22.51000
C  50.20400 30.15700 21.56300
N  48.20500 33.46200 26.72200
C  47.93000 32.24900 25.98200
C  47.09800 31.40000 26.81000
C  46.98800 32.06900 28.05500
C  47.69600 33.29400 27.97400
C  46.53300 30.09000 26.42400
C  46.46600 31.97700 29.31100
O  45.86800 31.07500 29.78400
C  46.60900 33.38400 29.94600
C  46.99600 33.09500 31.34900
O  48.11400 32.83900 31.74300
O  45.86200 33.18400 32.09900
C  45.96900 32.83300 33.51200
H  50.11100 39.12900 28.03500
H  51.42500 36.15500 22.50600
H  48.12100 30.97900 24.36000
H  46.92200 36.52200 30.54500
H  49.20700 38.25500 30.46900
H  47.31300 38.94800 28.40700
H  47.69400 39.73000 30.02500
H  46.47700 38.59300 29.89100
H  49.41000 36.93000 31.90500
H  49.40300 35.13500 31.49900
H  48.45500 35.02000 33.58300
H  47.02300 35.64000 32.65200
H  51.06100 40.98300 25.36200
H  52.67200 40.60600 26.12900
H  51.27300 40.54400 27.02900
H  53.57200 40.42300 22.30200
H  53.43800 40.58200 24.06600
H  52.05700 40.88700 22.94400
H  51.30200 33.84500 22.03000
H  48.76600 32.32200 21.88000
H  48.71900 34.15300 20.36000
H  50.35200 34.54300 20.01800
H  49.53200 35.61600 21.08100
H  50.64800 30.83100 23.48100
H  51.57300 31.66500 22.15000
H  49.67300 30.66000 20.75500
H  49.63200 29.34100 22.00400
H  51.17800 29.83400 21.19600
H  45.92600 30.27600 25.53800
H  45.98900 29.64000 27.25400
H  47.32900 29.37200 26.22600
H  45.67300 33.94200 29.94900
H  46.75000 32.09300 33.68900
H  45.00900 32.45600 33.86500
H  46.15600 33.71000 34.13100

