158

Mg 44.95600 4.45400 48.53800
C  42.88500 7.11700 47.63700
C  42.52000 2.25800 47.69700
C  47.38400 2.00900 48.53000
C  47.68000 6.85600 48.48000
N  42.96600 4.69700 47.73900
C  42.27700 5.84900 47.54400
C  40.81200 5.60100 47.02500
C  40.66100 4.03600 47.32400
C  42.13000 3.64800 47.67400
C  39.67300 3.73400 48.41600
C  40.67000 5.89600 45.50700
C  39.63500 6.94200 45.05400
H  40.01500 8.08600 44.04100
N  44.90000 2.31300 48.22500
C  43.79300 1.61700 47.78600
C  44.14800 0.27300 47.60100
C  45.56900 0.16400 47.95300
C  46.02200 1.55700 48.22300
C  43.20000 -0.85600 47.27800
C  46.30900 -1.15000 48.02700
O  45.69200 -2.14900 47.79100
C  47.80200 -1.44600 48.39000
N  47.18500 4.43400 48.47700
C  47.82500 3.30000 48.64200
C  49.35600 3.58600 48.85100
C  49.45800 5.14800 48.89300
C  48.03800 5.50400 48.51900
C  49.96500 2.94300 50.10300
C  50.60800 5.82600 48.03700
C  51.38500 6.87800 48.82000
N  45.30900 6.53900 48.22000
C  46.42800 7.38600 48.20300
C  46.04200 8.74400 48.01200
C  44.65400 8.68300 47.71000
C  44.24900 7.29400 47.91500
C  47.00900 9.86700 48.28600
C  43.53100 9.44600 47.39600
O  43.36000 10.65100 47.18400
C  42.31200 8.43100 47.22700
C  41.25800 8.87600 48.14800
O  41.11900 8.54500 49.29600
O  40.31800 9.60900 47.42800
C  39.06800 9.76100 48.16500
H  41.72500 1.51800 47.58500
H  48.17400 1.25700 48.58900
H  48.47700 7.59700 48.56500
H  40.10400 6.16800 47.63100
H  40.28700 3.47900 46.46500
H  40.12200 2.90800 48.96700
H  38.65200 3.47400 48.13600
H  39.67400 4.62000 49.05100
H  40.46700 4.99800 44.92400
H  41.62800 6.24500 45.12200
H  39.30100 7.50000 45.92900
H  38.81800 6.31900 44.69000
H  42.88500 -1.49900 48.10100
H  43.55300 -1.44600 46.43200
H  42.24400 -0.54000 46.86100
H  47.92900 -2.52300 48.50000
H  48.12500 -0.98600 49.32400
H  48.51800 -1.12500 47.63400
H  49.88100 3.21400 47.97100
H  49.50000 5.58000 49.89300
H  50.82600 2.30000 49.92300
H  49.16900 2.44100 50.65300
H  50.26400 3.76700 50.75100
H  50.16900 6.41500 47.23100
H  51.19800 5.13600 47.43400
H  52.36700 6.44700 49.01100
H  50.87900 7.35400 49.66000
H  51.61500 7.71400 48.15900
H  46.59500 10.87500 48.25300
H  47.71900 9.68600 47.47900
H  47.47800 9.78500 49.26600
H  42.00600 8.50900 46.18400
H  39.17400 10.59300 48.86100
H  38.68500 8.94600 48.77900
H  38.26800 9.92800 47.44300
Mg 36.20900 3.01500 30.18800
C  33.78900 3.90600 32.61500
C  38.46000 2.48400 32.66500
C  38.49500 2.62000 27.82900
C  33.75300 3.41200 27.71200
N  36.04000 3.15300 32.39900
C  35.05500 3.61000 33.19400
C  35.51200 3.53400 34.65000
C  37.01700 3.41500 34.57600
C  37.19500 2.94900 33.11600
C  37.77500 4.82800 34.83700
C  34.77000 2.29400 35.24200
C  34.11800 2.47900 36.58200
H  34.95500 3.31100 37.51400
N  38.25100 2.50700 30.24500
C  38.98100 2.32100 31.37100
C  40.33400 2.05000 31.00300
C  40.34100 2.07700 29.58000
C  38.94600 2.39600 29.14700
C  41.39100 1.72100 32.07500
C  41.45800 1.80500 28.63700
O  41.31700 1.76000 27.41800
C  42.70600 1.26600 29.27600
N  36.17200 3.06400 28.07900
C  37.19700 2.80900 27.36300
C  36.92300 2.89600 25.87100
C  35.35200 2.86000 25.84100
C  35.01900 3.12600 27.32000
C  37.53000 4.14500 25.23300
C  34.69200 1.45800 25.40500
C  33.47300 1.65100 24.43900
N  34.18700 3.65600 30.12200
C  33.30600 3.71400 29.08100
C  31.97900 4.09400 29.58700
C  32.14500 4.20800 30.97400
C  33.46000 3.89000 31.23400
C  30.67200 4.13400 28.81300
C  31.42700 4.42400 32.20000
O  30.22600 4.64500 32.37900
C  32.44600 4.18000 33.34100
C  32.54000 5.35800 34.28800
O  33.24400 6.36500 34.18000
O  31.79700 5.16500 35.42800
C  31.79100 6.24700 36.43100
H  39.22500 2.60200 33.43600
H  39.22400 2.56100 27.01700
H  33.05600 3.39900 26.87100
H  35.33700 4.46600 35.18600
H  37.35000 2.67000 35.29900
H  37.06600 5.63300 34.64400
H  38.53900 4.96500 34.07200
H  38.22700 4.93200 35.82300
H  35.51400 1.50400 35.34500
H  33.95800 1.96600 34.59200
H  33.94600 1.53200 37.09400
H  33.16400 2.97100 36.39700
H  41.77800 2.64200 32.51000
H  42.31300 1.25400 31.72800
H  40.98800 0.98500 32.77000
H  43.36700 1.04700 28.43800
H  42.33000 0.35600 29.74500
H  43.07400 2.06900 29.91500
H  37.37400 1.97700 25.49600
H  34.91800 3.68800 25.28100
H  38.04600 4.90300 25.82300
H  36.76400 4.70100 24.69100
H  38.31700 3.88200 24.52600
H  34.31500 0.87300 26.24400
H  35.49500 0.91200 24.90900
H  33.39600 2.58800 23.88800
H  32.59700 1.56600 25.08100
H  33.34700 0.94600 23.61800
H  29.78100 4.44300 29.36000
H  30.51800 3.17900 28.31200
H  30.76800 4.72600 27.90200
H  32.31300 3.30900 33.98300
H  32.61600 6.07400 37.12200
H  30.81300 6.15400 36.90300
H  31.79500 7.26000 36.02800

