158

Mg 54.74100 24.17800 45.41100
C  52.14400 26.26500 44.44600
C  53.08700 21.49600 44.16900
C  57.56300 22.33500 45.99400
C  56.47200 27.06100 46.55500
N  53.02200 24.04600 44.08800
C  51.99800 24.95900 43.94800
C  50.78600 24.32100 43.17000
C  51.02500 22.87500 43.65100
C  52.53300 22.79100 43.85200
C  50.23100 22.30000 44.84800
C  50.74100 24.58400 41.63600
C  49.39900 24.44600 41.00600
H  49.37600 23.87300 39.58900
N  55.19300 22.14000 45.18000
C  54.37900 21.20600 44.62300
C  55.03900 19.98000 44.56500
C  56.40700 20.13600 44.94100
C  56.48000 21.57400 45.45700
C  54.39000 18.76100 44.03800
C  57.45400 19.13000 44.88100
O  57.21600 17.98900 44.44300
C  58.89900 19.39700 45.19700
N  56.82300 24.63200 45.95700
C  57.74700 23.70800 46.19500
C  59.04900 24.35200 46.62100
C  58.72000 25.85300 46.72800
C  57.26200 25.87200 46.46600
C  59.64900 23.74600 47.97600
C  59.47200 26.80600 45.76700
C  60.14900 28.07500 46.32400
N  54.41200 26.26700 45.55200
C  55.19000 27.26400 46.11500
C  54.37200 28.47800 46.23000
C  53.20100 28.13800 45.54100
C  53.31600 26.76100 45.16100
C  54.70600 29.69300 46.87600
C  51.95400 28.55300 45.11900
O  51.41600 29.67000 45.19200
C  51.28400 27.49800 44.30400
C  51.07700 28.02000 42.94700
O  51.96800 28.28600 42.12600
O  49.69900 28.16600 42.67700
C  49.40900 28.53800 41.28100
H  52.45900 20.62700 43.96100
H  58.52400 21.89900 46.27500
H  56.92800 27.99300 46.89500
H  49.84500 24.74500 43.52200
H  50.74000 22.18600 42.85600
H  49.42100 22.94900 45.18000
H  50.89500 22.04300 45.67300
H  49.79200 21.39100 44.43500
H  51.30800 23.79100 41.14800
H  51.22600 25.53400 41.41300
H  48.95300 25.43900 40.94500
H  48.70200 23.84500 41.58900
H  54.70000 18.58300 43.00900
H  53.30800 18.82800 43.92600
H  54.64300 17.87400 44.61900
H  59.25100 20.38000 44.88400
H  59.56900 18.63800 44.79200
H  59.02600 19.45100 46.27800
H  59.73700 24.19900 45.78900
H  58.96400 26.20000 47.73200
H  59.15800 22.77800 48.07100
H  59.33400 24.28400 48.87000
H  60.72100 23.56000 47.90400
H  58.72400 27.16000 45.05800
H  60.15300 26.31100 45.07500
H  59.60200 28.94700 45.96500
H  61.18700 27.90400 46.03800
H  60.14400 28.23900 47.40100
H  55.52500 29.64700 47.59300
H  53.82800 30.05600 47.41100
H  54.98700 30.43600 46.12900
H  50.28100 27.46200 44.72900
H  48.84800 29.47300 41.29800
H  48.58000 27.99700 40.82600
H  50.16000 28.46300 40.49500
Mg 48.03700 16.01500 28.51200
C  46.02700 15.64400 31.33900
C  50.16800 17.89700 30.37100
C  49.85100 16.47800 25.70500
C  45.54400 14.41700 26.62200
N  48.12200 16.65300 30.65800
C  47.24300 16.27700 31.64300
C  47.69100 16.75800 32.98000
C  48.90500 17.71100 32.61500
C  49.03500 17.48700 31.10600
C  48.65700 19.22100 32.92300
C  48.07700 15.62000 33.92000
C  48.00800 15.96800 35.43300
H  47.80300 17.42100 35.90900
N  49.81800 16.93100 28.13100
C  50.58900 17.62100 29.02400
C  51.87700 17.93700 28.38000
C  51.75100 17.67900 26.98900
C  50.40900 17.02300 26.89200
C  53.03400 18.57400 29.15200
C  52.71900 18.03200 25.90600
O  52.43800 17.84700 24.76100
C  54.00100 18.76700 26.15800
N  47.67800 15.67100 26.39900
C  48.60900 15.90500 25.44100
C  48.12800 15.33400 24.05300
C  46.90400 14.46900 24.43000
C  46.71100 14.86100 25.94700
C  47.82900 16.52000 23.12000
C  47.06700 12.83400 24.22800
C  47.40700 12.06100 25.48700
N  46.12000 15.31700 28.84800
C  45.19100 14.66300 27.99000
C  43.95900 14.34900 28.72500
C  44.25100 14.72300 30.03900
C  45.60300 15.20700 30.06600
C  42.68200 13.72700 28.22600
C  43.72100 14.87400 31.38200
O  42.64300 14.50100 31.89700
C  44.83100 15.41200 32.28600
C  44.35400 16.74700 32.88000
O  44.33500 17.83500 32.33700
O  43.92400 16.53300 34.15300
C  42.92200 17.48800 34.79600
H  50.83300 18.42700 31.05600
H  50.48200 16.47900 24.81400
H  44.89500 14.00200 25.84900
H  46.78500 17.30600 33.23800
H  49.83500 17.45100 33.12000
H  48.23600 19.77100 32.08100
H  49.60000 19.64700 33.26500
H  47.87300 19.41000 33.65700
H  49.09700 15.32800 33.67300
H  47.46500 14.75900 33.65200
H  48.96100 15.62500 35.83500
H  47.17500 15.33600 35.74200
H  53.96000 18.06100 28.89600
H  52.88200 18.63700 30.22900
H  53.16300 19.60900 28.83500
H  54.74500 18.34200 26.83100
H  53.55100 19.69000 26.52600
H  54.37900 19.03000 25.17000
H  48.93500 14.64900 23.78900
H  46.00200 14.68200 23.85700
H  48.18800 17.45500 23.55100
H  46.77700 16.58800 22.84300
H  48.44900 16.37800 22.23500
H  47.83400 12.42400 23.57100
H  46.10800 12.57300 23.78300
H  47.67200 12.70600 26.32500
H  48.24600 11.37100 25.40300
H  46.55700 11.45800 25.80800
H  42.70300 13.51200 27.15800
H  41.82900 14.32300 28.55000
H  42.55600 12.82200 28.82100
H  45.01700 14.79700 33.16700
H  41.87500 17.31800 34.54200
H  43.09000 18.51200 34.46200
H  43.06100 17.40200 35.87300

