158

Mg 9.01400 47.03700 25.78300
C  7.14200 47.02500 28.64200
C  11.62800 48.39200 27.43400
C  10.78100 47.28500 22.82600
C  6.14000 46.40200 23.86300
N  9.37600 47.53600 27.93100
C  8.46600 47.41500 28.87700
C  9.04600 47.92100 30.11600
C  10.27800 48.78500 29.67200
C  10.48900 48.16900 28.27300
C  9.98200 50.31300 29.54400
C  9.31300 46.70100 31.06900
C  8.82000 46.96700 32.52200
H  9.03500 45.93400 33.55400
N  10.94400 47.43400 25.29900
C  11.91100 47.94600 26.17900
C  13.18500 48.08100 25.41100
C  12.92100 47.70700 24.08700
C  11.49800 47.47700 23.98500
C  14.45800 48.61100 26.10500
C  13.89600 47.68200 22.92100
O  13.60300 47.51800 21.70800
C  15.37700 47.74500 23.26100
N  8.47700 47.03700 23.55700
C  9.40900 47.07400 22.58300
C  8.80500 46.76600 21.24100
C  7.24100 46.67900 21.55400
C  7.26100 46.65000 23.10500
C  9.29000 47.86500 20.20700
C  6.63300 45.43700 20.93000
C  5.30300 45.76600 20.26700
N  7.09000 46.71700 26.14000
C  6.01300 46.45800 25.29600
C  4.80700 46.31600 26.01600
C  5.21500 46.51900 27.36400
C  6.56900 46.74900 27.39000
C  3.43700 45.94600 25.49800
C  4.75000 46.55900 28.71100
O  3.64100 46.34900 29.23900
C  6.00100 46.84000 29.63800
C  6.23100 45.69200 30.52000
O  6.89700 44.67400 30.26800
O  5.53000 45.93900 31.62400
C  5.60900 44.82500 32.61900
H  12.31100 48.91200 28.10900
H  11.37000 47.16800 21.91400
H  5.24100 46.21200 23.27300
H  8.29500 48.56800 30.56800
H  11.19300 48.61400 30.23900
H  9.69200 50.53200 28.51600
H  10.85200 50.95600 29.66800
H  9.18700 50.55700 30.24900
H  10.37600 46.58200 31.28000
H  8.85300 45.79200 30.68100
H  7.75700 47.20700 32.53800
H  9.17000 47.89800 32.96900
H  15.21800 47.83100 26.08900
H  14.24800 48.88400 27.14000
H  14.69000 49.57400 25.65100
H  15.56000 48.75700 23.62400
H  15.92600 47.47500 22.35900
H  15.64700 47.08000 24.08200
H  9.38700 45.86100 21.06300
H  6.71800 47.59900 21.29500
H  8.58000 48.09100 19.41200
H  10.26700 47.53100 19.85800
H  9.48500 48.73400 20.83600
H  6.59300 44.63800 21.67000
H  7.36300 45.06500 20.21100
H  5.46300 46.30400 19.33300
H  4.65700 46.25700 20.99500
H  4.89200 44.80300 19.96600
H  3.45700 45.41800 24.54500
H  2.67700 46.72600 25.51200
H  3.01600 45.27100 26.24400
H  5.85000 47.75700 30.20800
H  5.94600 45.19400 33.58700
H  6.35900 44.07100 32.37900
H  4.71200 44.21100 32.54400
Mg -9.85900 17.66900 42.80000
C  -6.32600 17.54500 43.03900
C  -9.63100 21.15500 42.31400
C  -13.07300 17.77200 41.85100
C  -9.99800 14.21400 43.04500
N  -8.11200 19.16900 42.59000
C  -6.77000 18.84200 42.80700
C  -5.98500 20.19400 42.75700
C  -7.08100 21.28200 42.69900
C  -8.39200 20.53400 42.52900
C  -7.15600 22.29600 43.84300
C  -4.87100 20.30400 41.51600
C  -4.92700 19.29200 40.40900
H  -5.09300 19.84400 39.01300
N  -11.13800 19.25700 42.25400
C  -10.88800 20.62700 42.25200
C  -12.03100 21.36500 41.83000
C  -13.06900 20.42900 41.59500
C  -12.45400 19.06000 41.85900
C  -12.00900 22.82400 41.57000
C  -14.43300 20.78000 41.02300
O  -14.69500 21.91700 40.71100
C  -15.46700 19.72400 40.77100
N  -11.32000 16.21700 42.51000
C  -12.60400 16.50300 42.25100
C  -13.49900 15.27700 42.31500
C  -12.52100 14.12100 42.64200
C  -11.11600 14.89700 42.63200
C  -14.78200 15.33200 43.19900
C  -12.46600 12.98700 41.61500
C  -13.68900 12.15700 41.28800
N  -8.46200 16.15300 42.91200
C  -8.68500 14.83100 43.14500
C  -7.45700 14.15600 43.43700
C  -6.46100 15.15700 43.30900
C  -7.12700 16.34900 43.04900
C  -7.09700 12.72600 43.62700
C  -5.04800 15.44400 43.39800
O  -4.08500 14.77900 43.59400
C  -4.98300 16.99800 43.40000
C  -4.46200 17.50300 44.68000
O  -3.50200 18.23100 44.71700
O  -5.20300 17.09200 45.81000
C  -4.71000 17.41900 47.14400
H  -9.66000 22.24500 42.25500
H  -14.15000 17.67400 41.69800
H  -10.07100 13.12600 43.10200
H  -5.41900 20.33700 43.67700
H  -7.06600 21.90300 41.80300
H  -6.19300 22.46600 44.32400
H  -7.86400 21.90800 44.57700
H  -7.52600 23.26000 43.49500
H  -3.84500 20.33600 41.88200
H  -5.10700 21.26400 41.05700
H  -5.60700 18.44300 40.47700
H  -3.96500 18.78000 40.40400
H  -12.38400 23.06600 40.57500
H  -11.04000 23.32200 41.53800
H  -12.68800 23.39600 42.20200
H  -15.62400 19.22400 41.72700
H  -15.19100 19.02200 39.98400
H  -16.39300 20.16600 40.40200
H  -13.90000 15.07200 41.32200
H  -12.66300 13.57300 43.57400
H  -15.63600 15.37500 42.52200
H  -14.70500 16.23500 43.80400
H  -14.85900 14.44900 43.83300
H  -11.67200 12.28400 41.86700
H  -12.31600 13.54600 40.69100
H  -14.19900 12.07100 42.24700
H  -13.39900 11.18200 40.89500
H  -14.31100 12.66800 40.55400
H  -7.07700 12.47800 44.68800
H  -6.14900 12.43100 43.17800
H  -7.80800 12.10200 43.08400
H  -4.20800 17.31200 42.70100
H  -3.68900 17.78200 47.26300
H  -4.95900 16.68800 47.91400
H  -5.26300 18.27500 47.53000

