158

Mg 17.53400 -0.96000 28.53700
C  16.79200 1.20300 31.07600
C  19.60000 -2.79000 30.76600
C  19.02000 -2.53600 25.88500
C  16.02300 1.28500 26.27900
N  18.25500 -0.66400 30.64900
C  17.63000 0.11700 31.50700
C  17.82200 -0.31700 32.96500
C  18.95100 -1.36500 32.85600
C  18.88500 -1.68600 31.34600
C  20.41300 -0.93700 33.22200
C  16.35900 -0.77300 33.57600
C  15.89800 -0.34100 34.96600
H  17.07500 -0.00100 35.94500
N  18.96400 -2.46500 28.35200
C  19.63000 -3.11500 29.39100
C  20.36600 -4.27200 28.82000
C  20.27700 -4.15800 27.35300
C  19.43600 -2.96100 27.14600
C  20.96500 -5.40000 29.61300
C  20.93200 -5.02100 26.35400
O  20.96800 -4.75300 25.16000
C  21.62500 -6.29300 26.77000
N  17.66000 -0.62200 26.38100
C  18.26200 -1.46200 25.51100
C  18.00700 -1.08800 24.03700
C  16.94300 0.06900 24.24500
C  16.82800 0.28900 25.70400
C  19.22900 -0.70700 23.13300
C  15.57800 -0.20800 23.53000
C  14.48600 -1.13600 24.20400
N  16.47200 0.81300 28.62300
C  15.82800 1.59300 27.69700
C  15.22500 2.77000 28.31900
C  15.51700 2.55400 29.66500
C  16.28300 1.40100 29.75500
C  14.61300 3.93400 27.76400
C  15.38800 3.15500 31.00600
O  14.83900 4.19000 31.30700
C  16.09700 2.24900 31.94200
C  17.01300 3.07600 32.76000
O  18.02600 3.63300 32.34500
O  16.47800 3.28900 34.00000
C  17.16700 4.33600 34.83700
H  20.09500 -3.41100 31.51500
H  19.37800 -3.05400 24.99300
H  15.42300 1.93700 25.64200
H  18.21100 0.60800 33.38900
H  18.64000 -2.22800 33.44500
H  21.18400 -1.07300 32.46400
H  20.78100 -1.50800 34.07400
H  20.42600 0.13700 33.40300
H  16.45500 -1.85100 33.69900
H  15.61700 -0.60000 32.79600
H  15.36500 -1.11500 35.51700
H  15.35800 0.60500 35.01600
H  20.33300 -6.25700 29.38400
H  20.86500 -5.28400 30.69300
H  22.03900 -5.49300 29.45400
H  22.48900 -6.16500 27.42100
H  21.91300 -6.78000 25.83800
H  20.89900 -6.89900 27.31300
H  17.40100 -1.89100 23.61600
H  17.32100 0.98100 23.78300
H  20.15200 -0.97200 23.64800
H  19.28300 0.36100 22.92200
H  19.27500 -1.23700 22.18200
H  15.80200 -0.66900 22.56800
H  15.02800 0.73200 23.49700
H  13.49500 -0.71600 24.37900
H  14.75800 -1.62300 25.14000
H  14.36400 -2.05000 23.62200
H  14.63000 4.80500 28.42000
H  13.56300 3.72300 27.56100
H  15.13200 4.08100 26.81700
H  15.27700 1.77500 32.48100
H  16.66300 5.25600 34.54300
H  18.24200 4.45600 34.69900
H  16.95400 3.96500 35.83900
Mg 6.41100 54.69600 40.88900
C  6.05000 51.14900 40.80600
C  9.51700 54.42700 39.99900
C  6.43100 58.12200 40.52000
C  3.00700 54.81800 41.73100
N  7.61600 52.99800 40.38800
C  7.31700 51.66200 40.39600
C  8.41900 50.79500 39.78800
C  9.52100 51.91300 39.60200
C  8.91900 53.17600 40.11700
C  10.84400 51.60700 40.32300
C  8.17900 50.15300 38.35100
C  7.18400 50.88200 37.29900
H  7.56600 51.06300 35.84400
N  7.81300 56.10000 40.38700
C  9.07400 55.77600 40.01200
C  9.79800 56.89100 39.61300
C  8.90400 58.02000 39.73500
C  7.61300 57.45500 40.20600
C  11.28000 56.80000 39.24500
C  9.30800 59.52000 39.33300
O  10.42300 59.70300 38.84100
C  8.41600 60.60900 39.66900
N  4.90200 56.21000 41.00600
C  5.13800 57.57100 40.80700
C  3.86100 58.40200 41.07000
C  2.78900 57.22700 41.23500
C  3.58800 55.99100 41.32000
C  3.82200 59.37500 42.25700
C  1.66600 56.96400 40.04900
C  0.23300 57.20600 40.59500
N  4.83200 53.34400 41.22900
C  3.58300 53.53300 41.77900
C  2.93700 52.27100 42.12100
C  3.90200 51.31200 41.76400
C  5.01500 52.01100 41.31100
C  1.59400 52.08100 42.83900
C  4.17100 49.89500 41.73200
O  3.51100 49.01200 42.18500
C  5.53900 49.70900 41.10100
C  5.27900 48.81300 39.96600
O  4.95100 49.15000 38.85900
O  5.57800 47.51800 40.30600
C  5.29400 46.51500 39.30400
H  10.57700 54.37300 39.74200
H  6.32500 59.20300 40.39900
H  2.02900 54.91700 42.20800
H  8.59800 49.99500 40.50700
H  9.65100 52.08900 38.53400
H  10.84300 52.29500 41.16900
H  11.57500 51.71700 39.52200
H  10.81400 50.58900 40.71100
H  7.74300 49.16900 38.52600
H  9.16200 49.89100 37.95900
H  7.06900 51.89500 37.68300
H  6.22200 50.36900 37.28100
H  11.35200 56.06600 38.44200
H  11.63300 56.22800 40.10300
H  11.92700 57.67600 39.20400
H  8.86600 61.59800 39.59100
H  8.13200 60.47700 40.71300
H  7.61900 60.67000 38.92800
H  3.82500 59.03600 40.18400
H  2.31500 57.24200 42.21700
H  2.86600 59.42600 42.77800
H  3.92000 60.35000 41.78100
H  4.62200 59.14200 42.96000
H  1.70000 55.92000 39.73900
H  1.97800 57.55200 39.18600
H  0.29400 57.85500 41.46800
H  -0.28500 56.28000 40.84300
H  -0.28200 57.73000 39.79000
H  1.36700 53.04600 43.29000
H  1.85100 51.44200 43.68400
H  0.86700 51.55900 42.21700
H  6.26900 49.20700 41.73600
H  5.78800 45.61600 39.67300
H  5.79800 46.75600 38.36800
H  4.22300 46.39700 39.14400

