158

Mg -0.35000 8.32800 25.92300
C  0.66900 10.12000 28.74200
C  -0.18700 5.53900 27.91300
C  -0.39000 6.47400 23.15100
C  0.21200 11.10700 24.07500
N  0.27700 7.92100 28.13600
C  0.47700 8.80200 29.08400
C  0.51800 8.12800 30.51900
C  0.48100 6.60200 30.17400
C  0.06000 6.65300 28.69800
C  1.75100 5.89500 30.51700
C  -0.70600 8.72400 31.40400
C  -0.26900 9.26800 32.77700
H  -0.83200 8.49100 33.96500
N  -0.42700 6.32200 25.61500
C  -0.46700 5.34900 26.57000
C  -0.59500 4.05100 25.92700
C  -0.53900 4.25000 24.55000
C  -0.40100 5.70000 24.36900
C  -0.81500 2.81000 26.73800
C  -0.76400 3.36500 23.42500
O  -0.83100 3.70700 22.28300
C  -0.84000 1.90400 23.67900
N  -0.19400 8.74500 23.91300
C  -0.26900 7.83100 22.96000
C  -0.45100 8.56500 21.52800
C  -0.39300 10.06300 21.80800
C  -0.10900 10.00700 23.32200
C  0.49700 8.14600 20.36200
C  -1.65600 10.82800 21.33400
C  -2.91200 10.99000 22.26400
N  0.17300 10.20200 26.27000
C  0.40600 11.23300 25.36600
C  0.67700 12.44400 26.08700
C  0.81900 12.03400 27.38400
C  0.52400 10.67900 27.47300
C  0.90500 13.74800 25.50500
C  1.14300 12.53600 28.71700
O  1.48600 13.64100 29.08700
C  0.90600 11.23300 29.63400
C  2.15100 11.14900 30.40500
O  3.28300 10.88200 30.03600
O  1.83100 11.58600 31.65600
C  2.96000 11.82600 32.56500
H  -0.12700 4.59500 28.45800
H  -0.33900 5.89000 22.23000
H  0.46400 11.90000 23.36700
H  1.45600 8.57000 30.85500
H  -0.35700 6.16200 30.71400
H  2.16500 6.36000 31.41200
H  2.47200 6.04200 29.71200
H  1.59100 4.83700 30.72100
H  -1.49300 7.99300 31.58500
H  -1.18000 9.54000 30.85900
H  -0.51000 10.32600 32.88100
H  0.79200 9.02400 32.81800
H  -1.78400 2.50200 26.34500
H  -1.03900 2.99200 27.78900
H  -0.01400 2.08400 26.59900
H  -1.64600 1.70900 24.38600
H  0.05900 1.49200 24.13800
H  -1.05600 1.32300 22.78200
H  -1.42000 8.21600 21.17000
H  0.50800 10.49600 21.37300
H  0.67900 8.87900 19.57600
H  0.09400 7.27100 19.85400
H  1.42000 7.89600 20.88500
H  -2.06800 10.27000 20.49300
H  -1.27800 11.82900 21.12400
H  -3.04100 12.05000 22.48300
H  -2.82300 10.46900 23.21700
H  -3.84900 10.68600 21.79600
H  1.33100 14.51600 26.14900
H  -0.06700 13.99500 25.07700
H  1.52400 13.58100 24.62400
H  -0.00300 11.32400 30.22900
H  3.48200 12.66400 32.10400
H  3.67100 11.00000 32.56600
H  2.75600 12.14000 33.58900
Mg 54.01500 24.21000 45.33600
C  51.36200 26.34300 44.58400
C  51.99600 21.54500 44.38000
C  56.65300 22.06700 45.51300
C  56.03300 26.88800 45.93000
N  51.91100 24.01200 44.52400
C  50.96600 25.00100 44.39900
C  49.68400 24.42100 43.69600
C  49.83600 22.85900 44.12200
C  51.33700 22.79000 44.42400
C  48.81100 22.26000 45.18900
C  49.60900 24.71500 42.15500
C  48.22800 25.14000 41.63700
H  47.94400 24.95400 40.17600
N  54.26600 22.11300 44.96800
C  53.33900 21.19300 44.66500
C  53.87000 19.90100 44.70400
C  55.27100 19.99800 44.83100
C  55.44700 21.48900 45.07700
C  53.15900 18.54100 44.56300
C  56.31000 18.87800 44.79500
O  55.97900 17.72500 44.62600
C  57.80900 19.06700 44.91400
N  56.06100 24.47800 45.55100
C  56.97700 23.43900 45.68000
C  58.38400 23.97400 46.03200
C  58.16800 25.48200 45.85700
C  56.63900 25.66000 45.80100
C  58.99700 23.44100 47.37800
C  58.90700 26.07000 44.72300
C  60.36200 26.42300 44.96600
N  53.80500 26.24700 45.31700
C  54.73300 27.22700 45.69600
C  54.04300 28.56300 45.65800
C  52.71300 28.25900 45.22100
C  52.68200 26.84500 45.00600
C  54.65500 29.87100 46.08600
C  51.48100 28.82300 44.92100
O  51.16000 30.02900 44.85100
C  50.59900 27.64200 44.34800
C  50.39000 27.94900 42.91700
O  51.27800 27.82700 42.06600
O  49.20300 28.47100 42.76000
C  48.86500 29.07000 41.50400
H  51.40900 20.68100 44.06300
H  57.53000 21.41700 45.55500
H  56.66100 27.73200 46.22300
H  48.80700 24.77700 44.23600
H  49.66000 22.18400 43.28400
H  49.33800 22.07000 46.12500
H  48.40400 21.38700 44.68000
H  48.00900 22.98700 45.31100
H  49.86600 23.77900 41.65900
H  50.40700 25.43400 41.97200
H  48.13200 26.18800 41.92100
H  47.37200 24.75700 42.19300
H  53.24500 18.21500 43.52700
H  52.08500 18.54400 44.75100
H  53.52800 17.71300 45.16900
H  58.27300 18.19900 44.44500
H  58.17000 19.25400 45.92500
H  58.13400 19.91700 44.31400
H  59.08200 23.66700 45.25300
H  58.63700 25.89700 46.74900
H  59.71100 24.09600 47.87800
H  59.50900 22.53500 47.05400
H  58.24700 23.15500 48.11500
H  58.42400 26.99900 44.42200
H  58.86200 25.37400 43.88500
H  60.62900 26.37100 46.02200
H  60.54700 27.44600 44.64100
H  60.96900 25.64800 44.49800
H  55.31600 29.75600 46.94500
H  53.84000 30.52200 46.40400
H  55.31200 30.28800 45.32300
H  49.62400 27.60600 44.83600
H  47.85800 29.48000 41.42600
H  48.91800 28.38000 40.66200
H  49.64000 29.81800 41.33900

