158

Mg 25.25000 51.00400 26.94800
C  22.94300 51.93800 29.33900
C  27.51500 50.17100 29.45600
C  27.83200 50.57400 24.59400
C  23.21200 52.14500 24.43800
N  25.22900 51.18100 29.10400
C  24.13100 51.46800 29.93000
C  24.42000 51.33300 31.45900
C  25.94100 50.69400 31.37200
C  26.26700 50.70700 29.89500
C  26.98200 51.56500 32.17200
C  23.44000 50.43400 32.33800
C  23.96900 50.03700 33.68300
H  23.37700 50.71800 34.95600
N  27.30000 50.31800 27.00100
C  27.98500 49.95100 28.15200
C  29.27000 49.41200 27.78700
C  29.31100 49.39100 26.40500
C  28.09700 50.11600 25.90500
C  30.29800 48.91300 28.76300
C  30.41500 48.89600 25.50300
O  30.43000 49.12300 24.31800
C  31.63500 48.07100 26.04200
N  25.58000 51.41600 24.84700
C  26.65500 51.11600 24.10100
C  26.47200 51.60300 22.63900
C  24.95300 51.91200 22.61300
C  24.54700 51.79200 24.00400
C  27.31200 52.83800 22.18400
C  24.13000 51.06900 21.72300
C  24.19300 51.42200 20.25300
N  23.50000 51.90800 26.86200
C  22.74800 52.21100 25.76300
C  21.37600 52.49600 26.23100
C  21.46500 52.57200 27.58400
C  22.74600 52.09900 27.93800
C  20.21800 52.94100 25.39200
C  20.70000 52.81100 28.78800
O  19.58800 53.24600 28.96700
C  21.68300 52.50900 29.97100
C  21.92400 53.79100 30.70000
O  22.28400 54.80900 30.16500
O  21.45000 53.64500 31.99200
C  21.44700 54.93900 32.71300
H  28.10100 49.79400 30.29700
H  28.57900 50.44900 23.80700
H  22.49700 52.42000 23.66000
H  24.24800 52.36200 31.77300
H  25.97300 49.69600 31.80900
H  27.89800 51.63400 31.58500
H  27.23900 51.15800 33.15000
H  26.60100 52.57800 32.30200
H  23.31500 49.46600 31.85300
H  22.47400 50.93800 32.35200
H  24.96000 50.46900 33.81800
H  23.99300 48.95300 33.79400
H  30.10900 49.17500 29.80400
H  31.25600 49.39300 28.55900
H  30.35500 47.82500 28.74800
H  31.20200 47.32700 26.71100
H  32.27400 48.75600 26.59800
H  32.22700 47.43200 25.38600
H  26.72500 50.87100 21.87200
H  24.76000 52.93800 22.29900
H  27.76000 53.38900 23.01000
H  26.80100 53.48100 21.46700
H  28.25200 52.57100 21.70200
H  23.05900 51.04300 21.92400
H  24.60400 50.08700 21.72000
H  24.01200 50.47600 19.74200
H  25.05100 52.05400 20.02500
H  23.29200 51.98300 20.00400
H  20.31300 52.60900 24.35800
H  20.19200 54.02500 25.50100
H  19.31600 52.57600 25.88300
H  21.18800 51.84400 30.67900
H  22.13300 55.69800 32.33600
H  21.55700 54.80200 33.78800
H  20.43800 55.33800 32.61200
Mg 8.66200 47.59100 24.65800
C  6.24200 48.19600 27.23900
C  11.07600 48.72100 26.75200
C  10.81000 47.50500 22.08200
C  5.96700 47.35700 22.41000
N  8.63100 48.60700 26.68700
C  7.57000 48.41800 27.60000
C  8.00000 48.61500 29.03400
C  9.48200 49.20100 28.78900
C  9.82100 48.75100 27.35200
C  9.48800 50.77700 28.94600
C  8.10300 47.35300 29.89500
C  8.22000 47.56700 31.44300
H  7.58700 46.42300 32.18100
N  10.61800 47.85400 24.51500
C  11.46900 48.31000 25.49300
C  12.76600 48.25100 24.96800
C  12.75800 47.73800 23.61400
C  11.32500 47.65500 23.37700
C  14.05000 48.53500 25.86200
C  13.83000 47.45200 22.66400
O  13.68200 47.14300 21.48500
C  15.30200 47.63000 23.12500
N  8.36400 47.58700 22.53800
C  9.46300 47.53600 21.70000
C  9.00300 47.53100 20.22300
C  7.48500 47.05300 20.34200
C  7.21800 47.43700 21.78400
C  9.18100 48.92200 19.57900
C  7.27000 45.55600 19.98400
C  5.96400 45.22200 19.24500
N  6.50600 47.69300 24.75300
C  5.58500 47.52600 23.78700
C  4.25600 47.48500 24.42300
C  4.48000 47.74200 25.73600
C  5.84900 47.92600 25.91800
C  2.96900 47.30600 23.69200
C  3.77100 47.91600 27.01100
O  2.58100 47.81700 27.30100
C  4.87600 48.29600 28.03700
C  4.66700 47.39500 29.17800
O  4.77200 46.18800 29.17700
O  4.41900 48.16400 30.29700
C  4.12900 47.47000 31.54500
H  11.88800 49.10800 27.37300
H  11.46200 47.35800 21.21800
H  5.08300 47.04400 21.85200
H  7.36800 49.33500 29.55400
H  10.20300 48.79000 29.49600
H  9.60200 51.01800 30.00200
H  8.60800 51.18800 28.45000
H  10.34800 51.06600 28.34200
H  8.92900 46.71600 29.57800
H  7.25600 46.70600 29.66800
H  7.81000 48.52900 31.75100
H  9.28100 47.55000 31.69400
H  13.83300 49.02800 26.81000
H  14.69200 49.29900 25.42500
H  14.59700 47.61700 26.07700
H  15.57500 47.04600 24.00400
H  15.54200 48.69000 23.20200
H  15.98700 47.18200 22.40500
H  9.46900 46.74800 19.62600
H  6.93800 47.63100 19.59700
H  9.52700 49.63300 20.32900
H  8.26400 49.23700 19.08100
H  9.90700 48.73300 18.78900
H  7.18400 44.98900 20.91100
H  8.19000 45.21500 19.50800
H  5.39900 44.31900 19.47500
H  6.08900 45.19500 18.16200
H  5.30000 46.06400 19.44400
H  2.42400 46.60000 24.31800
H  3.18600 46.97300 22.67700
H  2.47300 48.27200 23.59600
H  4.68900 49.34400 28.27200
H  4.95200 47.83400 32.16000
H  4.13000 46.38400 31.46000
H  3.24600 47.91200 32.00800

