158

Mg 46.57300 44.65900 43.13200
C  43.10500 43.84300 43.22600
C  47.27100 41.32700 42.77300
C  49.72800 45.52300 42.63700
C  45.57000 48.00600 43.64500
N  45.26300 42.82900 42.91600
C  43.92200 42.72600 43.09200
C  43.47300 41.28800 42.85500
C  44.80200 40.50200 43.03000
C  45.89500 41.58100 42.97100
C  44.93600 39.65200 44.24900
C  42.72600 40.96500 41.50600
C  43.01500 41.89000 40.22500
H  42.99700 41.23300 38.89600
N  48.22500 43.60800 42.73000
C  48.35000 42.20900 42.67100
C  49.69100 41.80400 42.60900
C  50.48400 43.01000 42.48400
C  49.47800 44.14700 42.61200
C  50.18400 40.42100 42.40300
C  52.04700 43.04000 42.33500
O  52.65300 42.00000 42.31400
C  52.79100 44.35100 42.25900
N  47.51400 46.51600 43.12200
C  48.81900 46.64000 42.85500
C  49.23200 48.06300 42.88600
C  47.87800 48.90600 42.97400
C  46.94100 47.76400 43.27800
C  50.34500 48.44900 43.90500
C  47.53300 49.92400 41.83400
C  47.65400 51.37300 42.28400
N  44.76200 45.77100 43.45200
C  44.49200 47.10100 43.57400
C  43.10600 47.33000 43.53800
C  42.48900 46.09000 43.42300
C  43.53300 45.16800 43.40800
C  42.50700 48.70300 43.70800
C  41.26500 45.40500 43.27700
O  40.11900 45.84400 43.27500
C  41.65600 43.88100 43.21700
C  40.93400 42.97900 44.23000
O  40.43800 41.91100 44.01400
O  40.82200 43.62200 45.43500
C  39.85300 42.98700 46.37200
H  47.56400 40.27700 42.83900
H  50.74900 45.77500 42.34200
H  45.29300 49.06200 43.68000
H  42.82500 41.14400 43.71900
H  45.04500 39.90900 42.14800
H  45.24800 38.64100 43.98600
H  43.98400 39.57100 44.77300
H  45.57000 40.12300 45.00000
H  41.69800 41.17100 41.80500
H  43.01300 39.93600 41.28800
H  43.93400 42.45800 40.36200
H  42.17600 42.57700 40.10900
H  50.56500 40.12500 41.42600
H  49.29800 39.79000 42.47800
H  50.91000 40.06800 43.13500
H  52.70700 44.80300 43.24700
H  52.33300 45.04700 41.55600
H  53.85000 44.14600 42.10200
H  49.60800 48.22000 41.87500
H  47.87100 49.40600 43.94200
H  50.47900 47.59400 44.56700
H  50.15400 49.38200 44.43500
H  51.32900 48.43200 43.43700
H  46.55100 49.74200 41.39700
H  48.14500 49.78900 40.94300
H  47.74600 51.45100 43.36700
H  46.80700 51.94700 41.90900
H  48.48900 51.83600 41.75700
H  43.29100 49.40800 43.43200
H  42.12700 48.82400 44.72200
H  41.66200 48.77900 43.02300
H  41.28000 43.41700 42.30500
H  39.17700 43.65700 46.90400
H  40.38100 42.38300 47.11000
H  39.21000 42.25600 45.87900
Mg 40.24000 41.60400 27.10200
C  39.56100 44.05700 29.67200
C  41.24500 39.57700 29.39300
C  41.07500 39.65900 24.58300
C  39.32900 44.21600 24.82500
N  40.59300 41.97700 29.28900
C  40.07200 42.85500 30.12000
C  40.00800 42.37700 31.55100
C  40.73300 40.96500 31.40400
C  40.85200 40.79900 29.86900
C  42.00800 40.70700 32.22200
C  38.66500 42.40200 32.26600
C  38.62000 41.78100 33.65100
H  38.27500 42.66800 34.86100
N  41.04300 39.78000 26.97600
C  41.42200 39.09600 28.08900
C  41.96900 37.83800 27.64100
C  42.04100 37.91800 26.22500
C  41.35900 39.15200 25.85800
C  42.50100 36.75700 28.53200
C  42.69300 36.94300 25.25500
O  42.79200 37.24400 24.04200
C  43.36500 35.63900 25.74500
N  40.16600 41.89400 25.04700
C  40.46300 40.85500 24.22800
C  40.20300 41.23600 22.79700
C  39.31200 42.50900 22.86200
C  39.66500 42.93700 24.29400
C  41.54100 41.28000 21.98200
C  37.82300 42.25000 22.58000
C  37.27400 41.14000 23.49700
N  39.60000 43.64300 27.15400
C  39.34000 44.59100 26.16600
C  39.06500 45.91400 26.68300
C  39.07600 45.72900 28.06200
C  39.41100 44.38100 28.29900
C  38.73600 47.17500 25.86800
C  38.83700 46.36000 29.32200
O  38.42200 47.49000 29.63000
C  39.07300 45.28400 30.39000
C  39.95300 45.68500 31.52700
O  41.18000 45.55900 31.54700
O  39.19200 46.16700 32.53300
C  39.93800 46.45100 33.80100
H  41.50900 38.83000 30.14500
H  41.21400 39.03700 23.69600
H  39.16700 45.02300 24.10700
H  40.65900 43.08600 32.06300
H  39.93900 40.27600 31.69400
H  42.17400 41.60300 32.81900
H  42.78300 40.43100 31.50800
H  41.92500 39.90300 32.95400
H  37.97600 41.94000 31.55900
H  38.35200 43.43200 32.43400
H  39.55200 41.29000 33.93000
H  37.92800 40.94400 33.55300
H  43.58100 36.65400 28.41900
H  42.11100 35.74500 28.42200
H  42.35700 37.06900 29.56600
H  43.71100 35.13800 24.84100
H  42.64400 34.93000 26.15200
H  44.10000 35.95800 26.48400
H  39.59300 40.53500 22.22700
H  39.66600 43.28400 22.18200
H  41.71400 42.30200 21.64500
H  41.38600 40.58800 21.15400
H  42.36100 40.92500 22.60600
H  37.72200 42.07700 21.50800
H  37.30400 43.20500 22.65700
H  36.49900 41.51100 24.16800
H  38.01000 40.44400 23.89900
H  36.86600 40.49100 22.72200
H  38.57200 47.97800 26.58700
H  37.83900 46.86200 25.33400
H  39.56700 47.39900 25.19900
H  38.12900 44.99700 30.85200
H  40.74500 45.74400 33.99300
H  39.25600 46.31400 34.64000
H  40.42100 47.42200 33.91000

