158

Mg 17.36800 51.64100 26.63900
C  19.18100 50.20900 29.32200
C  14.82100 52.36200 28.78300
C  15.44300 52.72900 23.92900
C  19.74500 50.45100 24.36700
N  17.08900 51.36100 28.86500
C  18.02300 50.88600 29.74600
C  17.55000 51.07800 31.19700
C  15.99500 51.42200 30.97300
C  15.96800 51.78800 29.46600
C  14.94800 50.33800 31.30300
C  18.43100 52.09000 31.94500
C  18.07600 52.44900 33.42600
H  17.23500 51.42600 34.24600
N  15.39100 52.56400 26.44700
C  14.53100 52.73800 27.43700
C  13.31700 53.44500 26.93800
C  13.44800 53.52000 25.50800
C  14.79400 52.92500 25.22600
C  12.18000 53.73500 27.90700
C  12.54900 54.19500 24.46700
O  12.75200 54.27100 23.25200
C  11.24700 54.73000 24.90600
N  17.52000 51.60000 24.47900
C  16.61100 52.13800 23.60600
C  17.16200 52.01300 22.18000
C  18.52300 51.26500 22.34300
C  18.68500 51.20600 23.84400
C  16.16200 51.37000 21.20500
C  19.70100 51.91400 21.60600
C  20.88300 52.48700 22.40900
N  19.07000 50.51400 26.79700
C  19.95200 50.15700 25.75000
C  21.05400 49.32100 26.31400
C  20.79000 49.33400 27.72700
C  19.60800 50.04000 27.92800
C  22.19100 48.64600 25.66600
C  21.17900 48.74300 28.99600
O  22.03700 47.90400 29.25200
C  20.26900 49.47800 30.09900
C  19.78000 48.58900 31.14100
O  19.16700 47.54900 30.95100
O  20.07800 49.10700 32.42200
C  19.68400 48.15200 33.52300
H  14.02400 52.57100 29.50100
H  15.12400 53.07200 22.94300
H  20.49900 50.11200 23.65400
H  17.68700 50.12000 31.69800
H  15.69700 52.36700 31.42700
H  14.13400 50.82300 31.84300
H  15.48800 49.58600 31.87800
H  14.50000 50.03100 30.35800
H  18.28400 53.04300 31.43700
H  19.45000 51.70300 31.93300
H  17.65000 53.45100 33.39500
H  19.00900 52.58500 33.97300
H  11.26100 54.25700 27.64500
H  12.58700 54.15000 28.82900
H  11.85000 52.76400 28.27800
H  10.59900 54.02600 25.42800
H  10.72300 55.15300 24.04900
H  11.52600 55.53200 25.59000
H  17.31000 53.02100 21.79200
H  18.41600 50.27300 21.90500
H  15.56600 50.57200 21.64700
H  16.77400 50.85500 20.46500
H  15.56000 52.13600 20.71700
H  19.28600 52.58800 20.85700
H  20.06200 51.02000 21.09700
H  21.54600 51.68000 22.72100
H  20.47900 52.98500 23.29100
H  21.45500 53.17700 21.78900
H  21.98600 48.40900 24.62200
H  22.40500 47.67100 26.10500
H  23.14900 49.16500 25.68300
H  20.98500 50.19300 30.50400
H  18.64000 48.00800 33.24600
H  19.58600 48.74600 34.43100
H  20.20900 47.22400 33.75200
Mg 1.29500 41.87900 25.73500
C  3.05200 42.06300 28.71100
C  -1.27100 40.58700 27.47600
C  -0.29000 41.44900 22.72400
C  4.19700 42.48300 23.91200
N  0.86400 41.67200 27.83200
C  1.71500 41.84600 28.89300
C  1.14000 41.65100 30.24800
C  -0.26300 41.02800 29.89400
C  -0.27500 41.03200 28.30500
C  -0.59000 39.57000 30.44000
C  1.10800 43.07600 30.92100
C  1.53100 43.16000 32.40100
H  1.29200 41.90200 33.34700
N  -0.53900 41.14700 25.18300
C  -1.50700 40.65100 26.01300
C  -2.72000 40.18300 25.24600
C  -2.35200 40.36500 23.87000
C  -1.00500 41.01700 23.87100
C  -4.12300 39.79500 25.79300
C  -3.05900 40.01800 22.57500
O  -2.70300 40.33000 21.41400
C  -4.36500 39.22300 22.62900
N  1.83200 42.02500 23.60200
C  0.97900 41.93600 22.64800
C  1.69900 42.01800 21.26400
C  3.11200 42.62200 21.63100
C  3.03400 42.31300 23.16500
C  1.83200 40.65500 20.46700
C  3.16200 44.20300 21.39400
C  4.03200 44.75500 20.20900
N  3.22500 42.09500 26.09300
C  4.34800 42.36800 25.30400
C  5.49000 42.54300 26.16500
C  4.97700 42.37700 27.44100
C  3.62000 42.12100 27.40200
C  6.86300 43.06300 25.73600
C  5.41100 42.51700 28.79900
O  6.58600 42.62600 29.18900
C  4.23700 42.33100 29.69100
C  4.69100 41.22200 30.62200
O  4.50800 40.03200 30.43800
O  5.22800 41.71700 31.73300
C  5.50100 40.79800 32.81800
H  -2.06700 40.02700 27.97200
H  -0.59500 41.28000 21.68900
H  5.07000 42.72000 23.30000
H  1.74700 40.86100 30.69000
H  -1.08800 41.65000 30.24100
H  0.33100 38.98700 30.43300
H  -1.30000 39.02800 29.81600
H  -0.97400 39.61400 31.45900
H  0.08000 43.43100 30.84400
H  1.67400 43.76600 30.29600
H  0.93600 44.00200 32.75400
H  2.60000 43.36000 32.46600
H  -4.48400 38.85700 25.37300
H  -4.66000 40.67200 25.43100
H  -4.31200 39.68400 26.86100
H  -5.16900 39.66300 23.21900
H  -3.95300 38.24700 22.88700
H  -4.88500 39.04800 21.68700
H  1.15100 42.78400 20.71400
H  3.93200 42.11300 21.12500
H  1.47900 39.80100 21.04400
H  2.89800 40.47800 20.32500
H  1.29600 40.74800 19.52200
H  3.51100 44.71500 22.29200
H  2.14100 44.57000 21.28500
H  3.42800 45.35400 19.52700
H  4.51100 43.95900 19.63900
H  4.79300 45.41800 20.62000
H  7.48300 42.22900 25.40600
H  7.34000 43.68200 26.49600
H  6.62300 43.74900 24.92400
H  4.10200 43.22200 30.30400
H  6.43800 40.24400 32.76000
H  4.72000 40.10500 33.13000
H  5.56100 41.51300 33.63900

