158

Mg 24.96300 -4.20900 45.45200
C  26.55200 -1.59000 43.78900
C  22.32100 -3.75000 43.27700
C  23.97800 -7.27900 46.28200
C  28.07200 -4.89100 47.22200
N  24.51100 -2.76800 43.78600
C  25.27400 -1.82000 43.28700
C  24.61600 -1.10700 42.11700
C  23.12100 -1.61600 42.15100
C  23.29400 -2.82400 43.12300
C  21.97200 -0.71400 42.73100
C  25.38300 -1.45300 40.76000
C  25.73100 -0.26200 39.78100
H  25.88500 -0.47400 38.29100
N  23.28700 -5.25500 45.05500
C  22.29700 -4.87400 44.15500
C  21.20200 -5.83400 44.24700
C  21.61200 -6.85600 45.06200
C  22.99600 -6.53300 45.53600
C  19.82000 -5.64700 43.54200
C  20.72500 -8.01400 45.46900
O  19.55200 -8.17700 44.94500
C  21.15200 -8.98800 46.47400
N  25.91800 -5.90200 46.65500
C  25.23600 -7.02500 46.79100
C  26.03100 -8.18200 47.43200
C  27.36100 -7.36800 47.75700
C  27.12200 -5.93300 47.21100
C  25.39000 -8.83500 48.65700
C  28.63100 -7.99600 47.08700
C  29.77400 -8.43200 47.95400
N  26.90500 -3.29400 45.64600
C  27.99800 -3.70100 46.38700
C  29.10200 -2.84200 46.03100
C  28.50200 -1.95100 45.11000
C  27.25500 -2.34800 44.79700
C  30.43900 -2.57300 46.72300
C  28.75600 -0.83200 44.25300
O  29.75000 -0.11900 44.22400
C  27.51900 -0.55300 43.37000
C  27.03700 0.82100 43.76700
O  26.22900 1.10600 44.64700
O  27.68200 1.76100 42.94000
C  27.07700 3.10200 42.91500
H  21.52100 -3.65300 42.54100
H  23.67900 -8.31000 46.48200
H  29.00100 -5.32200 47.60100
H  24.68800 -0.04000 42.32900
H  22.62900 -1.97400 41.24600
H  22.29900 0.24100 42.32000
H  21.95800 -0.71300 43.82000
H  21.02400 -0.95100 42.24700
H  24.76600 -2.13100 40.17000
H  26.27200 -2.02700 41.02000
H  26.67200 0.15600 40.13800
H  24.91000 0.44600 39.88900
H  19.59100 -6.53500 42.95200
H  19.98000 -4.87700 42.78800
H  18.97000 -5.35600 44.15900
H  22.03100 -9.58500 46.23000
H  20.27700 -9.63700 46.51000
H  21.32000 -8.57400 47.46800
H  26.26200 -8.91900 46.66200
H  27.50800 -7.13100 48.81100
H  24.33700 -8.55800 48.61100
H  25.97800 -8.51400 49.51700
H  25.47700 -9.91900 48.58000
H  29.01300 -7.27300 46.36700
H  28.21100 -8.82300 46.51400
H  29.47000 -8.56900 48.99200
H  30.53900 -7.65600 47.96800
H  30.13900 -9.41300 47.65000
H  31.11100 -3.43000 46.69800
H  30.27700 -2.14200 47.71000
H  30.87700 -1.71700 46.20900
H  27.90800 -0.52100 42.35300
H  26.02400 3.02900 42.64300
H  27.49500 3.75600 42.15000
H  27.17000 3.63600 43.86000
Mg -1.82200 33.90000 27.24100
C  -3.46700 32.23000 29.96600
C  -0.04300 35.68000 29.56900
C  -0.81100 36.06600 24.73300
C  -3.85700 32.30000 25.11700
N  -1.94900 34.08200 29.46900
C  -2.56100 33.21900 30.35300
C  -2.27200 33.60000 31.84800
C  -1.23300 34.74400 31.67500
C  -0.99400 34.77600 30.13500
C  -1.71000 36.05200 32.30200
C  -1.74600 32.38800 32.72600
C  -2.34700 32.21100 34.12600
H  -1.42500 32.19600 35.36700
N  -0.54200 35.57500 27.14100
C  0.18700 36.00200 28.19300
C  1.17300 36.98500 27.69400
C  0.79100 37.30500 26.32600
C  -0.22000 36.25000 25.97600
C  2.32200 37.53900 28.51400
C  1.24900 38.37000 25.34100
O  0.99900 38.47300 24.20400
C  2.24500 39.36600 25.97200
N  -2.34400 34.31100 25.34800
C  -1.80200 35.12400 24.43700
C  -2.02000 34.72100 22.96200
C  -2.67100 33.31000 23.17200
C  -2.96300 33.27400 24.66600
C  -2.91200 35.68000 22.17700
C  -1.72300 32.19300 22.71300
C  -2.39300 31.22600 21.75500
N  -3.36200 32.50500 27.47100
C  -4.12100 31.95700 26.45000
C  -5.05100 31.03000 27.04800
C  -4.88200 31.14200 28.44000
C  -3.81600 32.01000 28.65500
C  -6.13900 30.26300 26.30100
C  -5.34300 30.73400 29.67000
O  -6.27600 29.97000 29.90300
C  -4.44600 31.37600 30.82300
C  -5.37500 32.15500 31.56800
O  -5.76100 33.32600 31.28300
O  -5.98600 31.52200 32.66300
C  -7.02500 32.11800 33.49300
H  0.61600 36.23500 30.24000
H  -0.33800 36.57500 23.89000
H  -4.42000 31.72800 24.37700
H  -3.17600 33.97700 32.32500
H  -0.30400 34.49700 32.18900
H  -2.15600 36.79500 31.64000
H  -0.90300 36.50800 32.87500
H  -2.45900 35.84300 33.06600
H  -0.68500 32.53400 32.92700
H  -1.96800 31.42300 32.27100
H  -2.88200 31.26100 34.14300
H  -3.18400 32.88600 34.30300
H  2.34800 36.93900 29.42400
H  2.04100 38.54500 28.82300
H  3.26300 37.43700 27.97300
H  3.18700 38.86900 26.20300
H  1.78800 39.71700 26.89700
H  2.41900 40.21600 25.31300
H  -1.03900 34.67300 22.48900
H  -3.61400 33.27200 22.62800
H  -3.42800 36.32200 22.89000
H  -3.69900 35.15200 21.63800
H  -2.38400 36.37800 21.52800
H  -1.44600 31.51300 23.51900
H  -0.78600 32.52100 22.26300
H  -3.48100 31.16700 21.77000
H  -2.05700 30.21400 21.97900
H  -2.11900 31.41800 20.71700
H  -7.04400 30.02500 26.86100
H  -5.82400 29.33800 25.81800
H  -6.50700 30.99300 25.58000
H  -4.08200 30.53100 31.40700
H  -7.44800 32.98200 32.98000
H  -6.51400 32.51600 34.37000
H  -7.71900 31.33100 33.78700

