158

Mg -2.09500 17.36200 26.51200
C  -2.61700 14.96400 29.00600
C  -2.50500 19.84900 28.90800
C  -1.96300 19.58700 24.07900
C  -2.13200 14.65100 24.11700
N  -2.71800 17.32900 28.70300
C  -2.81500 16.22400 29.52300
C  -3.08400 16.78900 30.98700
C  -2.98600 18.30600 30.86200
C  -2.84300 18.52200 29.40400
C  -4.28500 19.09700 31.37700
C  -2.00300 16.25900 32.04300
C  -1.75800 16.83000 33.51100
H  -1.28300 15.94200 34.61500
N  -2.03000 19.40000 26.49000
C  -2.24500 20.26600 27.58500
C  -2.16200 21.65400 27.13300
C  -1.79900 21.57900 25.72600
C  -1.96000 20.14200 25.36700
C  -2.28600 22.86300 28.05000
C  -1.36400 22.61000 24.70600
O  -1.36800 22.42600 23.46400
C  -1.02800 23.93600 25.21000
N  -2.10500 17.12700 24.40100
C  -1.91900 18.22400 23.63900
C  -1.91900 17.84900 22.13100
C  -1.76400 16.33300 22.19900
C  -1.97600 16.01200 23.65200
C  -3.17100 18.37900 21.42500
C  -0.40600 15.76400 21.78200
C  0.77300 15.85500 22.84700
N  -2.45300 15.22600 26.45600
C  -2.35100 14.27300 25.43500
C  -2.56700 13.00000 26.00700
C  -2.62500 13.24000 27.37500
C  -2.54900 14.59500 27.59700
C  -2.75100 11.73500 25.28700
C  -2.75800 12.52400 28.65600
O  -3.03200 11.35000 28.90700
C  -2.58700 13.59500 29.78200
C  -1.31500 13.31400 30.58000
O  -0.24800 13.85200 30.36900
O  -1.54200 12.42400 31.53100
C  -0.42800 12.23000 32.52600
H  -2.57900 20.69900 29.59000
H  -2.00300 20.32000 23.27000
H  -2.12000 14.00800 23.23500
H  -4.12900 16.53300 31.16600
H  -2.15300 18.64600 31.47600
H  -4.96800 18.52300 32.00200
H  -4.75900 19.65100 30.56700
H  -3.96300 19.82600 32.12200
H  -1.06700 16.21700 31.48500
H  -2.19400 15.19200 32.16500
H  -2.67200 17.37400 33.74700
H  -0.92300 17.48700 33.26500
H  -2.64400 22.66000 29.05900
H  -2.89400 23.55700 27.47000
H  -1.28500 23.29000 28.11600
H  -0.90400 24.65300 24.39800
H  -0.13900 23.77500 25.81900
H  -1.77100 24.29000 25.92500
H  -1.07600 18.34200 21.64700
H  -2.51900 15.94800 21.51400
H  -3.84000 17.52900 21.29300
H  -3.08200 18.83500 20.43900
H  -3.73100 19.16000 21.94000
H  -0.01600 16.09500 20.82000
H  -0.61600 14.69800 21.69300
H  0.85000 14.87300 23.31400
H  0.65300 16.46300 23.74300
H  1.67200 16.24300 22.36900
H  -1.73300 11.42300 25.05200
H  -3.27700 12.01700 24.37500
H  -3.39000 11.06000 25.85600
H  -3.33200 13.56300 30.57700
H  -0.96300 11.89600 33.41500
H  0.09700 13.14800 32.79200
H  0.21900 11.39300 32.26600
Mg 9.65900 48.35400 26.15900
C  7.54700 48.31900 29.01200
C  12.12900 49.75800 28.06800
C  11.59800 48.47100 23.38200
C  6.84300 47.83000 24.21900
N  9.70000 49.03900 28.28900
C  8.84300 48.70200 29.29000
C  9.29500 49.21600 30.59700
C  10.70900 49.94400 30.19100
C  10.88600 49.60900 28.73500
C  10.81200 51.48100 30.49000
C  9.35000 48.17000 31.70700
C  10.01100 48.63700 33.01200
H  9.28200 48.42000 34.36100
N  11.64200 48.89400 25.79400
C  12.55000 49.37500 26.73600
C  13.92000 49.33000 26.15100
C  13.61500 49.12700 24.78500
C  12.22600 48.93000 24.57800
C  15.20500 49.68300 26.92100
C  14.56900 49.19500 23.64600
O  14.21400 49.20300 22.48200
C  16.06200 49.30300 23.96200
N  9.24700 48.24900 24.09900
C  10.23700 48.25900 23.12800
C  9.58700 47.83100 21.76500
C  8.15800 47.46100 22.11700
C  8.09000 47.77400 23.59800
C  9.72400 48.82300 20.54900
C  7.84600 46.00400 21.77600
C  8.47500 45.04100 22.72300
N  7.51000 48.14700 26.49900
C  6.51700 47.90700 25.57200
C  5.31800 47.59400 26.26300
C  5.64700 47.68900 27.61900
C  7.00500 48.02600 27.70700
C  3.93300 47.10000 25.79000
C  5.16300 47.60700 28.98700
O  4.03800 47.29100 29.36600
C  6.37300 47.99600 29.96900
C  6.55900 46.69200 30.60500
O  7.49000 45.93900 30.26300
O  5.65300 46.55900 31.60700
C  5.86600 45.36900 32.52400
H  12.90300 49.87600 28.82900
H  12.05000 48.42300 22.38900
H  5.99600 47.48000 23.62400
H  8.57900 49.98400 30.89000
H  11.51200 49.45200 30.74000
H  11.83100 51.63800 30.84200
H  10.11100 51.78100 31.26900
H  10.70100 51.95700 29.51500
H  9.92000 47.33300 31.30400
H  8.33800 47.85600 31.96100
H  10.14200 49.71900 32.98300
H  10.96900 48.14000 33.16600
H  15.96100 48.89800 26.93900
H  14.89300 49.87400 27.94800
H  15.55800 50.61000 26.46900
H  16.30800 48.58200 24.74100
H  16.32100 50.29300 24.33800
H  16.60100 49.07800 23.04200
H  10.04000 46.90200 21.41700
H  7.46500 48.03300 21.50000
H  10.15000 49.76600 20.89200
H  8.73300 49.01300 20.13900
H  10.41200 48.33200 19.86000
H  8.35600 45.71500 20.85700
H  6.75800 45.96700 21.83700
H  7.71300 44.55300 23.33100
H  9.20400 45.48100 23.40500
H  8.92700 44.24100 22.13800
H  4.02700 46.54800 24.85600
H  3.43800 48.05300 25.60500
H  3.29100 46.49700 26.43200
H  6.22200 48.84900 30.63200
H  5.96200 45.52600 33.59900
H  6.61600 44.63300 32.23500
H  4.99700 44.73600 32.34200

