158

Mg 25.13600 1.36700 29.38200
C  27.24200 1.22300 32.12500
C  22.44300 1.64900 31.61100
C  23.08500 0.69100 26.78800
C  27.95000 0.63500 27.30400
N  24.86900 1.58400 31.63000
C  25.92500 1.52500 32.51700
C  25.39000 1.69000 33.93000
C  23.87000 1.69400 33.83000
C  23.69600 1.60400 32.26700
C  23.14500 0.47200 34.55700
C  26.00600 2.87100 34.67900
C  26.59800 2.54300 36.11300
H  26.06400 3.51000 37.23000
N  23.08700 1.31100 29.23400
C  22.14000 1.42300 30.29600
C  20.81300 1.36600 29.66300
C  20.94600 1.08100 28.22500
C  22.42600 0.98100 28.01500
C  19.58900 1.63700 30.46400
C  19.85700 1.04600 27.11000
O  20.12400 0.75600 25.95100
C  18.43000 1.23700 27.38400
N  25.48700 0.67800 27.36100
C  24.43300 0.52200 26.52400
C  24.87400 0.39800 25.04800
C  26.45100 0.42200 25.18400
C  26.66900 0.66800 26.68800
C  24.39700 -0.98200 24.40300
C  27.12300 1.53700 24.37100
C  26.84800 3.05700 24.77700
N  27.15800 1.10100 29.61300
C  28.18000 0.81300 28.73400
C  29.42100 0.65500 29.38800
C  29.11400 0.80600 30.74200
C  27.73100 1.13300 30.84900
C  30.73200 0.20600 28.83700
C  29.68700 0.84300 32.08000
O  30.86400 0.78400 32.45200
C  28.41200 0.91200 33.00000
C  28.21900 -0.23700 33.85200
O  27.53600 -1.21100 33.62300
O  28.90800 0.00900 35.04800
C  28.81000 -1.02600 36.08500
H  21.63000 1.84700 32.31300
H  22.49900 0.46100 25.89500
H  28.80000 0.28600 26.71400
H  25.74400 0.79700 34.44400
H  23.49800 2.63400 34.23700
H  22.64500 0.85100 35.44800
H  23.88100 -0.23700 34.93600
H  22.43100 -0.03900 33.91100
H  25.37600 3.76100 34.68600
H  26.87500 3.11300 34.06700
H  27.65800 2.74200 35.96000
H  26.45700 1.47400 36.27500
H  19.69500 1.51100 31.54100
H  18.74900 0.97500 30.25300
H  19.24200 2.64800 30.24800
H  18.31300 2.23700 27.80000
H  18.26900 0.49800 28.16900
H  17.82400 1.00300 26.50800
H  24.45400 1.27700 24.56000
H  26.95400 -0.50600 24.91200
H  23.83800 -0.75600 23.49600
H  23.92200 -1.43700 25.27200
H  25.23400 -1.56400 24.01600
H  26.89500 1.35200 23.32200
H  28.19500 1.42200 24.53400
H  26.68400 3.65000 23.87800
H  27.71100 3.42000 25.33500
H  25.90300 3.18200 25.30600
H  30.57400 -0.22300 27.84700
H  31.14600 -0.53700 29.51800
H  31.38500 1.07200 28.73500
H  28.67700 1.70300 33.70100
H  28.97600 -1.97300 35.57200
H  27.82700 -0.85500 36.52300
H  29.64200 -0.80700 36.75400
Mg 30.11100 58.72500 39.48300
C  27.39700 56.45900 38.54200
C  32.27800 56.23000 38.43900
C  32.47800 60.97600 39.22900
C  27.59800 61.23500 39.77200
N  29.81500 56.57900 38.68500
C  28.67200 55.97200 38.27600
C  28.98900 54.66000 37.49600
C  30.52800 54.46600 37.73100
C  30.89500 55.85300 38.25400
C  30.97200 53.28400 38.66500
C  28.58800 54.86300 36.00500
C  27.75300 53.75200 35.29300
H  27.63900 53.85800 33.78900
N  32.12100 58.62600 39.02900
C  32.83100 57.44000 38.74800
C  34.22800 57.77000 38.73100
C  34.32500 59.16800 38.97100
C  32.96800 59.68800 39.03800
C  35.32100 56.70400 38.43800
C  35.59300 60.00100 39.04800
O  36.68700 59.49700 38.97200
C  35.59600 61.46500 39.10200
N  30.03500 60.85800 39.60200
C  31.19400 61.59600 39.50600
C  30.86900 63.10800 39.53800
C  29.42400 63.07400 40.02000
C  28.92200 61.63800 39.78400
C  31.82400 63.95100 40.42200
C  28.58900 64.22100 39.34300
C  27.50800 64.79800 40.26500
N  27.87500 58.85800 39.34200
C  27.07200 59.95500 39.47000
C  25.63700 59.55800 39.29300
C  25.73100 58.16900 38.97600
C  27.13400 57.81900 38.95600
C  24.35700 60.46000 39.49500
C  24.92100 56.97800 38.74900
O  23.68400 56.81800 38.71000
C  26.03400 55.88800 38.43600
C  25.88600 54.73300 39.37700
O  26.08600 54.72700 40.61300
O  25.26800 53.76300 38.63800
C  24.62900 52.67100 39.40900
H  32.95600 55.43700 38.11700
H  33.13100 61.85000 39.17700
H  26.82100 62.00200 39.80000
H  28.38900 53.89100 37.98200
H  31.17800 54.34400 36.86500
H  31.46800 53.72300 39.53000
H  31.66700 52.55300 38.25000
H  30.18300 52.61800 39.01400
H  29.44700 55.02700 35.35500
H  27.96000 55.75100 35.94200
H  26.72800 53.92300 35.62100
H  28.01400 52.74700 35.62600
H  36.19200 57.24800 38.07300
H  34.95100 55.91200 37.78700
H  35.58000 56.31300 39.42200
H  35.14600 61.83800 40.02200
H  34.98800 61.78500 38.25600
H  36.58500 61.88700 38.92400
H  30.91600 63.60700 38.57000
H  29.52500 63.18400 41.09900
H  32.63800 64.50500 39.95400
H  32.35300 63.14900 40.93600
H  31.33600 64.62700 41.12300
H  28.09900 63.84000 38.44700
H  29.25200 65.03400 39.04700
H  27.64100 64.40500 41.27300
H  26.48700 64.63300 39.92000
H  27.65600 65.86400 40.43900
H  24.24400 60.61900 40.56800
H  23.55100 60.00000 38.92300
H  24.37000 61.49200 39.14600
H  25.78700 55.49400 37.45100
H  25.34100 52.04500 39.94700
H  24.17600 51.93500 38.74500
H  23.86100 53.10600 40.04900

