158

Mg 16.73500 52.04200 25.91900
C  18.49100 50.79400 28.60900
C  14.29800 53.01000 28.08300
C  14.97100 52.97000 23.22600
C  19.36400 50.83800 23.79000
N  16.35900 51.80100 28.18500
C  17.28300 51.41000 29.06700
C  16.90000 51.43100 30.52200
C  15.35500 52.02100 30.28900
C  15.30200 52.33300 28.77000
C  14.19500 51.15300 30.79000
C  17.82900 52.41300 31.30500
C  17.61100 52.67400 32.77500
H  16.55700 51.81700 33.39300
N  14.91700 52.91400 25.68000
C  14.11100 53.25400 26.73500
C  12.94500 54.01400 26.16300
C  13.09700 54.05600 24.71400
C  14.33100 53.30600 24.47200
C  11.94900 54.61500 27.07800
C  12.24200 54.63600 23.66100
O  12.54200 54.66600 22.47300
C  11.04200 55.42900 24.02400
N  17.18400 51.91900 23.77800
C  16.29400 52.37800 22.94700
C  16.85000 52.32600 21.48800
C  18.27300 51.81000 21.66000
C  18.32000 51.48500 23.16800
C  15.92500 51.54100 20.49200
C  19.37100 52.83400 21.34900
C  20.79100 52.30100 20.88600
N  18.42500 50.95500 26.06600
C  19.44000 50.56300 25.11200
C  20.44600 49.78900 25.77700
C  20.07500 49.78200 27.13800
C  18.85100 50.52800 27.24800
C  21.64500 49.37900 25.22000
C  20.58000 49.41700 28.44500
O  21.55900 48.81200 28.76500
C  19.49300 49.98000 29.47000
C  18.99300 48.80000 30.12900
O  18.19400 48.03300 29.67300
O  19.21300 48.92000 31.51500
C  18.45000 47.95600 32.40300
H  13.59400 53.27100 28.87600
H  14.54500 53.19100 22.24500
H  20.13400 50.49700 23.09500
H  16.84900 50.41900 30.92300
H  15.21600 52.98300 30.78200
H  13.53500 51.70300 31.46100
H  14.50800 50.22500 31.27000
H  13.58900 50.80800 29.95300
H  17.72700 53.39100 30.83600
H  18.85800 52.07400 31.18500
H  17.25100 53.68000 32.98800
H  18.59600 52.45700 33.18700
H  10.91300 54.27600 27.07100
H  12.00600 55.62700 26.67600
H  12.33400 54.65000 28.09700
H  11.36600 56.26900 24.63800
H  10.32600 54.85000 24.60800
H  10.56800 55.77300 23.10500
H  16.90100 53.36900 21.17400
H  18.42800 50.88700 21.10100
H  16.56000 51.04900 19.75600
H  15.24500 52.30200 20.11200
H  15.25400 50.85500 21.01000
H  19.64000 53.44000 22.21500
H  18.98900 53.49400 20.57100
H  20.69900 51.23900 20.65700
H  21.47100 52.55800 21.69800
H  20.95500 52.91900 20.00400
H  22.48000 50.05300 25.40900
H  21.67600 49.17400 24.14900
H  21.96900 48.43200 25.65200
H  20.06100 50.54500 30.20900
H  18.32400 46.97700 31.94100
H  17.54600 48.39600 32.82300
H  19.01100 47.76900 33.31900
Mg -3.13700 34.89100 27.03900
C  -4.82400 32.96000 29.41200
C  -2.35400 37.14900 29.62600
C  -1.49500 36.71900 24.83100
C  -4.17200 32.78200 24.58500
N  -3.53900 35.10500 29.28100
C  -4.16800 34.07600 30.00800
C  -4.11900 34.36200 31.53800
C  -3.54300 35.89600 31.55800
C  -3.11400 36.06200 30.06600
C  -4.67700 36.94900 31.87000
C  -3.07800 33.27000 32.15900
C  -3.47400 32.96500 33.59700
H  -2.81300 33.77200 34.75800
N  -1.99000 36.67200 27.25200
C  -1.75900 37.44800 28.40900
C  -0.79400 38.45700 28.02000
C  -0.63200 38.37500 26.56300
C  -1.41100 37.21200 26.15300
C  -0.25400 39.56200 29.04300
C  0.16700 39.28100 25.71800
O  0.18400 39.23800 24.47000
C  0.96700 40.33000 26.40000
N  -2.94200 34.85400 24.98200
C  -2.14700 35.59500 24.30800
C  -1.91100 35.17000 22.83800
C  -2.59000 33.81100 22.91900
C  -3.31100 33.82200 24.24000
C  -2.59000 36.06200 21.72400
C  -1.60600 32.58900 22.91600
C  -1.75200 31.67200 21.64400
N  -4.28800 33.19200 27.00200
C  -4.62200 32.46100 25.89600
C  -5.59900 31.39600 26.25000
C  -5.61000 31.47100 27.68200
C  -4.81300 32.64300 28.04200
C  -6.20000 30.39000 25.43700
C  -6.16300 30.86600 28.91900
O  -6.91800 29.90500 29.07200
C  -5.60700 31.75800 30.08800
C  -6.78000 32.19700 30.90100
O  -7.68300 32.93300 30.61000
O  -6.76500 31.52600 32.06200
C  -7.87500 31.92000 33.03900
H  -1.98900 37.80900 30.41600
H  -0.83800 37.26500 24.15200
H  -4.49400 32.15000 23.75500
H  -5.12100 34.33400 31.96600
H  -2.70400 36.08700 32.22700
H  -5.49600 36.41000 32.34700
H  -5.06100 37.52900 31.03000
H  -4.30100 37.72300 32.53900
H  -2.02100 33.52800 32.22400
H  -3.03900 32.47900 31.40900
H  -3.23400 31.91100 33.73700
H  -4.49400 33.06400 33.96900
H  -0.79800 40.46800 28.78000
H  0.81200 39.77900 28.97300
H  -0.51900 39.26300 30.05700
H  0.31200 41.04500 26.89900
H  1.50500 40.87900 25.62700
H  1.74200 39.90000 27.03300
H  -0.86700 35.04000 22.55100
H  -3.37700 33.61200 22.19100
H  -3.46800 36.47400 22.22200
H  -2.88000 35.51900 20.82500
H  -1.94300 36.86500 21.37100
H  -1.65000 31.99900 23.83100
H  -0.56900 32.92500 22.88700
H  -0.91100 31.63200 20.95200
H  -2.54300 32.06500 21.00600
H  -2.05600 30.64600 21.85200
H  -6.35700 30.93200 24.50500
H  -7.10200 29.95500 25.86800
H  -5.47700 29.58000 25.33500
H  -4.93500 31.19300 30.73400
H  -8.85400 32.03300 32.57200
H  -7.50500 32.79700 33.57200
H  -8.13600 31.19000 33.80500

