158

Mg -1.51000 16.87200 26.05400
C  -2.15800 14.36700 28.53900
C  -2.76800 19.11100 28.34500
C  -1.58300 19.08500 23.72100
C  -1.35600 14.24400 23.77300
N  -2.12600 16.70600 28.26100
C  -2.15800 15.64400 29.07400
C  -2.45100 16.03000 30.52300
C  -2.91600 17.52900 30.30100
C  -2.58800 17.84900 28.89300
C  -4.34700 17.86900 30.81300
C  -1.30900 15.82400 31.59700
C  -1.35700 16.77200 32.84500
H  -1.26000 16.18700 34.23700
N  -2.10200 18.92700 26.05200
C  -2.55100 19.66600 27.06400
C  -2.68100 20.99200 26.65900
C  -2.33600 21.02000 25.24200
C  -1.98200 19.63400 24.94400
C  -2.96900 22.10200 27.65500
C  -2.23900 22.22100 24.27900
O  -1.69500 22.22500 23.18800
C  -2.76100 23.52300 24.70800
N  -1.41300 16.67000 23.99500
C  -1.34400 17.79500 23.26000
C  -0.99600 17.42300 21.88400
C  -0.72800 15.85100 21.91100
C  -1.16800 15.56100 23.30900
C  -2.17900 17.72000 20.80500
C  0.74000 15.40700 21.62300
C  1.79700 15.34400 22.76700
N  -1.74000 14.74600 26.10000
C  -1.58100 13.82300 25.05000
C  -1.88700 12.50100 25.44500
C  -2.04600 12.64200 26.84600
C  -1.89500 13.99300 27.17800
C  -2.07400 11.31000 24.61200
C  -2.47100 11.96200 28.01000
O  -2.71500 10.74300 28.20100
C  -2.50200 12.97100 29.20200
C  -1.61000 12.46400 30.28400
O  -0.41600 12.76300 30.39000
O  -2.24500 11.67700 31.16100
C  -1.49900 11.41600 32.43000
H  -3.09700 19.78400 29.14000
H  -1.61000 19.88800 22.98100
H  -1.19700 13.45100 23.03900
H  -3.24700 15.44400 30.98200
H  -2.15500 18.19700 30.70500
H  -4.94700 18.48000 30.13900
H  -4.40500 18.38100 31.77300
H  -4.81700 16.89200 30.92500
H  -0.32800 15.98700 31.15000
H  -1.35900 14.79600 31.95500
H  -2.30300 17.31100 32.90300
H  -0.57700 17.52300 32.71600
H  -3.71400 22.74700 27.18700
H  -2.12200 22.73100 27.92700
H  -3.43600 21.72900 28.56600
H  -3.78000 23.19900 24.92000
H  -2.74700 24.16600 23.82900
H  -2.31900 24.06300 25.54600
H  -0.11000 17.99300 21.60400
H  -1.29000 15.24300 21.20200
H  -2.52800 16.76500 20.41100
H  -1.75600 18.32300 20.00200
H  -2.94500 18.28200 21.34000
H  1.22500 16.02500 20.86800
H  0.71900 14.37400 21.27500
H  2.24900 14.35200 22.74400
H  1.24500 15.56300 23.68100
H  2.58900 16.06100 22.55600
H  -2.33900 11.61100 23.59900
H  -2.84000 10.75000 25.14800
H  -1.13300 10.76200 24.65500
H  -3.49600 12.92900 29.64600
H  -0.45100 11.14600 32.30100
H  -2.05800 10.63000 32.93700
H  -1.56300 12.26700 33.10800
Mg 42.48700 41.25500 26.64200
C  41.92000 43.49900 29.30400
C  43.22300 38.76300 29.12900
C  43.60000 39.24400 24.21400
C  42.42700 43.92100 24.46900
N  42.60100 41.13600 28.96100
C  42.20300 42.17600 29.77700
C  42.26500 41.74000 31.29800
C  42.57400 40.21500 31.21200
C  42.95600 39.99800 29.72000
C  43.66900 39.81100 32.22100
C  41.06400 42.19700 32.08100
C  40.74000 41.27600 33.32300
H  40.31200 42.04300 34.59900
N  43.20700 39.23400 26.65400
C  43.30900 38.34200 27.67300
C  43.83200 37.09000 27.17600
C  44.14200 37.29500 25.78800
C  43.66200 38.63600 25.47800
C  44.20600 35.92900 27.99300
C  44.93100 36.35500 24.89400
O  45.22700 36.69300 23.77900
C  45.23500 34.86900 25.34900
N  42.99500 41.57200 24.61500
C  43.39500 40.59400 23.80600
C  43.47400 41.11400 22.27100
C  42.80300 42.50600 22.33800
C  42.81000 42.69100 23.91200
C  44.95400 41.10700 21.87500
C  41.38600 42.57300 21.70400
C  40.15700 41.69200 22.24300
N  42.11800 43.31500 26.81600
C  42.09900 44.21100 25.77400
C  41.78400 45.51300 26.31400
C  41.67200 45.28200 27.72800
C  41.90800 43.92000 27.95600
C  41.71700 46.79100 25.64800
C  41.48400 45.98000 28.98600
O  41.33900 47.18500 29.23000
C  41.60400 44.77300 30.06900
C  42.60700 45.30900 31.04500
O  43.84900 45.39700 30.90900
O  41.94400 45.58100 32.22800
C  42.68100 45.97000 33.40000
H  43.44400 37.96200 29.83800
H  43.78100 38.53600 23.40200
H  42.29100 44.70400 23.71900
H  43.14100 42.21400 31.74100
H  41.62200 39.70600 31.36300
H  44.53000 39.62100 31.58000
H  43.34600 38.91800 32.75500
H  43.97800 40.57700 32.93300
H  40.32700 42.43200 31.31300
H  41.35700 43.12500 32.57100
H  41.51100 40.53500 33.53200
H  39.82300 40.78400 32.99800
H  43.81900 34.97800 27.62900
H  43.91600 36.08700 29.03200
H  45.27500 35.88700 28.20400
H  45.52000 34.32200 24.45100
H  44.39500 34.31200 25.76400
H  45.99600 34.91900 26.12800
H  43.04800 40.41200 21.55300
H  43.39900 43.25400 21.81400
H  45.56100 41.03700 22.77800
H  45.23500 42.02500 21.35900
H  45.04700 40.27900 21.17300
H  41.57900 42.28100 20.67200
H  41.09300 43.60200 21.91600
H  39.43700 42.44800 22.55700
H  40.55800 41.01700 22.99800
H  39.82200 41.03600 21.44000
H  41.55700 46.75100 24.57000
H  42.67400 47.30800 25.71400
H  40.91800 47.40200 26.06900
H  40.61600 44.69500 30.52300
H  43.67700 45.52800 33.44400
H  42.07000 45.87600 34.29800
H  42.90400 47.03100 33.28500

