158

Mg 24.36300 -5.58400 46.31500
C  26.73100 -3.30000 44.67900
C  22.11600 -4.78200 43.94700
C  22.61100 -7.96800 47.59800
C  27.28100 -6.62900 48.26600
N  24.41700 -4.14200 44.51100
C  25.45300 -3.38500 44.02900
C  25.02700 -2.61800 42.76100
C  23.48800 -2.93400 42.77800
C  23.32000 -4.02500 43.78000
C  22.63500 -1.63500 43.03700
C  25.78500 -3.10400 41.49900
C  26.32300 -1.84100 40.69600
H  26.30600 -1.71900 39.11600
N  22.58600 -6.26500 45.86300
C  21.75400 -5.75000 44.88600
C  20.42000 -6.41300 45.06000
C  20.59200 -7.46100 46.06500
C  21.93400 -7.19800 46.63500
C  19.25500 -5.82500 44.28500
C  19.51400 -8.59900 46.23500
O  18.45700 -8.63200 45.62000
C  19.78800 -9.76800 47.20000
N  24.91800 -7.17000 47.71200
C  23.91700 -7.97400 48.18100
C  24.54400 -9.13900 48.89400
C  25.95600 -8.65600 49.21800
C  26.08500 -7.38800 48.39700
C  23.76700 -9.56800 50.24000
C  27.20900 -9.63500 48.94000
C  28.43600 -9.54300 49.78500
N  26.47200 -4.98000 46.62000
C  27.45500 -5.48200 47.45800
C  28.67400 -4.73200 47.24800
C  28.36600 -3.82000 46.21700
C  27.08000 -4.09400 45.77600
C  29.92600 -4.87800 48.03400
C  29.00700 -2.81700 45.34200
O  30.09900 -2.39900 45.38600
C  27.95000 -2.59000 44.16600
C  27.79300 -1.14200 44.25600
O  28.18500 -0.31600 43.41300
O  27.26600 -0.83100 45.44400
C  27.07200 0.65200 45.65100
H  21.44700 -4.67000 43.09100
H  22.13500 -8.87000 47.98800
H  28.24400 -6.96800 48.65400
H  25.21300 -1.55800 42.93600
H  23.32600 -3.33300 41.77600
H  21.58100 -1.88700 42.92300
H  22.70500 -0.90200 42.23300
H  22.77300 -1.22900 44.03900
H  25.10800 -3.63200 40.82800
H  26.48500 -3.90300 41.74300
H  27.32800 -1.69500 41.09200
H  25.93500 -0.86900 41.00000
H  19.01200 -4.88300 44.77600
H  18.40100 -6.47600 44.47300
H  19.60900 -5.65300 43.26900
H  20.68300 -10.36000 47.01100
H  19.02100 -10.54000 47.14800
H  19.87100 -9.39200 48.22000
H  24.54800 -10.04600 48.28800
H  26.00300 -8.28200 50.24100
H  23.44800 -10.61000 50.19700
H  22.94400 -8.97400 50.63700
H  24.42700 -9.68900 51.09800
H  27.68200 -9.49000 47.96900
H  26.82300 -10.64600 49.06800
H  29.35200 -9.47800 49.19700
H  28.54900 -10.46700 50.35100
H  28.39300 -8.68300 50.45400
H  29.95500 -5.36800 49.00800
H  30.16100 -3.82300 48.17600
H  30.67000 -5.36600 47.40400
H  28.27000 -2.94300 43.18500
H  25.99700 0.83100 45.63400
H  27.61500 1.19900 44.88100
H  27.53200 0.93200 46.59900
Mg 46.87800 16.64700 28.31700
C  44.86700 16.25000 31.14600
C  49.20600 18.24500 30.25900
C  48.64300 17.26300 25.60900
C  44.40700 14.96900 26.42700
N  46.93900 17.22300 30.40400
C  46.08500 16.92900 31.40500
C  46.67600 17.29900 32.79400
C  47.89500 18.16000 32.39800
C  48.06500 17.84900 30.89800
C  47.71300 19.71600 32.69600
C  46.97500 16.05800 33.62600
C  46.27200 16.00400 35.06200
H  46.63900 17.19600 35.98600
N  48.70000 17.59000 27.94000
C  49.57800 17.98200 28.92000
C  50.71300 18.52700 28.30600
C  50.52000 18.38600 26.88800
C  49.20700 17.77500 26.71200
C  51.97300 19.15300 29.06100
C  51.35000 18.91000 25.71900
O  50.91500 18.91200 24.57900
C  52.72400 19.53600 25.95300
N  46.47400 16.49300 26.31200
C  47.40100 16.67600 25.34500
C  46.98900 16.18700 23.96300
C  45.70900 15.47500 24.29900
C  45.49300 15.65500 25.80000
C  46.85200 17.27100 22.85200
C  45.66800 14.05800 23.77500
C  46.52100 12.97100 24.63700
N  45.00800 15.79000 28.66400
C  44.13900 15.09800 27.83800
C  42.97700 14.58200 28.60500
C  43.27100 14.95500 29.90700
C  44.46100 15.77200 29.88300
C  41.81100 13.76200 28.15900
C  42.74300 14.98500 31.27600
O  41.71600 14.54200 31.76000
C  43.92000 15.73400 32.12100
C  43.22300 16.80800 32.88600
O  43.13000 17.99900 32.54200
O  42.93100 16.32200 34.11100
C  42.07200 17.10700 35.04700
H  50.01000 18.56600 30.92500
H  49.27300 17.12400 24.72800
H  43.70900 14.42500 25.78800
H  45.84800 17.83100 33.26300
H  48.76200 17.81800 32.96300
H  46.93300 19.98700 33.40700
H  47.33100 20.16100 31.77700
H  48.69000 20.14200 32.92400
H  48.05600 15.96900 33.73500
H  46.73100 15.19600 33.00500
H  46.76900 15.11700 35.45400
H  45.18500 15.92000 35.02900
H  52.88300 18.66200 28.71700
H  52.07300 18.94900 30.12700
H  52.07500 20.21000 28.81500
H  52.62900 20.40900 26.59900
H  53.11800 19.75300 24.96000
H  53.41300 18.76000 26.28500
H  47.69900 15.45800 23.57200
H  44.85000 15.84100 23.73700
H  45.93700 17.06000 22.29800
H  47.62900 17.20800 22.09000
H  46.76400 18.23400 23.35500
H  46.20900 14.03300 22.82800
H  44.63400 13.74600 23.63200
H  47.42200 13.38600 25.08700
H  46.84400 12.20500 23.93300
H  45.83800 12.60900 25.40600
H  41.90600 13.71900 27.07400
H  40.84200 14.26200 28.13800
H  41.82400 12.75100 28.56600
H  44.31400 14.97600 32.79700
H  42.60200 17.39200 35.95500
H  41.26800 16.47400 35.42400
H  41.69100 18.00400 34.55900

