158

Mg 44.10400 3.57200 47.35000
C  42.31200 6.58500 47.11100
C  41.13900 1.86200 46.97900
C  45.91600 0.64800 47.10600
C  47.07800 5.39400 47.31000
N  41.93600 4.18400 47.01600
C  41.46900 5.45100 47.07000
C  39.97200 5.52200 46.93700
C  39.61000 3.95500 47.07500
C  40.95100 3.25900 47.01400
C  38.76700 3.47500 48.20300
C  39.46600 6.20500 45.58900
C  39.91500 5.64100 44.28500
H  40.91600 6.53200 43.50300
N  43.59300 1.51900 47.19900
C  42.30800 1.06200 47.05100
C  42.38600 -0.39700 46.88100
C  43.72800 -0.79400 46.79100
C  44.48400 0.43600 47.04400
C  41.12300 -1.21400 46.54600
C  44.28100 -2.20000 46.54200
O  43.43100 -3.06200 46.74600
C  45.71800 -2.48700 46.20200
N  46.16500 3.11600 47.10600
C  46.68100 1.90300 47.18300
C  48.18000 1.94900 47.16400
C  48.52700 3.43200 47.50700
C  47.17900 4.03100 47.20600
C  48.84400 0.85900 47.95800
C  49.74900 4.02300 46.70700
C  50.96900 4.53800 47.52600
N  44.64200 5.50400 47.34000
C  45.86400 6.11800 47.37200
C  45.69700 7.52800 47.48300
C  44.29700 7.80300 47.39500
C  43.70900 6.48800 47.27500
C  46.77700 8.52300 47.70100
C  43.25000 8.83100 47.38900
O  43.33100 10.00600 47.44400
C  41.88500 8.07500 47.11200
C  40.88700 8.47300 48.19200
O  40.76200 7.78300 49.21800
O  40.05400 9.57600 47.88100
C  38.82200 9.73800 48.66500
H  40.21500 1.31600 46.77800
H  46.56200 -0.23100 47.07800
H  47.96000 5.98600 47.56400
H  39.45200 6.14300 47.66600
H  38.97900 3.67100 46.23300
H  39.30900 2.98900 49.01400
H  38.11300 2.67100 47.86600
H  38.22700 4.24400 48.75500
H  39.59700 7.28600 45.64000
H  38.37700 6.23700 45.58900
H  39.02800 5.35900 43.71700
H  40.43000 4.72200 44.56300
H  40.23700 -0.79800 47.02500
H  41.21500 -2.19600 47.01000
H  41.04000 -1.37000 45.47000
H  45.97300 -1.97200 45.27600
H  45.92000 -3.55800 46.20400
H  46.42800 -2.08400 46.92400
H  48.43400 1.74000 46.12400
H  48.81100 3.44500 48.56000
H  49.82800 1.20000 48.28200
H  48.96300 -0.01200 47.31400
H  48.35200 0.52800 48.87300
H  49.30500 4.80900 46.09600
H  50.09400 3.20300 46.07600
H  50.78800 4.65300 48.59500
H  51.06200 5.58300 47.23000
H  51.85300 3.93100 47.33500
H  46.59100 8.86900 48.71800
H  46.79000 9.35600 46.99800
H  47.76200 8.08100 47.84900
H  41.69800 8.37400 46.08000
H  38.25600 10.60700 48.33000
H  39.10000 9.83300 49.71400
H  38.24800 8.82000 48.53800
Mg 9.36600 47.17200 28.01600
C  7.46100 46.99300 31.02300
C  12.13100 47.50100 29.90900
C  10.92600 47.88600 25.23900
C  6.17100 47.45000 26.22300
N  9.71000 47.44500 30.27900
C  8.84000 47.15900 31.20100
C  9.55200 47.32500 32.59500
C  10.95800 47.51600 32.18700
C  10.97000 47.44800 30.67600
C  11.49400 48.95100 32.61300
C  9.20900 46.05600 33.42400
C  10.22200 45.52700 34.49000
H  9.68300 44.75700 35.72900
N  11.24900 47.44900 27.64500
C  12.26200 47.57500 28.51900
C  13.52400 47.79600 27.76500
C  13.21000 47.68200 26.35500
C  11.76700 47.57500 26.34900
C  14.86200 47.88600 28.42700
C  14.11200 47.69400 25.05200
O  13.60700 47.68400 23.94400
C  15.52800 47.62600 25.06500
N  8.63800 47.53700 25.91200
C  9.56100 47.86800 25.02300
C  8.88200 48.29600 23.76200
C  7.36100 48.21400 23.95600
C  7.35600 47.66900 25.44800
C  9.33400 49.67700 23.14600
C  6.49600 47.27300 22.93900
C  6.58900 47.79100 21.48500
N  7.26800 47.28200 28.47000
C  6.16400 47.26200 27.65100
C  4.95100 47.20700 28.45100
C  5.40400 47.02800 29.73900
C  6.82200 47.06400 29.71800
C  3.55500 47.36500 27.99100
C  4.99400 46.82200 31.09800
O  3.87900 46.59900 31.56100
C  6.29800 46.80800 32.00600
C  6.18800 45.40500 32.62100
O  6.34800 44.39400 31.96900
O  5.66800 45.50600 33.88400
C  5.69300 44.24400 34.59300
H  13.03500 47.58100 30.51600
H  11.45400 48.27100 24.36300
H  5.18100 47.32100 25.78000
H  9.13900 48.17600 33.13500
H  11.59700 46.77300 32.66400
H  10.73700 49.45800 33.21100
H  11.77900 49.55400 31.75100
H  12.39100 48.82800 33.22000
H  9.13900 45.14900 32.82400
H  8.23800 46.13000 33.91400
H  10.67900 46.42000 34.91600
H  11.14400 45.07200 34.12800
H  15.33500 46.90700 28.50700
H  14.72100 48.32300 29.41600
H  15.52800 48.44100 27.76700
H  15.80500 47.09800 25.97800
H  16.14200 48.52600 25.09800
H  15.90200 47.05400 24.21500
H  9.07400 47.47200 23.07400
H  6.88700 49.19600 23.94500
H  10.18800 50.06800 23.70000
H  8.59000 50.47100 23.22000
H  9.60000 49.59300 22.09200
H  5.48000 47.20500 23.32900
H  6.84000 46.24100 22.87700
H  7.21100 48.68000 21.38400
H  5.60300 48.12600 21.16200
H  6.99900 47.01900 20.83400
H  3.42800 48.07300 27.17100
H  3.10500 47.89300 28.83200
H  3.16400 46.35500 27.87500
H  6.31500 47.60400 32.75100
H  5.37900 44.31400 35.63500
H  6.67800 43.77800 34.57800
H  5.09400 43.48600 34.08800

