158

Mg 53.91300 24.21800 44.10500
C  51.16500 26.45200 43.27500
C  51.98500 21.84800 42.50000
C  56.41200 22.25400 44.50700
C  55.79300 26.99900 44.81600
N  51.94500 24.26100 42.74100
C  50.98800 25.23800 42.66100
C  49.75100 24.67200 41.89200
C  49.88500 23.11800 42.20900
C  51.35300 23.07300 42.46200
C  49.02800 22.58600 43.38100
C  49.69800 24.97700 40.34800
C  50.97700 25.30400 39.56400
H  50.76800 25.66900 38.07900
N  54.15000 22.27100 43.62900
C  53.23700 21.43500 43.07300
C  53.80800 20.06000 43.16300
C  55.03600 20.20000 43.89400
C  55.27300 21.61100 44.01600
C  53.09700 18.78500 42.54500
C  55.88000 19.01000 44.45000
O  55.44600 17.89000 44.29300
C  57.17300 19.25800 45.30100
N  55.80600 24.56600 44.52300
C  56.76900 23.58900 44.65800
C  58.15400 24.08700 44.90400
C  57.86800 25.62400 45.05400
C  56.39800 25.76800 44.74800
C  58.96300 23.42500 46.03600
C  58.86200 26.62000 44.43600
C  58.51300 27.05700 42.96400
N  53.62500 26.38100 44.08600
C  54.46200 27.27300 44.57100
C  53.75400 28.57600 44.67900
C  52.46500 28.31300 44.11800
C  52.42200 26.94000 43.85600
C  54.19700 29.91300 45.23000
C  51.17400 28.88500 43.78300
O  50.75700 30.00200 44.03000
C  50.28000 27.67900 43.26000
C  49.91000 28.01700 41.87900
O  50.70700 28.34400 41.03500
O  48.58900 28.24500 41.86000
C  48.16400 29.16200 40.76000
H  51.40800 21.04200 42.04300
H  57.20100 21.56800 44.82200
H  56.33100 27.87900 45.17300
H  48.88100 25.12500 42.36700
H  49.70000 22.52600 41.31200
H  48.35300 23.36500 43.73400
H  49.69100 22.26200 44.18400
H  48.53300 21.65500 43.10600
H  49.04200 25.84700 40.29200
H  49.33200 24.26600 39.60700
H  51.67200 24.47800 39.71500
H  51.52900 26.08000 40.09500
H  52.18200 18.85700 41.95700
H  52.77100 18.17100 43.38500
H  53.87200 18.25500 41.99100
H  57.62700 18.31400 45.60300
H  56.99400 19.86300 46.19000
H  58.02000 19.61400 44.71400
H  58.63800 23.99100 43.93200
H  57.84000 26.04600 46.05900
H  58.49100 22.56100 46.50400
H  58.98500 24.16200 46.83900
H  59.94800 23.19300 45.63300
H  59.84000 26.13800 44.44500
H  59.05600 27.54200 44.98400
H  57.85600 27.90600 42.77400
H  58.20100 26.18400 42.39200
H  59.48300 27.24800 42.50700
H  55.28300 29.93600 45.32000
H  53.80000 29.97300 46.24300
H  53.89400 30.78800 44.65500
H  49.41300 27.48200 43.89100
H  48.86800 29.99100 40.67900
H  47.25500 29.67700 41.07200
H  48.00400 28.77300 39.75500
Mg 49.52300 45.47000 42.37600
C  45.96100 45.69600 41.51500
C  49.17600 42.16900 41.43800
C  52.70900 45.44000 42.09400
C  49.46600 48.93600 42.78900
N  47.70500 44.06500 41.49400
C  46.40900 44.40400 41.22100
C  45.75400 43.20400 40.55000
C  46.69100 42.10400 41.04600
C  47.90800 42.81700 41.30000
C  46.27000 41.27000 42.26700
C  45.60000 43.41600 39.04200
C  44.59600 42.52100 38.27500
H  44.97100 41.74700 36.96200
N  50.78400 43.96800 41.95400
C  50.50500 42.65700 41.60100
C  51.75900 41.93200 41.61700
C  52.83300 42.88000 41.65300
C  52.13600 44.17200 41.92600
C  51.77500 40.45300 41.65600
C  54.34800 42.61800 41.63900
O  54.82800 41.50300 41.39900
C  55.30300 43.81600 41.95000
N  50.89900 46.98800 42.47300
C  52.26200 46.72200 42.49200
C  53.10500 48.03800 42.65100
C  51.99200 49.14800 42.84300
C  50.66300 48.32600 42.74600
C  54.18800 47.98200 43.80800
C  52.13000 50.25700 41.65600
C  51.87000 51.68600 42.15400
N  48.10900 47.06600 42.27700
C  48.26700 48.38600 42.54800
C  46.95400 49.01600 42.48700
C  46.03400 48.06200 42.03200
C  46.75200 46.86000 41.90300
C  46.65800 50.49600 42.68100
C  44.64200 47.82700 41.66000
O  43.74000 48.68100 41.63800
C  44.59400 46.29300 41.21200
C  43.55900 45.48700 41.80500
O  42.81700 44.71300 41.21200
O  43.37200 45.83100 43.07800
C  42.12900 45.37200 43.84500
H  49.11400 41.09100 41.27200
H  53.79400 45.53400 42.02200
H  49.35600 50.02200 42.81500
H  44.73300 42.94200 40.82900
H  47.00700 41.39900 40.27700
H  47.12200 41.09400 42.92300
H  46.06300 40.30200 41.81100
H  45.31800 41.61000 42.67800
H  46.58900 43.44500 38.58500
H  45.12900 44.39400 38.94400
H  43.77800 43.19000 38.00600
H  44.07900 41.88000 38.98900
H  51.47700 40.05800 42.62700
H  52.69000 40.00300 41.27200
H  51.08400 40.05400 40.91400
H  56.28800 43.37100 42.08600
H  54.90600 44.15100 42.90800
H  55.41000 44.50300 41.11100
H  53.67100 48.27900 41.75100
H  51.98400 49.55400 43.85500
H  55.18400 48.18500 43.41500
H  54.35500 47.02500 44.30400
H  53.93100 48.56300 44.69400
H  51.30600 49.98700 40.99600
H  53.05000 50.29600 41.07300
H  51.09700 52.07800 41.49300
H  52.78300 52.28000 42.20600
H  51.66500 51.72000 43.22400
H  47.50500 50.92100 43.21900
H  45.82000 50.52600 43.37700
H  46.40100 51.12600 41.83000
H  44.39300 46.29900 40.14000
H  41.21000 45.75500 43.40300
H  42.15200 45.72300 44.87700
H  42.01900 44.29800 43.69000

