158

Mg 16.54500 51.56200 26.78200
C  18.71800 50.46100 29.47400
C  14.46300 52.62700 29.01900
C  14.70700 52.59700 24.20700
C  19.08800 50.45200 24.65600
N  16.71300 51.63000 28.95300
C  17.59600 51.17300 29.87900
C  17.21000 51.48800 31.34800
C  15.74600 51.97500 31.08300
C  15.58300 52.08200 29.58700
C  14.66100 51.07400 31.69000
C  18.14100 52.48600 32.10000
C  18.45800 52.13100 33.55600
H  17.33600 51.58000 34.44600
N  14.79500 52.49500 26.69700
C  14.02500 52.88900 27.76100
C  12.86600 53.56700 27.29100
C  13.01400 53.65900 25.91200
C  14.15900 52.79400 25.51000
C  11.90100 54.19300 28.21000
C  12.18200 54.37100 24.84300
O  12.37900 54.41600 23.66100
C  11.03100 55.21400 25.20600
N  16.90600 51.55300 24.76500
C  15.92400 51.96500 23.86600
C  16.43900 51.94100 22.40600
C  17.79600 51.18500 22.55500
C  17.99300 51.07300 24.07100
C  15.39900 51.44000 21.30700
C  18.89000 51.88500 21.71000
C  20.09000 51.02700 21.16300
N  18.49700 50.54600 26.96100
C  19.39200 50.17200 25.98300
C  20.56700 49.53400 26.58100
C  20.28800 49.52600 27.98300
C  19.10300 50.29300 28.13400
C  21.77100 49.10000 25.89300
C  20.75800 49.16800 29.27200
O  21.82600 48.63900 29.61700
C  19.74500 49.74800 30.31400
C  19.26600 48.77700 31.29500
O  18.36400 47.94200 31.08700
O  20.03400 48.77500 32.46600
C  19.52800 47.98500 33.58700
H  13.67600 52.84900 29.74300
H  14.25200 53.00800 23.30400
H  19.85800 50.31700 23.89300
H  17.22900 50.49600 31.80000
H  15.72100 53.00000 31.45100
H  14.12900 51.69000 32.41400
H  15.13100 50.24000 32.21000
H  14.04300 50.63000 30.91000
H  17.81100 53.52400 32.08400
H  19.09400 52.36100 31.58600
H  18.88400 52.96200 34.11900
H  19.25400 51.39800 33.42800
H  12.27400 54.09200 29.23000
H  10.89700 53.77800 28.12700
H  11.91600 55.26700 28.02500
H  11.46900 56.08300 25.69600
H  10.37800 54.67700 25.89400
H  10.50900 55.58000 24.32200
H  16.61500 52.94500 22.01900
H  17.63600 50.18600 22.14900
H  14.90300 52.25300 20.77700
H  14.69400 50.75600 21.78100
H  15.91200 50.88200 20.52400
H  19.19500 52.78100 22.25000
H  18.43200 52.24900 20.79000
H  20.93000 51.67900 21.40200
H  19.97100 50.87200 20.09100
H  20.08100 50.06800 21.68100
H  22.47600 49.04200 26.72300
H  22.10300 49.82600 25.15200
H  21.49300 48.13900 25.45900
H  20.43700 50.42300 30.81700
H  19.85600 46.95000 33.49300
H  18.44600 47.98400 33.44900
H  19.94600 48.39000 34.50800
Mg 0.59700 43.30000 26.37700
C  2.97100 43.38600 29.04700
C  -1.75700 42.65300 28.77700
C  -1.55700 42.40500 23.98500
C  3.08100 43.57800 24.20600
N  0.62200 42.97700 28.70400
C  1.68300 43.09600 29.52400
C  1.14900 43.07700 31.04900
C  -0.27700 42.39400 30.86400
C  -0.50500 42.80400 29.39000
C  -0.41200 40.89600 31.14100
C  1.11000 44.54300 31.68800
C  1.22700 44.80100 33.23200
H  0.99400 43.52700 34.13500
N  -1.43100 42.60800 26.35500
C  -2.21900 42.42500 27.47900
C  -3.56400 42.10400 27.02200
C  -3.54900 42.02700 25.61200
C  -2.15500 42.25300 25.26700
C  -4.73500 41.88700 28.04200
C  -4.67800 41.81000 24.56800
O  -4.44500 41.89800 23.34500
C  -6.02400 41.55500 24.93600
N  0.68900 43.16100 24.41100
C  -0.26400 42.69200 23.60700
C  0.19800 42.69700 22.10800
C  1.59200 43.31200 22.17600
C  1.80700 43.38100 23.71700
C  0.05500 41.36000 21.31700
C  1.81400 44.58000 21.28900
C  1.61800 45.89600 22.10500
N  2.61500 43.56300 26.52500
C  3.53000 43.74600 25.51200
C  4.84400 43.82300 26.11600
C  4.69100 43.65600 27.43300
C  3.27900 43.57900 27.68100
C  6.20000 43.91400 25.51700
C  5.37800 43.50400 28.70400
O  6.58800 43.73200 28.97200
C  4.28500 43.30500 29.76400
C  4.56400 42.09900 30.60200
O  4.71200 40.97700 30.12200
O  4.67000 42.43900 31.86900
C  5.11200 41.43300 32.86300
H  -2.47700 42.49600 29.58200
H  -2.16900 42.15500 23.11600
H  3.93700 43.61600 23.52900
H  1.66700 42.41800 31.74500
H  -0.96000 42.99600 31.46400
H  0.56200 40.50000 31.43100
H  -0.75600 40.36500 30.25400
H  -1.14000 40.81000 31.94700
H  0.17500 44.98500 31.34400
H  1.78700 45.13500 31.07200
H  0.39900 45.46900 33.46700
H  2.11100 45.31300 33.61400
H  -5.17200 40.90200 27.88000
H  -5.62100 42.51800 27.97500
H  -4.40000 41.90300 29.07900
H  -6.65800 41.22700 24.11300
H  -6.47600 42.49500 25.25400
H  -5.95400 40.86900 25.78000
H  -0.37000 43.48000 21.60700
H  2.34200 42.56500 21.91600
H  0.95400 40.75300 21.43200
H  -0.06500 41.71000 20.29200
H  -0.80300 40.74100 21.57700
H  1.17700 44.60400 20.40400
H  2.84500 44.54600 20.93900
H  1.13300 46.58000 21.40800
H  2.58000 46.21600 22.50300
H  0.85700 45.73300 22.86800
H  6.05600 43.60900 24.48000
H  6.93700 43.28200 26.01200
H  6.63000 44.91500 25.51900
H  4.56700 44.11300 30.44000
H  5.01900 40.38300 32.58400
H  4.58200 41.46900 33.81500
H  6.15600 41.62600 33.10800

