158

Mg 25.92800 49.69600 26.46900
C  24.21000 51.08900 29.09200
C  28.37700 48.74100 28.88000
C  27.93100 48.60700 23.99400
C  24.08900 51.56600 24.13600
N  26.35700 50.02800 28.77600
C  25.27600 50.41200 29.61200
C  25.67100 50.18300 31.09900
C  27.15500 49.60200 30.97000
C  27.37100 49.48100 29.48000
C  28.27200 50.38100 31.75600
C  24.63300 49.20800 31.82500
C  23.99700 49.69400 33.22400
H  24.96900 50.04500 34.35600
N  27.79300 48.59700 26.51100
C  28.60900 48.26900 27.56200
C  29.64900 47.46600 27.07800
C  29.56300 47.47500 25.60600
C  28.34200 48.22300 25.27600
C  30.72100 46.78600 27.94400
C  30.49300 46.82500 24.63400
O  30.45100 46.98200 23.40700
C  31.69100 45.96900 25.04500
N  26.00000 50.02900 24.33600
C  26.93000 49.42900 23.56900
C  26.70400 49.66000 22.03500
C  25.18300 50.35400 22.09100
C  25.12200 50.77100 23.57400
C  27.79200 50.58400 21.39200
C  23.95100 49.46900 21.60200
C  23.43900 49.81800 20.19200
N  24.48000 51.02800 26.54600
C  23.74400 51.60500 25.51600
C  22.65600 52.30000 26.00500
C  22.74500 52.10700 27.40300
C  23.94500 51.38400 27.71000
C  21.60000 53.18400 25.29400
C  22.18100 52.39700 28.66800
O  21.19800 53.12100 28.91000
C  23.01100 51.70700 29.82800
C  23.35400 52.77000 30.84100
O  24.11800 53.67500 30.60500
O  22.61200 52.54100 31.98700
C  23.15600 53.40400 33.08900
H  29.19500 48.33700 29.48100
H  28.43000 48.00500 23.23100
H  23.35000 52.06300 23.50500
H  25.73600 51.15600 31.58700
H  27.21700 48.62500 31.44900
H  28.56600 49.92200 32.70000
H  27.91400 51.35500 32.08900
H  29.15400 50.68300 31.19100
H  25.01100 48.18800 31.89800
H  23.77900 49.22000 31.14800
H  23.37400 48.91500 33.66300
H  23.44700 50.63300 33.15800
H  30.80700 45.71800 27.74300
H  30.60200 46.97300 29.01100
H  31.59800 47.31200 27.56700
H  32.27200 46.61600 25.70300
H  32.23500 45.60700 24.17300
H  31.38100 45.04200 25.52700
H  26.72800 48.63700 21.65900
H  25.30500 51.27800 21.52700
H  27.37100 51.36500 20.75900
H  28.38200 50.00900 20.67800
H  28.37300 51.04200 22.19200
H  23.14000 49.67600 22.29900
H  24.19500 48.40700 21.56000
H  23.43600 48.90400 19.59900
H  24.17500 50.48600 19.74500
H  22.42400 50.18900 20.33200
H  21.10900 52.71100 24.44300
H  22.04300 54.13200 24.99000
H  20.77700 53.39400 25.97700
H  22.44800 50.87000 30.24100
H  24.21400 53.22800 33.28500
H  22.63500 53.41400 34.04600
H  23.02600 54.44800 32.80400
Mg 16.20800 52.22500 26.69400
C  18.24100 51.03400 29.31800
C  14.00000 53.37000 28.94100
C  14.49600 53.57700 24.17700
C  18.54200 51.01000 24.36000
N  16.11500 52.09300 28.89800
C  17.03400 51.71500 29.85500
C  16.64900 52.04700 31.29100
C  15.13700 52.52600 31.00500
C  15.06500 52.71000 29.52900
C  13.94100 51.83000 31.64000
C  17.51800 53.06000 31.96800
C  17.71500 52.89900 33.46000
H  16.61200 52.04700 34.20400
N  14.46100 53.18100 26.56800
C  13.70600 53.60800 27.62200
C  12.45000 54.30900 27.12100
C  12.61700 54.33700 25.73900
C  13.87000 53.69100 25.43800
C  11.31800 54.74300 27.95400
C  11.70800 54.89800 24.77200
O  11.93900 54.88100 23.57000
C  10.27800 55.43300 25.17900
N  16.39100 52.09900 24.56200
C  15.59600 52.86900 23.74000
C  16.16400 52.93800 22.26800
C  17.58400 52.24900 22.43200
C  17.49100 51.67200 23.82800
C  15.25700 52.22600 21.23600
C  18.82900 53.08400 22.08300
C  20.01800 52.33400 21.52500
N  17.92700 51.13500 26.81600
C  18.76900 50.67500 25.73500
C  19.79700 49.94400 26.34000
C  19.60900 50.06300 27.69300
C  18.53100 50.83800 27.99500
C  20.96700 49.20900 25.64100
C  20.21500 49.60100 28.90000
O  21.19100 48.94600 29.22300
C  19.32600 50.26000 30.06200
C  18.70200 49.18800 30.93800
O  18.24100 48.16300 30.53000
O  18.96000 49.55300 32.20500
C  18.78900 48.50200 33.25300
H  13.35500 53.75000 29.73600
H  13.98700 54.03300 23.32600
H  19.30700 50.69000 23.65000
H  16.64400 51.08200 31.79700
H  15.09300 53.47000 31.54800
H  13.19500 51.56200 30.89300
H  13.53000 52.45400 32.43400
H  14.23500 50.90000 32.12700
H  17.16400 54.05300 31.68900
H  18.52900 52.97500 31.57100
H  17.68100 53.84400 34.00200
H  18.66300 52.45100 33.75800
H  10.93300 55.70800 27.62700
H  11.45400 54.79300 29.03500
H  10.41400 54.14100 27.86500
H  9.73800 54.82000 25.90100
H  9.54500 55.50300 24.37500
H  10.47300 56.41700 25.60500
H  16.25900 54.00100 22.04600
H  17.56200 51.47700 21.66300
H  15.81500 51.66600 20.48600
H  14.65800 52.99700 20.75200
H  14.54700 51.52500 21.67500
H  19.30200 53.55200 22.94600
H  18.58500 53.92500 21.43300
H  20.81700 52.28000 22.26400
H  20.45200 52.92100 20.71600
H  19.80500 51.29100 21.29100
H  21.00700 48.17200 25.97800
H  21.87500 49.77600 25.84400
H  20.89500 49.18400 24.55400
H  19.85000 51.03700 30.62000
H  19.27900 47.53300 33.15900
H  17.74200 48.26000 33.43300
H  19.18300 48.99400 34.14300

