158

Mg 7.96500 3.08500 28.33900
C  9.45100 1.89200 31.20400
C  6.05500 5.14500 30.20800
C  6.32100 3.85600 25.55700
C  9.74300 0.50700 26.53400
N  7.77700 3.36100 30.52500
C  8.55300 2.89300 31.50400
C  8.19200 3.54900 32.82400
C  7.07200 4.59600 32.44900
C  6.92100 4.31900 30.96200
C  5.80600 4.44900 33.25600
C  9.45200 4.08100 33.59800
C  9.62500 3.58800 35.06000
H  10.08200 4.59200 36.17600
N  6.52400 4.42800 27.92700
C  5.88000 5.16900 28.81800
C  5.06600 6.12600 28.16700
C  5.13900 5.82000 26.77600
C  5.98000 4.58600 26.69900
C  4.29100 7.11900 28.81600
C  4.57900 6.63400 25.66500
O  4.73100 6.20000 24.52300
C  3.72500 7.84200 25.81400
N  7.98300 2.19900 26.27800
C  7.23300 2.71200 25.29800
C  7.55300 2.06800 23.90200
C  8.74600 1.06400 24.19600
C  8.79800 1.23900 25.73500
C  6.28100 1.48900 23.25000
C  10.15000 1.59400 23.56300
C  11.02200 0.52500 22.97600
N  9.31400 1.57000 28.69400
C  10.00600 0.65700 27.85600
C  10.94700 -0.12700 28.70200
C  10.72500 0.34700 29.99200
C  9.75200 1.41200 29.90000
C  11.91600 -1.18500 28.04900
C  11.26300 0.23600 31.32500
O  12.11700 -0.45700 31.80400
C  10.40400 1.23500 32.15700
C  9.69800 0.43500 33.13400
O  8.68900 -0.30900 32.98000
O  10.33100 0.55100 34.32600
C  9.86000 -0.29100 35.36600
H  5.43500 5.78100 30.84300
H  5.73600 4.06700 24.65900
H  10.27400 -0.25300 25.95700
H  7.76100 2.70000 33.35400
H  7.52700 5.58600 32.46000
H  5.54700 5.48400 33.47800
H  5.98100 3.92800 34.19700
H  4.99900 4.00700 32.67100
H  9.31600 5.15300 33.73900
H  10.35300 3.85100 33.03100
H  10.48500 2.91900 35.06500
H  8.71300 3.06000 35.34000
H  4.74300 8.04400 28.45700
H  4.32000 7.13600 29.90600
H  3.26900 7.19700 28.44600
H  2.67300 7.62100 25.99300
H  3.81700 8.34400 24.85000
H  4.06000 8.62800 26.49100
H  7.77000 2.89300 23.22300
H  8.43100 0.02200 24.13200
H  6.27500 0.40300 23.15200
H  6.14400 1.99500 22.29400
H  5.51800 1.72600 23.99100
H  10.69300 2.18400 24.30200
H  10.01500 2.24500 22.69900
H  10.48900 -0.42500 22.95100
H  11.90000 0.48400 23.62000
H  11.27800 0.80500 21.95400
H  12.75500 -1.28400 28.73900
H  12.28900 -1.01200 27.04000
H  11.33800 -2.10900 28.08600
H  11.05100 1.94700 32.66800
H  10.57700 -0.30800 36.18700
H  9.83300 -1.28100 34.91100
H  8.86500 -0.05100 35.74300
Mg -12.91600 16.77800 40.91800
C  -9.90900 15.07800 40.52600
C  -11.45600 19.61000 39.62400
C  -15.95300 18.21600 40.75800
C  -14.40000 13.65600 41.82400
N  -10.91300 17.29900 40.02700
C  -9.83600 16.42800 40.10300
C  -8.52700 17.20100 39.63400
C  -9.05400 18.71700 39.44800
C  -10.53000 18.54300 39.73700
C  -8.32200 19.72500 40.38700
C  -7.89100 16.51700 38.40000
C  -6.35100 16.28600 38.45300
H  -5.57600 16.62400 37.20200
N  -13.68100 18.60800 40.22500
C  -12.89700 19.66800 39.78300
C  -13.75700 20.85000 39.58000
C  -15.07400 20.42200 39.84600
C  -14.95900 18.98000 40.30500
C  -13.30800 22.25900 39.15700
C  -16.31200 21.35800 39.69700
O  -16.16300 22.48200 39.27600
C  -17.74100 20.81100 39.96000
N  -14.96800 15.96500 41.11900
C  -16.00200 16.87200 41.19500
C  -17.30800 16.04600 41.50800
C  -16.71700 14.62600 42.14600
C  -15.24100 14.74500 41.69900
C  -18.51500 16.72000 42.28900
C  -17.49000 13.37100 41.67300
C  -18.02100 12.30200 42.71400
N  -12.31700 14.66600 41.13500
C  -13.05300 13.54800 41.44100
C  -12.14400 12.43800 41.56800
C  -10.86000 12.97200 41.23800
C  -11.08400 14.35400 40.90100
C  -12.56600 11.08300 41.88600
C  -9.45900 12.65600 41.11900
O  -8.76800 11.63900 41.24200
C  -8.77700 14.03200 40.67300
C  -7.71800 14.42600 41.63600
O  -7.85100 15.13600 42.62900
O  -6.48500 14.03200 41.22100
C  -5.25200 14.67900 41.84200
H  -10.96900 20.55100 39.36100
H  -16.97000 18.60400 40.66700
H  -14.79700 12.72200 42.22700
H  -7.93300 17.09000 40.54100
H  -8.99700 19.06800 38.41800
H  -9.05500 20.30300 40.94900
H  -7.69600 20.34400 39.74400
H  -7.65700 19.18000 41.05700
H  -8.03400 17.20400 37.56600
H  -8.46400 15.60000 38.25800
H  -6.09800 15.25100 38.68600
H  -5.90900 16.91700 39.22400
H  -13.79800 22.63100 38.25700
H  -12.25500 22.40900 38.91900
H  -13.53500 22.92100 39.99200
H  -18.40000 21.54400 39.49500
H  -17.88800 20.93000 41.03400
H  -18.06700 19.88400 39.49000
H  -17.78700 15.70700 40.58900
H  -16.66400 14.64500 43.23400
H  -19.43100 16.88000 41.72000
H  -18.19000 17.74900 42.43800
H  -18.79200 16.23300 43.22400
H  -16.85700 12.86300 40.94600
H  -18.34900 13.63400 41.05600
H  -17.93600 12.78400 43.68800
H  -17.37500 11.42500 42.73300
H  -19.07500 12.04000 42.61400
H  -11.65000 10.50800 41.75000
H  -13.34200 10.67100 41.24200
H  -12.96300 10.98200 42.89600
H  -8.34500 13.88900 39.68200
H  -5.40400 15.67000 42.26800
H  -4.45800 14.72900 41.09600
H  -4.89100 14.06000 42.66400

