158

Mg 1.04700 43.51600 25.91600
C  2.57300 43.78500 29.06800
C  -1.71500 42.08200 27.32700
C  0.05000 42.84400 22.85400
C  4.13200 44.68600 24.49300
N  0.49300 43.02200 28.00200
C  1.26600 43.26600 29.11400
C  0.46100 42.77600 30.39700
C  -0.82300 42.26000 29.74400
C  -0.69200 42.44200 28.29500
C  -1.11000 40.78100 30.09500
C  0.26000 43.95600 31.47900
C  -0.73600 43.74100 32.70800
H  -1.00900 42.36000 33.20500
N  -0.63900 42.71300 25.21400
C  -1.66200 42.16900 25.90400
C  -2.66000 41.62300 25.01700
C  -2.22300 41.94300 23.73000
C  -0.91900 42.57600 23.89100
C  -3.89200 41.02900 25.48700
C  -2.88400 41.53600 22.36000
O  -2.28200 41.66100 21.32000
C  -4.19800 40.83600 22.37100
N  2.03100 43.73700 23.96300
C  1.40400 43.27800 22.87200
C  2.08500 43.79900 21.60100
C  3.32000 44.58300 22.04600
C  3.14700 44.39000 23.60800
C  2.33100 42.65000 20.61500
C  3.40400 46.06600 21.52900
C  2.10400 46.92800 21.75100
N  2.97900 44.00700 26.60100
C  4.10000 44.42400 25.88100
C  5.25500 44.48500 26.79700
C  4.73100 44.29000 28.13100
C  3.30000 44.01800 27.92300
C  6.70700 44.72100 26.40400
C  4.95500 44.20600 29.51400
O  5.99200 44.47900 30.16400
C  3.61100 43.87900 30.14500
C  3.74000 42.71400 30.96000
O  3.90800 41.62700 30.48100
O  3.63200 42.90600 32.29100
C  3.43400 41.70400 33.07700
H  -2.59000 41.53400 27.68300
H  -0.26700 42.46000 21.88200
H  4.91400 45.31500 24.06200
H  1.14900 41.98800 30.70300
H  -1.68200 42.81300 30.12500
H  -2.07300 40.64400 30.58800
H  -0.32200 40.42500 30.75800
H  -1.06800 40.21700 29.16300
H  -0.08700 44.80000 30.88200
H  1.21100 44.29600 31.88900
H  -1.67300 44.28900 32.60900
H  -0.32200 44.17300 33.61900
H  -4.15700 41.30700 26.50700
H  -3.84000 39.94300 25.41900
H  -4.78200 41.30000 24.92000
H  -4.96200 41.56200 22.65000
H  -4.18900 39.95700 23.01500
H  -4.57600 40.36700 21.46200
H  1.34400 44.41100 21.08700
H  4.21300 44.07700 21.67900
H  2.27800 41.64400 21.03000
H  3.22900 42.91300 20.05500
H  1.58200 42.70500 19.82600
H  3.47400 46.04000 20.44100
H  4.21900 46.59400 22.02500
H  1.45200 46.30400 22.36300
H  1.51200 47.04900 20.84400
H  2.25900 47.90000 22.22100
H  7.27200 44.16000 27.14900
H  6.93400 45.78400 26.47400
H  6.87700 44.39700 25.37600
H  3.34700 44.65600 30.86300
H  4.31800 41.29200 33.56300
H  2.99000 40.93200 32.44800
H  2.62900 41.92900 33.77600
Mg -10.43100 16.52400 41.22800
C  -6.89100 16.21900 41.77700
C  -9.88300 19.83100 40.65800
C  -13.62700 16.77600 40.31500
C  -10.59400 13.07300 41.14900
N  -8.58100 17.78800 41.12100
C  -7.27500 17.49300 41.47600
C  -6.39800 18.74800 41.35100
C  -7.45700 19.84000 41.59900
C  -8.71900 19.16400 41.02100
C  -7.60800 20.50600 43.06500
C  -5.79100 18.78300 39.96100
C  -4.33500 18.37900 39.77000
H  -3.97200 17.16300 38.86500
N  -11.67300 18.18600 40.67400
C  -11.24700 19.46500 40.51100
C  -12.38600 20.23200 40.02800
C  -13.50400 19.32900 39.89200
C  -12.98300 18.06000 40.24600
C  -12.39200 21.72700 39.88200
C  -14.96500 19.72100 39.29600
O  -15.14700 20.84800 38.88000
C  -15.99700 18.71900 38.88900
N  -11.92500 15.19300 40.71300
C  -13.19000 15.50700 40.56600
C  -14.08300 14.25800 40.46300
C  -13.12000 13.10900 40.80200
C  -11.78500 13.82900 40.85900
C  -15.33400 14.30200 41.39300
C  -13.28100 11.83000 39.86500
C  -13.70200 10.45600 40.40800
N  -9.05400 14.89100 41.50100
C  -9.24300 13.55200 41.41500
C  -7.99800 12.82700 41.67000
C  -7.08400 13.90100 41.93400
C  -7.76900 15.10200 41.70800
C  -7.84900 11.30600 41.80600
C  -5.68200 14.18400 42.23500
O  -4.77800 13.39000 42.52400
C  -5.50300 15.72600 42.25900
C  -5.04100 16.12800 43.56200
O  -3.90200 16.43300 43.77100
O  -6.01100 16.01800 44.46800
C  -5.74900 16.53900 45.83400
H  -9.69400 20.90000 40.53900
H  -14.68600 16.87100 40.06400
H  -10.79500 12.01600 41.33600
H  -5.55100 18.85000 42.03000
H  -7.13500 20.67400 40.97500
H  -8.37800 19.96600 43.61700
H  -7.79200 21.57600 42.96700
H  -6.76900 20.35300 43.74300
H  -5.82100 19.81500 39.61300
H  -6.32600 18.06600 39.33800
H  -4.00800 18.20700 40.79600
H  -3.86400 19.28600 39.38900
H  -13.26200 22.12500 40.40500
H  -12.54000 21.87500 38.81200
H  -11.45600 22.24200 40.09500
H  -15.60500 17.78700 38.48300
H  -16.74100 19.26900 38.31300
H  -16.42900 18.50500 39.86700
H  -14.39400 14.11300 39.42900
H  -13.22900 12.78000 41.83500
H  -15.20600 15.14200 42.07600
H  -15.57900 13.35900 41.88100
H  -16.20000 14.46500 40.75200
H  -12.31700 11.68700 39.37700
H  -14.10900 11.96200 39.16900
H  -14.70100 10.13400 40.11200
H  -13.77100 10.52400 41.49300
H  -13.01300 9.69500 40.04000
H  -6.90000 11.01500 42.25600
H  -7.82300 10.90200 40.79400
H  -8.69500 10.84900 42.32100
H  -4.64800 15.91300 41.60900
H  -4.71100 16.73900 46.10000
H  -6.23900 15.76700 46.42700
H  -6.26800 17.48200 46.00700

