158

Mg 17.23900 -1.34100 28.40200
C  16.16600 0.64400 30.97900
C  19.46500 -2.96400 30.65300
C  18.89400 -2.79700 25.84300
C  15.68200 0.76600 26.16600
N  17.79900 -1.18500 30.53700
C  17.08000 -0.32900 31.43300
C  17.53800 -0.67100 32.92500
C  18.74300 -1.70100 32.75700
C  18.71500 -1.93700 31.18500
C  20.11200 -1.23000 33.26600
C  16.30000 -1.15700 33.81400
C  16.30200 -0.83600 35.33500
H  17.63800 -0.79400 36.06300
N  18.78600 -2.87700 28.32300
C  19.53400 -3.45600 29.31500
C  20.37000 -4.54000 28.81000
C  20.18100 -4.55200 27.35400
C  19.29500 -3.37400 27.12500
C  21.29700 -5.30800 29.75900
C  20.74000 -5.54400 26.30600
O  20.42400 -5.41800 25.12300
C  21.64500 -6.68500 26.69800
N  17.29500 -0.99100 26.32300
C  18.04500 -1.78400 25.49700
C  17.76700 -1.39200 23.95400
C  16.63500 -0.28800 24.02400
C  16.48900 -0.20800 25.57800
C  19.07700 -0.89900 23.21100
C  15.35600 -0.66000 23.25800
C  14.09500 -1.22200 23.98700
N  16.10700 0.41600 28.49600
C  15.49100 1.13500 27.53300
C  14.73500 2.20000 28.15400
C  15.02800 2.07100 29.52300
C  15.90500 0.93400 29.63800
C  13.82400 3.24700 27.48400
C  14.67100 2.67400 30.77100
O  13.91500 3.55500 31.14500
C  15.33700 1.69300 31.78000
C  16.26000 2.55900 32.66700
O  17.20100 3.16700 32.29800
O  15.92100 2.52400 33.98900
C  16.83500 3.24100 34.92300
H  20.02900 -3.43800 31.46000
H  19.35400 -3.29100 24.98400
H  15.05600 1.42800 25.56400
H  17.85600 0.26300 33.38700
H  18.47200 -2.62400 33.26900
H  20.43600 -1.83600 34.11300
H  19.98800 -0.20000 33.60000
H  20.83400 -1.18800 32.45000
H  16.44000 -2.23800 33.81600
H  15.41100 -0.84400 33.26600
H  15.67300 -1.65800 35.67700
H  15.70000 0.07200 35.38200
H  22.33700 -5.26800 29.43400
H  20.94000 -6.33100 29.87400
H  21.29600 -4.80000 30.72300
H  22.02500 -6.68000 27.72000
H  22.51000 -6.70200 26.03400
H  20.94000 -7.50800 26.58900
H  17.39700 -2.29300 23.46500
H  16.97900 0.70000 23.72000
H  18.94300 0.08300 22.75700
H  19.35000 -1.67200 22.49200
H  19.85800 -0.76200 23.95900
H  15.58000 -1.31900 22.42000
H  15.13300 0.28300 22.76100
H  13.26700 -0.51400 24.02100
H  14.38100 -1.52600 24.99400
H  13.79700 -2.04700 23.34000
H  12.92600 3.17700 28.09800
H  13.57700 3.06100 26.43900
H  14.39900 4.16800 27.57900
H  14.57400 1.20700 32.38700
H  16.22300 3.83500 35.60200
H  17.50900 3.90600 34.38300
H  17.45100 2.59400 35.54800
Mg 41.27200 8.90100 29.32100
C  43.32600 10.21700 31.93100
C  39.13900 7.71200 31.63700
C  39.40500 7.64100 26.78900
C  43.66000 10.03300 27.04300
N  41.40200 8.80300 31.53100
C  42.19200 9.52500 32.40200
C  41.80200 9.44400 33.89800
C  40.49600 8.63800 33.71700
C  40.32700 8.34700 32.19000
C  40.40300 7.37300 34.68500
C  41.58700 10.91700 34.51500
C  40.85200 10.96600 35.90600
H  41.54400 11.90200 36.95900
N  39.39900 7.94800 29.21300
C  38.78300 7.43700 30.27400
C  37.56100 6.80800 29.80700
C  37.59400 6.92000 28.41000
C  38.82100 7.51100 28.05200
C  36.54000 6.24600 30.79100
C  36.59000 6.45700 27.45700
O  36.67600 6.67900 26.24400
C  35.30800 5.84100 27.93900
N  41.59800 8.75500 27.23200
C  40.64000 8.20900 26.40600
C  40.98100 8.33100 24.90200
C  42.14800 9.37900 25.00200
C  42.49000 9.46500 26.49300
C  41.34700 6.90400 24.30000
C  41.72500 10.83700 24.47600
C  41.43200 12.00200 25.44600
N  43.16700 9.84400 29.42800
C  44.00600 10.19400 28.41000
C  45.11500 10.98600 28.95300
C  44.88300 10.86300 30.27100
C  43.67500 10.25400 30.57700
C  46.14100 11.77000 28.21300
C  45.41400 11.25700 31.50100
O  46.46900 11.76200 31.78700
C  44.37000 11.01900 32.64500
C  44.97400 10.26000 33.80700
O  45.31300 9.07500 33.73900
O  45.15600 11.05500 34.91300
C  45.57800 10.39000 36.16400
H  38.49800 7.31800 32.42900
H  38.93300 7.20600 25.90600
H  44.33300 10.34200 26.24000
H  42.51500 8.79200 34.40400
H  39.77300 9.36900 34.08000
H  41.38000 7.03300 35.03000
H  39.93500 6.57800 34.10600
H  39.91000 7.68700 35.60500
H  41.00500 11.57800 33.87300
H  42.57800 11.35400 34.63700
H  40.85700 9.97400 36.35600
H  39.81300 11.29400 35.88700
H  36.19200 5.27500 30.43900
H  35.76800 7.01500 30.82100
H  36.94100 6.20500 31.80300
H  34.87300 6.42100 28.75300
H  35.60600 4.93100 28.45900
H  34.59000 5.70700 27.13000
H  40.15300 8.77800 24.35200
H  43.05200 9.00000 24.52500
H  40.97700 6.16300 25.00800
H  42.43600 6.85500 24.27400
H  41.05900 6.82500 23.25100
H  40.88700 10.82800 23.77900
H  42.55600 11.10600 23.82300
H  41.29500 11.57700 26.44000
H  40.48500 12.50100 25.24100
H  42.32200 12.63000 25.40900
H  46.04900 11.73300 27.12800
H  47.10600 11.42400 28.58500
H  46.01300 12.81400 28.49900
H  43.93400 11.98200 32.90900
H  44.98100 10.69500 37.02300
H  46.62800 10.66200 36.26300
H  45.61700 9.30100 36.12600

