158

Mg 49.75400 35.73600 28.35900
C  47.31400 34.24200 30.46100
C  49.86800 38.25700 30.38000
C  51.85100 37.12900 26.05500
C  49.32800 32.99100 26.12500
N  48.54100 36.23900 30.09100
C  47.76200 35.47000 30.91700
C  47.54000 36.13800 32.25000
C  47.99500 37.62700 31.97300
C  48.91100 37.38200 30.80200
C  46.99200 38.76500 31.77900
C  48.20000 35.27400 33.33500
C  49.15800 35.82600 34.34900
H  48.60700 37.01700 35.12000
N  50.74500 37.42800 28.25900
C  50.68800 38.39600 29.25300
C  51.63300 39.49200 28.97900
C  52.17600 39.14000 27.68400
C  51.56500 37.87100 27.27100
C  51.77100 40.62100 29.83800
C  53.18100 39.92900 26.83400
O  53.44900 39.58100 25.68900
C  54.04700 41.00600 27.37000
N  50.33800 35.22400 26.32700
C  51.24800 35.97300 25.62800
C  51.67500 35.34900 24.35800
C  50.91400 33.98900 24.37600
C  50.17200 34.02000 25.70700
C  51.58500 36.29300 23.07700
C  51.65400 32.67500 24.13100
C  50.95800 31.80500 23.07200
N  48.51900 34.06300 28.22100
C  48.58600 32.95300 27.31400
C  47.68800 31.88900 27.78100
C  47.24000 32.35000 29.01300
C  47.72300 33.64400 29.19000
C  47.47000 30.60600 27.08400
C  46.42500 32.01000 30.12400
O  45.67800 31.05200 30.36900
C  46.39300 33.16600 31.12300
C  46.92300 32.62900 32.39800
O  48.04500 32.22900 32.60800
O  45.92600 32.71600 33.35800
C  46.36300 32.16400 34.64500
H  50.04300 38.91300 31.23500
H  52.72300 37.43700 25.47500
H  49.30800 32.13300 25.44900
H  46.47700 36.08000 32.48500
H  48.66000 38.03300 32.73600
H  47.20600 39.13800 30.77800
H  47.17000 39.56500 32.49700
H  45.99500 38.34000 31.89800
H  48.89100 34.58200 32.85400
H  47.41100 34.92600 34.00200
H  50.08400 36.11900 33.85300
H  49.53400 35.09600 35.06500
H  52.79400 40.86700 30.12000
H  51.16800 40.49400 30.73800
H  51.36900 41.49400 29.32200
H  54.25100 40.89800 28.43500
H  53.50400 41.92300 27.14300
H  55.06800 40.84300 27.02600
H  52.72300 35.10500 24.53200
H  50.02900 34.06100 23.74400
H  51.36500 35.66900 22.21100
H  52.53100 36.82100 22.96000
H  50.85900 37.09200 23.23000
H  51.73500 32.13900 25.07700
H  52.68600 32.83500 23.81800
H  51.54900 31.58000 22.18400
H  49.95700 32.06300 22.72700
H  50.78600 30.83700 23.54400
H  48.35100 30.31800 26.50900
H  46.57000 30.85700 26.52400
H  47.16500 29.96500 27.91200
H  45.35100 33.48000 31.17000
H  45.49600 32.09700 35.30200
H  47.21900 32.69300 35.06300
H  46.65000 31.12400 34.48700
Mg 10.23200 46.65300 25.27700
C  8.23300 47.02900 28.22100
C  12.83300 48.15000 27.19300
C  12.11600 46.47200 22.64900
C  7.35900 46.24700 23.55500
N  10.51700 47.39000 27.45100
C  9.59100 47.37500 28.46700
C  10.20000 47.71800 29.78200
C  11.43200 48.51300 29.33100
C  11.66900 48.01300 27.88700
C  11.31700 50.04600 29.45600
C  10.43900 46.43000 30.65900
C  10.77800 46.72900 32.16600
H  10.20900 45.82600 33.24500
N  12.30400 47.06500 24.97900
C  13.14200 47.68400 25.86600
C  14.44700 47.68400 25.29100
C  14.25500 47.19100 23.94300
C  12.86200 46.93300 23.79400
C  15.67900 47.87500 26.17600
C  15.30700 46.89500 22.84000
O  15.01500 46.30500 21.80900
C  16.74900 47.39300 23.09900
N  9.77500 46.55700 23.30700
C  10.71800 46.35600 22.38700
C  10.21100 45.78400 21.00500
C  8.69300 45.78700 21.29500
C  8.59500 46.22600 22.78200
C  10.63400 46.52900 19.66500
C  7.91900 44.42000 20.99900
C  6.61300 44.64300 20.14700
N  8.19500 46.47800 25.70400
C  7.11700 46.32900 24.85300
C  5.87900 46.29600 25.61100
C  6.29200 46.61700 26.86700
C  7.71100 46.68200 26.93900
C  4.49500 46.05200 25.07400
C  5.79200 46.66100 28.26700
O  4.65900 46.53500 28.69800
C  7.07600 46.92700 29.25500
C  7.16300 45.83600 30.25200
O  7.65700 44.71500 30.19300
O  6.37700 46.26100 31.31900
C  6.07500 45.24900 32.26500
H  13.56400 48.68900 27.79900
H  12.56800 46.28300 21.67300
H  6.48600 46.12300 22.91100
H  9.51400 48.27200 30.42300
H  12.26100 48.16500 29.94800
H  10.34000 50.39500 29.78900
H  11.61600 50.44800 28.48800
H  12.05900 50.37900 30.18200
H  11.33600 45.99100 30.22300
H  9.58300 45.77600 30.82500
H  10.33200 47.67800 32.46100
H  11.84100 46.85500 32.37500
H  16.40700 47.11600 25.88900
H  15.49700 47.73900 27.24200
H  16.13600 48.86000 26.07900
H  17.19100 47.73300 22.16200
H  17.31900 46.59200 23.57200
H  16.53700 48.25200 23.73500
H  10.60700 44.79400 20.77800
H  8.18900 46.59600 20.76700
H  11.06300 45.77500 19.00500
H  11.32600 47.27800 20.05000
H  9.80100 47.02100 19.16300
H  7.59000 44.13600 21.99800
H  8.54000 43.67100 20.50700
H  6.57400 45.59500 19.61900
H  5.73200 44.75200 20.77900
H  6.38600 43.94400 19.34200
H  3.83000 46.37300 25.87600
H  4.16500 45.08200 24.70200
H  4.32300 46.73400 24.24100
H  6.82300 47.86000 29.75900
H  5.08500 44.83100 32.08400
H  6.16600 45.73000 33.23900
H  6.74500 44.39900 32.39800

