158

Mg -12.81200 16.68000 41.77100
C  -9.77200 15.03900 41.27300
C  -11.42300 19.60400 40.56900
C  -15.88300 17.94000 41.53700
C  -14.26300 13.50800 42.68500
N  -10.86600 17.16300 40.80700
C  -9.73100 16.36900 40.90200
C  -8.57100 17.22200 40.47100
C  -9.12400 18.62100 40.17600
C  -10.55300 18.51000 40.63400
C  -8.33800 19.79500 40.83200
C  -7.68900 16.55600 39.42300
C  -6.11900 16.48300 39.66400
H  -5.37500 15.34700 39.01900
N  -13.45400 18.53100 41.27000
C  -12.75700 19.59600 40.77700
C  -13.65500 20.70200 40.50900
C  -15.00000 20.31200 40.84500
C  -14.78900 18.83900 41.26100
C  -13.12600 22.02500 40.00100
C  -16.29300 21.21500 40.81800
O  -16.29800 22.35400 40.35700
C  -17.65300 20.75700 41.51800
N  -14.80200 15.79600 42.28100
C  -15.91300 16.57400 41.97400
C  -17.16500 15.71100 42.06600
C  -16.63300 14.36500 42.48000
C  -15.10500 14.52300 42.41000
C  -18.45900 16.36900 42.78700
C  -17.24900 13.25600 41.64800
C  -17.49600 11.84800 42.32200
N  -12.24500 14.76400 41.96300
C  -12.90100 13.59300 42.40100
C  -11.92200 12.59100 42.65200
C  -10.70300 13.13400 42.18100
C  -10.91500 14.37600 41.72300
C  -12.20100 11.12300 43.16600
C  -9.31300 12.76900 42.04300
O  -8.68400 11.73800 42.15400
C  -8.68000 14.02000 41.42300
C  -7.68900 14.45700 42.46900
O  -7.91600 15.14600 43.46500
O  -6.51500 13.85600 42.15100
C  -5.47500 13.93600 43.23900
H  -10.90700 20.47900 40.16800
H  -16.87600 18.30300 41.26800
H  -14.65000 12.53600 42.99700
H  -7.87600 17.44400 41.28100
H  -9.06300 18.96800 39.14400
H  -7.38200 19.51500 41.27400
H  -8.92700 20.29500 41.60000
H  -8.00300 20.45300 40.03000
H  -7.70300 17.14000 38.50300
H  -8.10800 15.59300 39.13400
H  -6.03400 16.32900 40.73900
H  -5.61900 17.41600 39.40600
H  -13.89000 22.73600 39.68500
H  -12.54900 21.73400 39.12300
H  -12.52900 22.42000 40.82300
H  -18.31600 21.49900 41.96300
H  -17.41000 20.13000 42.37500
H  -18.23500 20.26900 40.73600
H  -17.45300 15.58400 41.02200
H  -16.68100 14.19200 43.55500
H  -18.75500 15.86200 43.70500
H  -19.27600 16.25300 42.07500
H  -18.37900 17.44000 42.97300
H  -16.59600 13.09400 40.79000
H  -18.23700 13.53400 41.28000
H  -18.53400 11.69400 42.61500
H  -17.03400 11.81000 43.30900
H  -17.04000 11.13900 41.63100
H  -11.23600 10.66300 43.37700
H  -12.76100 10.51000 42.45900
H  -12.71500 11.09800 44.12600
H  -8.15300 13.66200 40.53900
H  -5.29800 14.98700 43.46500
H  -4.51200 13.66100 42.80800
H  -5.59400 13.34400 44.14600
Mg -5.52700 24.91200 25.64300
C  -4.21800 25.99400 28.69300
C  -7.43700 22.64500 27.44900
C  -6.55600 23.65000 22.70700
C  -3.32100 27.07200 23.97400
N  -5.64100 24.32600 27.73300
C  -5.17200 24.97200 28.85400
C  -5.64600 24.43000 30.17800
C  -6.49800 23.23000 29.70100
C  -6.56000 23.42800 28.16500
C  -5.86700 21.81100 30.13600
C  -6.44900 25.58800 30.96300
C  -6.47100 25.47200 32.47500
H  -5.62500 24.33900 33.10000
N  -6.84200 23.37100 25.17000
C  -7.59400 22.60200 26.02500
C  -8.53500 21.78900 25.32500
C  -8.27400 21.97800 23.92300
C  -7.13300 23.02700 23.86200
C  -9.54600 20.87600 25.97100
C  -8.87800 21.25100 22.74000
O  -8.52000 21.56600 21.64100
C  -9.94000 20.14500 22.82000
N  -4.99000 25.19700 23.63200
C  -5.53400 24.54700 22.56300
C  -4.88300 24.93000 21.18700
C  -4.02300 26.20300 21.62000
C  -4.09000 26.17100 23.16100
C  -4.12100 23.77500 20.40800
C  -4.54300 27.66700 21.20500
C  -4.14000 28.12800 19.78200
N  -4.16700 26.33000 26.16400
C  -3.36200 27.14700 25.38500
C  -2.59400 27.91900 26.30500
C  -2.87000 27.41500 27.54700
C  -3.81200 26.54900 27.46300
C  -1.51800 28.91600 25.99100
C  -2.40900 27.63100 28.91300
O  -1.55800 28.40900 29.44400
C  -3.37200 26.69500 29.75400
C  -2.62000 25.88000 30.70300
O  -2.03900 24.83500 30.40200
O  -2.52500 26.53200 31.92000
C  -1.73900 25.83700 32.88900
H  -8.07500 22.07400 28.12700
H  -6.97000 23.18200 21.81100
H  -2.60000 27.76000 23.52800
H  -4.72500 24.10100 30.66000
H  -7.47100 23.21100 30.19100
H  -5.68500 21.19700 29.25400
H  -6.56800 21.22000 30.72600
H  -4.95400 21.89600 30.72600
H  -7.50000 25.52100 30.67900
H  -6.29000 26.65200 30.78800
H  -7.54100 25.32800 32.62200
H  -6.19900 26.44100 32.89200
H  -10.47100 21.01300 25.41100
H  -9.63400 21.01100 27.04900
H  -9.17500 19.86500 25.80500
H  -9.97900 19.61800 21.86700
H  -10.94300 20.48400 23.07500
H  -9.56600 19.48900 23.60600
H  -5.62400 25.25500 20.45600
H  -2.97400 26.26600 21.33000
H  -4.92500 23.29100 19.85300
H  -3.80300 22.94900 21.04400
H  -3.32100 24.22200 19.81800
H  -4.09700 28.39900 21.87800
H  -5.59600 27.63000 21.48500
H  -3.91500 27.26600 19.15300
H  -3.16600 28.60800 19.87500
H  -4.93000 28.78500 19.41800
H  -1.39100 29.02500 24.91400
H  -0.60100 28.58000 26.47700
H  -1.77800 29.86600 26.46000
H  -4.17600 27.27000 30.21400
H  -1.72600 24.74900 32.83300
H  -2.30700 25.98500 33.80800
H  -0.68600 26.11600 32.93400

