158

Mg 1.35900 7.12400 25.84000
C  2.23100 9.05100 28.61200
C  1.77400 4.29400 27.85900
C  0.69000 5.30000 23.20200
C  2.18300 9.88000 23.80600
N  1.97300 6.74200 28.02400
C  2.04100 7.73600 29.00900
C  2.09500 7.07100 30.38200
C  2.19700 5.54500 30.10200
C  2.01600 5.53700 28.54300
C  3.46200 4.79000 30.56800
C  0.84300 7.42200 31.33600
C  1.24400 7.77400 32.77700
H  2.48100 7.13000 33.43600
N  1.13500 5.09900 25.59200
C  1.41800 4.13300 26.50600
C  1.23400 2.81400 25.90200
C  0.82200 3.01200 24.51300
C  0.88200 4.51500 24.36800
C  1.34400 1.55700 26.74200
C  0.60300 2.01000 23.46500
O  0.46100 2.31600 22.30100
C  0.39300 0.60800 23.81600
N  1.48500 7.51800 23.78300
C  1.01700 6.63000 22.89200
C  0.98300 7.18800 21.43100
C  1.79200 8.50800 21.60200
C  1.84200 8.70200 23.14700
C  1.41500 6.30600 20.26700
C  1.32000 9.78000 20.82500
C  -0.05000 10.41000 21.18800
N  1.94200 9.06000 26.13400
C  2.23600 10.07000 25.20400
C  2.59800 11.28700 25.88800
C  2.58500 10.93400 27.21400
C  2.22300 9.57100 27.28300
C  2.79800 12.67300 25.25500
C  2.76600 11.41000 28.62500
O  3.00600 12.52100 29.09600
C  2.42900 10.25500 29.54400
C  3.55700 10.12000 30.53100
O  4.61800 9.56400 30.26200
O  3.31400 10.68500 31.73500
C  4.38500 10.75700 32.68600
H  1.79400 3.35900 28.42100
H  0.39200 4.65500 22.37300
H  2.47100 10.74500 23.20700
H  2.96500 7.49300 30.88700
H  1.37500 4.94400 30.49100
H  4.25200 4.66300 29.82700
H  3.17000 3.80800 30.94100
H  3.94000 5.34900 31.37300
H  0.29100 6.49600 31.50200
H  0.18800 8.16100 30.87600
H  0.38300 7.74300 33.44500
H  1.55300 8.81400 32.67100
H  0.40500 1.02700 26.90000
H  1.97900 1.69700 27.61700
H  1.88700 0.91300 26.05000
H  -0.29400 0.49800 24.65500
H  1.35800 0.19600 24.11300
H  -0.03400 0.13800 22.93000
H  -0.07700 7.34700 21.23400
H  2.83600 8.30500 21.36000
H  1.83400 5.46400 20.81800
H  2.09800 6.81400 19.58500
H  0.48300 6.06500 19.75500
H  1.47600 9.64600 19.75500
H  1.92900 10.68300 20.86400
H  -0.42400 10.68400 20.20100
H  0.04400 11.23200 21.89700
H  -0.70700 9.66800 21.64100
H  2.34200 12.72000 24.26600
H  3.87000 12.85500 25.16800
H  2.38700 13.37900 25.97600
H  1.48500 10.50300 30.02900
H  3.95100 10.96300 33.66500
H  5.10900 11.49900 32.35200
H  4.98200 9.84800 32.74300
Mg -10.92900 16.44500 42.94100
C  -7.46500 17.40000 42.88400
C  -11.65000 19.90100 42.45100
C  -14.03500 15.64000 42.69000
C  -9.86700 13.16600 42.66700
N  -9.65600 18.48600 42.56700
C  -8.27600 18.56000 42.73800
C  -7.86300 20.01000 42.49300
C  -9.17200 20.80800 42.59000
C  -10.24500 19.73700 42.45100
C  -9.25000 21.53800 43.99100
C  -7.00200 20.18400 41.20200
C  -5.56700 20.68700 41.22400
H  -4.64400 20.06300 40.20100
N  -12.61500 17.54800 42.75200
C  -12.72900 18.96000 42.57600
C  -14.10300 19.32300 42.39400
C  -14.84400 18.13400 42.69100
C  -13.85400 17.03700 42.78200
C  -14.66900 20.72700 42.05400
C  -16.38900 18.03800 42.70500
O  -17.07600 18.97600 42.31100
C  -17.01400 16.80200 43.33700
N  -11.83200 14.65200 42.69600
C  -13.17200 14.55200 42.66000
C  -13.62500 13.09000 42.91600
C  -12.27600 12.32500 42.57100
C  -11.21300 13.40900 42.64100
C  -14.35500 12.92700 44.29500
C  -12.38300 11.58400 41.13400
C  -12.86700 10.11500 41.08300
N  -9.09800 15.49500 42.74400
C  -8.84400 14.16100 42.74700
C  -7.41400 13.89300 42.83300
C  -6.82600 15.15500 42.97500
C  -7.91200 16.09300 42.87300
C  -6.84000 12.51200 42.74900
C  -5.56600 15.79400 43.14300
O  -4.38000 15.40100 43.29500
C  -5.94300 17.30400 43.25100
C  -5.69200 17.64000 44.63500
O  -5.94400 16.96100 45.61000
O  -5.12600 18.85600 44.64100
C  -4.88500 19.48200 46.01100
H  -11.93000 20.92300 42.18700
H  -15.04400 15.22200 42.67800
H  -9.62800 12.10700 42.79000
H  -7.20900 20.14000 43.35500
H  -9.27900 21.60100 41.84900
H  -8.31200 21.74900 44.50600
H  -9.76500 20.92200 44.72800
H  -9.90400 22.40400 43.88800
H  -7.57100 20.87100 40.57600
H  -7.04400 19.21400 40.70600
H  -5.05400 20.45100 42.15700
H  -5.50500 21.77300 41.15800
H  -14.83200 20.84800 40.98300
H  -13.98000 21.54000 42.28100
H  -15.56900 21.09500 42.54600
H  -18.03600 17.00200 43.66000
H  -16.35400 16.38100 44.09500
H  -17.03600 16.10000 42.50300
H  -14.42300 12.99000 42.18000
H  -12.02700 11.59800 43.34300
H  -14.36200 13.91800 44.74900
H  -13.83700 12.25300 44.97700
H  -15.41200 12.67000 44.23400
H  -11.59100 11.88300 40.44800
H  -13.27800 12.00100 40.67300
H  -12.13900 9.36900 40.76500
H  -13.76100 10.14400 40.46000
H  -13.27200 9.93400 42.07800
H  -7.54000 11.77600 42.35400
H  -6.61200 12.05200 43.71000
H  -5.88900 12.44300 42.22100
H  -5.32600 17.90500 42.58400
H  -3.99600 20.04800 45.73400
H  -4.57000 18.71700 46.72000
H  -5.71500 20.10800 46.34100

