158

Mg 1.72400 -0.87600 43.93200
C  5.32100 -0.90500 42.82200
C  1.58600 1.96200 41.97700
C  -1.52300 -1.40900 43.84800
C  2.42400 -3.95200 45.41300
N  3.38900 0.46100 42.62000
C  4.68600 0.20100 42.24500
C  5.31900 1.35300 41.39900
C  4.14800 2.39500 41.46000
C  2.93100 1.56200 42.04700
C  4.37400 3.73600 42.29600
C  5.80800 0.83200 40.02300
C  6.95600 1.54800 39.30500
H  6.49600 2.23400 38.05400
N  0.26200 0.26400 43.15800
C  0.35500 1.42000 42.38400
C  -0.98100 1.88200 42.19600
C  -1.88900 0.87300 42.66000
C  -1.08100 -0.17800 43.20000
C  -1.29200 3.08600 41.45600
C  -3.41000 0.96600 42.59100
O  -3.91600 2.05100 42.20100
C  -4.34900 -0.11500 42.93300
N  0.68900 -2.45600 44.55200
C  -0.68700 -2.41700 44.48300
C  -1.27200 -3.74600 45.03600
C  -0.06300 -4.46500 45.66000
C  1.11000 -3.56200 45.28500
C  -2.57900 -3.68300 45.84700
C  0.04500 -5.98500 45.24200
C  -0.09500 -6.96100 46.36700
N  3.41300 -2.17600 44.09700
C  3.54600 -3.27300 44.91900
C  4.88600 -3.78100 45.00600
C  5.57500 -2.88200 44.18100
C  4.66500 -1.90300 43.66600
C  5.44500 -4.98400 45.84200
C  6.89600 -2.53400 43.81700
O  7.92000 -3.04800 44.16200
C  6.77900 -1.33900 42.81200
C  7.76600 -0.28400 43.18500
O  7.68800 0.40400 44.28300
O  8.74500 -0.11000 42.24000
C  9.70200 0.94900 42.58900
H  1.52800 2.96000 41.53800
H  -2.59400 -1.61800 43.86100
H  2.66400 -4.83200 46.01300
H  6.20900 1.76400 41.87500
H  3.81100 2.71100 40.47300
H  3.75100 3.64400 43.18600
H  3.94800 4.57000 41.73700
H  5.38400 3.96600 42.63700
H  5.00200 0.79300 39.29000
H  6.12400 -0.19700 40.19400
H  7.72600 0.80700 39.08800
H  7.39600 2.28500 39.97700
H  -2.04800 2.90200 40.69300
H  -0.39600 3.50100 40.99300
H  -1.65500 3.81000 42.18600
H  -5.40200 0.00800 42.67900
H  -4.25900 -0.29500 44.00400
H  -4.05500 -0.97100 42.32600
H  -1.64300 -4.23000 44.13200
H  -0.02200 -4.27400 46.73200
H  -3.50300 -3.88100 45.30200
H  -2.64400 -2.63800 46.15200
H  -2.55400 -4.30300 46.74200
H  1.03600 -6.08300 44.79900
H  -0.74800 -6.24100 44.54000
H  0.74600 -7.65400 46.39000
H  -1.08500 -7.41000 46.27900
H  -0.16100 -6.40300 47.30100
H  4.62200 -5.49600 46.34100
H  6.11000 -4.75000 46.67300
H  5.96000 -5.63500 45.13600
H  6.97500 -1.73600 41.81600
H  10.06500 0.80800 43.60700
H  9.18800 1.89400 42.41000
H  10.52000 0.93000 41.86900
Mg 48.41400 34.80800 27.48800
C  46.47100 33.51500 30.00600
C  48.99900 37.58200 29.20100
C  50.03800 36.15900 24.71300
C  47.82400 31.85100 25.69900
N  47.74100 35.42900 29.41100
C  47.06500 34.76300 30.31800
C  47.29300 35.44500 31.72100
C  47.70200 36.88900 31.30900
C  48.17700 36.65700 29.89600
C  46.59600 37.97100 31.47800
C  48.46300 34.67100 32.46200
C  48.41100 34.70300 33.99000
H  47.62800 35.90200 34.64200
N  49.54500 36.61200 27.04600
C  49.61600 37.66900 27.88900
C  50.44100 38.74300 27.27300
C  50.80400 38.24000 26.00000
C  50.14000 36.94300 25.83700
C  50.67100 40.10400 27.95900
C  51.68800 38.94900 24.98900
O  51.87600 38.54200 23.81100
C  52.51400 39.99000 25.40000
N  48.76700 34.11200 25.47600
C  49.42900 34.90800 24.56600
C  49.46400 34.16700 23.25600
C  48.89300 32.70700 23.60200
C  48.46800 32.86200 24.97500
C  48.75800 34.91200 22.08700
C  49.94200 31.50300 23.58500
C  49.53100 30.26900 22.86000
N  47.25900 33.00500 27.71600
C  47.16700 31.91000 26.92100
C  46.38100 30.90700 27.62900
C  46.18200 31.52800 28.86500
C  46.69100 32.80900 28.86400
C  46.06300 29.45800 27.27900
C  45.58700 31.27200 30.13000
O  45.07000 30.25600 30.55100
C  45.57400 32.64600 30.88300
C  45.86800 32.56800 32.29800
O  46.71600 31.86000 32.89300
O  44.78500 33.23500 32.91200
C  44.38600 32.98700 34.32800
H  49.29000 38.41700 29.84100
H  50.45600 36.66200 23.83800
H  47.68800 30.93300 25.12300
H  46.31700 35.38400 32.20100
H  48.64200 37.07800 31.82800
H  45.68200 37.55900 31.05000
H  46.94400 38.81700 30.88500
H  46.41000 38.27100 32.50900
H  49.43600 35.10700 32.23700
H  48.48200 33.61700 32.18500
H  49.39900 34.90100 34.40400
H  47.95000 33.81900 34.43100
H  50.44200 40.89000 27.24100
H  51.64800 40.18300 28.43600
H  49.97800 40.29200 28.78000
H  52.01100 40.95700 25.37100
H  53.42400 39.85000 24.81700
H  52.86100 39.84800 26.42400
H  50.51300 34.22700 22.96500
H  47.97900 32.49900 23.04700
H  47.95100 35.61500 22.29300
H  48.34800 34.20600 21.36500
H  49.36400 35.60500 21.50400
H  50.16000 31.14800 24.59200
H  50.87000 31.90300 23.17700
H  50.21000 30.01000 22.04700
H  48.56900 30.38800 22.36300
H  49.42100 29.40300 23.51300
H  44.98600 29.29100 27.29900
H  46.42400 28.62600 27.88400
H  46.34900 29.25400 26.24700
H  44.58300 33.08700 30.77800
H  44.78100 32.04800 34.71700
H  43.30900 32.82600 34.34600
H  44.60300 33.80700 35.01200

