158

Mg -1.54800 17.31300 26.54000
C  -1.85100 15.22500 29.41900
C  -1.97600 20.02900 28.48300
C  -1.37400 19.09300 23.78000
C  -1.57000 14.39800 24.56400
N  -1.68100 17.56000 28.62300
C  -1.82900 16.63100 29.66200
C  -1.85600 17.20000 31.04000
C  -2.28800 18.73500 30.74500
C  -1.96000 18.81900 29.20000
C  -3.76900 19.11000 31.31500
C  -0.47300 17.00100 31.62900
C  -0.32700 17.60500 33.01000
H  -0.40400 16.61200 34.19400
N  -1.58700 19.27600 26.17200
C  -1.78700 20.22600 27.07500
C  -1.81300 21.54900 26.35400
C  -1.40600 21.27600 25.00300
C  -1.35000 19.82300 24.95100
C  -2.10000 22.90100 26.93200
C  -1.11500 22.22500 23.82200
O  -0.95200 21.83000 22.70600
C  -0.94400 23.65800 24.14300
N  -1.53400 16.81000 24.43800
C  -1.42800 17.73700 23.48600
C  -1.64300 17.24200 22.08600
C  -1.34800 15.72700 22.41700
C  -1.52900 15.63300 23.90400
C  -3.02200 17.63200 21.43100
C  -0.04300 15.08200 21.96300
C  -0.27300 13.80800 21.05900
N  -1.80400 15.24700 26.83200
C  -1.73800 14.19500 25.94400
C  -1.93500 12.95200 26.64500
C  -1.97600 13.30000 27.99400
C  -1.91000 14.69800 28.04100
C  -1.88400 11.59700 26.07900
C  -2.09700 12.73700 29.35300
O  -2.17200 11.59200 29.73600
C  -2.08700 14.03100 30.29700
C  -1.04300 13.68100 31.32000
O  0.16100 13.52100 31.07100
O  -1.72100 13.49400 32.56400
C  -0.85900 13.08600 33.64800
H  -2.11000 20.91300 29.11000
H  -1.33300 19.56600 22.79600
H  -1.57800 13.58200 23.83800
H  -2.52700 16.67000 31.71600
H  -1.48900 19.27500 31.25300
H  -3.79800 19.73400 32.20900
H  -4.25700 18.15700 31.51800
H  -4.27700 19.63800 30.50800
H  0.20300 17.62900 31.05000
H  -0.08500 15.98300 31.65700
H  -1.21000 18.21800 33.19500
H  0.56300 18.18000 33.26400
H  -2.30100 22.87900 28.00300
H  -2.90200 23.46300 26.45400
H  -1.16600 23.46200 26.92300
H  -0.19400 23.63000 24.93400
H  -1.91800 24.08900 24.37200
H  -0.52500 24.16400 23.27300
H  -0.81400 17.74900 21.59200
H  -2.11900 15.13200 21.92800
H  -2.88600 18.57700 20.90500
H  -3.76000 17.83000 22.20800
H  -3.41600 16.91500 20.71000
H  0.56200 14.81800 22.83100
H  0.53000 15.81300 21.39300
H  0.40300 13.83000 20.20300
H  -1.26400 13.55000 20.68700
H  0.13200 13.03400 21.71100
H  -0.89600 11.14800 26.17500
H  -2.17100 11.65500 25.02900
H  -2.57900 10.98400 26.65300
H  -3.06200 14.12800 30.77300
H  -1.50500 12.97000 34.51800
H  -0.01400 13.74300 33.85000
H  -0.28600 12.19500 33.39300
Mg 47.35400 44.85600 43.03000
C  43.88600 44.47400 42.83800
C  47.61400 41.43900 42.60300
C  50.56500 45.30800 42.25300
C  46.85800 48.38300 42.65100
N  45.88100 43.18900 42.86300
C  44.54300 43.24400 42.83600
C  43.93400 41.89200 42.55300
C  45.11800 40.94000 42.79000
C  46.28300 41.85300 42.66400
C  45.15100 39.95800 44.02100
C  43.30500 41.67100 41.10300
C  44.22200 41.98000 39.91100
H  44.91300 40.86400 39.17700
N  48.86600 43.56600 42.64900
C  48.81700 42.15600 42.60500
C  50.18100 41.62700 42.41100
C  51.06700 42.72100 42.15000
C  50.17400 43.93400 42.32800
C  50.51300 40.16300 42.45500
C  52.56700 42.64900 41.71600
O  53.13400 41.56300 41.57300
C  53.36400 43.85500 41.35100
N  48.49500 46.52900 42.35500
C  49.86600 46.47900 42.29100
C  50.58500 47.87300 42.09100
C  49.30200 48.82500 42.10800
C  48.12200 47.89200 42.46000
C  51.68200 48.14200 43.20700
C  49.00300 49.65400 40.83300
C  49.37200 51.16200 40.89800
N  45.69500 46.17600 42.91900
C  45.67500 47.57600 42.82300
C  44.32100 47.98200 42.78300
C  43.47500 46.81300 42.85200
C  44.41000 45.77700 42.87400
C  43.86700 49.32000 42.35300
C  42.18200 46.24900 42.87200
O  41.08900 46.79800 42.93300
C  42.40300 44.69400 42.89300
C  41.75700 44.29300 44.15800
O  42.33300 44.33800 45.23800
O  40.45700 43.83500 43.93100
C  39.68400 43.39500 45.13400
H  47.83400 40.38500 42.41700
H  51.63300 45.49500 42.12000
H  46.78600 49.46900 42.56500
H  43.10400 41.78100 43.25000
H  45.13500 40.32100 41.89300
H  45.94900 40.16900 44.73200
H  45.32600 38.94300 43.66200
H  44.16800 39.88600 44.48600
H  42.37700 42.22000 40.94600
H  42.97500 40.63700 40.99700
H  45.08400 42.60100 40.15500
H  43.71700 42.67400 39.23800
H  49.92400 39.64900 43.21400
H  51.56400 39.97300 42.67300
H  50.30700 39.77000 41.45900
H  52.74700 44.43500 40.66400
H  54.31000 43.59700 40.87700
H  53.56200 44.48800 42.21700
H  51.07400 47.84200 41.11700
H  49.34000 49.53400 42.93500
H  51.80500 47.21900 43.77300
H  51.46900 48.83400 44.02200
H  52.61400 48.36700 42.68900
H  47.92000 49.61600 40.71900
H  49.58000 49.32000 39.97100
H  49.76100 51.60100 41.81700
H  48.47800 51.72000 40.61900
H  50.11100 51.38300 40.12800
H  43.07700 49.17300 41.61700
H  44.69500 49.86100 41.89400
H  43.54300 49.90100 43.21700
H  41.84200 44.16000 42.12600
H  39.49000 44.20300 45.83900
H  40.27300 42.62100 45.62600
H  38.66200 43.10400 44.89200

