158

Mg 35.27700 48.59900 25.19800
C  35.70200 46.73100 28.11000
C  34.62600 51.32600 27.18600
C  34.74200 50.28900 22.45500
C  35.89000 45.62100 23.36900
N  34.85500 48.89800 27.35300
C  35.26200 48.07100 28.35900
C  35.35500 48.72500 29.73500
C  34.55500 50.09200 29.42700
C  34.65700 50.13300 27.91200
C  33.10900 50.20000 30.01300
C  36.80600 48.97000 30.26900
C  37.00600 49.14500 31.76600
H  35.84800 49.03100 32.78300
N  34.78800 50.53600 24.86800
C  34.60500 51.48100 25.79000
C  34.45500 52.77600 25.14400
C  34.46000 52.57900 23.75700
C  34.64300 51.04100 23.61100
C  34.38300 54.18700 25.74500
C  34.22000 53.55200 22.54500
O  34.42200 53.20100 21.36400
C  33.79900 54.92400 22.77400
N  35.21500 48.04600 23.19000
C  35.06800 48.95600 22.26800
C  35.42700 48.43600 20.86700
C  35.71100 46.89200 21.13900
C  35.57800 46.82000 22.65900
C  34.24200 48.52200 19.90000
C  37.15200 46.48500 20.69700
C  38.34400 47.00100 21.53300
N  35.52200 46.53900 25.59700
C  35.90000 45.49100 24.80100
C  36.50000 44.34700 25.59000
C  36.35600 44.83500 26.89400
C  35.76400 46.14200 26.87100
C  37.08900 43.06600 25.07000
C  36.72900 44.43600 28.23600
O  37.27300 43.40500 28.65100
C  36.27300 45.67700 29.08600
C  35.12300 45.24700 30.01500
O  33.91100 45.24600 29.74800
O  35.62900 44.94100 31.18500
C  34.69600 44.77200 32.35300
H  34.48500 52.24000 27.76700
H  34.63100 50.79500 21.49300
H  36.15900 44.81700 22.68200
H  34.67100 48.10600 30.31700
H  35.08200 50.99600 29.73100
H  32.39900 50.56100 29.26900
H  32.97300 50.86500 30.86600
H  32.82300 49.24600 30.45700
H  37.17100 49.95200 29.96700
H  37.46600 48.19300 29.88100
H  37.53100 50.07800 31.97100
H  37.66200 48.37100 32.16400
H  35.32500 54.70100 25.55500
H  34.31400 54.11000 26.83000
H  33.53300 54.83700 25.53900
H  32.79400 54.83000 23.18400
H  33.71000 55.42500 21.80900
H  34.54800 55.49200 23.32600
H  36.32900 48.92200 20.49400
H  34.98000 46.23400 20.67000
H  34.26400 47.65800 19.23600
H  34.36800 49.45900 19.35700
H  33.29200 48.51800 20.43400
H  37.23800 46.80200 19.65800
H  37.14300 45.40300 20.56700
H  39.27500 47.10500 20.97500
H  38.53000 46.26100 22.31100
H  38.11600 47.95300 22.01300
H  37.00000 42.95400 23.98900
H  36.62700 42.21800 25.57600
H  38.15000 43.07500 25.32000
H  37.11200 46.10400 29.63500
H  33.80200 45.38100 32.22400
H  35.31700 45.09900 33.18700
H  34.51700 43.71100 32.53100
Mg 0.08100 43.85400 26.73400
C  2.34200 44.06200 29.31000
C  -2.50500 43.27600 29.04700
C  -1.85700 42.73500 24.26600
C  2.71000 44.31900 24.44700
N  -0.01700 43.75400 28.91800
C  1.00700 43.93300 29.81400
C  0.56500 43.91300 31.27200
C  -0.90400 43.36300 31.11500
C  -1.22900 43.54100 29.62400
C  -1.10400 41.99800 31.85600
C  0.71300 45.31400 32.00300
C  1.22600 45.35200 33.45500
H  0.91500 44.14600 34.20700
N  -2.00100 43.38200 26.64300
C  -2.86200 43.21600 27.69500
C  -4.17100 42.90100 27.18100
C  -4.09600 42.75500 25.79200
C  -2.60300 42.95500 25.48500
C  -5.43300 42.89800 28.11300
C  -5.08500 42.53800 24.75500
O  -4.81500 42.55900 23.55200
C  -6.50800 42.30500 25.19900
N  0.33300 43.48300 24.68000
C  -0.56000 42.89400 23.89200
C  -0.07500 42.62200 22.52400
C  1.23900 43.53900 22.49000
C  1.45900 43.82900 23.95700
C  0.23100 41.07400 22.18900
C  1.24200 44.75700 21.45300
C  1.78500 44.30900 20.04500
N  2.04200 44.11900 26.77700
C  3.04200 44.27900 25.79900
C  4.29400 44.44000 26.35100
C  4.10500 44.35700 27.73800
C  2.74700 44.11400 27.95300
C  5.54600 44.60300 25.68700
C  4.79600 44.41500 29.00100
O  5.97000 44.57700 29.29000
C  3.64800 44.21600 30.12400
C  4.03400 43.13900 31.09800
O  3.97300 41.92500 30.90500
O  4.58300 43.66500 32.16500
C  4.71000 42.65700 33.25900
H  -3.22100 43.00600 29.82600
H  -2.51800 42.11100 23.66000
H  3.46700 44.70400 23.76100
H  1.16300 43.18800 31.82400
H  -1.61400 43.96700 31.68000
H  -1.96800 42.07000 32.51600
H  -0.28000 41.65000 32.47800
H  -1.39100 41.23000 31.13800
H  -0.26900 45.78700 32.02400
H  1.40700 45.92900 31.43000
H  0.88200 46.24500 33.97700
H  2.31300 45.39900 33.38700
H  -5.27900 43.22600 29.14100
H  -5.70500 41.84300 28.13000
H  -6.25900 43.50800 27.74600
H  -7.06500 43.19900 25.47800
H  -6.47000 41.55800 25.99200
H  -7.08200 41.87600 24.37800
H  -0.83100 42.92100 21.79800
H  2.12800 42.94900 22.26900
H  1.15300 40.89300 21.63700
H  -0.65100 40.73900 21.64300
H  0.23400 40.64000 23.18900
H  1.86800 45.58500 21.78400
H  0.25200 45.21200 21.40300
H  1.27200 44.86500 19.26000
H  1.81500 43.22500 19.93600
H  2.82800 44.59300 19.90300
H  5.77400 45.65400 25.50500
H  5.46800 44.16800 24.69100
H  6.33100 44.08100 26.23500
H  3.56900 45.16900 30.64700
H  5.49900 41.92500 33.08700
H  3.80100 42.07300 33.40700
H  4.90400 43.20800 34.17900

