158

Mg 8.85900 3.37300 27.73800
C  9.74700 1.74900 30.69900
C  7.21800 5.70800 29.65200
C  7.48800 4.58100 24.87000
C  10.15200 0.62100 25.86800
N  8.67900 3.79000 29.99200
C  9.13900 2.95400 31.02000
C  8.75300 3.50300 32.36800
C  7.92700 4.81500 31.97000
C  7.94400 4.81700 30.46100
C  6.45800 4.86400 32.57000
C  9.92000 3.66500 33.44600
C  9.62600 4.75900 34.49000
H  10.03400 4.52700 35.98300
N  7.65900 4.96200 27.30500
C  7.02600 5.83200 28.22900
C  6.25600 6.79300 27.58700
C  6.40000 6.52600 26.16900
C  7.28100 5.33000 26.04500
C  5.55400 7.84600 28.36300
C  5.88900 7.38200 25.01300
O  6.11600 7.08800 23.84200
C  5.26500 8.74500 25.30000
N  8.76300 2.64800 25.71900
C  8.17300 3.41400 24.69800
C  8.39100 2.70800 23.33900
C  9.19000 1.42500 23.68800
C  9.42100 1.58500 25.18000
C  7.08200 2.43300 22.57100
C  10.47100 1.27300 22.82400
C  10.41000 0.35000 21.59100
N  9.78300 1.61100 28.15700
C  10.25800 0.59600 27.31200
C  10.99900 -0.33900 28.06000
C  10.82600 0.12400 29.36600
C  9.97700 1.23900 29.36900
C  11.79900 -1.41000 27.59100
C  11.15300 -0.17800 30.71300
O  11.89500 -0.99100 31.19400
C  10.51700 0.86600 31.58100
C  9.69800 0.27900 32.60000
O  8.67100 -0.36700 32.38700
O  10.33700 0.44200 33.81800
C  9.76100 -0.32700 34.96700
H  6.78600 6.52600 30.23200
H  6.96000 4.89600 23.96800
H  10.57500 -0.20900 25.29800
H  8.01700 2.80700 32.77000
H  8.41500 5.72900 32.31000
H  5.89900 5.28900 31.73700
H  6.34300 5.62100 33.34600
H  6.05100 3.87300 32.77500
H  10.79500 4.06100 32.93000
H  10.18700 2.77900 34.02200
H  8.56300 4.97300 34.38500
H  10.16100 5.69900 34.35500
H  4.53400 7.81500 27.98000
H  5.94900 8.83600 28.13600
H  5.51700 7.80400 29.45200
H  4.41100 8.59400 25.96100
H  4.81500 9.10400 24.37500
H  5.97000 9.50500 25.63600
H  8.88800 3.37100 22.63000
H  8.68200 0.47700 23.51300
H  7.08100 2.97400 21.62400
H  6.25900 2.55300 23.27500
H  7.14200 1.37900 22.30100
H  11.31000 1.00800 23.46600
H  10.84200 2.18400 22.35500
H  10.20800 0.81900 20.62800
H  9.76400 -0.52600 21.64700
H  11.43200 -0.02900 21.58600
H  12.30400 -1.11500 26.67100
H  11.05200 -2.18800 27.43100
H  12.61200 -1.61600 28.28800
H  11.28300 1.52300 31.99500
H  8.89600 0.19800 35.37400
H  10.57600 -0.41800 35.68500
H  9.48700 -1.32900 34.63700
Mg 35.90300 49.57200 25.51700
C  36.00800 48.01500 28.57800
C  34.75700 52.47600 27.05700
C  35.43500 50.95900 22.42100
C  36.69400 46.45800 23.96500
N  35.29100 50.10700 27.51800
C  35.52200 49.32200 28.65000
C  35.33600 50.07100 29.94700
C  34.64000 51.47900 29.38800
C  34.89000 51.37400 27.91300
C  33.19800 51.76100 29.91500
C  36.63500 50.28900 30.78400
C  36.44300 50.25200 32.33700
H  35.00400 50.66100 32.93700
N  35.26300 51.51100 24.81300
C  34.86600 52.52800 25.59900
C  34.74100 53.73300 24.71800
C  35.01300 53.32500 23.34600
C  35.27100 51.88300 23.50000
C  34.46400 55.08600 25.34200
C  35.10900 54.13300 22.07900
O  35.26100 53.66000 21.00100
C  34.62300 55.61200 22.22600
N  36.07600 48.85300 23.47900
C  35.78400 49.58900 22.38300
C  36.01600 48.82700 21.13200
C  36.62600 47.40700 21.67000
C  36.46900 47.58700 23.12800
C  34.68500 48.82900 20.25300
C  38.13200 47.19500 21.22800
C  39.15400 48.27000 21.62100
N  36.29300 47.64100 26.10400
C  36.64600 46.52900 25.37300
C  36.95300 45.43300 26.28300
C  36.69300 45.97100 27.61100
C  36.31400 47.29600 27.39300
C  37.39700 44.14900 25.77800
C  36.69400 45.62900 29.08500
O  37.06900 44.64400 29.69700
C  36.20200 46.98300 29.74500
C  34.90200 46.68800 30.40600
O  33.85300 46.59100 29.78200
O  35.07900 46.66200 31.76300
C  33.91700 46.53700 32.60400
H  34.40000 53.37500 27.56400
H  35.45500 51.28600 21.38000
H  37.06000 45.50500 23.57900
H  34.67400 49.61100 30.68000
H  35.27200 52.28400 29.76200
H  32.83400 50.85900 30.40500
H  32.53000 52.10400 29.12500
H  33.14100 52.58000 30.63200
H  37.05900 51.27500 30.59300
H  37.34900 49.54400 30.43600
H  37.18800 50.97800 32.66300
H  36.74900 49.28300 32.73000
H  35.01500 55.78100 24.70800
H  34.79400 55.27900 26.36300
H  33.37800 55.15800 25.29200
H  35.46400 56.18700 22.61400
H  33.80000 55.71900 22.93200
H  34.31600 55.90200 21.22100
H  36.71100 49.42800 20.54500
H  36.05300 46.61400 21.18900
H  33.83500 49.11700 20.87300
H  34.48100 47.85900 19.80100
H  34.72000 49.62100 19.50500
H  38.18300 47.32800 20.14700
H  38.46900 46.18600 21.46600
H  38.75600 49.07200 22.24300
H  39.69900 48.56400 20.72400
H  39.87400 47.78300 22.27900
H  37.60600 43.54600 26.66200
H  38.31300 44.24000 25.19500
H  36.55800 43.70700 25.24000
H  36.99100 47.34700 30.40400
H  33.08100 47.07000 32.15100
H  34.27100 46.98700 33.53200
H  33.68000 45.49400 32.81400

