158

Mg 43.25400 4.25100 46.85000
C  40.73000 6.62800 46.46500
C  40.97000 1.81000 47.09600
C  45.80400 2.04900 46.54200
C  45.55600 7.03800 46.22300
N  41.11300 4.26100 46.78200
C  40.30300 5.30800 46.49900
C  38.92500 4.72200 46.29800
C  38.86900 3.36700 47.10200
C  40.35200 3.10400 46.91300
C  38.49900 3.56600 48.55900
C  38.55200 4.53500 44.71800
C  37.45600 5.53900 44.04100
H  37.85700 6.51400 42.94500
N  43.34500 2.18200 46.78300
C  42.31700 1.37100 46.96700
C  42.72000 0.02300 47.09600
C  44.18600 0.04700 46.89400
C  44.53000 1.42000 46.76400
C  41.88000 -1.20800 47.46400
C  45.10100 -1.14500 46.99700
O  44.70200 -2.23000 47.28800
C  46.58800 -0.91800 46.80800
N  45.31100 4.49500 46.29100
C  46.16500 3.41400 46.33700
C  47.53800 3.84900 45.79500
C  47.49100 5.41600 45.86400
C  46.05300 5.69700 46.12500
C  48.68200 3.23200 46.58000
C  48.15200 6.00200 44.65100
C  47.37100 6.17700 43.39900
N  43.23800 6.47300 46.69100
C  44.23600 7.39200 46.42900
C  43.59700 8.68000 46.39200
C  42.19800 8.50000 46.45700
C  42.06400 7.10500 46.53500
C  44.41500 9.91600 46.19100
C  40.91400 9.14300 46.49400
O  40.60000 10.32400 46.44500
C  39.92600 7.85900 46.44900
C  39.02600 7.78500 47.63100
O  39.36800 7.45100 48.76800
O  37.74100 8.10800 47.27000
C  36.94300 8.63200 48.34500
H  40.17800 1.10300 47.35300
H  46.75100 1.51900 46.42100
H  46.26300 7.85200 46.05000
H  38.17500 5.44300 46.62300
H  38.28300 2.63400 46.54800
H  37.86400 2.78700 48.98200
H  38.04500 4.55600 48.59500
H  39.43000 3.68900 49.11200
H  38.32000 3.50000 44.46900
H  39.46900 4.75800 44.17300
H  36.94500 6.12800 44.80200
H  36.73700 4.98500 43.43700
H  42.08200 -2.04200 46.79200
H  40.86900 -0.81400 47.36000
H  42.00700 -1.50300 48.50600
H  46.89400 -0.17100 47.54000
H  46.59200 -0.51400 45.79500
H  47.20200 -1.81700 46.75000
H  47.55000 3.55100 44.74700
H  47.95300 5.74500 46.79400
H  48.36300 2.55500 47.37300
H  49.25000 3.98100 47.13000
H  49.37900 2.67400 45.95400
H  48.98700 5.30400 44.59100
H  48.54500 6.98500 44.90800
H  47.80200 5.45600 42.70500
H  47.58100 7.14400 42.94300
H  46.29300 6.02200 43.42300
H  43.82300 10.78500 45.90600
H  45.16500 9.70000 45.42900
H  44.86900 10.22500 47.13200
H  39.32500 7.94300 45.54400
H  36.78000 7.74100 48.95100
H  35.97600 9.02500 48.03200
H  37.48800 9.21700 49.08700
Mg 47.14400 16.18800 28.12200
C  44.95400 15.65800 30.86200
C  48.97100 18.34900 29.91800
C  49.25600 16.37500 25.40600
C  45.03000 14.11900 26.19200
N  46.89700 17.08000 30.13800
C  46.03900 16.59600 31.15400
C  46.36700 17.30200 32.45400
C  47.53800 18.26400 32.03800
C  47.89400 17.85000 30.55600
C  47.20500 19.80600 32.08800
C  46.80400 16.29200 33.52600
C  46.56000 16.51700 35.06300
H  47.73900 16.26500 36.05900
N  48.82600 17.28700 27.72400
C  49.49000 18.14500 28.59500
C  50.50100 18.84400 27.83600
C  50.42200 18.32400 26.48700
C  49.49300 17.26900 26.50400
C  51.34500 19.92200 28.36800
C  51.23900 18.77400 25.31500
O  50.94600 18.35500 24.20200
C  52.39300 19.79900 25.44000
N  47.04500 15.47100 26.11900
C  48.09000 15.63100 25.24700
C  47.75500 14.96400 23.99200
C  46.69200 13.93600 24.36100
C  46.22800 14.53200 25.63800
C  47.32700 15.99800 22.87100
C  47.10100 12.46000 24.59300
C  46.11500 11.33700 24.01200
N  45.32200 15.18300 28.39400
C  44.56700 14.43200 27.50100
C  43.36200 13.85200 28.21500
C  43.49900 14.29100 29.47000
C  44.71000 15.11600 29.57200
C  42.31400 13.03900 27.55900
C  42.84700 14.22500 30.77800
O  41.84000 13.63700 31.10500
C  43.85600 15.01900 31.79900
C  43.06800 16.06200 32.48600
O  42.43800 16.98400 32.00900
O  43.08100 15.83900 33.83500
C  42.34400 16.62100 34.83900
H  49.56200 19.09800 30.45000
H  49.93000 16.11200 24.58800
H  44.37300 13.41400 25.67800
H  45.56200 17.92400 32.84700
H  48.42900 18.08900 32.64100
H  46.34500 20.11600 32.68300
H  47.03200 20.13900 31.06500
H  48.03900 20.43800 32.39200
H  47.85700 16.03100 33.42100
H  46.20500 15.42100 33.26200
H  45.77300 15.80800 35.31800
H  46.21200 17.50500 35.36600
H  50.93000 20.79100 27.85800
H  52.41500 19.80800 28.19200
H  51.19500 20.00000 29.44500
H  53.08400 19.50300 26.22900
H  51.99400 20.73300 25.83800
H  52.82700 20.01200 24.46300
H  48.63200 14.34300 23.80700
H  45.77500 14.08100 23.78900
H  46.33300 15.69100 22.54500
H  48.01400 16.13400 22.03600
H  47.24400 16.99500 23.30300
H  47.19800 12.32200 25.67000
H  48.01000 12.18100 24.06100
H  45.27100 11.84100 23.54200
H  45.75000 10.65600 24.78100
H  46.62000 10.66600 23.31700
H  42.48500 11.98600 27.78400
H  42.31600 13.10000 26.47100
H  41.38200 13.51400 27.86500
H  44.30500 14.40500 32.57900
H  43.12800 17.07000 35.44800
H  41.73500 16.05200 35.54100
H  41.82700 17.43000 34.32300

