158

Mg -0.06900 7.71800 26.23000
C  0.86700 9.62900 29.16500
C  -0.22500 4.98400 28.10700
C  -0.36300 6.04300 23.34300
C  0.28300 10.76700 24.36900
N  0.24400 7.38000 28.38000
C  0.45600 8.30700 29.40100
C  0.24700 7.55600 30.80400
C  0.31200 6.03300 30.35100
C  0.05700 6.11700 28.86400
C  1.70000 5.37000 30.71600
C  -1.08700 7.99200 31.43200
C  -1.06000 8.30800 32.88300
H  0.13900 7.99500 33.78900
N  -0.22900 5.75000 25.73900
C  -0.29900 4.76200 26.69100
C  -0.53700 3.49700 25.97800
C  -0.57000 3.78300 24.57900
C  -0.33100 5.27300 24.49200
C  -0.58900 2.19100 26.70100
C  -0.77500 2.80300 23.38600
O  -0.88900 3.17100 22.21300
C  -0.80700 1.28100 23.60900
N  0.04000 8.30300 24.17700
C  -0.08800 7.41000 23.21800
C  -0.05900 8.13300 21.84100
C  -0.35900 9.65900 22.24700
C  -0.05500 9.61000 23.70900
C  1.27200 7.77100 21.06300
C  -1.84400 10.05600 21.98300
C  -2.00500 11.45500 21.31500
N  0.44400 9.80200 26.61900
C  0.61500 10.86100 25.75900
C  1.12300 12.01100 26.50500
C  1.19600 11.56800 27.85500
C  0.86500 10.20700 27.87100
C  1.32900 13.39600 25.96400
C  1.49300 11.98400 29.22100
O  1.90100 13.05800 29.66200
C  1.16000 10.76300 30.18300
C  2.17200 10.49700 31.22900
O  3.14600 9.79800 31.05000
O  1.89200 11.33700 32.27900
C  3.10300 11.51300 33.14700
H  -0.48900 4.10900 28.70500
H  -0.53300 5.62300 22.35000
H  0.10900 11.66900 23.77900
H  1.14000 7.78400 31.38400
H  -0.46800 5.49800 30.89300
H  2.17700 5.19100 29.75200
H  1.55000 4.37500 31.13600
H  2.36500 5.93000 31.37300
H  -1.78000 7.15500 31.34500
H  -1.45700 8.89000 30.93800
H  -1.93700 7.92100 33.40200
H  -1.24400 9.38200 32.85700
H  0.21400 1.58100 26.28900
H  -1.52000 1.69700 26.42400
H  -0.53500 2.31500 27.78300
H  -0.79600 0.64900 22.72000
H  -1.73200 1.09400 24.15400
H  -0.04900 0.87300 24.27800
H  -0.87700 7.77700 21.21400
H  0.41100 10.22000 21.71800
H  1.10000 7.01000 20.30200
H  1.96900 7.31500 21.76700
H  1.78900 8.63600 20.64800
H  -2.40700 10.14500 22.91200
H  -2.30700 9.28100 21.37300
H  -2.40800 11.27300 20.31800
H  -1.06100 11.96900 21.13200
H  -2.59600 12.16000 21.90000
H  2.41400 13.48600 25.91500
H  0.97500 14.04000 26.76800
H  0.75300 13.55200 25.05200
H  0.20000 10.91000 30.67600
H  3.08100 12.57900 33.37400
H  4.06900 11.22500 32.73300
H  3.01000 10.89800 34.04200
Mg 16.62000 51.08800 26.75100
C  18.60500 49.60200 29.40100
C  14.43500 52.25700 29.13100
C  14.62900 52.07800 24.36300
C  18.88900 49.66000 24.44100
N  16.59100 51.07200 29.04900
C  17.44700 50.35200 29.88000
C  17.11700 50.68800 31.35200
C  15.71600 51.35500 31.23700
C  15.54000 51.60100 29.73100
C  14.51100 50.54500 31.76900
C  18.23200 51.52800 32.04600
C  18.32900 51.44900 33.60300
H  17.30500 50.67500 34.42400
N  14.75200 52.05600 26.78500
C  14.05700 52.54400 27.84800
C  12.89200 53.32900 27.36700
C  12.91400 53.27600 25.93700
C  14.09100 52.42600 25.63700
C  11.92500 54.04800 28.28900
C  12.01100 54.10200 24.94700
O  12.20600 54.08700 23.79300
C  10.97600 54.93200 25.49200
N  16.76400 50.90300 24.74200
C  15.78000 51.41800 23.97300
C  16.02300 51.12100 22.42800
C  17.50900 50.57300 22.51100
C  17.72600 50.29100 23.96000
C  14.89600 50.15900 21.98800
C  18.54200 51.68000 21.88600
C  19.40900 52.66400 22.83800
N  18.32600 49.83000 26.86500
C  19.15400 49.39500 25.78700
C  20.32200 48.65400 26.39300
C  20.10700 48.75500 27.80200
C  18.92100 49.46000 28.04000
C  21.36500 47.88200 25.61900
C  20.55800 48.21000 29.03400
O  21.45700 47.43800 29.33000
C  19.71100 48.95800 30.21800
C  19.22800 48.01000 31.21000
O  18.23500 47.32000 31.10800
O  20.05200 47.99700 32.35500
C  19.58700 47.01800 33.35500
H  13.70400 52.60100 29.86600
H  14.08900 52.34700 23.45300
H  19.56500 49.35900 23.63700
H  17.25500 49.67000 31.71700
H  15.76200 52.33100 31.72000
H  14.67500 49.50500 32.05000
H  13.70300 50.48900 31.04000
H  14.09900 51.16000 32.56900
H  17.88500 52.52700 31.78100
H  19.19100 51.23800 31.61700
H  18.45800 52.39900 34.12200
H  19.26500 50.91700 33.76800
H  11.88300 55.13300 28.20200
H  12.18300 53.89800 29.33800
H  10.90200 53.68000 28.21000
H  10.13600 54.37900 25.91200
H  10.53700 55.43800 24.63200
H  11.43300 55.66900 26.15300
H  16.00600 52.03500 21.83300
H  17.62000 49.68000 21.89600
H  14.05700 50.14900 22.68300
H  15.40000 49.19400 21.93300
H  14.48300 50.57900 21.07100
H  18.13600 52.35300 21.13000
H  19.27200 51.02900 21.40400
H  18.91700 52.90200 23.78100
H  19.63000 53.57500 22.28100
H  20.33300 52.09100 22.90900
H  22.07700 47.63200 26.40500
H  21.82500 48.53500 24.87600
H  20.95200 46.96300 25.20400
H  20.42400 49.57900 30.76100
H  19.75100 45.98900 33.03700
H  18.57600 47.09200 33.75700
H  20.11500 47.23000 34.28500

