158

Mg 23.73300 -5.28400 45.86200
C  25.77100 -2.98000 44.36000
C  21.08900 -4.10900 43.99400
C  21.93500 -8.12000 46.61800
C  26.47700 -6.72100 47.54200
N  23.54300 -3.68300 44.25400
C  24.44100 -2.78400 43.92600
C  23.83200 -1.70900 42.92200
C  22.31100 -1.95900 43.27600
C  22.26400 -3.31900 43.88700
C  21.53200 -1.04000 44.30300
C  24.40400 -2.25300 41.49800
C  25.02300 -1.24400 40.46300
H  24.36000 -1.16800 39.13700
N  21.73900 -5.99600 45.39000
C  20.85600 -5.33500 44.52300
C  19.72700 -6.13500 44.36100
C  19.85500 -7.27500 45.29500
C  21.24200 -7.17200 45.77900
C  18.49000 -5.77100 43.49200
C  18.76600 -8.31200 45.62400
O  17.62300 -8.12300 45.18200
C  19.00500 -9.49100 46.53400
N  24.12600 -7.21900 46.97200
C  23.21000 -8.15100 47.07800
C  23.82400 -9.42500 47.76500
C  25.16800 -8.87400 48.40100
C  25.28300 -7.54400 47.55900
C  22.96200 -10.13000 48.80700
C  26.37300 -9.80700 48.23300
C  27.40400 -9.92400 49.36900
N  25.72800 -4.91800 46.05100
C  26.72300 -5.53800 46.77000
C  27.95500 -4.79100 46.62600
C  27.64600 -3.74000 45.69600
C  26.28500 -3.90900 45.33200
C  29.22400 -5.13700 47.21300
C  28.09600 -2.58100 44.95500
O  29.21500 -2.12300 45.00100
C  27.02500 -2.10100 44.04800
C  26.83400 -0.62100 44.27600
O  26.04400 -0.06900 45.07000
O  27.71800 0.11600 43.47500
C  27.56000 1.52500 43.62800
H  20.26800 -3.72700 43.38300
H  21.31900 -9.01400 46.73900
H  27.31700 -7.07000 48.14600
H  24.24300 -0.72900 43.16400
H  21.74900 -1.99300 42.34300
H  20.73500 -0.61200 43.69500
H  22.20500 -0.28300 44.70500
H  21.12300 -1.53400 45.18400
H  23.61100 -2.87600 41.08400
H  25.24500 -2.94400 41.55700
H  26.03800 -1.61500 40.32000
H  24.90600 -0.29000 40.97800
H  18.18400 -6.57900 42.82800
H  18.66700 -4.99500 42.74700
H  17.70800 -5.30200 44.08800
H  18.15100 -10.16900 46.55100
H  19.37200 -9.08800 47.47800
H  19.79600 -10.02200 46.00300
H  24.24400 -10.14200 47.05900
H  25.15600 -8.54800 49.44100
H  23.01900 -9.66500 49.79100
H  23.12300 -11.20100 48.92500
H  21.89600 -10.13600 48.57600
H  26.92400 -9.36700 47.40200
H  26.04700 -10.84600 48.19100
H  27.29000 -10.80400 50.00200
H  27.21200 -9.11100 50.06900
H  28.41700 -9.80600 48.98400
H  29.94700 -5.44900 46.45900
H  29.18200 -5.95200 47.93500
H  29.65300 -4.31700 47.78900
H  27.38200 -2.22100 43.02500
H  27.74800 1.78400 44.67000
H  26.63300 1.92600 43.21900
H  28.38200 1.98800 43.08100
Mg 24.15500 1.38400 29.65500
C  26.45300 1.19400 32.29900
C  21.63100 1.09700 31.85800
C  22.13400 1.23100 26.95400
C  26.90300 0.99300 27.42900
N  24.06500 1.31700 31.84900
C  25.13300 1.30300 32.77500
C  24.62000 1.43700 34.18100
C  23.07800 1.25600 34.03900
C  22.90400 1.19100 32.48100
C  22.45700 0.09200 34.87600
C  25.06800 2.80200 34.84500
C  25.95400 2.71800 36.21300
H  25.45500 3.43000 37.45100
N  22.15300 1.16000 29.45100
C  21.22500 1.12600 30.50200
C  19.92600 1.10600 29.90200
C  20.11500 1.06000 28.49400
C  21.45700 1.19700 28.25200
C  18.64000 1.19100 30.71300
C  19.05700 0.92100 27.40300
O  19.28400 0.97600 26.17600
C  17.67100 0.62500 27.89100
N  24.43100 1.12100 27.45100
C  23.42600 1.19100 26.59700
C  23.93900 1.12500 25.15700
C  25.47800 0.93500 25.28600
C  25.65900 1.06700 26.82500
C  23.26100 0.02900 24.23600
C  26.32800 1.99700 24.49000
C  25.94400 3.47800 24.70400
N  26.23200 1.05900 29.77700
C  27.15600 0.83000 28.80600
C  28.45400 0.68400 29.43000
C  28.23700 0.75100 30.82500
C  26.86000 1.07900 30.95400
C  29.68700 0.31400 28.59100
C  28.93200 0.69800 32.06400
O  30.13200 0.53600 32.36800
C  27.75200 1.02900 33.12500
C  27.81600 -0.07200 34.17900
O  27.32300 -1.23000 34.09300
O  28.53700 0.39300 35.23500
C  28.66100 -0.55000 36.34000
H  20.83100 0.99000 32.59300
H  21.42800 1.26500 26.12200
H  27.74300 0.82200 26.75400
H  25.04800 0.61700 34.75800
H  22.54600 2.17700 34.27700
H  21.57600 0.36700 35.45500
H  23.15600 -0.16700 35.67000
H  22.38100 -0.79100 34.24000
H  24.23200 3.49100 34.97000
H  25.71600 3.25000 34.09200
H  26.85600 3.29700 36.01300
H  26.21100 1.67800 36.41200
H  18.05200 2.04100 30.36800
H  18.84000 1.09300 31.78000
H  18.01500 0.31200 30.55100
H  17.56400 -0.39000 28.27500
H  17.00200 0.45900 27.04600
H  17.23900 1.30800 28.62200
H  23.57100 1.99900 24.61900
H  25.86100 -0.06100 25.06400
H  22.86000 -0.77200 24.85600
H  24.14100 -0.38400 23.74200
H  22.57500 0.51200 23.54000
H  26.07300 1.76100 23.45600
H  27.38400 1.85900 24.72200
H  26.90500 3.78800 25.11300
H  25.17000 3.72800 25.43000
H  25.72000 4.00900 23.77800
H  29.82400 0.90700 27.68700
H  29.51900 -0.73700 28.35700
H  30.55300 0.44700 29.24000
H  27.96800 1.97600 33.61900
H  29.40300 -1.31800 36.12100
H  27.76900 -1.13700 36.55800
H  28.85400 -0.08100 37.30500

