158

Mg 42.71000 40.76100 26.47500
C  41.43100 43.00500 28.99400
C  43.76200 38.69400 28.90000
C  43.76500 38.75600 24.04000
C  41.88700 43.10100 24.07500
N  42.58600 40.85300 28.74000
C  41.95200 41.74800 29.55500
C  42.07800 41.43400 30.99900
C  42.92400 40.09500 30.88800
C  43.15400 39.85400 29.45400
C  44.13400 39.98700 31.79300
C  40.70600 41.23800 31.68800
C  40.64700 40.73600 33.18500
H  40.39300 41.72500 34.30900
N  43.49200 38.96000 26.47800
C  43.87300 38.24700 27.59000
C  44.34700 36.98600 27.22200
C  44.24700 36.95600 25.77600
C  43.88200 38.31300 25.34700
C  44.91500 35.90100 28.20600
C  44.51000 35.88000 24.70400
O  44.34900 35.94000 23.47000
C  45.00200 34.59600 25.34000
N  42.81300 40.92900 24.35800
C  43.32000 39.98800 23.57800
C  43.30600 40.38400 22.05900
C  42.74600 41.80500 22.06300
C  42.42400 42.00900 23.55200
C  44.65600 40.21400 21.25300
C  41.50600 41.92200 21.14300
C  40.23100 41.31200 21.70200
N  41.98000 42.67600 26.52600
C  41.63900 43.45600 25.47000
C  41.07400 44.73300 25.88500
C  40.96600 44.51700 27.28100
C  41.56200 43.28100 27.61200
C  40.93800 45.96000 25.02600
C  40.44300 45.21100 28.50900
O  40.02700 46.36800 28.68600
C  40.72800 44.13300 29.65900
C  41.63100 44.71700 30.66900
O  42.79600 45.04600 30.41800
O  40.96600 44.90800 31.86100
C  41.77000 45.56800 32.87000
H  44.02900 38.04400 29.73600
H  44.05600 38.18700 23.15500
H  41.61600 43.85800 23.33600
H  42.68000 42.20300 31.48400
H  42.34300 39.23500 31.22000
H  44.36100 40.84500 32.42700
H  44.98000 39.86100 31.11700
H  44.07100 39.12800 32.46100
H  39.96500 40.77500 31.03600
H  40.31700 42.25400 31.75800
H  41.61000 40.24600 33.32800
H  39.91700 39.93200 33.27700
H  44.41000 34.94200 28.09200
H  44.69800 36.17300 29.23900
H  45.98300 35.81400 28.00300
H  44.26400 34.19200 26.03400
H  45.90800 34.77200 25.91900
H  45.12100 33.88600 24.52100
H  42.53800 39.79900 21.55300
H  43.47900 42.53600 21.72300
H  45.41800 39.82500 21.92900
H  45.10300 41.06400 20.73800
H  44.38400 39.50400 20.47300
H  41.53600 41.42800 20.17100
H  41.44200 42.99300 20.95300
H  39.61600 41.01200 20.85400
H  39.68800 42.05300 22.29000
H  40.43300 40.49500 22.39500
H  39.89100 46.22200 24.87600
H  41.28000 45.77800 24.00700
H  41.49400 46.80500 25.43200
H  39.83100 43.69400 30.09500
H  42.72700 45.08100 33.05500
H  41.26200 45.51300 33.83300
H  41.87500 46.62300 32.62000
Mg 36.05200 48.27300 25.08300
C  36.26600 46.49400 28.03500
C  34.93500 50.95900 26.81600
C  35.71300 49.86200 22.08000
C  37.47400 45.64000 23.39100
N  35.57900 48.60900 27.12600
C  35.79700 47.75700 28.14200
C  35.45500 48.47800 29.51800
C  34.94000 49.87700 29.06200
C  35.18000 49.84600 27.55300
C  33.37200 50.11800 29.39000
C  36.68700 48.62900 30.41100
C  36.60800 48.20500 31.91500
H  35.28200 48.05000 32.45100
N  35.33100 50.15900 24.51200
C  34.94200 51.16500 25.36300
C  34.76600 52.31200 24.61700
C  34.80400 52.03900 23.18700
C  35.25000 50.63200 23.22800
C  34.66500 53.60900 25.29000
C  34.63300 53.02900 21.98600
O  34.86900 52.75000 20.78800
C  33.97500 54.44300 22.37000
N  36.31500 47.70500 22.92200
C  36.18300 48.54100 21.95100
C  37.01000 48.13800 20.66300
C  37.58300 46.75900 21.09000
C  37.21400 46.76500 22.59000
C  36.04900 48.16300 19.35500
C  39.07400 46.60800 20.97700
C  39.62800 45.28000 20.32000
N  36.73700 46.45700 25.50400
C  37.17700 45.41500 24.70000
C  37.51000 44.24500 25.50400
C  37.12200 44.61500 26.83300
C  36.64300 45.95000 26.78200
C  38.12100 42.99600 25.00900
C  36.96500 44.09600 28.19600
O  37.23900 43.01500 28.61900
C  36.38400 45.33800 29.04700
C  35.18100 44.98900 29.83400
O  34.03100 44.97000 29.42700
O  35.62700 44.67400 31.07900
C  34.76700 43.81300 31.89500
H  34.53800 51.83000 27.34200
H  35.59500 50.29100 21.08200
H  37.88900 44.75800 22.89800
H  34.66000 47.94200 30.03600
H  35.45000 50.72000 29.52800
H  33.21900 51.04100 29.95000
H  32.90000 49.34200 29.99300
H  32.82300 50.21900 28.45400
H  37.13000 49.62100 30.49800
H  37.47900 47.96500 30.06200
H  37.19500 48.75300 32.65200
H  37.06800 47.22000 31.83700
H  35.23300 53.51000 26.21500
H  33.61300 53.88100 25.37600
H  35.24800 54.38400 24.79200
H  33.13600 54.31500 23.05300
H  33.59800 54.85100 21.43200
H  34.70000 55.16300 22.75000
H  37.82600 48.86000 20.67800
H  37.10200 45.97200 20.50900
H  35.02200 48.14200 19.71800
H  36.10400 47.24300 18.77400
H  36.42800 49.07400 18.89100
H  39.50200 46.82100 21.95700
H  39.42600 47.41200 20.33200
H  39.04500 44.43600 20.69000
H  40.64000 45.04400 20.65000
H  39.65200 45.25500 19.23100
H  37.31300 42.32200 24.72300
H  38.66400 42.46600 25.79200
H  38.72700 43.20900 24.12800
H  37.10900 45.58600 29.82200
H  35.34400 43.53700 32.77800
H  34.33500 42.97200 31.35300
H  33.96400 44.48800 32.19000

