158

Mg 25.18900 -5.52100 45.54100
C  27.24600 -3.08100 44.02400
C  22.57500 -4.45900 43.41400
C  23.52100 -8.37000 46.09700
C  27.96700 -6.71400 47.26400
N  24.92400 -3.88600 44.00900
C  25.95800 -3.07600 43.49100
C  25.44900 -1.97600 42.55400
C  23.90500 -2.44900 42.35000
C  23.72500 -3.64200 43.38100
C  22.77500 -1.31900 42.44500
C  26.34300 -1.73100 41.32600
C  26.61700 -2.97900 40.43400
H  26.29800 -2.77900 38.89200
N  23.26100 -6.31900 44.91500
C  22.34300 -5.64400 44.13500
C  21.11300 -6.49500 44.03700
C  21.40900 -7.65900 44.84000
C  22.76900 -7.45200 45.31300
C  19.82600 -6.14200 43.26600
C  20.41500 -8.76400 45.15700
O  19.23400 -8.74000 44.72000
C  20.73300 -9.89900 46.09700
N  25.72000 -7.28000 46.55500
C  24.83500 -8.27400 46.72200
C  25.48700 -9.47000 47.53200
C  26.89900 -8.89000 47.84100
C  26.86500 -7.54900 47.12700
C  24.53800 -10.05500 48.63700
C  28.08000 -9.85400 47.57900
C  28.97500 -10.16200 48.76100
N  27.19200 -4.91100 45.75000
C  28.18100 -5.54600 46.48000
C  29.40800 -4.79700 46.36600
C  29.07400 -3.79400 45.38100
C  27.74000 -3.91800 45.04700
C  30.72400 -4.98600 47.06200
C  29.69600 -2.80600 44.52800
O  30.77800 -2.36800 44.49800
C  28.50900 -2.25800 43.64800
C  28.47400 -0.87900 44.06700
O  28.05200 -0.49300 45.14500
O  28.84500 -0.01300 43.08000
C  29.08100 1.42000 43.34400
H  21.80600 -4.04800 42.75700
H  23.09800 -9.34200 46.36100
H  28.75200 -6.92500 47.99300
H  25.36100 -1.06100 43.14000
H  23.64500 -2.84600 41.36900
H  21.80500 -1.59600 42.85700
H  22.53900 -0.99300 41.43200
H  23.07900 -0.45100 43.03100
H  27.31700 -1.42500 41.70800
H  25.90300 -0.87600 40.81400
H  25.79400 -3.64800 40.68400
H  27.58300 -3.43300 40.65700
H  19.30400 -7.06400 43.01200
H  20.07600 -5.61400 42.34600
H  19.35400 -5.45300 43.96700
H  19.88400 -10.55900 46.27600
H  21.10100 -9.54900 47.06200
H  21.43200 -10.53000 45.54900
H  25.44600 -10.22900 46.75100
H  27.03100 -8.59100 48.88100
H  23.62400 -9.47100 48.73700
H  25.11100 -9.87800 49.54800
H  24.48200 -11.14300 48.58400
H  28.66300 -9.46800 46.74300
H  27.56200 -10.74500 47.22200
H  28.73600 -9.78400 49.75500
H  30.02500 -9.90000 48.62900
H  28.99100 -11.24700 48.86600
H  30.70700 -4.63800 48.09500
H  31.55800 -4.53500 46.52600
H  31.00000 -6.03900 47.00800
H  28.90800 -2.36100 42.63900
H  29.07000 1.65500 44.40900
H  28.33200 2.07700 42.90300
H  30.08000 1.72800 43.03500
Mg 35.13700 1.87300 29.47300
C  32.95900 2.82400 32.03100
C  37.68700 1.62400 31.69100
C  37.19000 1.53600 26.91700
C  32.45100 2.49100 27.22600
N  35.22600 2.15400 31.59600
C  34.19100 2.47800 32.43400
C  34.67900 2.32500 33.93100
C  36.24400 2.06900 33.82000
C  36.42400 1.88800 32.29100
C  37.21700 3.06700 34.48400
C  33.87700 1.22500 34.67500
C  33.49500 1.63100 36.13400
H  34.38000 2.73600 36.81900
N  37.17200 1.62200 29.37000
C  38.06000 1.49500 30.33800
C  39.35400 1.22600 29.81600
C  39.29700 1.47200 28.42400
C  37.84500 1.61300 28.17400
C  40.53400 1.02500 30.68000
C  40.37000 1.44900 27.40200
O  40.16100 1.73400 26.24600
C  41.73300 1.16500 27.85900
N  34.80900 2.05200 27.35000
C  35.83700 1.65000 26.57600
C  35.43000 1.43200 25.12700
C  33.85900 1.71900 25.15300
C  33.66600 2.17100 26.62200
C  36.20100 2.38600 24.08300
C  32.90000 0.67100 24.55300
C  32.50600 -0.50800 25.56000
N  33.08500 2.52500 29.57000
C  32.15500 2.72500 28.56000
C  30.96900 3.20700 29.12900
C  31.19800 3.35600 30.51600
C  32.51100 2.82300 30.74000
C  29.71200 3.57900 28.38100
C  30.67300 3.67000 31.78900
O  29.60300 4.21600 32.04000
C  31.80100 3.36700 32.89500
C  32.21600 4.69600 33.43000
O  32.73000 5.68200 32.78600
O  32.05400 4.67400 34.81900
C  32.19900 5.97000 35.51200
H  38.45500 1.35400 32.41800
H  37.94700 1.23100 26.19200
H  31.53500 2.57600 26.63800
H  34.50300 3.27400 34.43700
H  36.51400 1.11900 34.28200
H  37.86500 3.55600 33.75600
H  37.86600 2.60700 35.22900
H  36.62300 3.82400 34.99600
H  34.47900 0.31700 34.71100
H  32.96500 1.04300 34.10800
H  33.34600 0.71900 36.71300
H  32.44400 1.91900 36.09100
H  41.21500 1.87500 30.69400
H  41.07400 0.17200 30.26900
H  40.28400 0.70400 31.69100
H  42.10700 1.97800 28.48100
H  42.52200 0.96700 27.13300
H  41.55200 0.25300 28.42700
H  35.63400 0.40000 24.84000
H  33.58700 2.53700 24.48700
H  35.51300 3.01600 23.52000
H  36.77300 1.87300 23.31000
H  36.92600 2.96800 24.65300
H  33.41600 0.32800 23.65700
H  31.95600 1.10600 24.22500
H  31.42000 -0.47900 25.47100
H  32.93500 -0.38200 26.55400
H  32.82300 -1.48800 25.20400
H  29.85300 3.95800 27.36900
H  29.27100 4.33100 29.03400
H  29.07200 2.70400 28.26800
H  31.47300 2.73800 33.72200
H  31.50900 5.98200 36.35500
H  31.97100 6.84600 34.90500
H  33.22400 6.14000 35.84000

