158

Mg -11.61600 37.89000 42.41800
C  -8.98300 35.59400 41.56700
C  -10.09100 40.20600 40.46100
C  -14.34700 39.88100 42.74700
C  -13.17400 35.37800 43.95700
N  -9.77900 37.80100 41.03800
C  -8.85500 36.86000 40.92500
C  -7.76000 37.30400 39.96900
C  -7.96300 38.86500 39.87700
C  -9.36800 39.03700 40.51100
C  -6.84800 39.77500 40.55300
C  -7.63300 36.45100 38.64700
C  -6.29900 35.72300 38.31900
H  -5.52200 36.22900 37.03800
N  -12.17100 39.77200 41.63600
C  -11.34200 40.64700 40.95200
C  -12.00300 41.87900 40.68900
C  -13.21300 41.84600 41.44500
C  -13.30900 40.47100 41.97800
C  -11.51600 42.96900 39.65100
C  -14.24000 42.96800 41.54700
O  -13.94700 44.08800 41.16200
C  -15.68800 42.84800 42.05900
N  -13.60300 37.67300 43.26800
C  -14.52900 38.62200 43.31400
C  -15.83100 38.00400 43.83900
C  -15.35600 36.64700 44.47700
C  -13.97800 36.49000 43.79900
C  -16.64400 38.98600 44.77500
C  -16.33200 35.41700 44.11600
C  -16.62800 34.33300 45.26300
N  -11.20600 35.86600 42.74000
C  -11.89000 34.97000 43.50100
C  -11.19100 33.71500 43.52900
C  -10.01800 33.97500 42.81700
C  -10.11000 35.22900 42.31400
C  -11.66800 32.39100 44.20400
C  -8.82500 33.37100 42.48000
O  -8.32000 32.31300 42.81800
C  -8.00400 34.37200 41.63700
C  -6.66200 34.68400 42.30600
O  -5.67800 33.93500 42.24500
O  -6.67200 35.67000 43.23900
C  -5.44700 35.95000 44.02600
H  -9.52100 40.98300 39.94800
H  -15.15200 40.56500 43.02600
H  -13.61900 34.56000 44.52700
H  -6.78800 37.26900 40.46000
H  -8.08100 39.19500 38.84400
H  -7.34000 40.28100 41.38300
H  -6.51900 40.54100 39.85000
H  -5.96700 39.17200 40.77400
H  -7.69700 37.17700 37.83700
H  -8.47400 35.76000 38.58700
H  -6.47300 34.65300 38.20600
H  -5.60900 35.80700 39.15800
H  -11.66400 43.93400 40.13600
H  -11.99200 42.91200 38.67200
H  -10.43600 42.86200 39.55300
H  -16.30900 43.72800 41.88800
H  -15.73400 42.57200 43.11200
H  -16.15200 42.07400 41.44700
H  -16.25300 37.67800 42.88900
H  -15.32800 36.71500 45.56400
H  -17.27100 38.39400 45.44100
H  -17.26600 39.49400 44.03700
H  -16.06900 39.76300 45.27900
H  -15.96700 34.90100 43.22800
H  -17.26500 35.90600 43.83300
H  -17.69100 34.10200 45.18700
H  -16.56600 34.84900 46.22100
H  -15.98500 33.46300 45.13200
H  -10.90500 31.66500 43.92200
H  -12.65200 32.12400 43.82100
H  -11.61400 32.57200 45.27700
H  -7.79700 33.97500 40.64400
H  -5.10000 36.93500 43.71400
H  -4.54900 35.36000 43.83800
H  -5.63000 36.08000 45.09200
Mg -4.84600 25.67800 26.27600
C  -3.80200 26.88100 29.53500
C  -6.73000 23.43300 27.69100
C  -5.00900 24.45600 23.11900
C  -2.29200 27.99200 24.97400
N  -5.08300 25.13300 28.39600
C  -4.63500 25.77000 29.53500
C  -5.42700 25.07900 30.75000
C  -6.12300 23.83100 30.14200
C  -6.02200 24.16300 28.63500
C  -5.56000 22.43300 30.66500
C  -6.27500 26.09700 31.52800
C  -5.98600 26.13200 33.06600
H  -5.67000 24.79800 33.82800
N  -5.77800 24.21200 25.51300
C  -6.62100 23.49100 26.25100
C  -7.23200 22.63100 25.30900
C  -6.61800 22.72000 23.98300
C  -5.73000 23.87300 24.17900
C  -8.38900 21.71300 25.69200
C  -6.89000 21.88100 22.69300
O  -6.34000 22.08300 21.62800
C  -7.79900 20.64000 22.85500
N  -3.80900 26.27000 24.24100
C  -4.16200 25.51600 23.11700
C  -3.53800 26.06000 21.88900
C  -2.79500 27.37100 22.44800
C  -2.93600 27.24700 23.97000
C  -2.44100 25.06800 21.33800
C  -3.36200 28.67600 21.98100
C  -3.26400 28.84500 20.41000
N  -3.46500 27.21600 27.00300
C  -2.52200 28.04800 26.33900
C  -1.93500 28.94100 27.36500
C  -2.43000 28.58200 28.62400
C  -3.28200 27.44500 28.33800
C  -1.03000 30.08800 27.12800
C  -2.37900 28.88100 30.02100
O  -1.84300 29.76000 30.64100
C  -3.23100 27.71300 30.67100
C  -2.34400 26.84300 31.61000
O  -1.73100 25.77900 31.36500
O  -2.38000 27.31300 32.90300
C  -1.55000 26.67500 33.97300
H  -7.39500 22.62700 28.00600
H  -5.34800 24.04400 22.16600
H  -1.55600 28.72900 24.64600
H  -4.66500 24.70600 31.43400
H  -7.19200 23.79500 30.35100
H  -4.71400 22.49900 31.34900
H  -5.07800 21.87200 29.86500
H  -6.27400 21.81500 31.20800
H  -7.31900 25.90400 31.28200
H  -5.91100 27.03000 31.09700
H  -6.95800 26.49700 33.40000
H  -5.16200 26.83000 33.21100
H  -9.25500 21.86200 25.04700
H  -8.76200 21.78100 26.71400
H  -8.13400 20.65700 25.59700
H  -8.16400 20.46800 21.84300
H  -8.73000 20.88800 23.36400
H  -7.25300 19.90500 23.44700
H  -4.30700 26.11800 21.11900
H  -1.71600 27.50900 22.36800
H  -1.51500 25.53200 21.00000
H  -2.93200 24.62900 20.46900
H  -2.29100 24.30600 22.10300
H  -2.86000 29.47800 22.52300
H  -4.42300 28.74400 22.22200
H  -2.56000 28.08600 20.06900
H  -3.02700 29.89600 20.24600
H  -4.18500 28.60400 19.88000
H  -1.38900 30.59300 26.23100
H  -0.05600 29.64200 26.92800
H  -1.06100 30.82800 27.92800
H  -4.00300 28.24500 31.22600
H  -1.04900 27.53400 34.41900
H  -0.72800 26.08400 33.57100
H  -2.14300 26.19700 34.75400

