158

Mg 24.91300 1.46700 29.62300
C  27.22500 1.09500 32.29100
C  22.49800 2.00500 32.01300
C  22.80200 1.72600 27.08700
C  27.47900 0.45600 27.41500
N  24.83100 1.57800 31.85600
C  25.91400 1.46800 32.72600
C  25.50000 1.66300 34.25500
C  23.96800 1.73200 34.10300
C  23.69700 1.73900 32.62600
C  23.13200 0.63400 34.88000
C  26.17700 2.94700 34.82100
C  26.86300 2.82000 36.19000
H  26.60400 3.89600 37.29700
N  22.91300 1.80400 29.55700
C  22.03900 1.93100 30.67100
C  20.71800 2.04500 30.08200
C  20.81700 1.93200 28.62800
C  22.23500 1.79900 28.38300
C  19.48800 2.34800 30.95500
C  19.68300 2.08900 27.54800
O  19.86300 1.88500 26.35900
C  18.33500 2.31800 28.09300
N  25.03000 1.01300 27.53300
C  24.06000 1.30600 26.68300
C  24.58200 1.24800 25.18600
C  26.12100 0.97600 25.31600
C  26.22800 0.79100 26.84500
C  23.75700 0.13200 24.38000
C  26.91900 2.19000 24.91900
C  28.38900 1.98300 24.65000
N  26.87500 0.88700 29.72400
C  27.75500 0.47300 28.77900
C  29.04900 0.22300 29.37600
C  28.85800 0.42200 30.77000
C  27.53100 0.84300 30.94600
C  30.30600 -0.21700 28.60000
C  29.57300 0.47000 32.07400
O  30.73400 0.27600 32.36800
C  28.52000 1.00000 33.12700
C  28.52400 0.31300 34.39500
O  27.87400 -0.73100 34.61600
O  29.29100 0.88500 35.31100
C  29.25200 0.19400 36.66600
H  21.63700 2.11600 32.67600
H  22.14000 1.78000 26.22000
H  28.34800 0.16100 26.82400
H  25.81900 0.78400 34.81400
H  23.51200 2.67700 34.39700
H  22.34000 0.19200 34.27600
H  22.60800 1.04900 35.74100
H  23.84800 -0.15800 35.09600
H  25.57500 3.85200 34.89900
H  26.98100 3.09300 34.10000
H  27.94800 2.81100 36.08700
H  26.58700 1.83100 36.55400
H  19.90100 2.54200 31.94500
H  18.87400 1.45200 30.86600
H  18.99300 3.27200 30.65700
H  18.40600 3.27000 28.61800
H  18.16900 1.44400 28.72300
H  17.59200 2.34000 27.29500
H  24.39700 2.23100 24.75400
H  26.52700 0.05200 24.90600
H  23.41200 0.52800 23.42500
H  22.82900 -0.19700 24.84600
H  24.35400 -0.75100 24.15400
H  26.95700 2.99800 25.65000
H  26.44100 2.51800 23.99600
H  28.90900 2.48100 25.46900
H  28.73900 2.48000 23.74500
H  28.53500 0.90800 24.55000
H  31.17600 -0.41700 29.22600
H  30.53500 0.43300 27.75600
H  30.09100 -1.19200 28.16200
H  28.88400 2.00000 33.36500
H  30.20300 -0.26700 36.93400
H  28.48500 -0.54500 36.89900
H  29.00400 0.83800 37.51000
Mg 7.09400 53.74100 41.29200
C  6.27400 50.31700 40.66900
C  10.24700 53.08500 39.82800
C  7.68600 57.12900 41.05000
C  3.74000 54.25300 41.87800
N  8.16300 51.87400 40.50900
C  7.61600 50.62500 40.27500
C  8.58300 49.78800 39.47400
C  9.95300 50.53400 39.71900
C  9.44100 51.93200 40.10100
C  10.96000 49.97700 40.74600
C  8.13900 49.63500 37.96500
C  8.36100 48.31200 37.31900
H  7.44400 47.95100 36.22900
N  8.68700 54.93000 40.59900
C  9.91000 54.43600 40.09400
C  10.82500 55.56200 40.04100
C  10.16400 56.74700 40.45800
C  8.79500 56.31900 40.78000
C  12.29700 55.39300 39.67800
C  10.84900 58.11200 40.68400
O  12.09400 58.09500 40.62200
C  10.16600 59.42900 41.04000
N  5.85400 55.35800 41.20700
C  6.34800 56.70800 41.15900
C  5.22000 57.75200 41.34900
C  4.03200 56.78500 41.75400
C  4.53300 55.35400 41.56900
C  5.41700 58.86600 42.37700
C  2.74400 57.10100 40.90400
C  2.81800 56.78400 39.38700
N  5.38100 52.48900 41.52500
C  4.11000 52.85700 41.74900
C  3.33000 51.75600 42.14100
C  4.11300 50.66500 41.72100
C  5.32600 51.23900 41.25300
C  1.86300 51.87600 42.54700
C  4.16800 49.26400 41.49800
O  3.44700 48.30100 41.74500
C  5.59400 48.98600 40.84700
C  5.28700 48.20000 39.61300
O  4.96700 48.73200 38.55000
O  5.33700 46.84200 39.74700
C  4.80400 45.95700 38.67600
H  11.26800 52.83800 39.52900
H  7.85100 58.20200 40.92900
H  2.72300 54.42400 42.23800
H  8.65200 48.80100 39.93200
H  10.44800 50.59000 38.74900
H  11.88700 49.99100 40.17300
H  10.67600 48.97800 41.07500
H  11.07300 50.72100 41.53400
H  8.76700 50.34800 37.43000
H  7.10900 49.97600 37.86400
H  8.30100 47.56800 38.11400
H  9.37700 48.38100 36.93000
H  12.52800 54.40000 39.29300
H  13.00500 55.45300 40.50500
H  12.54200 56.16400 38.94800
H  9.37300 59.28200 41.77300
H  9.67300 59.90400 40.19100
H  10.88000 60.11800 41.49200
H  5.02900 58.11800 40.34100
H  3.71400 56.83400 42.79500
H  6.03700 58.54400 43.21400
H  4.46000 59.32300 42.62800
H  6.14100 59.57600 41.97700
H  2.62700 58.18500 40.93200
H  1.82900 56.77800 41.40000
H  2.08300 56.03700 39.08800
H  3.79000 56.46000 39.01400
H  2.57200 57.71500 38.87500
H  1.43900 52.57300 41.82500
H  1.61300 52.25200 43.53900
H  1.40200 50.88900 42.57900
H  6.14300 48.34000 41.53200
H  4.06200 45.19300 38.90800
H  5.50200 45.34100 38.10900
H  4.29300 46.63500 37.99300

