158

Mg 24.59000 -4.27800 45.64900
C  26.63000 -1.94900 44.26900
C  21.99500 -3.26100 43.70100
C  22.83600 -6.82100 46.95600
C  27.41800 -5.39500 47.63500
N  24.31700 -2.74700 44.16600
C  25.34800 -2.01800 43.65800
C  24.80500 -1.24400 42.38300
C  23.22900 -1.35800 42.59100
C  23.14800 -2.47400 43.58300
C  22.51700 -0.13500 43.07000
C  25.26100 -1.92000 41.04900
C  25.90200 -0.90800 40.07700
H  25.51900 -0.95500 38.55200
N  22.68000 -5.02600 45.35100
C  21.72800 -4.40600 44.51100
C  20.53800 -5.16700 44.55500
C  20.71300 -6.20800 45.60300
C  22.12600 -6.03900 46.02200
C  19.37800 -4.82200 43.68500
C  19.63800 -7.25700 46.08900
O  18.56000 -7.24700 45.54800
C  19.86800 -8.20000 47.27800
N  24.98200 -5.86400 47.19800
C  24.11100 -6.82200 47.46700
C  24.66500 -7.93400 48.38100
C  26.05600 -7.33500 48.80900
C  26.19000 -6.07000 47.85700
C  23.80300 -8.41900 49.55300
C  27.13800 -8.45500 48.66000
C  28.32200 -8.42000 49.61100
N  26.57000 -3.72200 45.99700
C  27.55200 -4.22300 46.85600
C  28.69900 -3.41000 46.71800
C  28.41500 -2.50000 45.69500
C  27.09900 -2.77900 45.29100
C  30.01300 -3.62700 47.43900
C  28.93700 -1.35700 44.94900
O  30.03000 -0.81300 44.96500
C  27.73700 -0.93500 43.91400
C  27.30800 0.53400 44.01600
O  26.32600 0.97700 44.54600
O  28.21800 1.26400 43.33000
C  28.30000 2.63900 43.75100
H  21.20600 -2.92200 43.02600
H  22.25700 -7.71200 47.20800
H  28.28700 -5.71900 48.21200
H  25.14000 -0.20700 42.41800
H  22.66800 -1.63300 41.69800
H  22.76900 0.74300 42.47400
H  22.89600 0.14600 44.05200
H  21.43700 -0.28500 43.06900
H  24.44100 -2.36500 40.48500
H  25.93800 -2.76700 41.16400
H  26.98600 -1.01800 40.05000
H  25.80400 0.13600 40.37400
H  19.30300 -5.31000 42.71300
H  19.31500 -3.73400 43.71300
H  18.46100 -5.12700 44.18900
H  20.37400 -7.64000 48.06400
H  20.57100 -8.95600 46.92700
H  18.93500 -8.73800 47.44200
H  24.65000 -8.76100 47.67200
H  26.22800 -7.08500 49.85600
H  24.31500 -8.29600 50.50800
H  23.72300 -9.50200 49.46100
H  22.84100 -7.90800 49.57700
H  27.36600 -8.40600 47.59500
H  26.80300 -9.46600 48.89400
H  28.19300 -8.87300 50.59500
H  28.60500 -7.37200 49.70600
H  29.20800 -8.82500 49.12100
H  30.14400 -4.70500 47.53300
H  29.98500 -3.15100 48.41900
H  30.82700 -3.19800 46.85400
H  28.15200 -1.06800 42.91500
H  29.32500 2.99400 43.86200
H  27.79100 2.85300 44.69100
H  27.91600 3.21100 42.90700
Mg 25.67200 1.31200 29.02800
C  27.52100 1.06700 32.04900
C  22.77900 1.35300 30.88800
C  24.03500 1.57700 26.12900
C  28.68400 0.71400 27.28000
N  25.26500 1.29600 31.16100
C  26.13800 1.24700 32.20400
C  25.46400 1.44800 33.60300
C  24.00500 1.22700 33.15800
C  23.96000 1.25600 31.64000
C  23.59800 -0.29500 33.53400
C  25.82700 2.84500 34.16600
C  26.44100 2.97300 35.62500
H  26.07700 4.09800 36.56200
N  23.63200 1.56800 28.57800
C  22.53900 1.57400 29.48100
C  21.34700 1.65700 28.77300
C  21.73600 1.74500 27.40300
C  23.20800 1.67700 27.30500
C  19.98600 1.47500 29.38800
C  20.81100 1.73900 26.12400
O  21.16000 1.54300 24.95400
C  19.27500 1.79400 26.36900
N  26.32100 1.19100 26.96200
C  25.42300 1.31500 25.92800
C  26.07700 1.05400 24.55200
C  27.63600 1.07800 24.98100
C  27.58000 0.87900 26.51100
C  25.53900 -0.25400 23.84100
C  28.42100 2.33500 24.51700
C  28.15600 3.68000 25.25700
N  27.66600 0.98700 29.50400
C  28.70900 0.64700 28.67700
C  29.83900 0.47000 29.53200
C  29.47900 0.72100 30.82900
C  28.09800 0.94000 30.75600
C  31.20500 0.08000 29.09400
C  29.98700 0.90300 32.20800
O  31.14200 0.92300 32.70100
C  28.69000 1.09500 33.02200
C  28.63000 0.05800 34.07700
O  28.17400 -1.06600 33.97300
O  29.21900 0.57500 35.20700
C  29.08500 -0.17200 36.48400
H  21.83400 1.28000 31.43000
H  23.43000 1.70400 25.22800
H  29.72800 0.69000 26.96200
H  25.95900 0.77500 34.30300
H  23.25400 1.86400 33.62400
H  23.21900 -0.38900 34.55200
H  24.31500 -1.03400 33.17700
H  22.68300 -0.48800 32.97200
H  24.85900 3.33800 34.26100
H  26.40900 3.34700 33.39300
H  27.51400 3.14700 35.53900
H  26.39400 2.05400 36.20900
H  19.33500 2.25600 28.99400
H  19.87200 1.52800 30.47000
H  19.59800 0.50600 29.07200
H  18.90600 0.82400 26.70100
H  18.78400 2.00000 25.41800
H  18.92500 2.63900 26.96200
H  25.74800 1.84100 23.87300
H  28.15500 0.22300 24.54700
H  24.45400 -0.18100 23.90200
H  25.92200 -1.14400 24.34000
H  25.91700 -0.23800 22.81800
H  27.99300 2.41200 23.51700
H  29.48800 2.18600 24.35500
H  29.15000 4.10400 25.40100
H  27.62900 3.50300 26.19400
H  27.40000 4.30100 24.77600
H  31.82400 0.19000 29.98500
H  31.58400 0.72000 28.29700
H  31.20800 -0.98900 28.88000
H  28.66700 2.05200 33.54300
H  29.36400 -1.22400 36.41500
H  28.07800 -0.19400 36.90000
H  29.82800 0.27600 37.14300

