158

Mg 17.08800 -1.49300 28.95700
C  15.78500 0.73900 31.46600
C  19.32200 -2.68400 31.33900
C  18.47200 -3.19100 26.58200
C  15.07700 0.34200 26.55400
N  17.55300 -1.02400 31.11100
C  16.81900 -0.22900 31.89800
C  17.22300 -0.40000 33.39300
C  18.66100 -1.06500 33.22300
C  18.55500 -1.66100 31.80200
C  19.85400 -0.17400 33.42100
C  16.24100 -1.38800 34.13000
C  16.23600 -1.26900 35.76100
H  17.54100 -0.79200 36.41300
N  18.61500 -2.86900 28.98000
C  19.39500 -3.23700 30.03400
C  20.32400 -4.26700 29.57600
C  20.06300 -4.43800 28.14500
C  18.98000 -3.51900 27.84600
C  21.30900 -4.96100 30.53200
C  20.61900 -5.41400 27.15300
O  20.29600 -5.45100 25.99300
C  21.59300 -6.54400 27.63100
N  16.90400 -1.43000 26.93100
C  17.58600 -2.23500 26.12700
C  17.16500 -2.22800 24.66200
C  16.09000 -1.11800 24.68700
C  16.00100 -0.67500 26.15900
C  18.34900 -2.01400 23.66100
C  14.65300 -1.48100 24.11900
C  13.93100 -0.40100 23.23500
N  15.74000 0.27600 28.96300
C  15.06900 0.84100 27.92000
C  14.33900 2.02300 28.43700
C  14.42500 1.90000 29.86200
C  15.38100 0.86200 30.07200
C  13.51700 3.00700 27.58800
C  14.08500 2.44100 31.08500
O  13.16400 3.18400 31.36900
C  14.91900 1.76800 32.26300
C  15.65100 2.86800 32.99100
O  16.26600 3.77700 32.49700
O  15.32800 2.65800 34.30700
C  16.10800 3.51000 35.18800
H  19.94700 -3.13600 32.11200
H  18.78100 -3.76700 25.70700
H  14.54000 0.87100 25.76300
H  17.22300 0.58000 33.86900
H  18.84300 -1.93900 33.84800
H  20.60700 -0.18200 32.63200
H  20.28300 -0.58200 34.33700
H  19.48900 0.84800 33.52100
H  16.66100 -2.35500 33.85100
H  15.26900 -1.21000 33.67100
H  16.02600 -2.28800 36.08600
H  15.42700 -0.56400 35.94900
H  22.28000 -4.46600 30.51300
H  21.52900 -5.95100 30.13500
H  20.91900 -5.16500 31.52900
H  22.41500 -6.01600 28.11500
H  21.94200 -7.12000 26.77500
H  21.04200 -7.26700 28.23300
H  16.80600 -3.23800 24.46100
H  16.48800 -0.33200 24.04500
H  18.41800 -2.74400 22.85400
H  19.35600 -2.04900 24.07700
H  18.26700 -1.11500 23.05100
H  14.07200 -1.74500 25.00200
H  14.79600 -2.38100 23.52200
H  13.00900 -0.21800 23.78700
H  13.77000 -0.61800 22.17900
H  14.48800 0.53100 23.14500
H  12.54100 2.54800 27.42400
H  13.94700 3.12600 26.59300
H  13.34900 3.89200 28.20100
H  14.15900 1.31800 32.90200
H  15.55200 4.40800 35.45700
H  17.06500 3.78000 34.74100
H  16.27600 2.96900 36.11900
Mg 35.18100 2.72700 30.27200
C  33.01200 3.93200 32.74300
C  37.78600 2.85900 32.37200
C  37.22700 1.47200 27.77800
C  32.70700 3.28600 27.92000
N  35.38900 3.29900 32.36100
C  34.28700 3.64400 33.20100
C  34.82900 3.75700 34.68300
C  36.36800 3.81700 34.44600
C  36.58100 3.27900 32.99500
C  37.00100 5.22400 34.76900
C  34.33400 2.48800 35.44200
C  33.68500 2.71700 36.79700
H  34.23900 3.85700 37.63900
N  37.15900 2.17600 30.15000
C  38.08800 2.42400 31.13300
C  39.35000 2.08400 30.69600
C  39.25000 1.58700 29.39500
C  37.86100 1.74400 29.00400
C  40.63100 2.00400 31.66700
C  40.29800 1.00300 28.46100
O  39.96300 0.64200 27.29400
C  41.71500 0.90500 28.81500
N  34.96600 2.37600 28.18100
C  35.88900 1.70200 27.41200
C  35.50100 1.79400 25.91700
C  33.97000 2.18900 25.98600
C  33.92700 2.77500 27.45500
C  36.41300 2.83500 25.22000
C  33.06800 0.96800 25.69800
C  32.73600 0.85100 24.25400
N  33.23800 3.44200 30.25800
C  32.34000 3.59700 29.23100
C  31.07200 4.04500 29.78300
C  31.26300 4.27000 31.12400
C  32.58000 3.83600 31.41400
C  29.76000 4.41500 29.00100
C  30.73800 4.82100 32.42000
O  29.66300 5.34900 32.72100
C  31.86100 4.45600 33.50900
C  32.12300 5.79900 34.11900
O  32.78600 6.68200 33.61500
O  31.51200 5.88000 35.25700
C  31.51600 7.12200 35.97600
H  38.59200 2.86200 33.10800
H  37.80400 1.26100 26.87500
H  32.00100 3.52300 27.12200
H  34.29600 4.58600 35.14900
H  36.91800 3.11200 35.07000
H  36.22300 5.89000 35.14200
H  37.68000 5.48900 33.95800
H  37.73600 5.08400 35.56200
H  35.17100 1.79100 35.47100
H  33.51400 1.98100 34.93300
H  33.79900 1.72900 37.24200
H  32.63500 2.98500 36.68800
H  40.49100 2.32400 32.70000
H  41.50900 2.58000 31.37200
H  40.89300 0.94900 31.59100
H  42.08300 1.90100 29.06200
H  42.34400 0.56500 27.99300
H  41.95900 0.19300 29.60300
H  35.62300 0.78400 25.52400
H  33.80000 2.99500 25.27100
H  35.84000 3.49200 24.56600
H  37.00600 2.19300 24.56900
H  36.98200 3.46300 25.90600
H  32.26700 1.03000 26.43500
H  33.46200 0.02300 26.07100
H  31.71000 1.13600 24.02300
H  32.91800 -0.17300 23.92900
H  33.39400 1.46300 23.63700
H  29.07700 5.07800 29.53200
H  29.34500 3.42300 28.82600
H  30.02800 4.81000 28.02100
H  31.37400 3.67200 34.08900
H  30.63200 7.73800 35.81300
H  32.40700 7.70700 35.75300
H  31.51300 6.88400 37.04000

