158

Mg 47.23700 16.84200 27.51600
C  45.55800 16.45000 30.55800
C  49.69000 18.70400 29.36600
C  48.57900 17.77000 24.69400
C  44.47700 15.43900 25.83500
N  47.50900 17.59500 29.67400
C  46.73700 17.15600 30.77400
C  47.42500 17.57800 32.12000
C  48.69000 18.38300 31.67800
C  48.63300 18.21600 30.11900
C  48.68300 19.84100 32.19700
C  47.79800 16.23400 32.97800
C  47.66000 16.39200 34.54700
H  47.56200 17.83400 35.07600
N  48.91000 18.02100 27.07800
C  49.78800 18.66600 27.96600
C  50.93100 19.06300 27.15500
C  50.65700 18.81600 25.78700
C  49.35800 18.16900 25.77700
C  52.19700 19.61600 27.69200
C  51.37000 19.14800 24.46200
O  50.92900 18.94800 23.31900
C  52.89300 19.71500 24.52800
N  46.51800 16.84300 25.61300
C  47.35000 17.21300 24.60500
C  46.75700 16.99700 23.18700
C  45.47300 16.18500 23.52800
C  45.45400 16.11000 25.09500
C  46.44500 18.33400 22.40000
C  45.38400 14.77200 22.84200
C  43.97700 14.51900 22.33300
N  45.34700 16.02500 28.05100
C  44.41400 15.40500 27.26700
C  43.33000 14.94500 28.03100
C  43.71600 15.27700 29.38900
C  44.99000 15.94700 29.33300
C  42.08700 14.20700 27.53400
C  43.33200 15.20900 30.74800
O  42.35100 14.78200 31.30000
C  44.42900 15.94100 31.58100
C  43.72600 16.99600 32.32300
O  42.92200 17.80500 31.85000
O  44.14200 16.96700 33.69700
C  43.57100 17.88800 34.61600
H  50.50300 19.16700 29.92900
H  48.91700 17.91500 23.66500
H  43.63800 15.00500 25.28600
H  46.73900 18.20300 32.69100
H  49.62200 17.87300 31.92500
H  48.73200 20.62900 31.44600
H  49.52300 19.98900 32.87600
H  47.77100 20.11000 32.72900
H  48.79200 15.87800 32.70400
H  47.17800 15.40000 32.65200
H  48.59500 15.98200 34.92900
H  46.80900 15.78500 34.85700
H  52.35500 20.54900 27.15000
H  53.06000 19.00200 27.43600
H  52.14400 19.84500 28.75700
H  52.99200 20.61900 25.12800
H  53.32300 19.92000 23.54800
H  53.58900 18.97600 24.92400
H  47.41800 16.33000 22.63400
H  44.61100 16.78500 23.23700
H  45.38800 18.60000 22.37500
H  46.80800 18.22300 21.37900
H  46.94200 19.08000 23.02000
H  45.70200 14.06500 23.60800
H  46.05500 14.55900 22.01000
H  44.05300 14.01200 21.37100
H  43.39300 15.42700 22.18800
H  43.42900 13.82300 22.96900
H  42.24700 13.14100 27.70000
H  41.82100 14.41700 26.49800
H  41.18100 14.37500 28.11500
H  44.85700 15.13900 32.18200
H  43.94100 17.54200 35.58100
H  42.49400 17.97100 34.47000
H  43.99000 18.87300 34.40900
Mg 0.27000 42.23300 25.12300
C  2.00700 42.47300 28.16100
C  -2.55200 41.30700 27.07700
C  -1.50200 41.87300 22.42800
C  3.19100 42.67600 23.43500
N  -0.17600 41.83100 27.34100
C  0.64200 42.21200 28.38200
C  -0.08900 42.11800 29.72700
C  -1.42600 41.51600 29.33300
C  -1.41000 41.58200 27.81200
C  -1.72900 40.05100 29.92300
C  -0.14700 43.60300 30.40100
C  0.42600 43.68500 31.85800
H  -0.68100 44.04500 32.87800
N  -1.76500 41.65000 24.72500
C  -2.69800 41.22000 25.68600
C  -3.91100 40.96100 24.98300
C  -3.65000 41.12400 23.62500
C  -2.27600 41.58200 23.53800
C  -5.13800 40.49200 25.62900
C  -4.50400 40.88400 22.41300
O  -4.16500 40.94500 21.24100
C  -5.99100 40.56200 22.66000
N  0.90700 41.94800 23.16700
C  -0.09700 41.93900 22.23200
C  0.54100 42.11300 20.77200
C  2.04000 42.40300 21.07600
C  2.06400 42.44000 22.65000
C  0.15300 40.93500 19.73300
C  2.57200 43.56700 20.24600
C  2.32800 44.99400 20.74800
N  2.25800 42.42200 25.66200
C  3.33200 42.68100 24.81800
C  4.51100 42.84500 25.69700
C  4.03500 42.70900 27.00600
C  2.61900 42.48200 26.93000
C  5.87600 43.23800 25.24800
C  4.46900 42.75500 28.37000
O  5.59100 42.79500 28.80400
C  3.10800 42.60100 29.19400
C  3.28000 41.49900 30.18700
O  3.18600 40.25800 30.08000
O  3.52300 42.08700 31.39500
C  3.51700 41.21100 32.59000
H  -3.50100 41.10300 27.57600
H  -2.01100 41.91300 21.46300
H  4.17700 42.82600 22.99000
H  0.37700 41.40700 30.40900
H  -2.28600 42.12200 29.61900
H  -0.90000 39.75300 30.56500
H  -1.76800 39.24400 29.19000
H  -2.65200 39.94400 30.49300
H  -1.18400 43.92600 30.49600
H  0.45900 44.34000 29.87500
H  1.24400 44.39100 32.00100
H  0.84000 42.70900 32.11200
H  -5.53800 39.60400 25.13900
H  -5.75300 41.39200 25.63400
H  -4.97200 40.20500 26.66800
H  -6.21000 39.61700 23.15600
H  -6.54400 40.52500 21.72100
H  -6.42500 41.27000 23.36500
H  0.17500 43.03400 20.31900
H  2.67500 41.53700 20.89000
H  -0.79100 40.58800 20.15300
H  0.86600 40.11000 19.71400
H  0.08900 41.33500 18.72100
H  2.17800 43.49200 19.23200
H  3.63900 43.35200 20.20500
H  1.53500 45.07200 21.49100
H  2.12700 45.60600 19.86800
H  3.17000 45.33900 21.34900
H  5.67900 44.16000 24.70100
H  6.25900 42.48200 24.56300
H  6.64500 43.38900 26.00500
H  2.98900 43.56200 29.69600
H  4.54500 40.87200 32.71800
H  2.80200 40.39100 32.51600
H  3.18400 41.76200 33.47000

