158

Mg -11.62200 37.46800 42.38300
C  -9.70800 34.74000 40.93800
C  -9.13800 39.50200 41.15100
C  -13.69800 39.98100 42.88500
C  -14.14700 35.11600 43.19000
N  -9.67400 37.17200 41.16600
C  -9.09400 35.99600 40.70900
C  -7.79300 36.21200 39.98000
C  -7.51700 37.68000 40.49100
C  -8.86200 38.19100 40.97400
C  -6.40200 37.75700 41.59300
C  -8.02600 36.03100 38.40800
C  -7.03900 35.18000 37.63600
H  -5.90200 35.82500 36.81800
N  -11.46100 39.56200 42.11700
C  -10.32500 40.23100 41.62000
C  -10.58100 41.60500 41.60900
C  -11.88500 41.84900 42.17800
C  -12.44200 40.44000 42.36900
C  -9.60800 42.69400 41.22100
C  -12.53000 43.12900 42.49100
O  -11.98900 44.15700 42.12500
C  -13.80900 43.27700 43.26800
N  -13.68400 37.52100 42.75200
C  -14.26600 38.68700 43.07700
C  -15.71700 38.47000 43.41000
C  -15.85600 36.93100 43.51600
C  -14.54000 36.48400 43.08200
C  -16.12300 39.18500 44.74900
C  -17.13100 36.42700 42.82200
C  -17.07900 36.35900 41.31400
N  -11.83100 35.37000 42.24800
C  -12.91000 34.62700 42.65600
C  -12.65900 33.24100 42.34000
C  -11.40300 33.26100 41.66100
C  -10.93800 34.52900 41.66200
C  -13.58500 32.01200 42.44400
C  -10.41600 32.39800 41.05100
O  -10.42100 31.18900 40.86500
C  -9.31500 33.36500 40.42700
C  -8.04800 32.77300 40.86400
O  -7.10800 32.61300 40.09800
O  -8.10000 32.32600 42.18800
C  -6.78800 32.39600 42.91300
H  -8.35300 40.18200 40.81300
H  -14.27200 40.83700 43.24600
H  -14.89300 34.32900 43.31500
H  -7.17100 35.43600 40.42500
H  -7.14500 38.25100 39.64100
H  -5.88800 36.80200 41.69800
H  -6.70300 38.22900 42.52800
H  -5.57100 38.32100 41.16900
H  -7.96000 36.96700 37.85300
H  -8.99900 35.56000 38.26700
H  -7.64800 34.49900 37.04100
H  -6.59300 34.47900 38.34100
H  -9.24600 43.23200 42.09700
H  -10.09600 43.36700 40.51700
H  -8.72600 42.28100 40.73000
H  -14.03600 44.29600 43.58400
H  -13.71900 42.61900 44.13200
H  -14.63200 42.92800 42.64500
H  -16.21700 38.77500 42.49000
H  -15.91800 36.53200 44.52800
H  -16.27800 40.25200 44.58600
H  -15.38000 39.23400 45.54400
H  -16.92800 38.61100 45.20800
H  -18.02200 36.95800 43.15800
H  -17.25000 35.38000 43.10300
H  -17.43000 35.36000 41.05400
H  -16.09500 36.50700 40.86900
H  -17.71900 37.14700 40.91700
H  -13.17400 31.08600 42.04100
H  -14.45000 32.32700 41.86100
H  -13.77400 31.58900 43.43100
H  -9.31600 33.29900 39.33900
H  -6.24800 31.46300 43.07500
H  -7.03100 32.65900 43.94200
H  -6.13400 33.14200 42.46100
Mg -5.22900 24.40500 25.32400
C  -4.02400 25.66500 28.35100
C  -7.57900 22.46400 27.20000
C  -6.46700 23.05300 22.41900
C  -2.86600 26.22600 23.63200
N  -5.72800 24.08600 27.55100
C  -5.08300 24.73500 28.58900
C  -5.66200 24.41900 29.96400
C  -6.51000 23.12800 29.57800
C  -6.62000 23.14800 27.98100
C  -6.04600 21.76500 30.21700
C  -6.51300 25.55600 30.56500
C  -6.60000 25.70700 32.07100
H  -6.34700 24.38500 32.81000
N  -6.81900 22.91000 24.89800
C  -7.72200 22.35800 25.75300
C  -8.63900 21.50100 25.01900
C  -8.24800 21.64500 23.68500
C  -7.03500 22.54400 23.68100
C  -9.54700 20.58500 25.66200
C  -8.80400 20.89600 22.45400
O  -8.35700 21.04500 21.36900
C  -9.96400 19.86000 22.73100
N  -4.76600 24.66600 23.33500
C  -5.46700 24.02500 22.26400
C  -4.83400 24.42300 20.87300
C  -3.59400 25.28300 21.35500
C  -3.71200 25.42000 22.87300
C  -4.52100 23.23900 19.88300
C  -3.50900 26.63000 20.68700
C  -2.27900 26.92100 19.80900
N  -3.67200 25.64100 25.85500
C  -2.85100 26.41200 25.10100
C  -2.12100 27.35300 25.88800
C  -2.49100 27.00400 27.20500
C  -3.49800 26.04100 27.11700
C  -1.05000 28.24100 25.42900
C  -2.25900 27.32700 28.58100
O  -1.45800 28.07700 29.15900
C  -3.33000 26.52300 29.34100
C  -2.58200 25.76700 30.33600
O  -1.92700 24.77400 30.10100
O  -2.80700 26.39700 31.57800
C  -2.27300 25.74200 32.76100
H  -8.17300 21.77000 27.79900
H  -6.86500 22.59600 21.51100
H  -2.07500 26.71800 23.06200
H  -4.78200 24.07200 30.50600
H  -7.55000 23.28900 29.86500
H  -6.43300 20.96000 29.59200
H  -6.44100 21.76800 31.23300
H  -4.96100 21.69200 30.14600
H  -7.52800 25.50800 30.16900
H  -6.14700 26.49100 30.14200
H  -7.54400 26.20400 32.29500
H  -5.68800 26.26000 32.29300
H  -10.55700 20.85000 25.34900
H  -9.55500 20.66800 26.74900
H  -9.17200 19.60200 25.37700
H  -9.50300 18.89600 22.94600
H  -10.38700 19.80000 21.72800
H  -10.79500 20.23500 23.32800
H  -5.62100 25.08000 20.50400
H  -2.71800 24.68300 21.11000
H  -5.30900 22.92300 19.20000
H  -4.54600 22.43500 20.61900
H  -3.55200 23.34400 19.39500
H  -3.56900 27.35800 21.49600
H  -4.39500 26.85800 20.09400
H  -1.54700 26.13700 20.00300
H  -1.77800 27.87400 19.98200
H  -2.65800 26.74400 18.80300
H  -0.40000 27.81100 24.66700
H  -0.44900 28.50500 26.30000
H  -1.38200 29.23700 25.13700
H  -4.02200 27.17300 29.87700
H  -3.13300 25.43200 33.35500
H  -1.62300 26.39700 33.34200
H  -1.76300 24.82300 32.47400

