158

Mg 47.43300 44.48200 42.87000
C  44.09900 43.38900 42.53300
C  48.41300 41.25500 42.44100
C  50.72500 45.55100 42.38900
C  46.41300 47.75400 42.78700
N  46.40100 42.56800 42.45000
C  45.04200 42.32800 42.50100
C  44.78900 40.77200 42.41700
C  46.15600 40.21800 42.70600
C  47.07700 41.44100 42.57600
C  46.25100 39.46000 44.04000
C  44.04900 40.29800 41.14400
C  44.11600 41.21100 39.82400
H  44.20700 40.54200 38.45300
N  49.26000 43.47000 42.64100
C  49.49600 42.13300 42.55800
C  50.91100 41.86300 42.44600
C  51.59300 43.07500 42.42300
C  50.54000 44.18200 42.47000
C  51.46900 40.50700 42.11200
C  53.11900 43.22700 42.28000
O  53.81600 42.24800 42.03200
C  53.92000 44.49500 42.50100
N  48.34100 46.44900 42.22900
C  49.75000 46.53800 42.31800
C  50.02900 48.07700 42.47000
C  48.68100 48.77800 42.62000
C  47.73500 47.60200 42.54600
C  51.22300 48.57900 43.38200
C  48.29400 49.96000 41.66800
C  47.81700 51.23800 42.30400
N  45.64900 45.42200 42.65900
C  45.33400 46.75600 42.72000
C  43.88900 46.90100 42.80900
C  43.36400 45.61600 42.60100
C  44.48900 44.75300 42.55700
C  43.17800 48.20700 43.11200
C  42.12900 44.86000 42.41800
O  40.96500 45.24200 42.35500
C  42.55300 43.31400 42.55400
C  42.08400 42.89300 43.92500
O  42.16000 43.59100 44.95500
O  41.68700 41.48500 43.95600
C  41.64700 40.94500 45.35700
H  48.65400 40.19200 42.50200
H  51.73300 45.96700 42.45000
H  46.11400 48.77800 43.01700
H  44.14700 40.71400 43.29600
H  46.49600 39.63600 41.84900
H  45.41200 38.80400 44.27100
H  46.66800 40.10000 44.81700
H  47.01700 38.75300 43.72000
H  43.01300 40.33000 41.48100
H  44.25500 39.24500 40.95200
H  45.05600 41.75800 39.89100
H  43.34500 41.97100 39.95100
H  52.20100 40.50700 41.30400
H  50.73300 39.71400 41.98100
H  51.99600 40.26300 43.03400
H  53.74000 45.09000 41.60500
H  54.97200 44.22800 42.60200
H  53.50600 44.84400 43.44700
H  50.33600 48.26200 41.44100
H  48.65300 49.16800 43.63700
H  51.35900 47.75100 44.07700
H  50.94400 49.47500 43.93900
H  52.16500 48.83800 42.89800
H  47.47000 49.59600 41.05400
H  49.12500 50.19700 41.00400
H  48.71900 51.85000 42.32300
H  47.35800 51.02100 43.26900
H  47.02900 51.77200 41.77300
H  43.69900 48.76300 43.89200
H  42.13100 47.92600 43.23200
H  43.28300 48.84700 42.23600
H  42.07000 42.65700 41.83100
H  40.65400 40.54000 45.55400
H  42.19500 41.51500 46.10800
H  42.25700 40.04800 45.25300
Mg 16.70800 52.13900 24.65100
C  18.15900 50.81300 27.60600
C  13.99000 53.02500 26.62900
C  15.22200 52.98400 21.82400
C  19.48400 50.96700 22.94900
N  16.08000 51.87300 26.91300
C  16.93800 51.47500 27.91100
C  16.49400 52.00600 29.27500
C  15.03100 52.49900 28.89800
C  15.04900 52.54500 27.38000
C  13.88100 51.70800 29.60300
C  17.40300 53.14800 29.82900
C  17.75100 53.04100 31.34500
H  16.79100 52.36700 32.29900
N  14.82800 52.96500 24.23000
C  13.85000 53.27800 25.15800
C  12.74500 53.83900 24.48000
C  13.08900 53.93800 23.06900
C  14.43700 53.30300 22.97100
C  11.45000 54.22500 25.18100
C  12.39300 54.60900 21.87900
O  12.86600 54.66700 20.73400
C  11.14100 55.37500 22.15100
N  17.30900 52.14200 22.69700
C  16.47700 52.47300 21.69100
C  17.04400 51.88100 20.35400
C  18.61600 51.73100 20.76100
C  18.50200 51.61000 22.23900
C  16.46300 50.61400 19.88100
C  19.50200 52.86500 20.29000
C  20.37600 52.38100 19.11900
N  18.49200 51.19400 25.13700
C  19.39500 50.60800 24.28200
C  20.41900 49.89500 25.08500
C  19.92200 49.95400 26.37400
C  18.72200 50.70200 26.34000
C  21.66700 49.20300 24.58100
C  20.24400 49.54000 27.68200
O  21.13900 48.88700 28.21500
C  19.12900 50.16600 28.60200
C  18.53000 49.19600 29.44000
O  17.71000 48.39300 29.05900
O  19.05400 49.29800 30.63500
C  18.79200 48.15500 31.55100
H  13.20400 53.27600 27.34400
H  14.61300 52.93100 20.91900
H  20.32400 50.70200 22.30300
H  16.41300 51.12900 29.91700
H  14.84100 53.52900 29.20000
H  13.37500 52.41300 30.26200
H  14.24000 50.82600 30.13400
H  13.31300 51.24400 28.79600
H  16.95600 54.11800 29.61000
H  18.29400 53.05200 29.20900
H  17.73400 54.06400 31.72200
H  18.77400 52.68200 31.45700
H  11.43300 53.89300 26.21900
H  10.52900 53.84300 24.74100
H  11.29300 55.29700 25.06100
H  11.41600 56.38700 22.45000
H  10.58500 54.93600 22.98000
H  10.55700 55.42300 21.23200
H  16.91900 52.67700 19.62100
H  18.95900 50.73700 20.47200
H  17.12100 50.00400 19.26200
H  15.52800 50.92400 19.41500
H  16.15600 49.89900 20.64400
H  20.09000 53.10800 21.17400
H  18.92300 53.74400 20.00600
H  19.85100 52.57700 18.18400
H  20.62000 51.32100 19.18300
H  21.29200 52.95600 19.25400
H  21.34100 48.29000 24.08100
H  22.33600 48.95500 25.40500
H  22.08800 49.89200 23.84900
H  19.65300 50.88600 29.23100
H  18.97700 47.18800 31.08300
H  17.74600 48.27800 31.83200
H  19.43400 48.30500 32.41900

