158

Mg 31.76100 57.88100 40.22900
C  28.98600 55.82100 39.28900
C  33.76600 55.32800 39.59300
C  34.22900 60.15600 40.39600
C  29.41700 60.54900 40.36800
N  31.40300 55.87600 39.49200
C  30.23200 55.17600 39.39700
C  30.54500 53.70900 38.96300
C  31.97600 53.53700 39.40800
C  32.40700 54.98900 39.46100
C  32.06700 52.84400 40.82100
C  30.21700 53.49200 37.43600
C  29.26100 52.39000 37.18600
H  28.65600 52.19900 35.73700
N  33.80500 57.73600 40.00900
C  34.43500 56.55300 39.73900
C  35.79600 56.83000 39.79200
C  35.95500 58.23500 39.98800
C  34.61200 58.79500 40.08600
C  36.77300 55.71900 39.69900
C  37.36400 58.90700 39.94400
O  38.37800 58.23300 39.97100
C  37.56900 60.33700 39.99900
N  31.86900 60.10800 40.36600
C  32.97300 60.71500 40.60000
C  32.72000 62.20000 41.08000
C  31.22000 62.38700 40.76700
C  30.80700 60.91500 40.40900
C  33.17600 62.39400 42.54400
C  30.84600 63.31400 39.58400
C  30.72800 62.69300 38.16200
N  29.62000 58.19300 40.08300
C  28.88600 59.33200 40.11700
C  27.50400 58.99500 39.74300
C  27.48000 57.62100 39.39200
C  28.81200 57.16300 39.63000
C  26.36600 59.92500 39.65700
C  26.66500 56.50600 38.97600
O  25.47800 56.43700 38.62400
C  27.61500 55.21000 38.99700
C  27.15900 54.34500 40.07400
O  27.73300 54.07600 41.05000
O  25.92000 53.88100 39.87300
C  25.17200 53.09300 40.85200
H  34.35700 54.43000 39.78500
H  35.08200 60.83200 40.47600
H  28.65900 61.33300 40.31700
H  29.84600 53.12000 39.55600
H  32.61100 53.00400 38.70000
H  32.67300 51.94100 40.74400
H  31.09700 52.45500 41.13200
H  32.37900 53.46700 41.66000
H  31.16900 53.27200 36.95300
H  29.82300 54.40400 36.98600
H  28.39400 52.50400 37.83700
H  29.78500 51.52100 37.58400
H  37.09600 55.55200 38.67200
H  36.25700 54.76500 39.81100
H  37.65400 55.69900 40.34100
H  37.37000 60.59700 41.03800
H  36.86800 60.82800 39.32300
H  38.60700 60.43100 39.68000
H  33.20000 62.86000 40.35700
H  30.60500 62.70700 41.60800
H  33.44200 63.44400 42.66000
H  34.01900 61.76700 42.83600
H  32.32800 62.21300 43.20600
H  31.53000 64.15900 39.50500
H  29.82700 63.66100 39.75600
H  29.76000 62.19200 38.15800
H  31.55500 62.00200 37.99600
H  30.66900 63.58400 37.53800
H  26.63000 60.62100 38.86100
H  26.17200 60.39100 40.62300
H  25.48900 59.35700 39.34500
H  27.56600 54.66900 38.05100
H  25.76900 52.20800 41.06800
H  24.16100 52.92700 40.47900
H  24.91200 53.62100 41.76900
Mg 36.76300 49.21400 24.89900
C  37.12900 47.30100 27.88900
C  35.19900 51.54200 26.75100
C  36.32500 50.89100 22.15400
C  37.55300 46.28000 23.06600
N  36.15200 49.37500 27.08600
C  36.52000 48.53800 28.14000
C  36.18800 49.20000 29.47600
C  35.33600 50.43400 29.05600
C  35.51800 50.48100 27.55900
C  33.88000 50.45900 29.57500
C  37.50500 49.51600 30.25200
C  37.45700 49.48600 31.76800
H  36.07800 49.49400 32.50100
N  35.99800 50.99700 24.56300
C  35.52600 51.88600 25.41800
C  35.32400 53.16000 24.78000
C  35.41800 52.95600 23.40700
C  35.90700 51.51900 23.30200
C  34.79900 54.36700 25.49800
C  35.23400 53.89200 22.15400
O  35.29100 53.40100 20.98500
C  34.90000 55.31500 22.30000
N  36.79500 48.65400 22.88700
C  36.78400 49.59000 21.90200
C  37.03200 49.06300 20.57000
C  37.48400 47.57500 20.90800
C  37.26600 47.46000 22.39700
C  35.72800 49.10800 19.67400
C  38.85800 47.32500 20.30800
C  40.01400 47.72100 21.27800
N  37.23900 47.18800 25.29600
C  37.54800 46.09700 24.46000
C  37.89200 44.96700 25.21800
C  37.82600 45.43600 26.60600
C  37.30100 46.72100 26.59100
C  38.41300 43.66100 24.66500
C  37.98000 44.99200 27.94900
O  38.28500 43.87800 28.40300
C  37.58600 46.17900 28.80800
C  36.42200 45.63400 29.60400
O  35.34700 45.26300 29.13800
O  36.73300 45.68700 30.91900
C  35.81000 45.06900 31.87800
H  34.56100 52.22300 27.31900
H  36.18400 51.40800 21.20200
H  37.71000 45.41000 22.42500
H  35.59200 48.47100 30.02500
H  35.70100 51.42300 29.33300
H  33.29000 50.67300 28.68400
H  33.78800 51.31200 30.24800
H  33.69100 49.51700 30.08900
H  37.85000 50.52500 30.02900
H  38.30100 48.80400 30.03300
H  37.97500 50.35100 32.18100
H  38.05800 48.64800 32.12200
H  34.57400 54.22800 26.55600
H  33.78600 54.52700 25.13000
H  35.40900 55.26300 25.37900
H  33.93800 55.31800 22.81200
H  34.92500 55.73300 21.29300
H  35.65900 55.83000 22.88900
H  37.83000 49.65600 20.12300
H  36.83400 46.86000 20.40400
H  34.84300 49.19600 20.30400
H  35.71500 48.28700 18.95700
H  35.77600 49.96100 18.99600
H  39.08600 47.90800 19.41500
H  39.11000 46.30700 20.01000
H  40.17500 46.95400 22.03500
H  39.73700 48.62100 21.82800
H  40.98800 47.76500 20.79200
H  37.88600 43.57000 23.71500
H  38.05600 42.78000 25.19900
H  39.49100 43.56500 24.54100
H  38.44900 46.50300 29.39100
H  35.11900 45.86900 32.14100
H  36.32500 44.61900 32.72700
H  35.15400 44.35300 31.38200

