158

Mg 47.35000 24.83600 29.46100
C  48.09400 27.24200 31.94900
C  46.22300 22.79100 32.05100
C  46.81200 22.56500 27.21800
C  48.90700 26.90900 27.05900
N  47.14500 24.98800 31.69900
C  47.52800 26.07600 32.45200
C  47.18000 25.81900 33.91600
C  47.00200 24.25400 33.95500
C  46.72900 24.01600 32.50800
C  48.19200 23.54800 34.61200
C  46.02200 26.70400 34.46500
C  46.39000 27.58800 35.72200
H  46.52100 26.84900 37.06400
N  46.57600 22.96500 29.65100
C  46.18600 22.28300 30.74100
C  45.68400 20.96000 30.36900
C  45.80300 20.92000 28.92400
C  46.39800 22.19400 28.51600
C  45.01800 19.98800 31.34400
C  45.41200 19.81000 28.02200
O  45.49700 19.89500 26.84700
C  45.13500 18.37700 28.57600
N  47.74300 24.78500 27.42500
C  47.45600 23.70100 26.65200
C  47.72300 23.89700 25.16700
C  48.33100 25.31800 25.12100
C  48.35300 25.71600 26.61200
C  48.66900 22.77300 24.69300
C  47.57500 26.46900 24.25300
C  48.54500 27.06400 23.24100
N  48.28800 26.71900 29.46400
C  48.90600 27.41100 28.41800
C  49.35800 28.71500 28.90500
C  49.10800 28.63200 30.30700
C  48.40400 27.44200 30.58500
C  50.02300 29.79600 28.17200
C  49.22000 29.43200 31.58400
O  49.69400 30.53600 31.74000
C  48.55900 28.51700 32.65500
C  49.73300 28.13600 33.63000
O  50.71000 27.42500 33.41600
O  49.52400 28.65500 34.92000
C  50.62700 28.36300 35.86300
H  46.08300 22.19900 32.95900
H  46.47400 21.93500 26.39300
H  49.28800 27.66400 26.36800
H  48.10200 25.93300 34.48600
H  46.08700 23.99000 34.48400
H  47.91300 22.76100 35.31300
H  48.93100 24.23500 35.02300
H  48.66300 22.86700 33.90300
H  45.20800 26.02200 34.71300
H  45.44800 27.27700 33.73700
H  45.70300 28.42900 35.82100
H  47.37800 28.03800 35.63100
H  45.60400 19.07600 31.45500
H  44.03100 19.60700 31.08300
H  44.95000 20.34200 32.37200
H  45.84200 18.01900 29.32400
H  45.15200 17.65700 27.75800
H  44.16400 18.49100 29.05900
H  46.80700 23.91600 24.57600
H  49.33000 25.22800 24.69500
H  49.07400 23.18200 23.76700
H  48.13200 21.86300 24.42400
H  49.40000 22.63500 25.49000
H  47.19700 27.28500 24.86800
H  46.64800 26.16100 23.77100
H  48.71000 28.13800 23.32400
H  48.07100 26.99400 22.26200
H  49.56700 26.68900 23.17400
H  49.97500 29.63900 27.09500
H  51.08700 29.88300 28.39500
H  49.43600 30.66800 28.46300
H  47.66900 28.82200 33.20400
H  50.04900 27.76200 36.56500
H  50.97400 29.29800 36.30400
H  51.41400 27.70700 35.49000
Mg 26.91500 50.28100 26.55500
C  24.68300 51.38200 29.13100
C  29.13300 49.72000 28.89500
C  29.10000 49.69900 24.10300
C  24.60700 51.43600 24.15200
N  26.85000 50.49800 28.80300
C  25.83100 50.80200 29.66200
C  26.14300 50.49900 31.09700
C  27.71100 50.28600 31.02000
C  27.94900 50.12400 29.45600
C  28.67700 51.24700 31.74900
C  25.31300 49.29400 31.63000
C  24.31200 49.64800 32.85300
H  24.24000 48.69700 34.01900
N  28.83200 49.63100 26.52400
C  29.59300 49.36300 27.59500
C  30.92900 49.04800 27.16300
C  30.89600 48.93800 25.76200
C  29.57700 49.43500 25.36000
C  32.05300 48.94000 28.18200
C  32.07800 48.53200 24.88500
O  32.05800 48.89000 23.69400
C  33.31800 47.89000 25.48300
N  26.82100 50.62200 24.42400
C  27.91000 50.23900 23.66600
C  27.44500 50.10700 22.14300
C  25.91000 50.58500 22.09200
C  25.67900 50.74400 23.64000
C  28.41200 50.85300 21.18900
C  24.98700 49.55400 21.39800
C  23.95300 50.12300 20.41100
N  25.03800 51.18100 26.56100
C  24.27200 51.69500 25.48900
C  23.06700 52.31200 26.00000
C  23.11700 52.18200 27.45400
C  24.38200 51.52700 27.71000
C  21.97400 52.95700 25.15600
C  22.55300 52.45600 28.74900
O  21.55500 53.06100 29.04600
C  23.50000 51.83200 29.87200
C  23.89000 52.94500 30.77900
O  24.50700 53.96000 30.52100
O  23.32900 52.67700 32.03300
C  23.83100 53.50900 33.16500
H  29.85400 49.45400 29.67000
H  29.67900 49.37600 23.23500
H  23.81300 51.72200 23.46000
H  25.93200 51.40400 31.66700
H  27.79100 49.31200 31.50300
H  29.31900 51.72100 31.00700
H  29.35300 50.63300 32.34400
H  28.11000 51.95700 32.35100
H  25.97000 48.46400 31.88900
H  24.70500 48.94900 30.79400
H  23.29400 49.62400 32.46500
H  24.39100 50.70000 33.12800
H  32.97800 49.45800 27.92800
H  32.30600 47.88800 28.31600
H  31.79200 49.43500 29.11700
H  33.02400 47.10500 26.17800
H  33.84100 48.60900 26.11300
H  34.00400 47.46700 24.74800
H  27.48100 49.04200 21.91300
H  25.80700 51.59900 21.70500
H  28.91300 50.27900 20.41000
H  29.12600 51.39700 21.80700
H  27.86300 51.62400 20.64700
H  24.32600 49.20500 22.19100
H  25.52400 48.71200 20.96100
H  22.92400 49.80000 20.57000
H  24.09100 49.58000 19.47600
H  23.94800 51.21300 20.37700
H  21.38400 52.25300 24.56900
H  22.41100 53.76100 24.56300
H  21.30800 53.49600 25.82900
H  23.02200 51.08900 30.51100
H  24.27900 54.43600 32.80900
H  24.64700 52.94200 33.61200
H  23.01500 53.68400 33.86600

