158

Mg 35.69300 0.47200 29.61100
C  33.60300 1.57000 32.20600
C  38.33400 0.45700 31.93400
C  37.89200 -0.26500 27.09100
C  33.31700 1.34300 27.35300
N  35.93700 1.01900 31.81500
C  34.88300 1.34300 32.63500
C  35.29000 1.18400 34.12400
C  36.88900 1.08900 33.99500
C  37.10900 0.82700 32.45800
C  37.54500 2.39600 34.58900
C  34.64100 0.01500 34.93300
C  34.03000 0.38000 36.32900
H  34.84000 1.38000 37.16400
N  37.76800 0.04900 29.56400
C  38.65300 0.14200 30.64600
C  39.91200 -0.35500 30.19200
C  39.80900 -0.69300 28.86700
C  38.44500 -0.36000 28.38500
C  41.18400 -0.53500 31.09800
C  40.81200 -1.24500 27.90200
O  40.65000 -1.51400 26.73300
C  42.17900 -1.59900 28.36400
N  35.66400 0.55400 27.44800
C  36.66500 0.15700 26.65600
C  36.21600 0.47300 25.19500
C  34.83300 1.21200 25.27100
C  34.52100 0.97100 26.77700
C  37.34700 1.37600 24.51300
C  33.80600 0.71300 24.30700
C  33.06500 1.82200 23.45300
N  33.78200 1.09300 29.67700
C  32.92500 1.38400 28.68300
C  31.66500 1.76100 29.26700
C  31.85100 1.86700 30.65300
C  33.19500 1.45000 30.87200
C  30.54300 2.01800 28.21700
C  31.22200 2.20900 31.88500
O  30.05200 2.55500 32.11400
C  32.35300 1.96400 32.97000
C  32.54000 3.25500 33.63600
O  33.39800 4.06400 33.37200
O  31.69300 3.36200 34.75200
C  31.93500 4.41000 35.74200
H  39.05700 0.36700 32.74800
H  38.59600 -0.62100 26.33600
H  32.69200 1.95900 26.70300
H  34.89600 2.06000 34.64000
H  37.36600 0.31300 34.59400
H  37.73400 3.13500 33.81100
H  38.47600 2.15500 35.10000
H  36.78200 3.02000 35.05400
H  35.51000 -0.60600 35.15200
H  33.93600 -0.53900 34.31200
H  34.03900 -0.61900 36.76600
H  32.95200 0.53000 36.27000
H  41.58900 -1.53500 30.94000
H  40.99400 -0.47100 32.17000
H  41.94200 0.18100 30.78500
H  41.98300 -2.38800 29.09000
H  42.59300 -0.66300 28.73800
H  42.84600 -1.98600 27.59400
H  36.14800 -0.39400 24.53800
H  34.77500 2.29200 25.13600
H  36.91300 2.24400 24.01500
H  37.89700 0.77500 23.78900
H  38.01100 1.73200 25.30000
H  33.03200 0.21100 24.88800
H  34.11800 -0.06800 23.61300
H  32.11100 2.00300 23.94800
H  32.89600 1.51200 22.42100
H  33.53500 2.80100 23.54600
H  30.56500 1.02200 27.77600
H  30.81400 2.75300 27.45800
H  29.52000 2.15300 28.56700
H  31.98900 1.25400 33.71200
H  31.54500 5.24400 35.15800
H  32.98500 4.59300 35.97400
H  31.32400 4.41400 36.64500
Mg 41.05200 41.50400 26.63000
C  40.42000 43.97200 29.11000
C  41.66800 39.36900 29.25500
C  42.14400 39.26500 24.32700
C  40.54600 43.91500 24.20000
N  41.22100 41.81000 28.98600
C  40.73200 42.81600 29.74800
C  40.64500 42.37200 31.22300
C  41.13400 40.90600 31.20200
C  41.21600 40.63900 29.68300
C  42.50900 40.72600 32.01500
C  39.21500 42.46200 31.80400
C  38.98000 41.92100 33.20300
H  38.34300 42.82700 34.32100
N  41.84300 39.56200 26.80200
C  42.07900 38.85900 27.97700
C  42.55600 37.49700 27.71100
C  42.58900 37.44700 26.23400
C  42.21600 38.81900 25.72100
C  42.84800 36.49900 28.87500
C  43.02100 36.25700 25.41000
O  43.18100 36.33900 24.18300
C  43.09000 34.92400 26.11700
N  41.38900 41.64100 24.56100
C  41.68200 40.50700 23.83700
C  41.26000 40.68600 22.36200
C  40.55400 42.06300 22.36600
C  40.80400 42.57100 23.81000
C  42.38500 40.57300 21.30200
C  39.10800 42.05100 21.97800
C  38.22600 40.98300 22.61000
N  40.69000 43.48700 26.57600
C  40.47600 44.35500 25.51900
C  40.18800 45.68500 25.95600
C  40.18700 45.62100 27.37200
C  40.42300 44.25200 27.72200
C  40.00700 46.97400 25.07200
C  39.93700 46.38300 28.56600
O  39.71500 47.55800 28.75500
C  40.17200 45.33400 29.83500
C  41.36500 45.98300 30.61300
O  42.57200 45.99200 30.30200
O  40.87600 46.46500 31.85400
C  41.80300 47.19700 32.67300
H  41.63700 38.65200 30.07800
H  42.46600 38.50700 23.61000
H  40.27300 44.67500 23.46400
H  41.25000 43.04300 31.83300
H  40.39500 40.19400 31.57000
H  42.73200 41.65500 32.53900
H  43.42700 40.50900 31.47000
H  42.36800 39.99300 32.80900
H  38.53900 41.89100 31.16600
H  38.81800 43.46600 31.65500
H  39.95500 41.65100 33.60900
H  38.34000 41.04900 33.06800
H  43.15000 37.03600 29.77400
H  43.73200 35.93800 28.57300
H  42.03300 35.78000 28.96000
H  42.12500 34.63400 26.53400
H  43.85800 35.00500 26.88600
H  43.38800 34.25600 25.30900
H  40.56200 39.92500 22.01300
H  41.05700 42.82900 21.77500
H  41.93400 40.63700 20.31100
H  43.01200 39.70200 21.48900
H  43.00500 41.46600 21.37700
H  39.05000 41.93400 20.89600
H  38.76500 43.04600 22.26200
H  37.39300 41.50500 23.08300
H  38.76600 40.26000 23.22100
H  37.85900 40.36400 21.79100
H  40.83200 47.68500 25.11100
H  39.21000 47.59100 25.48500
H  39.84700 46.63600 24.04800
H  39.30600 45.29400 30.49600
H  41.27200 47.99900 33.18600
H  42.71100 47.60900 32.23300
H  42.24200 46.51400 33.39900

