158

Mg -0.55400 6.98800 26.95400
C  0.09100 9.11700 29.63500
C  -1.06400 4.44700 29.19500
C  -1.31700 5.08300 24.29800
C  -0.21300 9.74400 24.78400
N  -0.48700 6.76500 29.24500
C  -0.18000 7.83000 30.11100
C  -0.11300 7.27400 31.52100
C  -0.27000 5.70400 31.37300
C  -0.67600 5.63300 29.88300
C  1.14000 4.97700 31.55500
C  -1.19300 7.90400 32.46700
C  -0.90500 7.82000 33.99000
H  0.40600 7.08700 34.50000
N  -1.07100 5.07500 26.76300
C  -1.24700 4.17300 27.77600
C  -1.67700 2.93200 27.17800
C  -1.68000 3.04000 25.78100
C  -1.36500 4.39700 25.53900
C  -2.14700 1.76400 28.08200
C  -2.01500 2.03300 24.69900
O  -2.13700 2.33700 23.51300
C  -2.44200 0.58400 25.09500
N  -0.89300 7.40400 24.81000
C  -1.13800 6.41400 23.96700
C  -1.20500 7.00300 22.52100
C  -1.39400 8.58400 22.75600
C  -0.74100 8.59000 24.17900
C  0.07800 6.71300 21.67600
C  -2.86300 9.15700 22.73000
C  -2.93800 10.34800 21.82200
N  0.00200 8.90300 27.13900
C  0.21700 9.87600 26.17100
C  0.56300 11.15100 26.78600
C  0.58400 10.88200 28.15500
C  0.24500 9.49900 28.28600
C  0.67000 12.56300 26.16100
C  0.76400 11.47800 29.38700
O  1.03300 12.61600 29.65100
C  0.32100 10.35600 30.43600
C  1.48900 10.20400 31.33600
O  2.53100 9.65300 31.11000
O  1.11500 10.74100 32.56300
C  2.15200 10.81100 33.60300
H  -0.95900 3.53200 29.78100
H  -1.26900 4.46600 23.39900
H  -0.20200 10.62100 24.13200
H  0.89100 7.56000 31.83500
H  -0.93800 5.19900 32.07000
H  1.86500 5.73400 31.25400
H  1.13200 4.26400 30.73100
H  1.29000 4.38000 32.45400
H  -2.16000 7.42800 32.30800
H  -1.33800 8.94400 32.17400
H  -1.76700 7.33700 34.45100
H  -0.89500 8.85600 34.32600
H  -1.36200 1.04200 28.30900
H  -2.92000 1.15800 27.60900
H  -2.56800 2.10800 29.02700
H  -1.66300 0.05400 25.64300
H  -2.59800 -0.00900 24.19400
H  -3.41600 0.65400 25.57900
H  -2.11400 6.71200 21.99400
H  -0.76900 9.26000 22.17200
H  0.59100 7.67300 21.74100
H  -0.28300 6.46300 20.67800
H  0.64600 5.88400 22.09900
H  -2.90200 9.64300 23.70500
H  -3.59900 8.35600 22.65500
H  -2.16800 10.43900 21.05600
H  -3.02400 11.23200 22.45400
H  -3.86000 10.19600 21.26100
H  0.27500 13.22900 26.92800
H  0.09000 12.60700 25.24000
H  1.72700 12.76200 25.98300
H  -0.54800 10.68100 31.00800
H  2.74200 11.69300 33.35500
H  2.68400 9.87200 33.75600
H  1.53400 11.06200 34.46500
Mg 45.06700 4.38600 47.03300
C  43.35800 7.50400 46.73100
C  41.97600 2.91200 46.37300
C  46.78700 1.57800 46.59500
C  48.15500 6.21500 46.87100
N  42.80500 5.24800 46.48700
C  42.39900 6.51000 46.50900
C  40.86600 6.51800 46.25500
C  40.52100 4.97800 46.23000
C  41.81700 4.32700 46.37700
C  39.46900 4.59000 47.30000
C  40.34300 7.35500 44.97700
C  41.25900 7.37300 43.69600
H  40.72000 6.42600 42.63200
N  44.48600 2.47500 46.58400
C  43.16500 2.07700 46.36100
C  43.24900 0.64800 46.10800
C  44.62100 0.21600 46.33300
C  45.36300 1.45200 46.54000
C  42.10700 -0.15800 45.74900
C  45.16100 -1.15300 46.14700
O  44.35300 -2.00100 45.79200
C  46.57400 -1.51300 46.36300
N  47.20800 3.94400 46.59600
C  47.58800 2.67400 46.66000
C  49.18500 2.53200 46.66500
C  49.61500 4.03800 46.65500
C  48.22600 4.81700 46.71500
C  49.57800 1.74100 47.94700
C  50.45700 4.47200 45.45300
C  51.70100 3.62900 45.05200
N  45.70800 6.36800 46.94800
C  46.93600 6.94700 46.86000
C  46.84500 8.38600 46.85000
C  45.43000 8.61400 46.86500
C  44.78400 7.40800 46.97800
C  47.94000 9.37500 46.97000
C  44.35200 9.66900 46.88400
O  44.37800 10.89600 46.80000
C  42.94900 8.89900 46.74400
C  42.20200 9.28900 47.97800
O  42.11300 8.59700 49.00300
O  41.42400 10.41300 47.75800
C  40.49800 10.57200 48.85700
H  40.99200 2.43800 46.37200
H  47.49100 0.74400 46.60000
H  49.11700 6.73200 46.86500
H  40.55200 7.03800 47.16000
H  40.06100 4.69200 45.28400
H  39.85900 3.84600 47.99500
H  38.63200 4.18000 46.73500
H  39.25800 5.42400 47.97000
H  40.00400 8.34000 45.29600
H  39.40000 6.87100 44.72100
H  42.28100 7.03100 43.86000
H  41.25900 8.39000 43.30500
H  41.84700 -0.96500 46.43300
H  42.15700 -0.66500 44.78500
H  41.20400 0.44700 45.66900
H  46.83000 -2.57000 46.29100
H  46.93900 -1.16200 47.32800
H  47.09800 -1.13300 45.48600
H  49.56200 2.14700 45.71800
H  50.07800 4.35600 47.58900
H  49.73000 0.70300 47.65000
H  48.80900 1.71700 48.71900
H  50.49500 2.04600 48.45000
H  50.71800 5.48600 45.75600
H  49.86500 4.52900 44.54000
H  51.70500 3.16000 44.06900
H  51.85400 2.83400 45.78300
H  52.61700 4.21900 45.08600
H  48.68800 9.09200 47.71100
H  47.46300 10.32600 47.20900
H  48.59900 9.47000 46.10700
H  42.60500 9.37700 45.82700
H  39.81000 9.73000 48.92600
H  39.90600 11.45700 48.62400
H  41.09000 10.71300 49.76200

