158

Mg 0.97700 7.69900 27.42900
C  1.66700 9.76700 30.28900
C  0.31900 5.11600 29.80300
C  0.08800 5.77400 24.95800
C  1.69600 10.43400 25.36400
N  1.19700 7.34500 29.84000
C  1.29800 8.44100 30.72400
C  1.04900 8.00900 32.19700
C  0.74800 6.45300 32.00000
C  0.73700 6.27400 30.49700
C  1.79600 5.52200 32.72400
C  -0.20900 8.69300 32.69400
C  -0.26400 9.13100 34.15200
H  0.37400 8.26600 35.28200
N  0.34700 5.75500 27.39000
C  0.25400 4.80600 28.41000
C  -0.16500 3.54400 27.86300
C  -0.29500 3.71500 26.47400
C  0.05100 5.12300 26.17900
C  -0.24000 2.31100 28.80500
C  -0.66300 2.66600 25.41000
O  -0.63200 2.90300 24.21000
C  -1.11700 1.33900 25.86300
N  0.82800 8.07300 25.48800
C  0.55200 7.08200 24.61800
C  0.59800 7.58200 23.13800
C  1.14600 8.99200 23.25000
C  1.19100 9.25700 24.78100
C  1.35000 6.60500 22.23800
C  0.31600 10.07800 22.38800
C  -0.78500 10.84300 23.02100
N  1.70700 9.57700 27.69000
C  1.91400 10.56900 26.71700
C  2.20800 11.81600 27.43000
C  2.00200 11.54700 28.79900
C  1.80600 10.19000 28.92900
C  2.40200 13.16800 26.80800
C  2.05100 12.10000 30.10300
O  2.26300 13.26000 30.39800
C  1.78500 11.02400 31.11300
C  2.72900 11.11400 32.16800
O  3.89200 10.80300 32.11600
O  2.17000 11.73800 33.21200
C  3.01800 11.89500 34.39400
H  -0.00900 4.35900 30.51900
H  -0.17300 5.08300 24.15400
H  1.93100 11.20300 24.62400
H  1.93300 8.17400 32.81300
H  -0.21700 6.27100 32.47200
H  2.45000 4.93200 32.08100
H  1.20200 4.80200 33.28700
H  2.31400 6.14000 33.45800
H  -1.11800 8.10400 32.57300
H  -0.42900 9.52500 32.02500
H  -1.35200 9.18000 34.20200
H  0.09000 10.15300 34.28600
H  0.56300 1.60400 28.60100
H  -1.17900 1.77100 28.68200
H  -0.11400 2.55400 29.86000
H  -1.63800 0.84300 25.04300
H  -1.82700 1.48200 26.67700
H  -0.33900 0.66000 26.21200
H  -0.42900 7.60900 22.77300
H  2.19900 9.03400 22.97100
H  1.30800 7.01700 21.22900
H  0.84500 5.64100 22.29800
H  2.38100 6.50700 22.57700
H  -0.17200 9.56700 21.55800
H  1.06000 10.77000 21.99300
H  -1.56300 11.09800 22.30100
H  -0.44500 11.77500 23.47300
H  -1.33400 10.22400 23.73100
H  1.40300 13.59800 26.74200
H  2.96800 13.14100 25.87600
H  2.93000 13.85900 27.46500
H  0.83000 11.27800 31.57300
H  3.10500 10.93900 34.91100
H  2.53200 12.57700 35.09100
H  4.01400 12.29200 34.19700
Mg 47.96200 16.41900 29.42100
C  45.48100 15.64400 31.70300
C  49.78000 17.84200 31.75800
C  49.88600 17.26800 26.95100
C  45.66800 15.08200 26.89400
N  47.55700 16.77500 31.45600
C  46.59100 16.20500 32.23000
C  46.82600 16.45300 33.76100
C  48.21700 17.18200 33.75600
C  48.52200 17.29600 32.20800
C  48.17200 18.61000 34.46400
C  46.75200 15.23000 34.73700
C  47.53500 15.31100 36.07000
H  47.45100 16.65200 36.76800
N  49.58500 17.48900 29.30800
C  50.20000 18.00700 30.42400
C  51.48800 18.67000 29.96100
C  51.51000 18.56800 28.55000
C  50.31000 17.73100 28.19900
C  52.47600 19.37900 30.97600
C  52.57800 18.96600 27.63000
O  52.56900 18.55700 26.43600
C  53.70700 19.82600 28.01500
N  47.70600 16.22600 27.20400
C  48.78600 16.59300 26.47600
C  48.62000 16.19700 25.03400
C  47.30700 15.34300 24.99000
C  46.89100 15.42100 26.46900
C  48.62000 17.27600 23.88600
C  47.40600 13.84400 24.47600
C  47.11800 13.71700 22.91200
N  45.91800 15.55900 29.24600
C  45.11300 15.15200 28.22600
C  43.85300 14.59200 28.78200
C  43.90300 14.86800 30.18500
C  45.18000 15.46200 30.31700
C  42.72400 13.96400 27.97800
C  43.20600 14.77100 31.45800
O  42.13000 14.33200 31.81700
C  44.24800 15.25400 32.48300
C  43.68900 16.36400 33.36000
O  43.53300 17.55800 33.07900
O  43.27100 15.73800 34.57000
C  42.57400 16.68500 35.46600
H  50.47500 18.11800 32.55500
H  50.60400 17.38200 26.13600
H  45.02100 14.65000 26.12800
H  46.05800 17.17700 34.03200
H  49.04400 16.59200 34.15200
H  47.21300 18.79700 34.94700
H  48.32000 19.26200 33.60300
H  49.04000 18.76600 35.10400
H  47.20900 14.39700 34.20300
H  45.68500 15.08700 34.91300
H  48.59900 15.12400 35.92400
H  47.10800 14.50800 36.67000
H  53.11600 18.69500 31.53400
H  51.78900 19.73800 31.74200
H  53.03300 20.29200 30.76200
H  53.32600 20.78600 28.36100
H  54.43300 19.85500 27.20200
H  54.20500 19.35300 28.86100
H  49.44800 15.51300 24.84900
H  46.43600 15.72500 24.45900
H  48.52900 18.21300 24.43500
H  47.78600 17.15700 23.19500
H  49.54900 17.16200 23.32700
H  46.70900 13.29500 25.11000
H  48.38000 13.47300 24.79500
H  46.97500 14.66200 22.38800
H  46.23100 13.08700 22.83800
H  47.94800 13.23900 22.39200
H  42.70600 12.87600 28.03200
H  42.93300 14.30600 26.96400
H  41.72400 14.37300 28.12100
H  44.51800 14.32900 32.99200
H  41.69100 17.10600 34.98400
H  43.31400 17.40900 35.80600
H  42.31200 16.15600 36.38300

