158

Mg -9.63100 39.56400 42.66000
C  -8.84000 36.35700 41.80200
C  -6.64700 40.56200 41.22000
C  -10.84600 42.67000 42.42000
C  -12.90500 38.45900 43.66600
N  -8.12400 38.58900 41.41400
C  -7.90900 37.26300 41.40000
C  -6.57400 36.94200 40.60300
C  -5.78400 38.26200 40.82400
C  -6.91300 39.24800 41.23600
C  -4.60700 38.15100 41.79100
C  -6.74200 36.37900 39.16500
C  -5.92200 35.14500 38.72600
H  -5.09200 35.34200 37.47300
N  -8.78700 41.39300 41.92000
C  -7.53100 41.65600 41.50300
C  -7.26900 43.06700 41.44700
C  -8.52400 43.71100 41.75400
C  -9.44900 42.57700 42.00100
C  -5.89900 43.54300 40.96500
C  -8.79800 45.22600 41.73700
O  -7.88700 45.98000 41.51200
C  -10.12500 45.81800 41.99300
N  -11.61900 40.39100 42.98600
C  -11.83700 41.72900 42.79000
C  -13.26900 42.15100 43.11200
C  -13.88000 40.84000 43.70300
C  -12.79800 39.81900 43.41000
C  -13.41600 43.36200 44.01400
C  -15.33700 40.34100 43.30100
C  -16.21900 39.73200 44.43500
N  -10.62000 37.76900 42.98100
C  -11.89800 37.48500 43.33800
C  -12.01600 36.06100 43.31200
C  -10.83400 35.59800 42.76700
C  -10.02600 36.66700 42.47900
C  -13.30000 35.35600 43.68300
C  -10.13100 34.38900 42.34800
O  -10.41600 33.18200 42.42300
C  -8.75500 34.87500 41.74600
C  -7.67300 34.29200 42.59200
O  -7.24300 34.82700 43.61100
O  -7.00300 33.27900 41.93000
C  -5.61400 33.18100 42.25300
H  -5.60500 40.84200 41.05000
H  -11.26100 43.67600 42.51200
H  -13.84900 38.18400 44.14000
H  -5.97400 36.16800 41.08000
H  -5.36600 38.48300 39.84200
H  -3.70400 38.21100 41.18400
H  -4.64100 37.27900 42.44400
H  -4.58400 39.06500 42.38400
H  -6.57100 37.12100 38.38500
H  -7.77900 36.09300 38.98800
H  -6.63300 34.32200 38.79500
H  -5.07900 34.91000 39.37600
H  -5.16200 43.35300 41.74400
H  -5.98400 44.59700 40.69900
H  -5.62800 43.05500 40.02800
H  -10.51200 45.54500 42.97500
H  -10.65500 45.40200 41.13700
H  -10.17300 46.86600 41.69600
H  -13.75800 42.42600 42.17800
H  -13.95800 40.98200 44.78100
H  -12.48300 43.59500 44.52700
H  -14.19300 43.07000 44.72000
H  -13.74900 44.23200 43.44800
H  -15.24300 39.48700 42.63100
H  -15.91700 41.14100 42.83900
H  -16.57800 38.73300 44.18700
H  -17.05500 40.42200 44.54200
H  -15.74000 39.61400 45.40800
H  -13.74400 35.72600 44.60700
H  -13.03400 34.32100 43.89500
H  -14.00300 35.25400 42.85700
H  -8.60800 34.49500 40.73500
H  -5.15500 34.06400 42.69700
H  -5.14200 32.72400 41.38300
H  -5.56100 32.36100 42.97000
Mg -5.44600 25.92400 25.39700
C  -3.70400 27.06700 28.26600
C  -7.27700 23.80200 27.41800
C  -6.80600 24.76600 22.64600
C  -3.33200 27.85700 23.41900
N  -5.50000 25.49000 27.67100
C  -4.75700 26.14800 28.65900
C  -5.38200 25.89100 30.05200
C  -6.28200 24.61200 29.74100
C  -6.35000 24.61200 28.17000
C  -5.71300 23.30200 30.37800
C  -6.12400 27.11000 30.69100
C  -5.79400 27.34400 32.15400
H  -5.41000 26.17000 33.10500
N  -6.85200 24.41900 25.08200
C  -7.48000 23.63100 26.03400
C  -8.42900 22.76000 25.40200
C  -8.35300 23.02000 23.99000
C  -7.28600 24.09500 23.81200
C  -9.19300 21.62900 26.22900
C  -9.08200 22.31100 22.84300
O  -8.99200 22.74500 21.67900
C  -9.98900 21.15300 23.21700
N  -5.04800 26.19100 23.30300
C  -5.75000 25.58800 22.38000
C  -5.43300 25.96200 20.97000
C  -4.45300 27.21100 21.20500
C  -4.26200 27.06300 22.72700
C  -4.82400 24.78900 20.15500
C  -5.17000 28.57900 20.84400
C  -5.83700 28.84700 19.48400
N  -3.76400 27.14000 25.73900
C  -3.04100 27.83800 24.85100
C  -2.08400 28.65100 25.63500
C  -2.34700 28.39800 26.93200
C  -3.34800 27.46900 26.95000
C  -0.99200 29.72000 25.13000
C  -2.02400 28.85200 28.31000
O  -1.31100 29.76300 28.64700
C  -2.85300 27.83900 29.27000
C  -1.90200 27.03500 30.10700
O  -0.84100 26.53000 29.73800
O  -2.30600 27.19800 31.40300
C  -1.46600 26.52600 32.40500
H  -8.07100 23.33300 28.00300
H  -7.37400 24.39700 21.78900
H  -2.72700 28.55300 22.83400
H  -4.60600 25.66200 30.78300
H  -7.27900 24.81100 30.13300
H  -4.74000 23.30800 30.86900
H  -5.51400 22.62500 29.54700
H  -6.42600 22.83400 31.05700
H  -7.20100 26.99100 30.57700
H  -5.87200 27.93600 30.02600
H  -6.65400 27.82300 32.62200
H  -5.01700 28.10400 32.06400
H  -10.20500 21.47900 25.85200
H  -9.17400 21.78200 27.30800
H  -8.70700 20.66400 26.09100
H  -10.33900 20.54100 22.38600
H  -10.85400 21.49900 23.78300
H  -9.43000 20.48400 23.87100
H  -6.37200 26.23200 20.48600
H  -3.51000 26.99700 20.70100
H  -4.74400 23.85500 20.71100
H  -3.88700 24.98900 19.63500
H  -5.54200 24.48800 19.39200
H  -4.43900 29.38500 20.90400
H  -5.83900 28.75900 21.68500
H  -5.87600 27.94200 18.87700
H  -5.49600 29.69400 18.88700
H  -6.84600 29.15400 19.75700
H  -1.08500 30.60400 25.76000
H  -1.11800 29.98800 24.08100
H  0.01200 29.30300 25.21500
H  -3.48400 28.42500 29.93800
H  -1.11100 25.58700 31.98000
H  -1.99700 26.27900 33.32500
H  -0.59300 27.10800 32.69900

