158

Mg 6.88300 54.20400 40.83600
C  6.00500 50.67000 40.37800
C  10.07400 53.32400 39.68900
C  7.46400 57.45400 40.64900
C  3.54400 54.75200 41.43200
N  7.84900 52.11300 40.07600
C  7.38900 50.88400 40.02800
C  8.46700 49.88200 39.55900
C  9.78100 50.68100 39.76100
C  9.24500 52.16200 39.89500
C  10.72500 50.25400 40.95100
C  8.31300 49.28600 38.13600
C  7.59800 50.14300 37.08200
H  7.05800 49.53000 35.83100
N  8.50900 55.25600 40.14100
C  9.78200 54.71000 39.83600
C  10.68900 55.85100 39.61200
C  9.91300 56.99100 39.62100
C  8.58400 56.66600 40.16800
C  12.18400 55.68400 39.26600
C  10.49100 58.40500 39.40400
O  11.64100 58.58000 39.10700
C  9.76300 59.64200 39.72500
N  5.71400 55.89700 41.04100
C  6.15800 57.11500 40.98800
C  5.05800 58.09800 41.36700
C  3.78200 57.28100 41.18600
C  4.37300 55.90800 41.27000
C  5.32700 58.75300 42.73500
C  2.91700 57.64600 39.98900
C  1.54600 58.32500 40.17200
N  5.17800 52.97300 40.97600
C  3.90200 53.37100 41.35500
C  2.95100 52.26800 41.34900
C  3.74600 51.20400 41.06400
C  5.09500 51.59200 40.76300
C  1.49300 52.30600 41.55700
C  3.73800 49.75600 40.78800
O  2.81000 48.99300 40.87100
C  5.31500 49.36300 40.57200
C  5.41700 48.49400 39.34000
O  4.96200 48.70700 38.22000
O  5.90500 47.25800 39.61700
C  5.58600 46.17300 38.61300
H  11.12600 53.08500 39.52000
H  7.65300 58.50600 40.87500
H  2.50200 54.98300 41.66700
H  8.56900 49.03900 40.24200
H  10.34600 50.69800 38.82900
H  11.73800 50.36200 40.56300
H  10.60600 49.21100 41.24700
H  10.81600 50.90800 41.81800
H  7.82600 48.31200 38.08300
H  9.30300 49.01600 37.76800
H  8.32500 50.80900 36.61900
H  6.78300 50.67500 37.57200
H  12.72600 56.28400 39.99600
H  12.23300 55.93100 38.20600
H  12.48800 54.63800 39.30500
H  10.22900 60.48100 39.20900
H  9.73600 59.62200 40.81500
H  8.82600 59.48000 39.19300
H  5.19000 58.90800 40.65000
H  3.17800 57.46900 42.07400
H  4.87300 58.21500 43.56700
H  4.86600 59.72400 42.55700
H  6.40200 58.73100 42.91600
H  2.89900 56.72600 39.40500
H  3.49900 58.25500 39.29700
H  1.50800 59.13000 39.43700
H  1.41500 58.78600 41.15100
H  0.73000 57.61900 40.02100
H  0.93300 52.34600 40.62300
H  1.42100 53.17700 42.20800
H  1.13200 51.44400 42.11700
H  5.61700 48.87900 41.50100
H  5.94800 45.19000 38.91400
H  6.10800 46.45400 37.69800
H  4.55700 45.87000 38.42000
Mg 9.53000 47.52100 25.49400
C  7.34900 47.77300 28.22400
C  12.01600 48.83100 27.45000
C  11.63200 47.40700 22.84600
C  6.80600 46.79200 23.40900
N  9.57200 48.25100 27.60400
C  8.65200 48.16300 28.60000
C  9.21000 48.79700 29.88100
C  10.65700 49.39400 29.51200
C  10.77300 48.77200 28.09000
C  10.68500 50.95300 29.63100
C  9.40100 47.67300 31.02700
C  8.60300 47.87100 32.33400
H  8.84700 46.76700 33.47200
N  11.58200 47.90900 25.25600
C  12.41300 48.47700 26.16100
C  13.80800 48.45200 25.60500
C  13.69700 48.00300 24.22900
C  12.26800 47.69400 24.08000
C  15.02800 48.98800 26.35500
C  14.79000 47.66200 23.23000
O  14.56600 47.21300 22.12400
C  16.23700 47.80800 23.71800
N  9.16800 47.40500 23.33500
C  10.25100 47.20800 22.56200
C  9.78400 46.82700 21.16400
C  8.27300 46.52900 21.30300
C  8.06800 46.84700 22.77900
C  10.27000 47.67200 19.94100
C  7.90200 45.03700 20.90500
C  8.10100 43.84100 21.87900
N  7.47500 47.33300 25.69200
C  6.51300 47.02000 24.78100
C  5.23000 46.93900 25.48300
C  5.56700 47.14300 26.85300
C  6.93800 47.46400 26.93700
C  3.86300 46.79500 24.93400
C  5.00400 47.11100 28.13400
O  3.86900 46.77800 28.49700
C  6.14000 47.58100 29.12100
C  6.20600 46.50400 30.14600
O  6.95300 45.56400 30.10000
O  5.24600 46.73200 31.14500
C  4.86800 45.51800 31.88700
H  12.72400 49.43700 28.02000
H  12.34900 47.37000 22.02300
H  5.97900 46.45400 22.78100
H  8.54200 49.55400 30.29000
H  11.49700 49.06300 30.12200
H  9.91800 51.39900 30.26400
H  10.45000 51.26500 28.61300
H  11.64900 51.37000 29.92300
H  10.42800 47.64000 31.39000
H  9.14300 46.72500 30.55600
H  7.54100 47.71500 32.14400
H  8.71000 48.90500 32.66300
H  14.68600 49.15400 27.37700
H  15.36600 49.92100 25.90300
H  15.81800 48.23800 26.35500
H  16.99400 47.79300 22.93400
H  16.29900 46.99500 24.44200
H  16.48700 48.70900 24.27900
H  10.15700 45.80600 21.08200
H  7.65700 47.23700 20.74800
H  9.42800 48.18600 19.47800
H  10.70100 46.98400 19.21300
H  11.02800 48.35400 20.32800
H  8.29700 44.87900 19.90200
H  6.83100 45.07300 20.70600
H  8.50500 44.25100 22.80400
H  8.73400 43.05500 21.46600
H  7.07800 43.46600 21.91300
H  3.75400 47.25100 23.95000
H  3.13100 47.02900 25.70700
H  3.60200 45.74300 24.82300
H  5.85400 48.55600 29.51400
H  3.78300 45.42000 31.84800
H  5.22300 45.86100 32.85900
H  5.35800 44.56800 31.67600

