158

Mg 47.65500 15.78400 28.35500
C  45.78900 15.36200 31.20300
C  49.72500 17.95500 30.11200
C  49.31400 16.48900 25.45400
C  45.20900 14.13000 26.54900
N  47.68400 16.59700 30.30300
C  46.94600 16.09700 31.31500
C  47.36600 16.76700 32.66000
C  48.42100 17.83600 32.29400
C  48.61600 17.45800 30.78500
C  47.99000 19.27900 32.62300
C  47.91300 15.75400 33.73000
C  47.40100 16.09500 35.14400
H  48.20700 15.73700 36.37600
N  49.37900 16.97500 27.89500
C  50.06700 17.76300 28.72100
C  51.26200 18.27700 28.03800
C  51.17000 17.94500 26.70600
C  49.93100 17.08500 26.64100
C  52.35400 19.07500 28.73500
C  52.03500 18.29000 25.55600
O  51.83100 17.90800 24.42700
C  53.24500 19.21400 25.81400
N  47.33100 15.34400 26.37200
C  48.17900 15.65400 25.32300
C  47.78700 15.00800 23.98000
C  46.45900 14.27600 24.28900
C  46.29800 14.64400 25.82700
C  47.56500 16.03800 22.76200
C  46.42500 12.78900 23.93100
C  45.83900 12.42100 22.58800
N  45.88400 14.80400 28.69600
C  44.96900 14.18700 27.90800
C  43.84600 13.75600 28.65200
C  44.17800 14.21800 29.93600
C  45.40200 14.83800 29.95300
C  42.67300 12.86700 28.41300
C  43.60300 14.29600 31.21100
O  42.57700 13.79600 31.65000
C  44.62400 15.04400 32.12200
C  43.90400 16.18700 32.63200
O  43.50800 17.12500 31.98000
O  43.64200 15.99200 34.00100
C  42.75200 16.89400 34.61200
H  50.35500 18.69500 30.61100
H  49.75900 16.80300 24.50800
H  44.41000 13.75400 25.90600
H  46.51200 17.25100 33.13500
H  49.34200 17.70300 32.86000
H  48.73700 19.76900 33.24700
H  47.08400 19.21000 33.22600
H  47.78800 19.84400 31.71200
H  49.00300 15.78600 33.73500
H  47.61900 14.73500 33.47700
H  46.37500 15.72600 35.12300
H  47.33100 17.18200 35.18200
H  53.33500 18.66600 28.49300
H  52.35900 19.08600 29.82500
H  52.28600 20.11100 28.40600
H  54.02600 18.79600 26.44900
H  52.94500 20.19300 26.18700
H  53.65800 19.43600 24.82900
H  48.59900 14.35100 23.66900
H  45.61600 14.72000 23.75900
H  48.44100 16.63100 22.50000
H  46.74900 16.66400 23.12500
H  47.15300 15.40100 21.97800
H  45.96000 12.11000 24.64500
H  47.47500 12.50500 23.99000
H  46.53200 11.88800 21.93600
H  45.48900 13.34500 22.12800
H  45.02200 11.71800 22.74900
H  42.50900 12.77200 27.34000
H  41.81600 13.35300 28.87800
H  42.98400 11.90100 28.81300
H  44.92900 14.34300 32.89800
H  41.84100 16.30600 34.50400
H  42.53600 17.81600 34.07300
H  42.87200 17.17400 35.65800
Mg 9.51100 47.16400 27.49300
C  7.28400 47.24000 30.24400
C  12.13200 47.95000 29.45300
C  11.39900 47.74700 24.66700
C  6.55700 47.16000 25.36800
N  9.72600 47.38900 29.57700
C  8.70100 47.46000 30.52200
C  9.30500 47.60900 31.89800
C  10.87600 47.87900 31.58900
C  10.93200 47.74400 30.08100
C  11.40100 49.20700 31.98300
C  8.90000 46.50300 32.90700
C  9.90400 46.20900 34.01200
H  9.38700 45.89700 35.46000
N  11.48400 47.61900 27.15900
C  12.38200 47.94300 28.10300
C  13.71100 48.14800 27.45400
C  13.54800 47.98000 26.06600
C  12.12800 47.79200 25.93100
C  14.97300 48.37800 28.22100
C  14.60900 47.96100 24.97100
O  14.35500 47.77300 23.81500
C  16.05100 48.10100 25.30300
N  9.02400 47.59600 25.35000
C  10.00400 47.72100 24.43100
C  9.47500 47.70700 23.01700
C  7.91300 47.32200 23.18100
C  7.80700 47.33900 24.73100
C  9.79900 49.09500 22.39500
C  7.35900 46.10200 22.51800
C  7.09200 46.20900 21.02300
N  7.36500 47.09100 27.67800
C  6.29700 47.05900 26.78000
C  4.98800 47.01100 27.43200
C  5.35300 47.00400 28.75900
C  6.78900 47.06900 28.88500
C  3.67700 47.03000 26.73600
C  4.82000 46.95100 30.15200
O  3.67900 46.84100 30.53300
C  6.02800 47.02800 31.09700
C  5.95800 45.68800 31.79900
O  6.41600 44.65100 31.34000
O  5.43900 45.83500 33.04700
C  5.60400 44.73300 33.98500
H  12.95100 48.09900 30.15900
H  12.04600 47.80100 23.78800
H  5.65300 47.02500 24.77000
H  8.94800 48.57200 32.26500
H  11.51100 47.18100 32.13400
H  10.74000 49.53300 32.78700
H  11.47000 49.89900 31.14400
H  12.34100 49.10700 32.52500
H  8.67100 45.63200 32.29300
H  7.94300 46.81000 33.32800
H  10.58600 47.05900 34.04800
H  10.57000 45.39400 33.73100
H  15.52700 47.47100 27.97900
H  14.82200 48.44200 29.29900
H  15.52800 49.23800 27.84800
H  16.43000 47.27200 25.90100
H  16.16000 49.08600 25.75700
H  16.50200 47.97300 24.31800
H  9.96300 46.89600 22.47700
H  7.26400 48.11400 22.80800
H  10.38400 49.71600 23.07400
H  8.82600 49.52500 22.15900
H  10.45900 49.00700 21.53200
H  6.35200 45.95200 22.90900
H  8.01100 45.29400 22.85000
H  7.67100 45.55800 20.36900
H  7.25000 47.19700 20.59000
H  6.04900 46.06000 20.74300
H  3.48600 46.03100 26.34300
H  3.63300 47.66900 25.85400
H  2.84400 47.25800 27.40100
H  5.83100 47.95000 31.64400
H  6.61300 44.33000 33.90600
H  4.90600 43.91400 33.81000
H  5.54700 45.10200 35.00900

