158

Mg 46.79300 24.24900 28.18300
C  47.64700 26.63900 30.67900
C  46.02500 22.10300 30.88300
C  46.13100 21.74600 25.95100
C  47.79600 26.33800 25.75900
N  46.57700 24.48000 30.53600
C  47.07300 25.50300 31.28500
C  46.95000 25.33100 32.79400
C  46.68700 23.75200 32.83600
C  46.38200 23.42300 31.29300
C  47.79200 22.84200 33.30000
C  45.90300 26.25600 33.49700
C  46.42700 27.34900 34.40400
H  45.58800 27.44200 35.67500
N  46.09500 22.21600 28.37100
C  45.83300 21.54700 29.50700
C  45.35000 20.25700 29.18000
C  45.12800 20.24200 27.76500
C  45.83700 21.41100 27.31400
C  44.98900 19.23100 30.20900
C  44.41300 19.23000 26.88700
O  44.33200 19.34400 25.67800
C  43.67200 18.10300 27.48200
N  47.13000 23.97200 26.14500
C  46.68500 22.92000 25.41700
C  46.75400 23.24100 23.94400
C  47.23300 24.75300 23.82100
C  47.32200 25.09100 25.32700
C  47.65100 22.25300 23.11200
C  46.17400 25.70000 23.04900
C  46.66900 26.24900 21.69800
N  47.57600 26.06300 28.15400
C  48.00300 26.81000 27.07900
C  48.51800 28.10900 27.49700
C  48.30200 28.07800 28.95100
C  47.84300 26.79800 29.29400
C  49.05400 29.16000 26.69200
C  48.59400 28.86200 30.14700
O  49.03200 29.97800 30.38400
C  48.13600 27.94200 31.38800
C  49.38800 27.65600 32.18300
O  50.21100 26.86600 31.93300
O  49.38700 28.36500 33.36000
C  50.58400 28.31200 34.26600
H  45.69300 21.44800 31.69100
H  45.76900 21.06100 25.18200
H  48.01200 27.01600 24.93100
H  47.93300 25.55800 33.20600
H  45.80700 23.46800 33.41400
H  48.31700 23.37600 34.09200
H  48.53200 22.57900 32.54400
H  47.44800 21.91400 33.75600
H  45.20400 25.67100 34.09400
H  45.40800 26.63900 32.60400
H  46.48700 28.32600 33.92500
H  47.40100 26.92500 34.64600
H  44.76100 18.24100 29.81500
H  44.17200 19.57500 30.84400
H  45.82000 19.12000 30.90600
H  43.08300 18.42000 28.34300
H  44.45700 17.40600 27.77700
H  43.02800 17.55600 26.79400
H  45.72800 23.18600 23.58100
H  48.16500 24.82500 23.26200
H  48.02700 22.73000 22.20600
H  46.95800 21.54200 22.66200
H  48.32500 21.64200 23.71200
H  46.05500 26.66300 23.54500
H  45.16900 25.29000 22.95000
H  45.75500 26.23700 21.10400
H  47.50000 25.66900 21.29700
H  46.91000 27.30800 21.78000
H  48.73600 30.03100 27.26500
H  48.47700 29.21200 25.76800
H  50.13300 29.19500 26.54400
H  47.27700 28.38000 31.89800
H  50.97200 29.33000 34.30200
H  51.22900 27.47300 34.00400
H  50.38200 28.06600 35.30800
Mg 5.78200 55.22500 41.05400
C  5.15700 51.71200 40.94300
C  8.80700 54.40500 39.50800
C  6.27700 58.44100 40.37600
C  2.53600 55.71500 42.01200
N  6.89600 53.19200 40.38600
C  6.38700 51.96800 40.46300
C  7.36400 50.98100 39.79600
C  8.67500 51.84000 39.88300
C  8.16600 53.23100 39.87600
C  9.62800 51.67700 41.08300
C  7.03600 50.48000 38.41200
C  6.30500 51.49400 37.44400
H  7.17000 52.09900 36.28500
N  7.37500 56.23200 40.11400
C  8.56200 55.73500 39.68600
C  9.43100 56.76000 39.26600
C  8.75000 58.01900 39.59500
C  7.42800 57.60700 40.02900
C  10.89900 56.54700 38.81300
C  9.34900 59.38800 39.36900
O  10.42900 59.55200 38.85300
C  8.57000 60.61300 39.74700
N  4.61700 56.79900 41.11900
C  5.04200 58.04400 40.80200
C  3.89200 59.08700 41.15100
C  2.65300 58.19600 41.48900
C  3.29200 56.80600 41.59300
C  4.21200 60.20000 42.17200
C  1.51400 58.22500 40.45200
C  0.13300 58.62300 41.01900
N  4.21300 54.03300 41.54100
C  2.92300 54.33300 42.03600
C  2.22900 53.08800 42.38800
C  3.13900 52.12400 42.05500
C  4.30400 52.67300 41.49100
C  0.84000 53.03000 42.90900
C  3.26100 50.67100 41.95500
O  2.49300 49.80000 42.29600
C  4.54400 50.37100 41.22400
C  4.20100 49.58300 40.00800
O  3.66900 49.96100 39.01000
O  4.67100 48.34100 40.16900
C  4.42000 47.35700 39.14200
H  9.64700 54.06500 38.89900
H  6.35000 59.50500 40.14300
H  1.53300 55.98400 42.35100
H  7.31700 50.08800 40.41900
H  9.23000 51.90200 38.94600
H  9.67600 52.60100 41.65800
H  10.56600 51.36500 40.62400
H  9.24300 50.95000 41.79900
H  6.58800 49.48700 38.42600
H  8.04100 50.32300 38.02000
H  5.95200 52.38400 37.96500
H  5.58700 50.80200 37.00600
H  11.25500 57.15500 37.98200
H  11.15400 55.50000 38.64800
H  11.61600 57.02700 39.47900
H  7.72800 60.76900 39.07200
H  9.20500 61.47400 39.95600
H  8.28200 60.35800 40.76600
H  3.77800 59.62600 40.21000
H  2.29800 58.41200 42.49600
H  5.20600 60.09600 42.60700
H  3.49100 60.23500 42.98800
H  4.15300 61.16100 41.66100
H  1.43100 57.26100 39.95100
H  1.80400 58.90600 39.65100
H  0.07700 58.50500 42.10100
H  -0.56800 57.91800 40.57200
H  -0.11700 59.62300 40.66400
H  0.25900 53.38600 42.05800
H  0.71600 53.61400 43.82100
H  0.61400 51.99000 43.14200
H  5.19500 49.76600 41.85600
H  4.45100 47.78400 38.14000
H  3.46200 46.89700 39.38400
H  5.16500 46.56200 39.11800

