158

Mg 55.54400 25.10100 45.39100
C  53.20500 27.14900 43.74800
C  54.30800 22.38300 43.63200
C  58.42700 23.43000 45.85600
C  57.09000 27.97900 46.56900
N  54.09800 24.91100 43.71500
C  53.25500 25.83700 43.20100
C  52.29700 25.24400 42.11900
C  52.43900 23.75300 42.52200
C  53.72900 23.65800 43.31900
C  51.22200 23.19900 43.36100
C  52.81100 25.54300 40.60700
C  51.72600 26.02600 39.58300
H  51.54000 25.32500 38.23200
N  56.22600 23.21600 44.96300
C  55.52400 22.19500 44.32200
C  56.21100 20.89100 44.44200
C  57.37200 21.16800 45.23400
C  57.37400 22.63700 45.43800
C  55.80600 19.53600 43.80200
C  58.37400 20.17300 45.69800
O  58.20500 18.94800 45.43000
C  59.47200 20.53300 46.59600
N  57.46100 25.64000 46.16400
C  58.52800 24.76800 46.15400
C  59.76400 25.42400 46.74700
C  59.28100 26.92400 46.98100
C  57.84700 26.86900 46.61000
C  60.34300 24.72400 47.98900
C  60.09900 27.78600 45.93800
C  61.51900 28.11900 46.27000
N  55.11700 27.19100 45.41300
C  55.77200 28.20600 46.01400
C  54.91900 29.35000 45.93000
C  53.91500 28.98400 45.01900
C  54.10500 27.66500 44.61400
C  55.21000 30.75700 46.62600
C  52.77400 29.49600 44.28100
O  52.22200 30.58000 44.28600
C  52.17300 28.25600 43.55200
C  51.87000 28.61700 42.18500
O  52.65000 28.94900 41.30400
O  50.49700 28.53200 42.02700
C  49.90300 28.83900 40.71300
H  53.76500 21.53200 43.21500
H  59.39400 22.97100 46.07600
H  57.62000 28.81400 47.03200
H  51.25000 25.52200 42.23200
H  52.48300 23.12100 41.63500
H  51.38100 22.17200 43.68800
H  50.34300 23.31600 42.72700
H  50.97600 23.74100 44.27400
H  53.30700 24.62100 40.30400
H  53.58200 26.30900 40.69300
H  51.87800 27.00600 39.13100
H  50.70800 26.13300 39.95800
H  55.75500 18.84700 44.64500
H  56.53300 19.16100 43.08100
H  54.81300 19.65800 43.37100
H  59.91900 19.68800 47.12000
H  59.02600 21.17800 47.35300
H  60.26900 20.92000 45.96000
H  60.53600 25.35100 45.98200
H  59.55600 27.21400 47.99500
H  59.73500 23.88700 48.33300
H  60.48100 25.51700 48.72400
H  61.31000 24.32000 47.69100
H  59.59000 28.74500 45.84100
H  60.01500 27.25800 44.98800
H  61.70500 29.18000 46.43200
H  62.23400 27.78300 45.51800
H  61.84000 27.54400 47.13900
H  55.90400 30.48900 47.42300
H  54.27700 31.12500 47.05400
H  55.59200 31.40900 45.84000
H  51.22700 28.21400 44.09200
H  49.78300 29.92100 40.65700
H  48.94000 28.33000 40.74500
H  50.56100 28.44600 39.93800
Mg 48.27400 16.36200 29.25900
C  46.17400 15.91200 32.18900
C  50.40000 18.17600 31.33000
C  50.12100 16.86700 26.62000
C  45.76900 14.94200 27.41300
N  48.23900 17.01600 31.56500
C  47.32900 16.67200 32.52900
C  47.74700 17.16100 33.84900
C  49.01300 18.06800 33.55700
C  49.24200 17.83600 32.07200
C  48.73900 19.46900 33.94800
C  48.00300 15.90200 34.70900
C  48.29100 16.23400 36.20500
H  47.99500 17.61500 36.76700
N  50.10500 17.35800 29.02900
C  50.88900 17.96600 29.99500
C  52.18500 18.28900 29.34100
C  52.07200 18.00500 27.94500
C  50.72300 17.42600 27.77200
C  53.32000 18.78500 30.13500
C  53.12000 18.25100 26.78000
O  52.96800 17.83100 25.63800
C  54.41700 18.92700 27.17700
N  47.95400 16.02700 27.38000
C  48.89300 16.31800 26.42300
C  48.44000 15.99700 24.98400
C  47.12900 15.14100 25.21900
C  46.93500 15.34500 26.76600
C  48.16800 17.17100 24.04800
C  47.17500 13.66900 24.81900
C  46.38600 13.33600 23.51900
N  46.31800 15.61700 29.63200
C  45.48300 15.06800 28.78200
C  44.33100 14.59000 29.42400
C  44.59300 14.87100 30.81700
C  45.81700 15.54200 30.88200
C  43.10100 13.99000 28.73600
C  44.06200 14.73300 32.18000
O  43.10900 14.09300 32.60000
C  45.07800 15.35600 33.10600
C  44.29600 16.42200 33.93600
O  43.84300 17.46500 33.44800
O  44.10500 16.01800 35.19900
C  43.26600 16.93300 36.04700
H  51.23100 18.72100 31.78400
H  50.66700 17.12000 25.70800
H  45.07600 14.24100 26.94200
H  46.87000 17.57000 34.34900
H  49.94800 17.73900 34.01100
H  47.81300 19.59900 34.50700
H  48.62700 19.99600 33.00000
H  49.57000 19.97700 34.43700
H  48.86400 15.35200 34.33000
H  47.11900 15.26900 34.63300
H  49.35400 16.04600 36.35600
H  47.62800 15.64600 36.84000
H  53.47700 18.19900 31.04100
H  53.06200 19.80000 30.44000
H  54.33000 18.79900 29.72500
H  54.17200 19.92900 27.53100
H  54.95900 19.10000 26.24700
H  55.08100 18.30600 27.77800
H  49.38000 15.52800 24.69300
H  46.24000 15.60600 24.79400
H  48.16500 18.09100 24.63200
H  47.24300 17.05100 23.48600
H  48.98800 17.05200 23.33900
H  46.65300 13.13900 25.61500
H  48.19200 13.32800 24.62500
H  46.07500 14.21900 22.96100
H  45.47800 12.79500 23.78700
H  46.97600 12.76700 22.80100
H  43.41900 13.34400 27.91700
H  42.66800 14.85100 28.22700
H  42.47100 13.42600 29.42300
H  45.35100 14.51700 33.74600
H  43.63500 17.95400 35.94300
H  43.55800 16.62500 37.05100
H  42.20000 16.78900 35.87200

