158

Mg 25.74700 2.12800 29.15500
C  27.80300 1.45800 32.07200
C  23.00700 1.80700 31.20400
C  23.90200 2.19900 26.37800
C  28.57700 1.28500 27.28400
N  25.52800 1.81800 31.42000
C  26.42800 1.60300 32.41200
C  25.80500 1.79700 33.78400
C  24.30400 1.76700 33.48200
C  24.26900 1.79100 31.93500
C  23.53800 0.53400 33.98700
C  26.22400 3.06900 34.63900
C  26.70900 2.65100 36.05600
H  26.22400 3.61700 37.23100
N  23.73900 2.05600 28.82900
C  22.74000 1.92100 29.80100
C  21.42200 1.94100 29.16200
C  21.65800 2.18200 27.75400
C  23.16600 2.19200 27.61500
C  20.17600 1.79400 29.95200
C  20.65400 2.35200 26.67700
O  20.88900 2.70200 25.54900
C  19.19400 2.15400 27.08600
N  26.13400 1.56900 27.08700
C  25.25400 1.96200 26.14400
C  25.82300 1.99000 24.73000
C  27.24800 1.39700 25.02000
C  27.38800 1.46600 26.53500
C  25.02500 1.20300 23.67400
C  28.36400 2.20200 24.26500
C  29.56400 1.40100 23.62600
N  27.85900 1.57600 29.51400
C  28.77200 1.19600 28.63800
C  29.99900 0.91400 29.33400
C  29.68100 1.02600 30.70500
C  28.35400 1.39300 30.74300
C  31.29800 0.51700 28.74900
C  30.17100 0.89400 31.99700
O  31.30000 0.60000 32.34800
C  28.94700 1.12700 32.97300
C  28.70100 -0.02700 33.87800
O  27.97200 -0.98700 33.62600
O  29.24000 0.29700 35.05400
C  28.86200 -0.47400 36.23600
H  22.18100 1.83000 31.91800
H  23.24900 2.43900 25.53700
H  29.48300 1.20800 26.67900
H  26.07700 0.90000 34.33900
H  23.73900 2.65200 33.77600
H  23.29600 -0.11700 33.14700
H  22.64000 0.90200 34.48200
H  24.12600 -0.04700 34.69900
H  25.42800 3.81300 34.68700
H  27.07400 3.46600 34.08500
H  27.79400 2.60400 35.96600
H  26.33200 1.65600 36.29400
H  20.41900 1.45500 30.95900
H  19.54200 1.03600 29.49100
H  19.62400 2.73400 29.96100
H  18.47300 2.31600 26.28500
H  18.90000 2.81100 27.90400
H  19.13200 1.11900 27.42200
H  25.93000 3.04700 24.48700
H  27.33100 0.33700 24.77900
H  24.65300 1.89500 22.91800
H  24.14000 0.71300 24.08100
H  25.66200 0.47600 23.17100
H  28.90200 2.84400 24.96200
H  27.91000 2.87800 23.54000
H  29.38200 1.54600 22.56100
H  29.44800 0.37700 23.98400
H  30.54200 1.76200 23.94400
H  31.38800 0.99400 27.77300
H  31.52600 -0.51100 28.46700
H  32.08300 0.89100 29.40500
H  29.25300 2.00000 33.54900
H  27.93800 -0.07700 36.65600
H  29.67300 -0.47700 36.96400
H  28.76500 -1.51400 35.92600
Mg -12.68000 16.01900 42.10600
C  -9.61600 14.15700 41.84200
C  -11.08200 18.56100 40.36100
C  -15.65700 17.20100 41.35500
C  -14.05800 13.10100 43.60900
N  -10.51200 16.30900 41.28100
C  -9.45800 15.43800 41.28900
C  -8.25600 16.00100 40.46300
C  -8.72300 17.55400 40.28100
C  -10.18700 17.55700 40.78400
C  -7.85900 18.64300 41.12500
C  -8.08600 15.21300 39.10200
C  -6.66100 15.07500 38.49500
H  -6.02000 16.03900 37.50800
N  -13.29100 17.70600 41.06600
C  -12.49700 18.70600 40.49700
C  -13.30600 19.81900 40.08400
C  -14.67900 19.50600 40.37300
C  -14.63800 18.11900 41.07600
C  -12.82200 21.12800 39.47300
C  -15.89100 20.39200 40.12800
O  -15.72600 21.47000 39.60900
C  -17.25000 20.18900 40.67200
N  -14.52400 15.20400 42.42200
C  -15.62900 15.95500 42.00200
C  -16.93000 15.22500 42.38100
C  -16.42300 13.99700 43.19400
C  -14.88100 14.08800 43.07400
C  -18.01300 16.07700 43.09800
C  -16.99700 12.62000 42.78300
C  -17.22900 11.65100 43.93300
N  -12.05800 13.96000 42.56700
C  -12.70400 12.93300 43.28000
C  -11.80800 11.84400 43.58500
C  -10.57400 12.25700 42.94400
C  -10.80700 13.51000 42.36200
C  -12.14800 10.55800 44.32100
C  -9.19400 11.86300 42.66000
O  -8.51500 10.90400 42.87900
C  -8.56500 13.00600 41.91200
C  -7.36900 13.50000 42.62900
O  -7.30400 13.68800 43.85600
O  -6.38600 13.76700 41.73900
C  -5.22800 14.44100 42.27800
H  -10.58300 19.41400 39.89600
H  -16.65600 17.54000 41.07400
H  -14.54400 12.27300 44.13000
H  -7.40800 16.01100 41.14700
H  -8.84400 17.77700 39.22100
H  -7.22700 19.21300 40.44400
H  -7.12500 18.05900 41.68000
H  -8.46200 19.28000 41.77300
H  -8.60500 15.75300 38.31000
H  -8.57900 14.24700 39.20600
H  -6.62700 14.03400 38.17500
H  -5.97800 15.14100 39.34200
H  -12.66600 21.81200 40.30700
H  -13.42800 21.42900 38.61800
H  -11.81100 21.01200 39.08400
H  -17.73500 19.54900 39.93600
H  -17.67000 21.18500 40.81400
H  -17.06800 19.57100 41.55100
H  -17.37700 14.78500 41.49000
H  -16.68700 14.12100 44.24500
H  -17.61500 17.06400 43.33000
H  -18.26600 15.70300 44.09000
H  -18.89600 16.03900 42.45900
H  -16.26700 12.16500 42.11300
H  -17.95300 12.78400 42.28500
H  -18.19000 11.14400 43.85100
H  -17.18300 12.15600 44.89800
H  -16.38700 10.97500 44.08300
H  -11.22400 9.98800 44.42300
H  -12.80300 9.89400 43.75700
H  -12.48600 10.82500 45.32200
H  -8.21600 12.73100 40.91700
H  -4.74500 15.06700 41.52800
H  -4.58900 13.62700 42.62000
H  -5.43400 14.99600 43.19300

