158

Mg 9.15500 4.29700 27.66800
C  10.20700 2.52000 30.30800
C  6.65000 5.73900 29.60200
C  7.74900 5.61500 24.76100
C  11.15500 2.30700 25.47000
N  8.46100 4.12600 29.64900
C  9.28800 3.52200 30.65900
C  8.74700 3.77500 32.10400
C  7.47900 4.70300 31.79800
C  7.45300 4.85500 30.25200
C  6.16900 4.00100 32.30800
C  9.83200 4.22200 33.06300
C  9.33800 4.95800 34.33400
H  10.29600 5.20000 35.48100
N  7.53600 5.60800 27.23700
C  6.55800 6.02800 28.16800
C  5.59900 6.84800 27.49200
C  5.99900 6.98300 26.08800
C  7.21500 6.08900 25.95100
C  4.53300 7.56400 28.29200
C  5.41400 7.84600 24.98900
O  5.85200 7.86800 23.84200
C  4.34900 8.79300 25.34000
N  9.54700 4.18900 25.44300
C  8.83500 4.83200 24.41500
C  9.24300 4.40300 23.02300
C  10.46100 3.46100 23.26300
C  10.36100 3.28000 24.80600
C  8.00900 3.87300 22.20600
C  11.77300 4.12800 22.91400
C  12.31100 5.37900 23.64500
N  10.29500 2.74400 27.77800
C  11.07400 2.06200 26.84500
C  11.68500 0.89900 27.50800
C  11.46100 1.11600 28.88800
C  10.57300 2.18300 28.99400
C  12.61600 -0.05400 26.84200
C  11.78400 0.67700 30.19700
O  12.63500 -0.17400 30.39500
C  11.06400 1.66300 31.24200
C  10.22400 0.80800 32.15300
O  9.13500 0.33200 31.79100
O  10.71700 0.73600 33.42700
C  9.75300 0.07800 34.38500
H  5.90800 6.13600 30.29800
H  7.15400 5.84200 23.87400
H  11.92400 1.67200 25.02500
H  8.44500 2.80500 32.49800
H  7.49300 5.69000 32.26100
H  5.71000 4.85100 32.81300
H  6.35200 3.24300 33.07000
H  5.56100 3.66600 31.46700
H  10.64900 4.74400 32.56400
H  10.29500 3.27400 33.33800
H  8.54100 4.41100 34.83800
H  9.03500 5.96800 34.06100
H  4.84300 8.54600 28.64800
H  4.32000 6.95800 29.17200
H  3.60400 7.72900 27.74500
H  3.38500 8.34800 25.58300
H  4.12400 9.46300 24.51000
H  4.61500 9.48300 26.14100
H  9.63200 5.20900 22.40100
H  10.36800 2.47500 22.80900
H  7.10300 4.01500 22.79600
H  8.08900 2.79600 22.06000
H  7.98700 4.37700 21.23900
H  11.73900 4.41100 21.86200
H  12.55400 3.36900 22.91400
H  13.10700 5.06600 24.32000
H  11.61200 5.89600 24.30200
H  12.95300 6.02400 23.04500
H  13.07700 -0.64800 27.63000
H  13.43000 0.41200 26.28700
H  11.93200 -0.50600 26.12300
H  11.80100 2.20900 31.83100
H  10.21800 -0.73600 34.94000
H  9.01700 -0.60300 33.95900
H  9.46800 0.84100 35.11000
Mg 27.69200 50.32500 25.35100
C  25.72700 51.70500 27.74800
C  29.80300 49.26400 27.74400
C  29.69200 49.23700 22.77500
C  25.71500 51.86200 22.87400
N  27.77700 50.62800 27.43900
C  26.80500 51.09600 28.28600
C  27.12400 50.76800 29.76700
C  28.66500 50.28900 29.75700
C  28.78300 50.08300 28.19900
C  29.66100 51.31100 30.37700
C  26.09600 49.98600 30.58100
C  25.47900 50.62000 31.81100
H  26.41600 50.92800 33.05300
N  29.50200 49.34800 25.28300
C  30.19100 48.99400 26.41700
C  31.25400 48.07100 26.00900
C  31.12100 47.99800 24.55600
C  30.12200 48.93900 24.12100
C  32.36100 47.60300 26.98100
C  31.87800 47.10400 23.57500
O  31.78000 47.15900 22.33800
C  32.62700 45.93500 24.13400
N  27.68300 50.52000 23.14500
C  28.57100 49.95000 22.28900
C  28.35300 50.26300 20.76200
C  26.89400 50.80900 20.85700
C  26.79700 51.16300 22.33400
C  29.35900 51.37600 20.33000
C  25.74900 49.90100 20.32900
C  25.69500 48.40500 20.71000
N  26.06700 51.58300 25.31300
C  25.38100 52.13700 24.23100
C  24.32300 52.93100 24.71800
C  24.37500 52.76400 26.09200
C  25.46000 51.96300 26.41600
C  23.27900 53.62500 23.88500
C  23.75300 53.14500 27.41900
O  22.80800 53.90900 27.65200
C  24.61500 52.38400 28.50400
C  24.98900 53.46800 29.44400
O  25.89400 54.24400 29.40300
O  24.07000 53.47400 30.50900
C  24.26900 54.52800 31.56900
H  30.47000 48.89400 28.52500
H  30.38600 48.83600 22.03300
H  25.00200 52.18100 22.11100
H  27.25500 51.70300 30.31200
H  28.74700 49.30900 30.22500
H  30.49200 51.50000 29.69700
H  30.18500 50.71200 31.12200
H  29.28500 52.27500 30.71900
H  26.66700 49.11600 30.90600
H  25.22800 49.67500 29.99900
H  24.77100 49.84700 32.11000
H  24.95800 51.53200 31.52000
H  32.37300 48.00500 27.99400
H  33.34500 47.82500 26.56800
H  32.32100 46.51600 27.04200
H  32.94000 45.27300 23.32700
H  31.98500 45.44100 24.86300
H  33.51700 46.26600 24.67100
H  28.44800 49.33200 20.20300
H  26.93700 51.83100 20.48100
H  28.90100 52.30000 20.68400
H  29.56000 51.45000 19.26100
H  30.28600 51.23300 20.88500
H  25.53300 50.04100 19.27000
H  24.88200 50.29700 20.85700
H  25.23700 47.78800 19.93700
H  25.00900 48.26700 21.54500
H  26.64500 47.96200 21.01000
H  22.57300 52.90000 23.48000
H  23.58800 54.23600 23.03800
H  22.64700 54.27500 24.49100
H  24.02500 51.61700 29.00400
H  25.29300 54.29400 31.86300
H  23.41000 54.38000 32.22200
H  24.29100 55.58500 31.30300

