158

Mg 35.46800 1.29400 29.63800
C  33.33300 2.85600 31.90300
C  37.90000 1.28500 32.03500
C  37.65200 0.23100 27.33500
C  33.05500 1.85000 27.10600
N  35.57300 2.07600 31.78100
C  34.52900 2.47300 32.51300
C  34.91900 2.52600 34.05300
C  36.45200 2.17500 33.98700
C  36.67900 1.76500 32.54600
C  37.53600 3.15800 34.52000
C  34.12700 1.41500 34.91700
C  33.29900 2.02000 36.03300
H  33.98300 3.09300 36.80300
N  37.44500 0.74200 29.69200
C  38.25000 0.73000 30.76800
C  39.51300 0.14300 30.44200
C  39.55300 0.07100 29.00600
C  38.21900 0.34900 28.60300
C  40.63800 0.10100 31.51200
C  40.75600 -0.21400 28.10900
O  40.64600 -0.10100 26.88200
C  42.13400 -0.57900 28.66100
N  35.37500 1.16600 27.55300
C  36.42400 0.61600 26.80300
C  36.03200 0.49400 25.33900
C  34.49000 0.66300 25.34600
C  34.25800 1.23700 26.75900
C  36.74500 1.53700 24.51900
C  33.58200 -0.63000 24.99400
C  34.19700 -2.03800 25.20000
N  33.64100 2.19100 29.45100
C  32.71200 2.25900 28.39100
C  31.40200 2.71500 28.84200
C  31.65800 2.97600 30.25000
C  32.99900 2.71500 30.54700
C  30.11500 2.76300 28.14200
C  31.04700 3.34800 31.54300
O  29.86800 3.58000 31.79000
C  32.16900 3.39600 32.62300
C  32.43400 4.73200 33.20800
O  33.50200 5.29100 33.21700
O  31.29600 5.20100 33.76900
C  31.51300 6.42300 34.52800
H  38.66800 1.07800 32.78300
H  38.37800 -0.23100 26.66300
H  32.25400 1.97100 26.37400
H  34.77500 3.54600 34.40700
H  36.61100 1.19100 34.42800
H  37.11300 3.68300 35.37600
H  38.01000 3.74900 33.73600
H  38.36900 2.58900 34.93200
H  34.78200 0.70500 35.42300
H  33.57600 0.81800 34.19100
H  32.95200 1.21700 36.68300
H  32.41600 2.37400 35.50000
H  41.49100 -0.50700 31.21000
H  40.32600 -0.08100 32.54000
H  41.04900 1.10500 31.62000
H  42.10600 -1.31100 29.46800
H  42.50500 0.33900 29.11700
H  42.80400 -0.66100 27.80600
H  36.31500 -0.46600 24.90900
H  34.13000 1.51200 24.76600
H  37.75100 1.71800 24.89800
H  36.13600 2.44100 24.55500
H  36.83100 1.12000 23.51600
H  33.35400 -0.55200 23.93000
H  32.68600 -0.54400 25.60900
H  35.07600 -2.09800 25.84200
H  34.35300 -2.48800 24.22000
H  33.41000 -2.65700 25.63100
H  29.99400 3.80100 27.83200
H  29.28100 2.48700 28.78700
H  30.07200 2.06500 27.30700
H  31.79600 2.82100 33.47100
H  31.87800 7.25400 33.92400
H  32.25900 6.30100 35.31200
H  30.56400 6.60600 35.03300
Mg 54.04100 23.58700 44.18700
C  51.71500 26.18900 43.44500
C  51.82600 21.27900 43.11200
C  56.50000 21.50000 44.07500
C  56.34000 26.20000 44.70400
N  52.09100 23.70200 43.33000
C  51.34800 24.86600 43.01500
C  49.97100 24.51400 42.28300
C  49.91000 22.99800 42.57200
C  51.36600 22.62300 43.10600
C  48.76300 22.51400 43.55400
C  49.86300 24.84800 40.75100
C  51.05300 24.58400 39.75800
H  51.30500 25.48000 38.49000
N  54.09900 21.59500 43.67400
C  53.06700 20.77300 43.26600
C  53.58600 19.45200 43.34200
C  54.92600 19.44900 43.82700
C  55.26400 20.87000 43.84800
C  52.82100 18.26000 42.92800
C  55.79600 18.15500 44.01100
O  55.42100 17.12400 43.50100
C  57.18200 18.16200 44.61000
N  56.19800 23.86600 44.38500
C  57.00700 22.75400 44.27600
C  58.50500 23.04200 44.26200
C  58.47900 24.54900 44.66300
C  56.95600 24.91800 44.62600
C  59.56400 22.17300 45.04700
C  59.36200 25.38500 43.66900
C  60.24600 26.48700 44.25100
N  54.02000 25.72900 44.38700
C  54.99700 26.61600 44.58500
C  54.49400 27.99500 44.68700
C  53.16600 27.83100 44.24900
C  52.94400 26.43600 44.03300
C  55.20900 29.32200 45.22600
C  51.85800 28.52300 44.01100
O  51.51700 29.72800 44.13500
C  50.92000 27.56900 43.38100
C  50.77800 28.05100 41.95900
O  51.65600 28.27700 41.13800
O  49.43200 28.22700 41.73700
C  49.15800 29.19200 40.66900
H  51.01400 20.59200 42.86300
H  57.26000 20.74300 43.87100
H  56.97100 27.06900 44.90500
H  49.16400 24.97000 42.85500
H  49.61000 22.48400 41.65900
H  48.58300 23.30400 44.28300
H  49.15400 21.57500 43.94700
H  47.84800 22.27900 43.01000
H  49.58400 25.89100 40.59700
H  49.15200 24.15000 40.30900
H  50.95600 23.58400 39.33500
H  51.99400 24.48400 40.29800
H  53.18000 17.96100 41.94300
H  51.78000 18.58400 42.89600
H  52.92600 17.64600 43.82200
H  57.33700 18.82800 45.45800
H  57.92600 18.54000 43.90900
H  57.37100 17.14900 44.96600
H  58.73500 23.00200 43.19700
H  58.82900 24.72000 45.68100
H  60.37900 21.75300 44.45700
H  58.94300 21.43200 45.55200
H  59.92300 22.76700 45.88700
H  58.64700 25.74800 42.93100
H  60.08500 24.77000 43.13300
H  61.28300 26.60600 43.93600
H  60.33600 26.33800 45.32700
H  59.82300 27.47700 44.08300
H  55.65900 29.97800 44.48000
H  56.00500 28.91400 45.84900
H  54.44200 29.74000 45.87700
H  49.96900 27.44600 43.89900
H  49.29700 28.84600 39.64400
H  49.80300 30.06600 40.74400
H  48.09500 29.43200 40.69100

