158

Mg 30.56200 57.86600 40.63000
C  27.92000 55.66600 39.22100
C  32.83600 55.41500 39.34600
C  32.83600 60.10700 40.83600
C  28.05000 60.29200 40.99300
N  30.37900 55.82500 39.34400
C  29.25100 55.10600 38.95400
C  29.63900 53.77400 38.23800
C  31.15700 53.67200 38.47200
C  31.53300 55.00700 39.07600
C  31.54400 52.45400 39.42900
C  29.24500 53.79900 36.68600
C  27.97600 53.07500 36.30600
H  27.04000 53.81600 35.33000
N  32.63300 57.75100 40.33000
C  33.33300 56.68300 39.80100
C  34.73000 57.10500 39.73400
C  34.80000 58.41900 40.19700
C  33.42900 58.82000 40.51400
C  35.88400 56.15600 39.32000
C  36.04800 59.24800 40.29900
O  37.20100 58.86800 40.02000
C  35.95300 60.77500 40.71100
N  30.46300 59.90500 40.88100
C  31.60200 60.58100 41.06100
C  31.34900 62.06300 41.48400
C  29.77600 62.13700 41.53200
C  29.37800 60.75300 40.98000
C  32.01800 62.50200 42.77800
C  29.22500 63.31500 40.78100
C  29.31300 63.35100 39.18000
N  28.33900 57.93900 40.48900
C  27.55400 58.95700 40.72100
C  26.15500 58.50600 40.43300
C  26.33800 57.22600 39.86700
C  27.64600 56.92600 39.85000
C  24.84500 59.18200 40.62900
C  25.55700 56.10800 39.35400
O  24.36700 56.02400 39.02100
C  26.60900 55.08800 38.97700
C  26.15300 53.80600 39.71900
O  26.02000 53.80500 40.91000
O  25.91900 52.76900 38.92300
C  25.20800 51.64000 39.45600
H  33.60600 54.70200 39.04100
H  33.60600 60.88200 40.84700
H  27.28300 61.05200 41.15900
H  29.22600 52.86200 38.66900
H  31.75200 53.62200 37.56100
H  32.44100 51.98600 39.02500
H  30.78200 51.68200 39.53600
H  31.80400 52.81900 40.42300
H  30.03100 53.22200 36.19900
H  29.44100 54.80100 36.30400
H  27.42000 52.70500 37.16800
H  28.36500 52.25000 35.71100
H  36.36200 56.40600 38.37300
H  35.56000 55.11600 39.31700
H  36.68400 56.25800 40.05300
H  35.35400 60.81800 41.62100
H  35.48100 61.35700 39.91900
H  36.89200 61.25000 40.99700
H  31.51400 62.76100 40.66400
H  29.43400 62.24700 42.56100
H  32.83300 63.18000 42.52400
H  32.46000 61.62600 43.25200
H  31.32300 62.94800 43.49000
H  29.73200 64.16900 41.23000
H  28.18800 63.49100 41.06500
H  28.30200 63.59800 38.85800
H  29.64200 62.45900 38.64700
H  30.00000 64.15100 38.90400
H  24.83300 60.27000 40.68600
H  24.21100 58.68800 41.36600
H  24.36000 58.77600 39.74100
H  26.43400 54.90100 37.91800
H  26.05100 51.16300 39.95700
H  24.84100 50.95500 38.69200
H  24.52300 51.92900 40.25300
Mg 0.95600 42.10700 26.11400
C  2.25700 42.11600 29.32800
C  -2.09400 41.01900 27.36000
C  -0.12300 41.72700 22.93600
C  4.08200 43.06100 24.92300
N  0.15500 41.52200 28.14400
C  0.85100 41.76900 29.31300
C  -0.09700 41.50800 30.52700
C  -1.46000 41.04500 29.80100
C  -1.14000 41.27600 28.36800
C  -2.05500 39.59700 30.13400
C  -0.41900 42.78900 31.38900
C  -0.29100 42.61000 32.90700
H  -0.42400 41.10700 33.40600
N  -0.82700 41.37800 25.29600
C  -2.00700 41.09300 25.95600
C  -3.04700 40.74200 24.94900
C  -2.50900 41.02500 23.70000
C  -1.06100 41.34500 23.93600
C  -4.36100 40.27900 25.54200
C  -3.20200 40.90200 22.34000
O  -2.68200 41.35600 21.34300
C  -4.69200 40.47800 22.16400
N  1.92000 42.24900 24.19900
C  1.13700 42.23600 23.04800
C  1.97800 42.67100 21.81200
C  3.29000 43.18600 22.51200
C  3.11100 42.76800 23.93500
C  2.16100 41.53600 20.74300
C  3.35800 44.73500 22.35300
C  3.21500 45.35000 20.93400
N  2.72400 42.56400 26.91400
C  3.92700 42.87700 26.27000
C  4.95200 43.12400 27.27200
C  4.32500 42.72400 28.52800
C  2.98700 42.48000 28.19900
C  6.41700 43.36600 26.98500
C  4.49400 42.59500 29.94000
O  5.51600 42.68000 30.56800
C  3.17600 42.26700 30.56500
C  3.39800 41.00400 31.31700
O  3.36400 39.87800 30.88500
O  3.55300 41.38400 32.61100
C  3.76900 40.27600 33.61600
H  -3.03400 40.75400 27.85000
H  -0.53600 41.68000 21.92600
H  5.01700 43.42200 24.48900
H  0.23700 40.66700 31.13300
H  -2.36400 41.55900 30.12700
H  -2.98400 39.64800 30.70200
H  -1.31900 38.99800 30.67000
H  -2.32300 39.09000 29.20700
H  -1.31300 43.21800 30.93600
H  0.33200 43.49900 31.04300
H  -1.15100 43.14900 33.30300
H  0.69400 42.99800 33.16800
H  -4.54300 40.72700 26.51800
H  -4.40600 39.19200 25.61800
H  -5.12400 40.63800 24.85100
H  -4.84100 39.54500 22.70800
H  -5.09000 40.38500 21.15300
H  -5.35100 41.13800 22.72800
H  1.41700 43.52500 21.43300
H  4.09200 42.80600 21.88000
H  1.42300 40.77200 20.98700
H  3.13400 41.11900 21.00300
H  1.99100 41.99700 19.76900
H  4.29000 45.12000 22.76800
H  2.50300 45.10800 22.91700
H  2.33500 45.98600 20.83600
H  3.17700 44.49600 20.25800
H  3.99200 46.07100 20.67900
H  7.15100 43.01300 27.70900
H  6.49400 44.44500 26.85100
H  6.62400 42.83800 26.05400
H  2.98400 43.07800 31.26700
H  4.32100 40.72300 34.44200
H  4.40900 39.53900 33.13200
H  2.80300 39.90500 33.95800

