158

Mg 25.89700 1.37300 29.14000
C  27.72400 1.06900 32.12100
C  23.06900 1.83700 31.02300
C  23.99100 1.45600 26.24900
C  28.69000 0.68900 27.27900
N  25.39500 1.05200 31.37800
C  26.32400 1.19500 32.42100
C  25.68000 1.59800 33.74800
C  24.20500 1.78800 33.30500
C  24.17100 1.53300 31.84900
C  23.12400 0.91300 34.06700
C  26.30800 2.86500 34.43600
C  26.91400 2.59900 35.83000
H  26.42000 3.49000 36.92200
N  23.88500 1.63900 28.70700
C  22.86300 1.76500 29.65100
C  21.58100 1.91200 29.00500
C  21.80900 1.78800 27.59700
C  23.30100 1.63800 27.50100
C  20.32300 2.16300 29.80800
C  20.76300 1.83700 26.51300
O  21.08500 1.80300 25.30300
C  19.31400 2.08100 26.83100
N  26.32100 1.11000 27.15000
C  25.37000 1.19300 26.15300
C  25.92800 0.94000 24.71900
C  27.42500 0.77300 25.04500
C  27.51700 0.84200 26.58200
C  25.34500 -0.24600 24.00300
C  28.39800 1.80000 24.35500
C  29.01600 1.24900 23.05500
N  27.84200 0.94300 29.49700
C  28.88700 0.71900 28.65300
C  30.03500 0.36800 29.43600
C  29.62100 0.55300 30.77100
C  28.27200 0.87000 30.80400
C  31.40200 -0.17900 28.94400
C  30.11900 0.54600 32.15500
O  31.25300 0.45100 32.66100
C  28.90700 0.94000 33.09600
C  28.77100 -0.11000 34.12600
O  28.38300 -1.24400 33.92300
O  29.12000 0.35700 35.39100
C  29.20100 -0.49700 36.55800
H  22.25500 2.30300 31.58300
H  23.32500 1.60600 25.39800
H  29.59000 0.33600 26.77000
H  25.80500 0.72700 34.39200
H  23.96500 2.83300 33.49900
H  22.45400 0.38800 33.38600
H  22.55000 1.48700 34.79400
H  23.55200 0.11100 34.66800
H  25.61600 3.70700 34.42200
H  27.18500 3.23400 33.90500
H  27.97600 2.82900 35.91600
H  26.81100 1.58400 36.21400
H  19.82100 1.26600 30.17000
H  19.55800 2.69500 29.24200
H  20.58300 2.83500 30.62600
H  18.68800 1.94700 25.95000
H  19.17900 3.14900 27.00200
H  18.91200 1.47600 27.64400
H  25.59100 1.73100 24.05000
H  27.74800 -0.22200 24.74000
H  25.64500 -0.40200 22.96600
H  24.26500 -0.13800 24.10600
H  25.71700 -1.11200 24.55000
H  29.22100 1.99400 25.04300
H  27.89900 2.75200 24.17500
H  28.82900 1.84000 22.15800
H  28.49400 0.32800 22.80100
H  30.05800 0.93500 23.11800
H  31.11400 -0.94100 28.22000
H  31.94000 -0.72100 29.72100
H  32.02900 0.55300 28.43500
H  29.15600 1.86000 33.62400
H  28.38100 -0.17800 37.20200
H  30.12500 -0.34000 37.11400
H  29.20300 -1.57100 36.37000
Mg 26.59900 50.40400 27.21300
C  24.63900 51.72200 29.96300
C  29.10700 49.61900 29.59000
C  28.42000 49.39500 24.72800
C  24.26900 51.69500 25.00800
N  26.82400 50.78100 29.53900
C  25.82700 51.18300 30.38400
C  26.33300 51.05600 31.82600
C  27.78000 50.56800 31.64600
C  27.92600 50.27100 30.15000
C  28.96800 51.52100 32.18600
C  25.39700 50.11000 32.65000
C  24.73000 50.51700 33.94100
H  25.69800 50.77300 35.14600
N  28.46100 49.62500 27.11000
C  29.30000 49.28600 28.20300
C  30.42000 48.53400 27.71100
C  30.30700 48.47300 26.27100
C  29.01500 49.18300 26.01300
C  31.59600 47.97600 28.58300
C  31.25100 47.84800 25.20000
O  31.09300 47.96100 23.99400
C  32.43200 46.82500 25.55600
N  26.47100 50.70200 25.11900
C  27.29100 50.03900 24.25800
C  26.89600 50.22400 22.83200
C  25.33400 50.59000 22.97500
C  25.30100 50.98500 24.49800
C  27.79500 51.36300 22.21700
C  24.21800 49.49700 22.64900
C  23.17900 49.91500 21.66600
N  24.75600 51.55600 27.37300
C  23.92200 51.97200 26.35200
C  22.81700 52.51000 26.95900
C  23.00600 52.47100 28.39000
C  24.17500 51.80900 28.59400
C  21.61400 53.07600 26.21200
C  22.42700 52.91900 29.70100
O  21.36600 53.47800 29.95600
C  23.44400 52.36900 30.76400
C  23.88500 53.52100 31.60400
O  24.80900 54.32700 31.29800
O  23.17300 53.57600 32.73600
C  23.65300 54.35400 33.94300
H  29.76000 49.24100 30.38000
H  28.94300 49.04200 23.83600
H  23.56400 52.02900 24.24400
H  26.33600 52.03700 32.30000
H  27.92300 49.58700 32.10000
H  29.75000 51.52400 31.42600
H  29.28300 51.13000 33.15400
H  28.74500 52.57500 32.35600
H  25.89700 49.19800 32.97700
H  24.62900 49.63800 32.03700
H  23.98800 49.72800 34.06500
H  24.29500 51.48800 33.70500
H  31.32500 46.94200 28.80000
H  31.57500 48.38100 29.59500
H  32.59900 48.19500 28.21900
H  33.28800 47.33900 25.99300
H  32.83500 46.23800 24.73000
H  32.06300 46.14100 26.32000
H  27.03000 49.35400 22.18900
H  25.23600 51.51400 22.40400
H  28.30100 51.92800 23.00000
H  27.20200 52.13400 21.72500
H  28.53900 50.88900 21.57600
H  23.69600 49.23700 23.57000
H  24.75400 48.67900 22.16800
H  22.20800 49.44800 21.82500
H  23.41000 49.76700 20.61100
H  22.93900 50.97100 21.79200
H  20.71900 52.68100 26.69200
H  21.59000 52.95700 25.12900
H  21.73600 54.14400 26.39200
H  23.06800 51.69400 31.53400
H  24.59300 54.87200 33.75200
H  23.90600 53.58100 34.66900
H  22.93000 55.02700 34.40400

