158

Mg -11.46400 16.88100 40.06100
C  -7.96300 16.36400 40.43400
C  -10.69700 20.31400 39.65000
C  -14.54200 17.51400 39.19300
C  -11.86000 13.36300 40.01600
N  -9.50300 18.18900 39.98000
C  -8.23200 17.68000 40.18200
C  -7.18600 18.82200 40.10700
C  -8.14300 20.09900 40.22700
C  -9.54400 19.51700 39.93700
C  -7.95400 20.90800 41.52500
C  -6.43600 19.03200 38.78400
C  -5.15700 18.23800 38.54000
H  -5.03500 17.03000 37.57900
N  -12.49400 18.66400 39.46400
C  -11.99200 19.92200 39.36100
C  -12.99200 20.81900 38.92400
C  -14.19300 20.07400 38.84500
C  -13.81100 18.70500 39.14500
C  -12.75800 22.26200 38.79000
C  -15.58300 20.63500 38.46600
O  -15.75700 21.85500 38.24900
C  -16.83700 19.83700 38.49700
N  -12.89600 15.63800 39.48700
C  -14.12300 16.16100 39.36700
C  -15.19500 14.99600 39.32000
C  -14.34200 13.71200 39.36100
C  -12.95200 14.25200 39.67100
C  -16.44200 15.10500 40.33500
C  -14.48600 12.84000 38.10800
C  -14.33000 11.31700 38.36100
N  -10.20200 15.12500 40.24000
C  -10.53100 13.80600 40.12900
C  -9.33700 13.06400 40.30800
C  -8.30300 14.03700 40.55300
C  -8.90900 15.32000 40.39600
C  -9.12700 11.65900 40.40100
C  -6.89800 14.21500 40.81300
O  -6.01500 13.39100 40.93400
C  -6.64700 15.76200 40.83800
C  -6.31900 15.99400 42.29300
O  -7.07100 16.19500 43.22700
O  -4.93500 15.80200 42.47600
C  -4.34100 15.99800 43.81300
H  -10.45100 21.36300 39.46900
H  -15.58200 17.61500 38.87500
H  -12.03200 12.28400 40.02800
H  -6.56900 18.66800 40.99200
H  -7.91700 20.83200 39.45300
H  -7.01900 21.46200 41.61900
H  -7.90700 20.13400 42.29100
H  -8.83500 21.54800 41.57000
H  -6.23700 20.10000 38.69000
H  -7.12900 18.75200 37.99100
H  -4.73400 18.03900 39.52400
H  -4.68500 19.10900 38.08400
H  -12.80900 22.67600 39.79700
H  -13.43800 22.75500 38.09600
H  -11.75100 22.58200 38.52500
H  -16.71300 19.12500 37.68100
H  -17.71800 20.45100 38.31100
H  -16.93700 19.29900 39.44000
H  -15.56500 15.18200 38.31200
H  -14.78800 13.22700 40.23000
H  -16.16800 15.87900 41.05200
H  -16.76400 14.25900 40.94200
H  -17.31500 15.42800 39.76800
H  -13.76000 13.20300 37.37900
H  -15.46200 13.02000 37.65700
H  -15.27100 10.91200 37.98900
H  -14.32400 11.13600 39.43500
H  -13.44400 10.94800 37.84500
H  -8.12600 11.27900 40.60300
H  -9.55000 11.30600 39.46000
H  -9.80100 11.21400 41.13300
H  -5.80300 15.96100 40.17800
H  -3.43600 16.58700 43.66300
H  -4.06400 14.97600 44.07100
H  -4.97800 16.37400 44.61300
Mg -4.06800 25.60500 25.93300
C  -2.73700 26.90000 28.91700
C  -6.18600 23.68500 27.76100
C  -4.70000 24.01200 23.18100
C  -1.42200 27.28800 24.22800
N  -4.42100 25.40100 28.11600
C  -3.81900 26.05300 29.09200
C  -4.60800 25.83000 30.39500
C  -5.45800 24.58300 30.08600
C  -5.40500 24.54000 28.55200
C  -4.98900 23.28300 30.72200
C  -5.54100 27.07500 30.64400
C  -5.97000 27.23600 32.15900
H  -5.53900 26.19400 33.21600
N  -5.37800 24.15100 25.48300
C  -6.21900 23.54300 26.34100
C  -7.08600 22.58800 25.63400
C  -6.74100 22.73200 24.22100
C  -5.55800 23.67200 24.24100
C  -8.19700 21.78800 26.22000
C  -7.26700 22.11000 22.90700
O  -6.97300 22.55800 21.83000
C  -8.50200 21.26900 23.03700
N  -3.19300 25.57800 23.96000
C  -3.61100 24.78000 23.04600
C  -2.84400 24.90000 21.75000
C  -1.87000 26.19400 22.02800
C  -2.15800 26.40300 23.51300
C  -2.17000 23.57700 21.24100
C  -2.26800 27.44100 21.10500
C  -1.17500 28.29300 20.51700
N  -2.50300 26.91800 26.39100
C  -1.59400 27.59500 25.58700
C  -0.75200 28.55600 26.36800
C  -1.19400 28.22700 27.69700
C  -2.22800 27.26100 27.65400
C  0.31100 29.47100 25.84800
C  -1.00300 28.59600 29.08700
O  -0.17000 29.34200 29.59700
C  -1.96000 27.73900 29.95800
C  -1.11600 26.87700 30.91800
O  -0.52000 25.83100 30.63400
O  -1.50600 27.24700 32.22600
C  -1.13600 26.28500 33.23200
H  -6.84200 23.00100 28.30400
H  -4.81300 23.42700 22.26600
H  -0.66600 27.93500 23.78000
H  -3.88700 25.66700 31.19500
H  -6.48400 24.77900 30.39700
H  -4.60100 23.47300 31.72300
H  -4.27300 22.82000 30.04200
H  -5.83400 22.60900 30.86000
H  -6.34800 27.02200 29.91300
H  -5.01700 28.01700 30.48400
H  -7.05600 27.30400 32.23100
H  -5.50400 28.20700 32.32900
H  -9.12200 22.21700 25.83400
H  -8.03400 21.80300 27.29700
H  -8.02900 20.73600 25.99000
H  -8.62200 20.75500 22.08300
H  -9.31000 21.96300 23.27200
H  -8.38900 20.48800 23.78900
H  -3.61200 25.10900 21.00500
H  -0.82900 25.88800 21.92700
H  -2.56100 23.32500 20.25500
H  -2.36800 22.85800 22.03700
H  -1.12100 23.78100 21.02900
H  -2.84600 28.22600 21.59200
H  -2.87500 27.08700 20.27200
H  -0.17300 27.90500 20.70100
H  -1.17200 29.28300 20.97400
H  -1.38900 28.35800 19.45000
H  0.72700 30.22300 26.51800
H  -0.10000 30.00700 24.99200
H  1.06100 28.73900 25.54800
H  -2.52800 28.45500 30.55200
H  -1.68900 25.35000 33.13600
H  -1.32100 26.65800 34.23900
H  -0.06300 26.09600 33.22000

