158

Mg 46.42400 16.89200 28.10700
C  44.26700 16.67100 31.08600
C  48.56400 18.76400 29.97800
C  48.37300 16.96900 25.38200
C  43.95200 15.30000 26.29600
N  46.25700 17.83100 30.26400
C  45.44700 17.46800 31.31000
C  46.02200 17.94400 32.69100
C  47.33000 18.71400 32.17300
C  47.38300 18.46300 30.68100
C  47.28600 20.27600 32.50900
C  46.38400 16.69500 33.52700
C  47.49000 16.88800 34.65500
H  47.59800 18.33500 35.24900
N  48.15900 17.79400 27.74900
C  48.98300 18.49100 28.64400
C  50.22600 18.78600 28.05800
C  50.07200 18.50700 26.65800
C  48.81500 17.70400 26.54900
C  51.41900 19.34200 28.77600
C  51.03800 18.82200 25.43600
O  50.75500 18.66000 24.24700
C  52.41000 19.43200 25.75500
N  46.11600 16.32800 26.04500
C  47.14600 16.31100 25.19700
C  46.78000 15.71000 23.81100
C  45.35100 15.07100 24.11600
C  45.13000 15.60300 25.58900
C  46.69900 16.78800 22.63500
C  45.27700 13.53600 24.06100
C  44.26800 12.90000 22.96000
N  44.51400 16.16900 28.50300
C  43.65100 15.52300 27.67600
C  42.47600 15.03100 28.40800
C  42.75400 15.48800 29.79400
C  43.93200 16.21900 29.77600
C  41.38300 14.16900 27.87100
C  42.16900 15.55000 31.09400
O  41.06900 15.14800 31.46700
C  43.17400 16.21200 31.98900
C  42.48500 17.22400 32.75700
O  42.05200 18.29400 32.36200
O  42.48900 16.77200 34.03100
C  42.10100 17.64600 35.11600
H  49.29700 19.22400 30.64400
H  48.93900 17.22900 24.48500
H  43.21000 14.70200 25.76400
H  45.31800 18.60600 33.19500
H  48.31800 18.44600 32.54800
H  48.10500 20.58200 33.16000
H  46.41300 20.63900 33.05200
H  47.35900 20.85700 31.59000
H  46.63800 15.91000 32.81500
H  45.49000 16.32200 34.02800
H  48.46400 16.52600 34.32800
H  47.16700 16.33500 35.53700
H  52.20400 18.72000 28.34600
H  51.47900 19.17700 29.85200
H  51.46700 20.41800 28.61000
H  52.82600 19.75000 24.79900
H  52.94900 18.62600 26.25300
H  52.29400 20.30100 26.40200
H  47.45000 14.92700 23.45700
H  44.55900 15.49900 23.50200
H  47.66400 16.83700 22.13200
H  46.48700 17.77600 23.04400
H  45.91300 16.66500 21.89000
H  45.06000 13.09800 25.03500
H  46.27000 13.15100 23.82900
H  43.70100 13.75600 22.59600
H  43.67300 12.16500 23.50200
H  44.85800 12.44300 22.16600
H  41.50800 13.92500 26.81600
H  40.47900 14.77700 27.91400
H  41.25800 13.42000 28.65200
H  43.39400 15.34600 32.61400
H  41.15100 18.07100 34.79200
H  42.81900 18.45700 35.24100
H  42.10400 17.13900 36.08100
Mg -4.64700 25.28300 25.72100
C  -3.48200 26.77200 28.68100
C  -6.80300 23.46400 27.50800
C  -5.64700 23.89400 22.74600
C  -2.19900 27.13100 23.94100
N  -4.99300 25.02600 27.88400
C  -4.52400 25.91400 28.92200
C  -5.26800 25.57400 30.29900
C  -6.01200 24.21300 29.82400
C  -5.99000 24.26800 28.31000
C  -5.23000 22.94400 30.28700
C  -6.26000 26.70700 30.73100
C  -6.40000 26.98400 32.22300
H  -6.25700 25.86400 33.22300
N  -6.02900 23.80100 25.20100
C  -6.90300 23.28200 26.06900
C  -7.86500 22.45600 25.35500
C  -7.45600 22.46300 23.93500
C  -6.33500 23.37200 23.90100
C  -8.86400 21.60300 26.11400
C  -8.10400 21.77600 22.70500
O  -7.58400 21.89500 21.58200
C  -9.35800 21.09400 22.89400
N  -4.04100 25.49900 23.66600
C  -4.62000 24.77000 22.67000
C  -3.85600 25.03300 21.38500
C  -3.06600 26.34600 21.71200
C  -3.04200 26.32600 23.20500
C  -2.92600 23.86200 20.94000
C  -3.78300 27.58400 21.17900
C  -3.08900 28.14500 19.95500
N  -3.11600 26.71600 26.10900
C  -2.31200 27.44600 25.30400
C  -1.64700 28.44800 26.04400
C  -2.01500 28.15900 27.43800
C  -2.90800 27.08800 27.38300
C  -0.75300 29.57100 25.50700
C  -1.85800 28.65700 28.74900
O  -1.21300 29.58500 29.17900
C  -2.75500 27.72500 29.65500
C  -1.72400 27.12400 30.54300
O  -0.91900 26.25400 30.30300
O  -1.99500 27.56700 31.81300
C  -1.19700 27.00200 32.84200
H  -7.51900 22.86400 28.07300
H  -5.82700 23.31500 21.83700
H  -1.52300 27.64600 23.25500
H  -4.57700 25.44500 31.13200
H  -7.05300 24.06500 30.11100
H  -5.74400 22.45100 31.11300
H  -4.28000 23.24600 30.72700
H  -5.01400 22.23100 29.49100
H  -7.27100 26.48600 30.38700
H  -5.79600 27.58400 30.27800
H  -7.36800 27.44200 32.42900
H  -5.58500 27.68400 32.40600
H  -9.73200 22.17900 26.43400
H  -8.39600 21.18300 27.00400
H  -9.15600 20.81600 25.41700
H  -9.07600 20.18800 23.43200
H  -9.90000 20.82800 21.98600
H  -10.07400 21.67200 23.47700
H  -4.58100 25.07800 20.57200
H  -2.05100 26.20000 21.34100
H  -1.90300 24.23700 20.95200
H  -3.26700 23.48400 19.97600
H  -2.96300 23.07400 21.69300
H  -3.83400 28.39600 21.90500
H  -4.82400 27.36400 20.94300
H  -3.19200 27.45400 19.11800
H  -2.03300 28.20800 20.21900
H  -3.60900 29.07800 19.73800
H  -1.12500 30.54800 25.81600
H  -0.64400 29.46700 24.42700
H  0.17000 29.49500 26.08200
H  -3.57800 28.17400 30.21000
H  -0.13300 27.21900 32.74500
H  -1.47000 25.95000 32.93300
H  -1.57800 27.42800 33.77000

