158

Mg -3.35600 16.77800 27.36000
C  -3.12400 14.72100 30.32300
C  -3.32100 19.63100 29.34100
C  -3.49600 18.53700 24.66100
C  -3.44800 13.84500 25.52400
N  -3.23700 17.09600 29.55900
C  -3.11000 16.12700 30.57600
C  -3.12000 16.76400 31.94900
C  -3.28600 18.24300 31.56600
C  -3.20800 18.39600 30.05000
C  -4.59500 18.83500 32.18200
C  -1.87400 16.41300 32.81100
C  -1.51900 17.31800 34.07300
H  -0.84000 16.72000 35.29300
N  -3.36500 18.77300 27.00700
C  -3.35200 19.77800 27.95900
C  -3.23400 21.01200 27.34600
C  -3.31200 20.78900 25.92700
C  -3.45300 19.30400 25.79700
C  -3.18500 22.31800 28.06500
C  -3.09500 21.78400 24.64600
O  -3.15300 21.43400 23.48000
C  -2.57500 23.20000 24.93200
N  -3.41800 16.23000 25.33500
C  -3.48700 17.16500 24.37400
C  -3.43800 16.51400 22.96300
C  -3.28700 15.02500 23.29000
C  -3.40400 15.03900 24.78500
C  -4.68800 16.79800 22.05000
C  -1.96500 14.36700 22.84300
C  -1.88700 13.94300 21.39500
N  -3.43200 14.74600 27.76100
C  -3.40500 13.68300 26.89700
C  -3.36200 12.39200 27.59200
C  -3.23700 12.79600 28.93200
C  -3.32500 14.22300 28.98800
C  -3.43900 11.02700 27.06400
C  -3.23500 12.28500 30.28500
O  -3.12700 11.13400 30.74800
C  -3.02900 13.56600 31.25600
C  -1.66200 13.36400 31.80000
O  -0.72100 13.94600 31.34200
O  -1.68700 12.69900 32.97600
C  -0.43200 12.63800 33.73000
H  -3.38400 20.41600 30.09800
H  -3.50000 19.12400 23.74000
H  -3.49700 12.97900 24.86000
H  -4.02200 16.43600 32.46500
H  -2.49700 18.82200 32.04500
H  -4.58400 19.92400 32.13200
H  -4.53500 18.69100 33.26100
H  -5.44900 18.35900 31.70100
H  -1.01800 16.35600 32.13800
H  -1.93300 15.39600 33.19800
H  -2.45000 17.79300 34.38400
H  -0.86200 18.11900 33.73400
H  -2.23300 22.82700 27.91000
H  -3.33500 22.22500 29.14100
H  -3.93900 23.01400 27.69700
H  -1.67600 23.06900 25.53400
H  -3.26400 23.82900 25.49500
H  -2.36700 23.74400 24.01000
H  -2.56400 16.95300 22.48100
H  -4.16500 14.51600 22.89100
H  -5.34300 17.54300 22.50100
H  -5.37700 16.02500 21.70900
H  -4.31600 17.30600 21.16000
H  -1.73300 13.46200 23.40400
H  -1.16500 15.09600 22.97800
H  -2.76700 14.35800 20.90100
H  -1.86800 12.85700 21.30300
H  -0.98300 14.33500 20.93000
H  -4.45400 10.66000 27.21900
H  -2.67900 10.49900 27.63900
H  -3.05900 10.90200 26.05000
H  -3.77100 13.42600 32.04300
H  -0.31400 13.46100 34.43400
H  0.47900 12.48900 33.14900
H  -0.57900 11.68600 34.23900
Mg 49.33900 45.42500 43.37600
C  45.95900 46.00100 42.48100
C  48.96500 42.18100 42.48400
C  52.66500 45.18400 43.55600
C  49.65700 49.09600 43.70900
N  47.63300 44.30800 42.61900
C  46.33800 44.65900 42.43700
C  45.49700 43.46200 42.04500
C  46.43700 42.29200 42.26300
C  47.76000 42.98900 42.45000
C  46.04200 41.36300 43.38600
C  45.03400 43.43600 40.47900
C  46.10600 43.71900 39.33900
H  46.23000 42.69000 38.20800
N  50.67700 43.83600 43.08100
C  50.28400 42.60800 42.65000
C  51.47300 41.75100 42.65200
C  52.61600 42.54800 43.12200
C  52.05100 43.90900 43.25500
C  51.46400 40.23000 42.27800
C  54.06500 42.05600 43.40600
O  54.25000 40.82000 43.37300
C  55.28900 42.97600 43.66300
N  50.91500 47.00700 43.61000
C  52.22000 46.50900 43.69300
C  53.15000 47.73000 44.01200
C  52.23000 48.95800 43.82000
C  50.80900 48.32600 43.79000
C  53.71000 47.61600 45.42900
C  52.44800 49.84200 42.52100
C  53.03000 51.25800 42.74500
N  48.11300 47.28700 43.13600
C  48.36200 48.60600 43.31400
C  47.11600 49.37300 43.04400
C  46.11900 48.41000 42.68500
C  46.81000 47.14800 42.77700
C  46.92700 50.89900 43.06900
C  44.73900 48.15600 42.42300
O  43.83100 48.92600 42.33800
C  44.66900 46.59300 42.11400
C  43.47700 45.96900 42.78900
O  42.50000 45.54000 42.24400
O  43.54000 46.32000 44.15800
C  42.31000 46.07600 44.89900
H  48.75300 41.12500 42.30500
H  53.74200 45.07900 43.70400
H  49.72000 50.18400 43.78500
H  44.60100 43.54700 42.65900
H  46.58000 41.74100 41.33400
H  45.35100 41.93800 44.00200
H  46.94800 40.96800 43.84600
H  45.44800 40.50200 43.07900
H  44.23000 44.17100 40.42500
H  44.51700 42.51100 40.22300
H  47.06800 43.77600 39.84800
H  45.94400 44.70900 38.91300
H  50.51400 40.01500 41.78900
H  51.44900 39.56900 43.14400
H  52.30500 40.03400 41.61300
H  55.14900 43.81700 42.98400
H  56.18100 42.43000 43.35500
H  55.34200 43.15400 44.73700
H  54.00900 47.67200 43.34300
H  52.34000 49.52300 44.74500
H  53.56300 48.45500 46.10800
H  54.78700 47.56700 45.26800
H  53.32800 46.68700 45.85100
H  51.53000 49.92900 41.93900
H  53.13800 49.24800 41.92200
H  53.36400 51.28800 43.78200
H  52.34000 52.06600 42.50000
H  53.91800 51.43700 42.13900
H  47.40100 51.53000 43.82100
H  45.85700 51.04000 42.92100
H  47.43300 51.18700 42.14700
H  44.48200 46.43400 41.05200
H  41.97500 45.04000 44.86100
H  41.55300 46.78200 44.55700
H  42.52800 46.37700 45.92400

