158

Mg 47.93000 34.78600 26.50300
C  45.71700 33.67900 29.14400
C  48.52500 37.61000 28.30500
C  49.25500 35.99800 23.77300
C  46.83700 31.88700 24.71200
N  47.00300 35.58800 28.43400
C  46.25600 34.95300 29.37100
C  46.37600 35.70100 30.73500
C  46.98700 37.07800 30.29800
C  47.52600 36.78400 28.91100
C  46.06000 38.28800 30.34200
C  47.40800 34.90300 31.69200
C  47.05300 34.78000 33.24200
H  47.99900 35.37000 34.33000
N  48.91800 36.43900 26.12100
C  49.10000 37.45500 27.07300
C  49.94000 38.41700 26.47900
C  50.08500 38.01200 25.04900
C  49.43300 36.75800 24.94700
C  50.35200 39.76000 27.11000
C  50.83200 38.77500 23.97900
O  50.80800 38.41400 22.79300
C  51.71300 39.98100 24.32200
N  48.14800 33.93000 24.58900
C  48.67900 34.70800 23.59100
C  48.87200 33.91900 22.25900
C  48.40800 32.42700 22.72300
C  47.69600 32.74300 24.02500
C  48.06800 34.45200 21.06300
C  49.54100 31.26600 22.88800
C  50.98700 31.64000 22.58800
N  46.57200 33.04900 26.80600
C  46.27300 32.00500 25.96900
C  45.30900 31.08500 26.62800
C  45.07000 31.68800 27.88600
C  45.89900 32.84100 27.95600
C  44.64200 29.77800 26.19700
C  44.38500 31.58600 29.17800
O  43.58800 30.74700 29.61800
C  44.64500 32.89700 29.93300
C  44.86900 32.60500 31.37000
O  45.79700 31.86600 31.73000
O  43.83700 33.14800 32.14600
C  43.78200 32.76700 33.58100
H  48.80600 38.50900 28.85800
H  49.61400 36.46200 22.85200
H  46.60500 30.96700 24.17200
H  45.38400 35.81800 31.17100
H  47.81100 37.43400 30.91600
H  46.52000 38.94700 29.60700
H  45.90000 38.77700 31.30300
H  45.05800 38.16000 29.93300
H  48.43600 35.25400 31.78900
H  47.47900 33.88200 31.31500
H  46.91500 33.71300 33.42000
H  46.02600 35.07200 33.45800
H  51.41800 39.98100 27.07600
H  50.12600 39.90600 28.16700
H  49.88000 40.56400 26.54500
H  51.14900 40.57800 25.03900
H  51.83400 40.60600 23.43700
H  52.70500 39.68800 24.66700
H  49.93500 34.04800 22.05400
H  47.55900 32.10400 22.12100
H  48.79900 34.34300 20.26200
H  47.97400 35.53400 21.16500
H  47.08800 34.02900 20.84400
H  49.30400 30.44500 22.21100
H  49.44500 30.81800 23.87700
H  51.37600 32.25900 23.39600
H  51.07000 32.27500 21.70600
H  51.63800 30.77200 22.49400
H  43.56100 29.87200 26.30000
H  45.11200 29.10200 26.91200
H  45.00600 29.50000 25.20800
H  43.74300 33.50300 29.85100
H  43.90500 33.62000 34.24800
H  44.51600 32.00600 33.84500
H  42.78500 32.34900 33.72300
Mg -9.89400 40.29700 42.37100
C  -8.95000 37.03000 41.49000
C  -6.70200 41.28900 41.39800
C  -10.98900 43.42100 42.28700
C  -13.12400 39.13100 43.18700
N  -8.13000 39.24300 41.32000
C  -7.94000 37.97000 41.15700
C  -6.48600 37.55500 40.68000
C  -5.80700 38.91200 41.05200
C  -6.89700 39.88600 41.31500
C  -4.71700 39.02100 42.16500
C  -6.51200 37.15000 39.17800
C  -5.63500 36.06600 38.73100
H  -4.81600 36.44400 37.44100
N  -8.96400 42.07000 41.90900
C  -7.69300 42.31900 41.55800
C  -7.44300 43.74500 41.44600
C  -8.68000 44.34000 41.61800
C  -9.61700 43.26200 42.01700
C  -6.16200 44.40800 40.94400
C  -8.85100 45.85700 41.50500
O  -7.90200 46.61000 41.20600
C  -10.22600 46.48000 41.61400
N  -11.87300 41.14400 42.40800
C  -12.01000 42.49200 42.57200
C  -13.34400 42.89700 43.14300
C  -13.96400 41.51900 43.55600
C  -12.94500 40.50100 42.98700
C  -13.21200 43.92300 44.27900
C  -15.41300 41.19700 43.15900
C  -16.29900 40.77200 44.38800
N  -10.88000 38.45200 42.46400
C  -12.16200 38.15400 42.78700
C  -12.37900 36.71000 42.65400
C  -11.08100 36.25500 42.32300
C  -10.23600 37.32300 42.12300
C  -13.70600 35.94400 42.79500
C  -10.42200 35.03800 41.95100
O  -10.78500 33.86300 41.84300
C  -9.00200 35.54400 41.37200
C  -7.88200 34.93400 42.17400
O  -7.83700 34.90900 43.43000
O  -6.96600 34.35500 41.29200
C  -5.92600 33.62600 41.92000
H  -5.67100 41.64500 41.34000
H  -11.26700 44.47700 42.30600
H  -14.01500 38.81400 43.73300
H  -6.16300 36.74400 41.33300
H  -5.26900 39.33100 40.20200
H  -3.71400 39.17800 41.76800
H  -4.70400 38.08300 42.72100
H  -4.85700 39.80100 42.91300
H  -6.36300 38.05500 38.58900
H  -7.54300 36.84300 38.99900
H  -6.06300 35.08500 38.52500
H  -4.89100 35.92600 39.51500
H  -6.32900 44.84800 39.96000
H  -5.39400 43.64200 40.84300
H  -5.78600 45.11400 41.68400
H  -10.55500 46.39600 42.65000
H  -10.90500 45.93700 40.95700
H  -10.24900 47.55500 41.43400
H  -13.86500 43.40600 42.33300
H  -13.74300 41.51400 44.62300
H  -12.14700 44.03100 44.48700
H  -13.69800 43.55100 45.18100
H  -13.55700 44.92200 44.01300
H  -15.36000 40.43900 42.37700
H  -15.85300 42.08500 42.70500
H  -16.63700 39.76700 44.13700
H  -17.16300 41.40200 44.60100
H  -15.62200 40.75700 45.24100
H  -13.58200 34.86100 42.81200
H  -14.38600 36.23800 41.99600
H  -14.21200 36.25700 43.70900
H  -8.89500 35.13800 40.36600
H  -5.88700 33.47200 42.99900
H  -5.00100 34.17400 41.74300
H  -5.79100 32.69400 41.37200

