158

Mg 6.97900 2.92900 28.14500
C  8.57700 1.51400 30.95200
C  5.47900 5.18700 30.09400
C  5.31100 3.80500 25.45200
C  8.53100 0.29200 26.12500
N  7.09000 3.22200 30.34500
C  7.75800 2.63100 31.32900
C  7.53600 3.28400 32.72800
C  6.44500 4.40500 32.34600
C  6.27400 4.25500 30.81200
C  5.09900 4.25200 33.16300
C  8.87000 3.98400 33.24200
C  9.38200 3.32500 34.54500
H  10.02700 4.21900 35.68900
N  5.65500 4.40100 27.80000
C  5.12800 5.28500 28.71300
C  4.31900 6.23800 28.05100
C  4.19200 5.78800 26.69900
C  5.02800 4.59400 26.62800
C  3.67300 7.40300 28.73800
C  3.39200 6.35000 25.50800
O  3.30900 5.70900 24.43100
C  2.70600 7.72500 25.65700
N  6.87700 2.08000 26.15700
C  6.16200 2.71400 25.21400
C  6.30200 2.21000 23.79000
C  7.40000 1.09800 23.96100
C  7.68000 1.14800 25.48000
C  4.94500 1.60400 23.12100
C  8.58900 1.41900 23.02200
C  9.15600 0.11100 22.42400
N  8.25900 1.22000 28.42500
C  8.83300 0.34000 27.53800
C  9.79700 -0.55000 28.25800
C  9.66700 -0.16000 29.62600
C  8.72300 0.94600 29.63300
C  10.84500 -1.56900 27.71100
C  10.09800 -0.41300 30.98900
O  10.85300 -1.26400 31.47900
C  9.41800 0.64800 31.90000
C  8.55000 -0.07700 32.93200
O  7.47800 -0.57800 32.75100
O  9.19600 -0.23200 34.08400
C  8.49900 -0.73700 35.25900
H  4.97300 5.95200 30.68700
H  4.85500 4.10700 24.50600
H  8.95700 -0.45200 25.44800
H  7.06000 2.55000 33.37800
H  6.71500 5.40400 32.68900
H  5.26500 3.73600 34.10900
H  4.48100 3.65800 32.49000
H  4.50100 5.14200 33.35600
H  8.76000 5.06200 33.36500
H  9.65000 3.87600 32.48800
H  10.26400 2.74900 34.26300
H  8.61400 2.65300 34.92800
H  3.95200 8.37300 28.32700
H  4.00300 7.37000 29.77700
H  2.60100 7.20400 28.74400
H  2.18300 7.86200 24.71000
H  3.52800 8.42900 25.78200
H  1.96100 7.63600 26.44800
H  6.72200 2.85600 23.01900
H  6.99000 0.10500 23.77500
H  4.07300 1.74100 23.76100
H  4.96200 0.53000 22.93800
H  4.84600 2.21700 22.22600
H  9.39000 1.92900 23.55500
H  8.38800 2.03500 22.14500
H  8.91800 -0.78500 22.99700
H  10.18400 0.13800 22.06100
H  8.54200 0.05400 21.52500
H  11.42000 -1.92000 28.56800
H  11.40500 -1.01400 26.95900
H  10.43700 -2.41900 27.16400
H  10.23500 1.17900 32.38800
H  7.88000 -1.61200 35.06000
H  7.99400 0.13900 35.66500
H  9.32500 -0.93500 35.94100
Mg 9.74200 47.29400 24.80600
C  7.78400 47.38500 27.68300
C  12.32900 48.87100 26.63200
C  11.52400 47.28300 22.06600
C  6.95200 46.15000 22.98900
N  10.07700 47.91500 27.00100
C  9.11900 47.81800 27.98100
C  9.69800 48.44100 29.25700
C  10.95600 49.31300 28.80700
C  11.17400 48.66300 27.40000
C  10.86500 50.86400 28.74000
C  10.02300 47.30700 30.24700
C  9.89200 47.58300 31.78400
H  9.67200 46.37900 32.71700
N  11.70400 47.93200 24.45400
C  12.55600 48.53600 25.31300
C  13.79300 48.73000 24.52200
C  13.62400 48.23100 23.22900
C  12.24500 47.74800 23.17200
C  15.05900 49.20600 25.17900
C  14.66000 48.24900 22.09000
O  14.49000 47.74900 20.93100
C  15.90700 49.04400 22.22600
N  9.26700 46.75600 22.78200
C  10.25000 46.83500 21.83100
C  9.77900 46.27700 20.50000
C  8.21000 46.02300 20.72900
C  8.08000 46.37500 22.23200
C  10.22300 47.13100 19.19900
C  7.81500 44.63000 20.46300
C  8.35500 43.59000 21.50600
N  7.78400 46.83500 25.18300
C  6.78500 46.43600 24.36800
C  5.52900 46.28800 25.14500
C  5.85000 46.66300 26.45600
C  7.23400 46.99000 26.41500
C  4.20200 46.06200 24.69500
C  5.36000 46.83900 27.79300
O  4.24900 46.60600 28.28900
C  6.66000 47.16400 28.65000
C  6.87800 46.01700 29.60300
O  7.34200 44.97000 29.33500
O  6.49900 46.22900 30.84000
C  6.41000 45.10500 31.78400
H  13.19800 49.29400 27.14100
H  12.22900 47.04900 21.26500
H  6.15900 45.66500 22.41500
H  8.94600 49.06000 29.74600
H  11.77400 49.04800 29.47800
H  11.22300 51.16200 27.75500
H  11.43400 51.38500 29.50900
H  9.78200 50.97300 28.79800
H  11.03800 46.99300 30.00000
H  9.36900 46.44700 30.10600
H  9.15500 48.36400 31.97100
H  10.86900 47.88900 32.16000
H  15.88500 48.66300 24.71900
H  15.01500 49.25600 26.26700
H  15.16200 50.28300 25.04500
H  16.26100 49.37800 21.25100
H  16.64800 48.39900 22.69800
H  15.73300 49.88800 22.89400
H  10.23100 45.28600 20.45100
H  7.57200 46.66500 20.12200
H  9.53900 47.97000 19.06700
H  10.15600 46.49500 18.31700
H  11.21200 47.56500 19.34600
H  8.18600 44.30100 19.49200
H  6.72900 44.59500 20.38200
H  8.70400 42.70600 20.97100
H  7.54300 43.35800 22.19600
H  9.19700 43.90000 22.12400
H  4.06800 46.90900 24.02300
H  3.49900 46.05800 25.52800
H  4.11500 45.09300 24.20200
H  6.56700 48.08600 29.22400
H  7.25400 44.43200 31.63500
H  5.45400 44.61200 31.60300
H  6.48300 45.42600 32.82300

