158

Mg 26.29400 51.15200 26.18600
C  24.18000 52.31600 28.73600
C  28.61000 50.50400 28.74900
C  28.78500 50.95300 23.88200
C  24.20200 52.66200 23.90200
N  26.33200 51.44700 28.45500
C  25.33100 51.80800 29.25900
C  25.57500 51.43200 30.75600
C  27.10500 51.20800 30.70100
C  27.39600 50.99000 29.17900
C  27.95800 52.31000 31.44800
C  24.76300 50.23700 31.23200
C  25.20600 49.54300 32.51000
H  24.41700 49.84800 33.82000
N  28.34100 50.56900 26.30200
C  29.12100 50.29300 27.41000
C  30.45500 49.98500 27.03000
C  30.46300 50.02400 25.59200
C  29.17500 50.54500 25.22600
C  31.52900 49.55800 27.95600
C  31.59000 49.62500 24.62600
O  31.51300 49.82600 23.37400
C  32.85300 48.98700 25.17900
N  26.46800 51.72100 24.19800
C  27.60000 51.42300 23.43500
C  27.19900 51.56100 21.94800
C  25.86100 52.40800 21.97100
C  25.47700 52.26100 23.44300
C  28.24800 52.28200 21.12500
C  24.83200 51.88400 20.97600
C  24.23900 52.99100 20.08200
N  24.45200 52.12100 26.19700
C  23.67400 52.56400 25.18900
C  22.39500 53.01700 25.72500
C  22.60500 52.98600 27.08800
C  23.87500 52.44700 27.35400
C  21.18100 53.51600 24.98900
C  21.97100 53.24400 28.36300
O  20.82900 53.65700 28.55500
C  22.92900 52.70800 29.44100
C  23.12300 53.68700 30.49200
O  23.85500 54.65800 30.49400
O  22.34300 53.27400 31.51900
C  22.43300 53.74900 32.90400
H  29.28100 50.36300 29.59900
H  29.38500 50.65000 23.02100
H  23.41000 52.98300 23.22200
H  25.26600 52.31300 31.31900
H  27.44400 50.26700 31.13300
H  28.34700 51.80400 32.33300
H  27.26600 53.12800 31.64800
H  28.71100 52.72500 30.77800
H  24.69200 49.57600 30.36800
H  23.71300 50.50600 31.35300
H  26.25500 49.75400 32.71500
H  25.14700 48.46900 32.33400
H  31.15100 49.52500 28.97700
H  32.51800 50.00200 27.84100
H  31.69300 48.49400 27.78600
H  33.54800 48.75800 24.37100
H  32.53300 47.99400 25.49400
H  33.27400 49.66200 25.92400
H  26.95700 50.58300 21.53100
H  26.01700 53.47700 21.82300
H  28.94200 52.87900 21.71700
H  27.66300 52.95300 20.49500
H  28.76600 51.45800 20.63500
H  23.95600 51.40700 21.41600
H  25.37200 51.19300 20.32800
H  23.17900 52.74000 20.03400
H  24.62700 52.93300 19.06500
H  24.45200 53.99700 20.44300
H  20.34100 53.09800 25.54400
H  21.18600 53.19300 23.94800
H  21.16500 54.60200 24.90100
H  22.49200 51.82800 29.91200
H  23.17100 53.22700 33.51200
H  21.48000 53.73900 33.43400
H  22.76700 54.78300 32.98000
Mg -0.28200 43.18900 26.26600
C  2.20300 42.48500 28.70800
C  -2.65300 41.82400 28.39400
C  -2.37500 43.19400 23.76700
C  2.41100 43.66000 23.90700
N  -0.22400 42.21400 28.36800
C  0.87500 42.24200 29.19300
C  0.44000 41.90400 30.65400
C  -1.06700 41.47200 30.46100
C  -1.37000 41.84900 28.95600
C  -1.26200 39.98500 30.69800
C  0.92100 43.12700 31.47800
C  0.27400 43.31200 32.93700
H  -0.25900 42.05500 33.71600
N  -2.28000 42.80200 26.18000
C  -3.10700 42.29400 27.15700
C  -4.48700 42.46300 26.71200
C  -4.39800 42.70100 25.32000
C  -2.97300 42.90600 25.01400
C  -5.66900 42.00300 27.49600
C  -5.48100 42.79600 24.25300
O  -5.25800 42.94500 23.09300
C  -6.91700 42.53600 24.60200
N  0.05600 43.37500 24.09600
C  -1.06500 43.48100 23.33300
C  -0.64300 44.02900 21.95100
C  0.84000 44.55000 22.11100
C  1.14700 43.82300 23.41100
C  -0.90600 42.81100 20.95100
C  1.09100 46.08300 22.40800
C  1.17700 46.97100 21.19400
N  1.87200 43.11000 26.22500
C  2.77800 43.32600 25.24500
C  4.07100 43.28500 25.83300
C  3.87900 42.83300 27.12400
C  2.56900 42.76800 27.38300
C  5.33100 43.50300 25.07100
C  4.61800 42.48100 28.32600
O  5.84200 42.33800 28.55000
C  3.57200 42.41200 29.45900
C  3.75800 41.09200 30.09900
O  3.43100 40.01800 29.63200
O  4.34600 41.21100 31.35600
C  4.54400 40.04900 32.24600
H  -3.43700 41.58300 29.11500
H  -2.97900 43.25800 22.85900
H  3.28100 43.91000 23.29600
H  1.11300 41.08400 30.90400
H  -1.61000 42.10200 31.16600
H  -0.37200 39.40300 30.93800
H  -1.72900 39.50400 29.83900
H  -1.82300 39.88600 31.62700
H  0.74800 44.02100 30.88000
H  1.99700 43.17200 31.64800
H  -0.50700 44.04300 32.73000
H  0.99700 43.70300 33.65200
H  -5.46500 41.59600 28.48600
H  -6.12100 41.19300 26.92400
H  -6.33300 42.86400 27.57200
H  -7.01300 41.53500 25.02200
H  -7.43100 42.52700 23.64200
H  -7.08800 43.24100 25.41600
H  -1.24600 44.88800 21.65400
H  1.53200 44.00800 21.46700
H  -1.38300 41.95400 21.42600
H  0.03500 42.33600 20.67300
H  -1.38000 43.19600 20.04800
H  1.94700 46.26200 23.05900
H  0.28900 46.51000 23.01000
H  0.88400 46.43200 20.29300
H  2.24300 47.15800 21.05900
H  0.61800 47.90400 21.26200
H  6.14400 43.88700 25.68800
H  5.29700 44.38300 24.42800
H  5.68800 42.65700 24.48500
H  3.60300 43.22200 30.18800
H  5.00800 39.25300 31.66400
H  3.54000 39.66900 32.43600
H  5.13000 40.24400 33.14400

