158

Mg 40.97200 7.99500 29.35600
C  42.68500 9.41900 32.12700
C  38.51600 6.87200 31.60100
C  39.60500 6.25300 26.83000
C  43.77300 8.72400 27.33600
N  40.63000 8.23300 31.61400
C  41.46800 8.77300 32.49500
C  40.94500 8.70800 33.97000
C  39.71200 7.70100 33.72400
C  39.60900 7.55200 32.25000
C  39.81400 6.35200 34.56600
C  40.60700 10.11300 34.54300
C  39.62100 10.17400 35.72400
H  40.18700 10.91800 36.90000
N  39.28100 6.68600 29.26100
C  38.41200 6.42100 30.27200
C  37.37200 5.64000 29.75500
C  37.63300 5.49100 28.39700
C  38.94500 6.11200 28.08600
C  36.26800 5.24400 30.57700
C  36.84000 4.83700 27.35600
O  37.21800 4.71900 26.19100
C  35.44900 4.30200 27.72800
N  41.67800 7.49800 27.37600
C  40.84900 6.77000 26.52800
C  41.50900 6.58600 25.16400
C  42.81600 7.49000 25.31500
C  42.75800 7.92600 26.77100
C  41.77800 5.08600 24.71300
C  42.80100 8.61600 24.30900
C  42.01000 9.84800 24.83200
N  42.79800 8.87800 29.60600
C  43.82500 9.12100 28.70300
C  44.81600 9.99000 29.33700
C  44.48800 10.04800 30.70500
C  43.20900 9.43800 30.78500
C  46.07200 10.53600 28.76300
C  44.94100 10.51100 32.04600
O  45.89900 11.14200 32.48500
C  43.74100 10.15900 32.98000
C  44.21100 9.29000 34.17500
O  44.72600 8.15900 34.10100
O  44.11100 10.00600 35.32000
C  44.49400 9.22300 36.41500
H  37.68800 6.61800 32.26600
H  39.26600 5.77100 25.91100
H  44.60900 9.00900 26.69500
H  41.70800 8.23400 34.58700
H  38.80300 8.22100 34.02800
H  40.39000 5.60300 34.02100
H  38.76500 6.06200 34.50800
H  40.11000 6.40000 35.61400
H  40.24500 10.60800 33.64300
H  41.51900 10.59000 34.90200
H  39.45400 9.13900 36.02400
H  38.71800 10.70000 35.41500
H  36.37500 4.18800 30.82700
H  35.32400 5.40100 30.05600
H  35.95600 5.86300 31.41900
H  35.47300 3.65700 28.60700
H  35.04000 3.68600 26.92800
H  34.69600 5.08700 27.78700
H  40.71600 6.82500 24.45400
H  43.73800 6.92000 25.20200
H  42.71400 4.70900 25.12500
H  41.89100 5.12100 23.63000
H  40.98600 4.38300 24.97000
H  42.27500 8.29000 23.41200
H  43.86200 8.81200 24.15000
H  41.46500 9.66900 25.75800
H  41.26600 10.18400 24.11100
H  42.73400 10.66300 24.84000
H  46.38000 11.48600 29.20000
H  45.82900 10.64800 27.70600
H  46.88800 9.82400 28.88300
H  43.44700 11.11800 33.40700
H  45.55900 9.00400 36.33500
H  43.75300 8.43000 36.51400
H  44.43900 9.70600 37.39000
Mg 8.51100 47.81200 29.20100
C  6.68900 47.12800 32.15000
C  11.36100 47.63000 31.09600
C  10.34000 48.65400 26.54800
C  5.55100 48.45000 27.49600
N  8.95300 47.50700 31.39900
C  8.09200 47.19000 32.42300
C  8.78900 47.16000 33.82400
C  10.23400 47.44900 33.42700
C  10.22500 47.41700 31.86100
C  10.84800 48.73600 34.12100
C  8.53400 45.82200 34.47600
C  9.55200 45.42500 35.64200
H  8.95400 44.77900 36.88500
N  10.57600 47.83000 28.79700
C  11.55500 47.73400 29.72500
C  12.88000 47.76900 29.08400
C  12.56200 47.92600 27.65100
C  11.11800 48.13200 27.58500
C  14.17900 47.52800 29.79400
C  13.53400 48.03100 26.46900
O  13.13000 48.21300 25.34900
C  15.12500 47.88900 26.69400
N  7.96700 48.63200 27.33600
C  8.93100 48.92100 26.42800
C  8.31600 49.54700 25.17900
C  6.77100 49.32900 25.33600
C  6.70400 48.76000 26.78400
C  8.86000 51.00100 24.93300
C  6.13500 48.35200 24.26300
C  5.71500 48.99700 22.90400
N  6.46800 47.76400 29.60700
C  5.37700 47.98200 28.83800
C  4.18900 47.76400 29.61700
C  4.63300 47.42200 30.91300
C  6.04900 47.47000 30.87800
C  2.79700 47.80400 29.02300
C  4.21800 47.12300 32.26900
O  3.09900 47.06900 32.82300
C  5.51400 46.84400 33.05600
C  5.46700 45.38500 33.44400
O  5.84600 44.40400 32.77600
O  5.01700 45.29600 34.76700
C  5.14600 43.96500 35.36400
H  12.27200 47.67100 31.69700
H  10.88600 48.81100 25.61600
H  4.65400 48.60200 26.89200
H  8.46900 47.94600 34.50900
H  10.79200 46.55400 33.70200
H  11.93300 48.63000 34.09500
H  10.53400 48.65000 35.16100
H  10.44100 49.66600 33.72500
H  8.66100 45.05600 33.71100
H  7.53600 45.63600 34.87100
H  10.18000 46.20900 36.06700
H  10.20400 44.62100 35.30000
H  14.81000 46.70600 29.45800
H  14.05400 47.30000 30.85200
H  14.68100 48.48500 29.93900
H  15.38500 48.38500 27.62900
H  15.74600 48.14600 25.83500
H  15.36500 46.84300 26.88300
H  8.55800 49.07000 24.23000
H  6.30000 50.29900 25.17800
H  8.17300 51.70000 24.45500
H  9.67100 51.04100 24.20600
H  9.40900 51.31500 25.82100
H  5.20700 47.97000 24.68900
H  6.83000 47.61200 23.86800
H  6.34200 48.67800 22.07100
H  5.76500 50.08000 23.01000
H  4.72300 48.63100 22.64100
H  2.84600 47.55100 27.96400
H  2.29500 48.74500 29.25100
H  2.26700 47.01700 29.55900
H  5.67000 47.45000 33.94900
H  6.15700 43.55700 35.35100
H  4.59000 43.36000 34.64800
H  4.68000 43.93800 36.34900

