158

Mg -1.44400 17.14300 26.19500
C  -1.55300 14.91700 28.95500
C  -1.91100 19.64200 28.50200
C  -1.61200 19.15900 23.64900
C  -1.48600 14.27900 24.11000
N  -1.63700 17.19700 28.40400
C  -1.50900 16.22200 29.38400
C  -1.79500 16.83300 30.79100
C  -2.41600 18.27000 30.46200
C  -2.00800 18.38400 29.02700
C  -3.93200 18.28300 30.62100
C  -0.63100 16.87700 31.83300
C  -1.12400 16.37900 33.29900
H  -0.05600 16.06800 34.47200
N  -1.62100 19.21300 26.03600
C  -1.73000 20.06900 27.09800
C  -1.68700 21.40200 26.61600
C  -1.61300 21.31200 25.22400
C  -1.64700 19.88300 24.90200
C  -1.69700 22.58600 27.56900
C  -1.43500 22.41900 24.13000
O  -1.30700 22.24200 22.89100
C  -1.26900 23.79400 24.69500
N  -1.40000 16.77000 24.21700
C  -1.60200 17.75800 23.29700
C  -1.69100 17.25600 21.93000
C  -1.38400 15.72000 22.05200
C  -1.34900 15.53100 23.55100
C  -3.09600 17.60200 21.18100
C  0.00900 15.20400 21.41700
C  -0.14800 14.83100 19.95900
N  -1.52100 15.07200 26.43500
C  -1.65900 14.01000 25.48500
C  -1.74600 12.71300 26.13100
C  -1.72900 12.98700 27.52900
C  -1.52100 14.43900 27.67700
C  -1.94800 11.39200 25.52200
C  -1.81600 12.37900 28.88300
O  -1.90700 11.18400 29.22600
C  -1.82900 13.63800 29.87900
C  -0.90000 13.47000 30.95900
O  0.34100 13.57700 30.98000
O  -1.56100 13.04200 32.00500
C  -0.76600 12.38900 33.06700
H  -2.00200 20.31200 29.35900
H  -1.77700 19.74300 22.74100
H  -1.62000 13.41300 23.45800
H  -2.62600 16.22700 31.15400
H  -2.05300 19.03300 31.15100
H  -4.32000 17.31600 30.94100
H  -4.44400 18.59000 29.70900
H  -4.25300 18.94000 31.43000
H  -0.35800 17.92500 31.95600
H  0.29600 16.41300 31.49600
H  -1.53100 15.39400 33.07000
H  -1.89300 17.05900 33.66300
H  -2.02100 22.40900 28.59400
H  -2.30500 23.41800 27.21300
H  -0.64000 22.85100 27.61400
H  -0.54700 23.87600 25.50700
H  -2.24300 24.07400 25.09700
H  -0.97300 24.51200 23.93000
H  -0.96800 17.71900 21.25900
H  -2.25400 15.14800 21.72900
H  -2.84600 18.00500 20.19900
H  -3.68400 18.35300 21.70900
H  -3.68500 16.69700 21.03100
H  0.39600 14.39300 22.03500
H  0.77900 15.97500 21.43900
H  0.49400 15.47100 19.35300
H  -1.14500 14.80700 19.51700
H  0.44800 13.92700 19.83800
H  -0.98700 10.98200 25.21000
H  -2.48600 11.54000 24.58600
H  -2.57300 10.85800 26.23800
H  -2.79200 13.79400 30.36600
H  -1.54200 11.97800 33.71300
H  -0.24300 13.14400 33.65300
H  -0.02200 11.70200 32.66400
Mg 47.10700 35.86500 28.96900
C  45.55000 33.57500 31.19800
C  47.19200 38.07000 31.65100
C  48.04800 38.16900 26.91900
C  46.49600 33.64100 26.23500
N  46.54700 35.81900 31.13800
C  45.97900 34.72300 31.89400
C  46.12600 34.89500 33.37800
C  46.20000 36.40500 33.45400
C  46.69000 36.81000 31.98800
C  44.84100 37.10400 33.82200
C  47.41400 34.06300 33.86700
C  47.38300 33.65500 35.34000
H  46.51900 34.45400 36.32400
N  47.82900 37.75800 29.26600
C  47.68900 38.46700 30.41100
C  48.41600 39.82200 30.16600
C  48.76600 39.78400 28.80300
C  48.17800 38.55900 28.20600
C  48.58900 40.88000 31.19000
C  49.62700 40.73200 27.91900
O  49.85100 40.56500 26.75400
C  50.00500 42.05300 28.50600
N  47.20000 35.91000 26.87300
C  47.67200 36.99400 26.27200
C  47.75100 36.91300 24.77100
C  47.26600 35.45400 24.53100
C  47.02700 34.92500 25.98100
C  46.81300 37.96700 23.97800
C  48.13700 34.57900 23.59700
C  47.68900 34.43500 22.09100
N  46.25300 34.05100 28.73100
C  46.08600 33.27900 27.51000
C  45.34900 32.08100 27.87300
C  45.12200 32.20500 29.30100
C  45.68800 33.42000 29.80200
C  45.13800 30.83200 26.96900
C  44.59300 31.44100 30.43700
O  44.12200 30.27500 30.54700
C  44.66300 32.40000 31.60800
C  45.00600 31.75000 32.92000
O  46.06500 31.30200 33.27900
O  43.87100 31.75300 33.72900
C  44.04800 31.15600 35.07600
H  47.18300 38.89500 32.36600
H  48.19700 38.96500 26.18600
H  46.19900 33.05100 25.36600
H  45.28000 34.59400 33.99600
H  46.84900 36.66700 34.28900
H  43.97900 36.44400 33.72500
H  44.67000 37.83200 33.02800
H  44.80200 37.63900 34.77000
H  48.22300 34.79300 33.84600
H  47.55900 33.24000 33.16700
H  48.40100 33.72300 35.72200
H  47.05100 32.64700 35.59100
H  48.07300 41.79600 30.90400
H  49.67000 40.90500 31.32400
H  48.20500 40.58700 32.16700
H  50.57100 42.61100 27.76100
H  50.68200 41.78400 29.31700
H  49.12200 42.57300 28.87700
H  48.80900 36.96700 24.51700
H  46.27000 35.70800 24.16800
H  46.08200 37.46200 23.34800
H  47.43400 38.61900 23.36200
H  46.29700 38.64500 24.65800
H  48.13500 33.61200 24.10000
H  49.13200 35.01900 23.52400
H  46.61400 34.55400 21.95400
H  47.94900 33.40700 21.83900
H  48.21000 35.07700 21.38200
H  46.08700 30.45400 26.59000
H  44.53900 31.17600 26.12500
H  44.64700 29.97300 27.42500
H  43.63600 32.76500 31.60100
H  44.62100 31.78900 35.75400
H  44.44700 30.14200 35.10300
H  43.05500 31.11200 35.52400

