158

Mg 40.80800 8.87500 29.44100
C  42.72700 10.01200 32.08900
C  38.62700 7.34200 31.70300
C  39.23800 7.38500 26.85100
C  43.43400 9.67000 27.25400
N  40.68700 8.70400 31.64800
C  41.50000 9.40900 32.54000
C  41.05700 9.22300 33.94700
C  39.85400 8.18400 33.86100
C  39.67400 8.12700 32.28900
C  40.02900 6.87400 34.55600
C  40.80500 10.62000 34.71500
C  41.59500 10.85200 36.10700
H  41.03000 11.87000 37.15400
N  39.17000 7.57500 29.35000
C  38.33400 7.14700 30.32800
C  37.18600 6.44100 29.80400
C  37.40200 6.33900 28.41600
C  38.67200 7.08500 28.13400
C  36.13100 5.85500 30.72300
C  36.58500 5.73100 27.37100
O  36.95300 5.58400 26.23000
C  35.25300 5.20300 27.76400
N  41.26200 8.60600 27.31500
C  40.32800 8.01800 26.46200
C  40.71700 8.29100 24.97100
C  42.17500 8.79000 25.09100
C  42.36400 8.99900 26.64200
C  40.51200 7.12400 24.03300
C  42.64200 10.00100 24.33100
C  42.07700 11.39900 24.82000
N  42.71400 9.78600 29.57900
C  43.64600 10.00200 28.61100
C  44.72300 10.75100 29.21100
C  44.42800 10.69700 30.58000
C  43.20000 10.11800 30.74600
C  45.94800 11.17900 28.56500
C  44.94100 10.93800 31.89400
O  46.01300 11.39000 32.22200
C  43.82700 10.57800 32.90900
C  44.42400 9.77600 34.06200
O  44.64200 8.56300 34.02500
O  44.78200 10.63300 35.12500
C  45.30400 9.95700 36.29300
H  37.97000 6.82800 32.40700
H  38.65400 7.13500 25.96300
H  44.17900 10.00400 26.52900
H  41.90900 8.80500 34.48100
H  38.95400 8.66200 34.24800
H  40.64600 6.20300 33.95800
H  39.06000 6.43500 34.79200
H  40.50100 7.10600 35.51100
H  39.76600 10.84100 34.95900
H  41.06100 11.36300 33.95900
H  42.53300 11.36000 35.88100
H  41.82000 9.95900 36.69100
H  35.88100 6.35600 31.65800
H  36.53600 4.87700 30.98100
H  35.13000 5.82100 30.29300
H  34.77800 4.53800 27.04300
H  34.59500 6.07100 27.82000
H  35.32000 4.61000 28.67600
H  40.02600 9.03700 24.57800
H  42.88700 7.97100 24.98400
H  39.65700 7.17800 23.35900
H  40.49400 6.20000 24.61000
H  41.35800 7.16000 23.34700
H  42.35400 9.91800 23.28300
H  43.73000 10.04600 24.37100
H  41.34900 11.22000 25.61200
H  41.50500 11.76400 23.96700
H  42.86400 12.10000 25.09800
H  46.13900 12.24900 28.64400
H  45.92400 11.01600 27.48700
H  46.75900 10.66500 29.08100
H  43.52100 11.53400 33.33300
H  46.39000 10.04500 36.29500
H  44.90900 8.94200 36.34900
H  44.91400 10.41200 37.20400
Mg 9.42400 47.25700 27.72800
C  7.35100 47.35700 30.45100
C  12.10400 47.97200 29.73800
C  11.42200 47.37700 24.88100
C  6.59800 47.52800 25.56400
N  9.63700 47.55900 29.78700
C  8.69600 47.56800 30.74600
C  9.35100 47.73800 32.14800
C  10.80700 48.23300 31.79100
C  10.86300 47.91400 30.33900
C  10.93900 49.82900 32.11400
C  9.35900 46.41700 32.90900
C  8.75700 46.41800 34.30700
H  8.66600 45.19800 35.30000
N  11.53400 47.49900 27.37400
C  12.49400 47.63700 28.38000
C  13.82600 47.68600 27.68500
C  13.58400 47.51500 26.29200
C  12.13800 47.49200 26.15400
C  15.13500 47.90600 28.41200
C  14.63900 47.40100 25.17800
O  14.43600 47.29700 23.93400
C  16.17700 47.27300 25.54000
N  9.03500 47.43500 25.52000
C  10.04900 47.42300 24.61600
C  9.47100 47.57300 23.16300
C  7.93000 47.54800 23.38200
C  7.81600 47.55600 24.90500
C  10.01000 48.85100 22.50800
C  7.07000 46.36600 22.80000
C  6.28300 46.81600 21.57600
N  7.34700 47.42500 27.88000
C  6.39900 47.47200 26.98200
C  5.09700 47.40700 27.65200
C  5.41500 47.32500 28.99500
C  6.80400 47.32300 29.09800
C  3.71200 47.60800 27.01300
C  4.80300 47.32500 30.39900
O  3.61700 47.55100 30.73700
C  6.09100 47.24500 31.35400
C  5.95400 45.98600 32.10200
O  6.24200 44.89200 31.68700
O  5.44200 46.24600 33.38500
C  5.40800 45.07700 34.23600
H  12.97600 48.23900 30.34000
H  11.99100 47.58300 23.97200
H  5.73000 47.52700 24.90300
H  8.71800 48.51300 32.58100
H  11.62200 47.71400 32.29600
H  11.94400 49.92000 32.52500
H  10.18100 50.22200 32.79200
H  11.05200 50.42300 31.20700
H  10.32900 45.94400 33.05900
H  8.68200 45.73700 32.39200
H  7.75900 46.83900 34.18700
H  9.37700 47.23100 34.68400
H  15.04800 47.80900 29.49400
H  15.51000 48.90100 28.17500
H  15.78900 47.06600 28.18000
H  16.79000 46.96400 24.69300
H  16.30600 46.37500 26.14300
H  16.56000 48.21800 25.92600
H  9.68500 46.65100 22.62300
H  7.64900 48.51100 22.95600
H  9.23500 49.23600 21.84600
H  10.84100 48.45000 21.92900
H  10.33600 49.61900 23.20900
H  6.34000 45.97100 23.50600
H  7.75800 45.58100 22.48600
H  5.24400 46.53600 21.74800
H  6.66200 46.35200 20.66500
H  6.30300 47.90100 21.48400
H  2.89500 47.51400 27.72800
H  3.44000 46.80600 26.32700
H  3.75600 48.60200 26.56700
H  6.13400 48.07200 32.06300
H  5.32700 45.35600 35.28600
H  6.25400 44.39900 34.12400
H  4.52100 44.57200 33.85300

