158

Mg 53.55500 23.32000 44.88100
C  51.31000 25.58300 43.49600
C  52.01100 20.87600 43.20200
C  56.23800 21.47900 45.44900
C  55.40500 26.20100 46.01000
N  51.84700 23.23700 43.48500
C  51.09500 24.30300 43.10600
C  50.08100 23.83700 42.10300
C  50.10200 22.25100 42.22900
C  51.37900 22.04500 43.05300
C  48.85200 21.58400 42.94100
C  50.58900 24.17700 40.66900
C  49.42700 24.43700 39.72300
H  49.82600 24.82100 38.27300
N  53.93300 21.35700 44.56600
C  53.15700 20.46000 43.89300
C  53.64500 19.17100 44.05300
C  54.87200 19.33300 44.69700
C  55.01500 20.78300 44.98300
C  52.80500 18.00200 43.76300
C  55.76800 18.11500 45.00200
O  55.39000 17.00400 44.61100
C  57.00100 18.18800 45.95400
N  55.56200 23.82600 45.48600
C  56.46200 22.82900 45.65300
C  57.85400 23.49900 46.03800
C  57.37900 24.76600 46.67000
C  55.99700 24.98300 45.98000
C  58.83000 22.60100 46.85700
C  58.37800 25.99600 46.60200
C  58.53600 26.60400 45.26900
N  53.37300 25.47400 44.89800
C  54.15800 26.43500 45.49900
C  53.42300 27.70400 45.37300
C  52.32100 27.42400 44.55800
C  52.37900 26.09000 44.29100
C  53.82700 29.04500 45.98100
C  51.09300 27.96900 44.02100
O  50.63400 29.07700 44.07600
C  50.38400 26.82300 43.28000
C  50.10200 27.32900 41.91600
O  50.95900 27.82500 41.17200
O  48.68800 27.40600 41.66000
C  48.10300 27.97400 40.46700
H  51.42600 20.16400 42.61600
H  57.12300 20.93400 45.78300
H  55.93100 27.03400 46.47900
H  49.14100 24.35900 42.28300
H  50.12000 21.84700 41.21700
H  48.42100 20.84900 42.26100
H  48.04800 22.30800 43.07200
H  49.19400 21.05100 43.82800
H  51.29800 23.43200 40.30700
H  51.07900 25.14300 40.79600
H  48.80000 25.25200 40.08400
H  48.87600 23.49600 39.72200
H  52.90900 17.45400 44.69900
H  52.96400 17.41600 42.85800
H  51.73800 18.22000 43.70700
H  56.97400 18.68400 46.92400
H  57.86700 18.48700 45.36300
H  57.25300 17.14500 46.14900
H  58.36300 23.76700 45.11200
H  57.13700 24.54500 47.71000
H  59.09000 23.24100 47.70000
H  59.72300 22.45600 46.24900
H  58.34700 21.70200 47.23800
H  59.36100 25.63600 46.90400
H  58.18500 26.74600 47.36900
H  57.68100 26.37800 44.63200
H  59.41600 26.08800 44.88600
H  58.56100 27.68600 45.40000
H  52.99900 29.51800 46.50900
H  54.24000 29.63400 45.16300
H  54.53500 28.91400 46.79900
H  49.45300 26.64800 43.81900
H  48.81800 28.65200 40.00100
H  47.24800 28.54400 40.82900
H  47.94200 27.31200 39.61600
Mg -12.50200 38.90200 42.55800
C  -10.91500 35.87600 41.34500
C  -9.93600 40.68000 41.00200
C  -14.26100 41.65000 43.13600
C  -15.27400 36.85800 43.35200
N  -10.66300 38.35600 41.32500
C  -10.19400 37.07800 41.04100
C  -8.84900 37.14900 40.21800
C  -8.41400 38.62900 40.37900
C  -9.71400 39.29500 40.95900
C  -7.19400 38.84200 41.27700
C  -9.01500 36.65100 38.75200
C  -7.79600 35.88100 38.11600
H  -6.82600 36.64000 37.27200
N  -12.08500 40.90900 42.20300
C  -10.99700 41.45100 41.51200
C  -11.22500 42.87400 41.40800
C  -12.45900 43.17000 42.01600
C  -13.00500 41.90500 42.54900
C  -10.24400 43.79900 40.72400
C  -13.06200 44.52800 41.98000
O  -12.46600 45.46200 41.38800
C  -14.38000 44.79000 42.57500
N  -14.38000 39.16900 43.31400
C  -14.85600 40.46500 43.48800
C  -16.36600 40.45700 44.00600
C  -16.73900 38.91900 43.98200
C  -15.42200 38.27500 43.50200
C  -16.52100 41.30200 45.29600
C  -18.04500 38.73000 43.09600
C  -19.03300 37.53700 43.56400
N  -12.97300 36.75200 42.51900
C  -14.15600 36.13800 42.83300
C  -13.97100 34.68100 42.69700
C  -12.75100 34.53700 42.03100
C  -12.20600 35.83600 41.90800
C  -14.93500 33.58300 42.94900
C  -11.77900 33.61000 41.52300
O  -11.74900 32.41100 41.47100
C  -10.54800 34.48000 40.95000
C  -9.24900 34.15800 41.62200
O  -8.82500 34.59700 42.64400
O  -8.61700 33.28100 40.74800
C  -7.29100 32.76700 41.12300
H  -9.18900 41.28500 40.48400
H  -14.89600 42.53200 43.24000
H  -16.17000 36.31500 43.65800
H  -8.07700 36.49200 40.62000
H  -7.94800 39.00200 39.46700
H  -7.44800 39.42700 42.16200
H  -6.52500 39.50300 40.72500
H  -6.73900 37.86300 41.42800
H  -9.30100 37.49100 38.11900
H  -9.88800 36.00400 38.66400
H  -8.25900 35.16200 37.44000
H  -7.24200 35.47900 38.96400
H  -10.64900 44.36800 39.88600
H  -9.40300 43.20900 40.36100
H  -9.79300 44.44400 41.47900
H  -15.14900 44.18700 42.09300
H  -14.61000 45.85100 42.48500
H  -14.30000 44.43100 43.60200
H  -16.94900 41.05100 43.30200
H  -16.94200 38.63900 45.01600
H  -17.11400 40.74900 46.02400
H  -16.86500 42.31400 45.08500
H  -15.56400 41.54400 45.75900
H  -17.86000 38.53900 42.04000
H  -18.65600 39.63200 43.04600
H  -18.67300 36.62200 43.09500
H  -20.06900 37.84400 43.42200
H  -18.93000 37.36200 44.63500
H  -14.38500 32.72000 43.32400
H  -15.69900 33.32900 42.21500
H  -15.51800 33.83300 43.83500
H  -10.39600 34.39700 39.87400
H  -7.36300 32.16600 42.02900
H  -6.66100 33.63200 41.32600
H  -6.82700 32.08900 40.40500

