158

Mg 0.94900 8.01900 26.58200
C  1.75200 9.94100 29.34200
C  0.87700 5.20600 28.54600
C  0.94500 6.07900 23.73700
C  1.43700 10.89800 24.61900
N  1.36200 7.59000 28.67800
C  1.55200 8.60800 29.59600
C  1.30800 8.05800 31.01000
C  1.27200 6.47400 30.70400
C  1.24000 6.42500 29.21800
C  2.56900 5.65900 31.12600
C  0.03900 8.67900 31.53400
C  -0.18100 8.67100 33.08600
H  0.95100 8.44700 34.13300
N  0.88500 5.96400 26.19000
C  0.83500 4.96500 27.16100
C  0.79900 3.62900 26.61700
C  0.71100 3.84200 25.19100
C  0.85500 5.30900 24.97500
C  0.82000 2.34000 27.36100
C  0.43000 2.90800 24.04200
O  0.45100 3.28500 22.88400
C  0.09800 1.42100 24.35900
N  0.94800 8.42800 24.48800
C  1.07100 7.48300 23.50800
C  1.29500 8.15100 22.11200
C  0.98200 9.65000 22.49400
C  1.17000 9.70000 24.00000
C  2.73700 7.92500 21.49900
C  -0.51100 10.13300 22.19400
C  -0.75100 11.16900 21.09800
N  1.42700 10.01800 26.85500
C  1.68200 11.07000 25.97500
C  2.07100 12.28400 26.68000
C  2.10500 11.88600 28.04700
C  1.77300 10.46400 28.06900
C  2.36100 13.62900 26.05100
C  2.37100 12.38200 29.40900
O  2.74500 13.48400 29.69100
C  2.08000 11.10000 30.35700
C  3.19000 11.03300 31.38400
O  4.21700 10.35600 31.17600
O  2.89000 11.77400 32.48500
C  3.84400 11.61600 33.54200
H  0.70000 4.34900 29.19900
H  1.00000 5.50600 22.80900
H  1.59200 11.81300 24.04300
H  2.23900 8.18200 31.56300
H  0.41600 5.94900 31.12900
H  2.29700 4.61400 31.27700
H  3.16200 6.11200 31.92100
H  3.18600 5.58200 30.23100
H  -0.67900 7.90900 31.25100
H  -0.14200 9.59500 30.97200
H  -0.99100 7.96900 33.28100
H  -0.72200 9.57700 33.35900
H  -0.05600 2.04600 27.93900
H  1.66700 2.42900 28.04200
H  0.95000 1.46900 26.71800
H  -0.49400 1.35500 25.27200
H  0.97600 0.79200 24.50100
H  -0.52100 1.23600 23.48100
H  0.63700 7.72000 21.35800
H  1.55400 10.28400 21.81700
H  3.30400 8.85400 21.42600
H  2.48300 7.55800 20.50500
H  3.25700 7.10200 21.98800
H  -0.85600 10.54800 23.14100
H  -1.04600 9.20200 22.00400
H  -1.26300 12.01900 21.54700
H  -1.36900 10.72300 20.31800
H  0.17100 11.44400 20.58600
H  3.33300 13.52400 25.56800
H  2.46200 14.40800 26.80700
H  1.53300 13.65700 25.34400
H  1.22800 11.37600 30.97900
H  4.67400 12.23100 33.19500
H  4.07900 10.58300 33.79900
H  3.49000 12.09300 34.45600
Mg 9.61400 47.94500 26.77300
C  8.12100 48.40700 29.78100
C  12.60400 49.16700 28.22600
C  11.10700 47.84000 23.72700
C  6.63000 47.31700 25.34300
N  10.28100 48.70200 28.78400
C  9.46100 48.71700 29.84300
C  10.33400 49.09500 31.10500
C  11.67000 49.62100 30.49200
C  11.49200 49.09500 29.05600
C  11.82100 51.14200 30.59700
C  10.41900 47.97100 32.21000
C  9.85000 48.28300 33.61400
H  9.80900 47.17400 34.73200
N  11.59700 48.33300 26.11100
C  12.68900 48.82900 26.84200
C  13.88700 48.72700 26.00800
C  13.46800 48.40000 24.66900
C  11.97000 48.17300 24.79700
C  15.34200 48.89200 26.67100
C  14.30800 48.26300 23.44400
O  13.81000 48.06300 22.31700
C  15.87200 48.46600 23.44400
N  8.96600 47.56300 24.84300
C  9.69700 47.64700 23.70600
C  8.92700 47.33400 22.40200
C  7.54400 46.88600 22.97200
C  7.67200 47.30700 24.48700
C  8.86400 48.55200 21.50800
C  7.11200 45.40400 22.65800
C  8.13000 44.37900 23.09400
N  7.73800 47.95600 27.36500
C  6.58000 47.57000 26.74800
C  5.45800 47.57400 27.66200
C  6.07800 47.86100 28.85300
C  7.45000 48.09600 28.62400
C  4.07100 47.07400 27.40000
C  5.74200 47.98800 30.23700
O  4.67200 47.85200 30.83000
C  7.09000 48.20800 30.96100
C  7.17900 46.89900 31.64800
O  7.92100 45.97900 31.29000
O  6.53300 46.92600 32.81600
C  6.49600 45.70300 33.67500
H  13.45000 49.58100 28.77700
H  11.61700 47.76400 22.76400
H  5.63000 47.08600 24.97100
H  9.90700 49.87400 31.73800
H  12.54500 49.16700 30.95700
H  11.74800 51.66900 29.64500
H  12.72800 51.43100 31.12800
H  10.97300 51.37900 31.24000
H  11.47100 47.71700 32.33900
H  9.86200 47.10900 31.84300
H  8.83400 48.56600 33.34000
H  10.48300 49.11000 33.93500
H  15.23900 48.89500 27.75600
H  15.75000 49.85900 26.37800
H  15.98300 48.04000 26.44600
H  16.28400 48.72300 22.46800
H  16.05900 47.42200 23.69700
H  16.32500 49.14300 24.16700
H  9.35200 46.51200 21.82700
H  6.80000 47.58300 22.58500
H  9.53700 49.31800 21.89100
H  7.92400 49.10000 21.56500
H  9.14900 48.26200 20.49700
H  7.01900 45.22900 21.58600
H  6.09600 45.21200 23.00200
H  8.56500 44.11700 22.12900
H  7.86700 43.41600 23.53300
H  8.87100 44.81800 23.76100
H  3.87400 46.24000 28.07300
H  3.90600 46.88700 26.33900
H  3.24100 47.72900 27.66500
H  6.87800 48.99400 31.68600
H  6.14400 44.76500 33.24500
H  5.86400 45.91900 34.53700
H  7.54200 45.49500 33.89800

