158

Mg 0.75700 7.96200 27.40500
C  1.44000 10.28300 29.92500
C  0.80100 5.40300 29.67900
C  0.11200 5.69300 24.95600
C  1.08500 10.51300 25.10900
N  1.08500 7.87000 29.52400
C  1.17400 8.92100 30.38200
C  1.15600 8.40700 31.84800
C  1.10600 6.82700 31.70800
C  1.08200 6.66500 30.19400
C  2.35700 6.05700 32.22800
C  -0.03400 9.06300 32.62300
C  -0.14900 8.82300 34.14100
H  0.96400 8.19400 34.96700
N  0.46500 5.92200 27.34000
C  0.61600 4.97000 28.38200
C  0.36000 3.62400 27.89600
C  0.06000 3.70400 26.54100
C  0.16800 5.17000 26.21000
C  0.28100 2.42300 28.83600
C  -0.30800 2.58300 25.50600
O  -0.74500 2.79400 24.40700
C  -0.29600 1.16500 25.86300
N  0.67400 8.12800 25.32900
C  0.31100 7.05600 24.55600
C  0.07300 7.46800 23.08500
C  0.42800 8.99300 23.14000
C  0.75200 9.26700 24.64600
C  0.97600 6.62400 22.08200
C  -0.57600 10.02700 22.50500
C  0.01800 10.98200 21.46900
N  1.35100 9.93600 27.41800
C  1.41100 10.86000 26.40900
C  1.83100 12.16300 26.94100
C  1.92400 11.95000 28.30300
C  1.53900 10.60600 28.58300
C  2.13300 13.41700 26.16000
C  2.34200 12.59900 29.59900
O  2.71800 13.76000 29.77800
C  2.00900 11.44600 30.69100
C  3.23600 11.14700 31.48100
O  4.20800 10.44800 31.12400
O  3.14600 11.70300 32.69200
C  4.21100 11.52400 33.65000
H  0.63400 4.63900 30.44000
H  -0.02800 4.91600 24.20100
H  1.00300 11.35700 24.42000
H  2.14400 8.70800 32.19900
H  0.18900 6.35900 32.06600
H  2.43900 5.07400 31.76600
H  2.22000 5.98700 33.30700
H  3.26400 6.64900 32.10900
H  -0.93500 8.71800 32.11500
H  -0.17000 10.10600 32.33300
H  -1.08100 8.30700 34.37300
H  -0.12300 9.82600 34.56900
H  -0.72500 2.00400 28.83100
H  0.40100 2.72500 29.87700
H  0.92900 1.57200 28.62500
H  0.55400 0.88900 26.48800
H  -0.05900 0.66400 24.92400
H  -1.22200 0.79700 26.30500
H  -0.99800 7.33600 22.93300
H  1.38000 9.06700 22.61500
H  1.18600 7.17100 21.16300
H  0.22800 5.84500 21.93400
H  1.92900 6.24900 22.45600
H  -0.86600 10.60700 23.38200
H  -1.48400 9.62400 22.05700
H  -0.75900 11.29900 20.77300
H  0.94900 10.58900 21.06300
H  0.41200 11.91500 21.87200
H  1.15900 13.71500 25.76900
H  2.83200 13.34300 25.32700
H  2.47700 14.23700 26.79100
H  1.23600 11.73600 31.40400
H  5.00700 10.80600 33.45000
H  3.63300 11.19700 34.51500
H  4.67200 12.48600 33.87200
Mg 41.80000 8.86200 29.64500
C  43.62300 10.02800 32.39200
C  39.52800 7.40000 31.76500
C  40.08700 7.82200 27.03700
C  44.19700 10.26900 27.55700
N  41.60500 8.66300 31.84600
C  42.43000 9.31500 32.76600
C  41.94500 8.93800 34.21000
C  40.81300 7.95000 33.94600
C  40.64000 7.94400 32.40400
C  41.13100 6.45200 34.45400
C  41.51300 10.32600 34.93100
C  40.91400 10.11900 36.36000
H  41.15300 11.32900 37.31000
N  40.05100 7.68400 29.37100
C  39.23700 7.25200 30.38000
C  38.12300 6.54800 29.80500
C  38.19900 6.76400 28.37200
C  39.49500 7.39600 28.21900
C  37.07000 5.80100 30.56600
C  37.16000 6.31700 27.30200
O  37.44800 6.39600 26.11600
C  35.71700 5.70200 27.65400
N  42.12700 9.05900 27.51800
C  41.22300 8.54100 26.64200
C  41.78600 8.67100 25.18100
C  42.90900 9.71600 25.37700
C  43.08100 9.82400 26.92200
C  42.33500 7.37100 24.63300
C  42.61100 11.10400 24.69000
C  41.33200 11.77600 25.03400
N  43.58700 9.92100 29.87200
C  44.48100 10.45200 28.89600
C  45.56200 11.20800 29.56000
C  45.26700 10.93700 30.93400
C  44.11200 10.17200 31.10200
C  46.72900 11.96600 29.00300
C  45.79300 11.19700 32.30700
O  46.84400 11.74100 32.73600
C  44.62800 10.68100 33.28200
C  45.27300 9.66500 34.15800
O  45.97400 8.70700 33.81700
O  44.79700 9.84100 35.50100
C  45.20000 8.87600 36.50700
H  38.89400 6.98700 32.55300
H  39.51900 7.47000 26.17300
H  44.97500 10.64800 26.89100
H  42.70600 8.50800 34.86000
H  39.87900 8.11600 34.48300
H  41.17700 5.75800 33.61400
H  40.41300 6.04900 35.16900
H  42.06000 6.40100 35.02200
H  40.80900 10.91200 34.34100
H  42.32400 11.03000 35.11900
H  41.14200 9.18600 36.87500
H  39.83500 10.09200 36.20800
H  37.33900 5.85000 31.62100
H  37.02200 4.78400 30.17800
H  36.07100 6.19100 30.37300
H  35.78600 4.85200 28.33300
H  35.28100 5.43100 26.69200
H  35.24700 6.60000 28.05500
H  41.01600 9.14200 24.57100
H  43.83600 9.37700 24.91600
H  42.12200 6.57300 25.34400
H  43.37000 7.34400 24.29200
H  41.78100 7.13400 23.72400
H  42.64600 10.90300 23.61900
H  43.48000 11.71600 24.92900
H  41.48800 12.79700 25.38200
H  40.94200 11.24900 25.90500
H  40.57400 11.73700 24.25200
H  47.64300 11.38400 29.12000
H  46.78400 12.91800 29.53100
H  46.37600 12.23000 28.00600
H  44.21600 11.50500 33.86400
H  46.05800 8.24100 36.28500
H  44.35000 8.20300 36.62600
H  45.38400 9.60000 37.30000

