158

Mg 35.45500 2.85200 28.09600
C  33.80300 3.52400 30.98800
C  38.36000 2.61000 29.73300
C  37.00500 2.15600 25.09700
C  32.39800 2.91300 26.39800
N  35.99300 3.11500 30.17900
C  35.14500 3.24200 31.25000
C  35.87100 3.16300 32.59700
C  37.27700 2.77100 32.14100
C  37.27700 2.97500 30.62000
C  38.58100 3.30100 32.89300
C  35.15900 2.11400 33.55100
C  35.02400 2.40000 35.13900
H  35.41300 3.85500 35.59800
N  37.43700 2.50900 27.47900
C  38.45400 2.40000 28.32800
C  39.68200 2.02300 27.68100
C  39.31900 1.87400 26.27900
C  37.83700 2.13200 26.24600
C  41.04500 1.85000 28.36500
C  40.14700 1.62800 25.06000
O  39.73900 1.37400 23.90800
C  41.69100 1.49800 25.26300
N  34.75700 2.37800 26.14900
C  35.58800 2.24500 25.04000
C  34.79900 2.13400 23.76400
C  33.32000 2.03300 24.27700
C  33.49800 2.46200 25.70800
C  34.95300 3.44400 22.90900
C  32.59600 0.65100 24.09400
C  31.50100 0.55300 23.03200
N  33.45900 3.09400 28.52800
C  32.32700 3.18600 27.76700
C  31.24800 3.68300 28.50400
C  31.73900 3.80000 29.82700
C  33.10800 3.42700 29.73500
C  29.84700 3.99100 27.88600
C  31.34500 4.18700 31.14500
O  30.32300 4.58000 31.65300
C  32.71300 3.97400 31.97500
C  33.11300 5.19400 32.72900
O  34.05000 5.98800 32.52000
O  32.18300 5.36600 33.74500
C  32.33100 6.64900 34.45000
H  39.23200 2.45100 30.37000
H  37.60500 2.06600 24.19000
H  31.47400 2.87000 25.81800
H  35.97000 4.10100 33.14200
H  37.41000 1.69200 32.21400
H  39.14800 2.46000 33.29200
H  38.12800 3.86700 33.70700
H  39.21300 3.79500 32.15400
H  35.64700 1.13900 33.54300
H  34.17700 1.80200 33.19500
H  35.60000 1.64400 35.67200
H  33.95600 2.28600 35.32700
H  40.89000 1.97000 29.43700
H  41.84900 2.51400 28.04700
H  41.47500 0.85800 28.22200
H  42.24100 1.41800 24.32600
H  41.91500 0.58800 25.82000
H  41.93500 2.34800 25.90100
H  35.07700 1.19300 23.28900
H  32.71700 2.77200 23.74900
H  35.00000 4.35000 23.51300
H  34.05800 3.55200 22.29500
H  35.94200 3.38200 22.45600
H  32.08100 0.49800 25.04300
H  33.24400 -0.22300 24.03500
H  31.64100 -0.29400 22.36000
H  31.40600 1.43800 22.40300
H  30.58000 0.46600 23.60800
H  29.03300 3.45700 28.37600
H  29.83400 3.71800 26.83100
H  29.53900 5.03500 27.94500
H  32.60700 3.20000 32.73500
H  33.07700 7.36500 34.10700
H  32.57400 6.47500 35.49900
H  31.33400 7.08000 34.35600
Mg 6.87100 53.84500 41.66900
C  6.73100 50.35800 41.30400
C  10.39400 53.55000 40.88900
C  7.11400 57.19900 41.57100
C  3.54400 53.98200 42.30700
N  8.36800 52.10400 41.08500
C  8.05400 50.79100 40.97800
C  9.29100 49.96300 40.58000
C  10.52500 50.99300 40.78100
C  9.69600 52.29800 40.86700
C  11.55300 50.79700 41.95700
C  9.32800 49.40400 39.13900
C  9.18600 50.49800 38.04200
H  7.94600 50.33600 37.17000
N  8.45000 55.21500 41.25700
C  9.80900 54.89200 41.03800
C  10.52800 56.16400 40.90700
C  9.62200 57.27100 41.11500
C  8.35100 56.55400 41.34600
C  12.07200 56.11200 40.59100
C  10.05200 58.76200 41.08400
O  11.14700 59.08500 40.69100
C  9.21800 59.79900 41.70100
N  5.35500 55.41600 41.50700
C  5.79100 56.63800 41.63700
C  4.66500 57.58100 41.89900
C  3.48100 56.55600 42.19100
C  4.16700 55.18900 42.05400
C  4.81200 58.65500 43.02700
C  2.32700 56.66700 41.21800
C  0.89300 56.63900 41.68700
N  5.40400 52.47100 41.77400
C  4.16700 52.70700 42.21400
C  3.55100 51.42900 42.41100
C  4.52700 50.44200 41.98400
C  5.65200 51.15500 41.71500
C  2.15700 51.19000 42.80700
C  4.75800 49.02700 41.79400
O  4.06700 48.02300 42.08900
C  6.23200 48.94100 41.36100
C  6.15900 48.15600 40.10900
O  5.94600 48.61400 38.98100
O  6.26600 46.80900 40.35300
C  5.60900 45.93400 39.33600
H  11.44500 53.69500 40.63100
H  7.09800 58.28700 41.47300
H  2.60300 53.97400 42.86000
H  9.36200 49.07900 41.21400
H  11.09700 50.90000 39.85800
H  12.56000 50.67800 41.55700
H  11.25900 49.92100 42.53500
H  11.35000 51.64700 42.60900
H  8.72600 48.50300 39.02400
H  10.31000 49.06100 38.81300
H  10.00000 50.44600 37.32000
H  9.28500 51.50300 38.45100
H  12.26500 55.53100 39.68900
H  12.44500 55.59000 41.47200
H  12.55200 57.08500 40.49000
H  9.80800 60.65500 42.02800
H  8.67400 59.31200 42.51100
H  8.52800 60.06700 40.90100
H  4.35600 58.21100 41.06500
H  3.11600 56.62000 43.21600
H  4.80400 59.61200 42.50600
H  5.81600 58.53100 43.43400
H  3.95400 58.45100 43.66700
H  2.48800 55.91000 40.45100
H  2.42800 57.63300 40.72400
H  0.38600 55.93600 41.02600
H  0.46900 57.63900 41.59400
H  0.75700 56.39500 42.74000
H  1.56700 52.10100 42.70600
H  2.11200 50.98900 43.87800
H  1.76300 50.36700 42.21100
H  6.84200 48.31500 42.01200
H  5.98100 46.15000 38.33500
H  4.53400 46.10200 39.26600
H  5.76900 44.91400 39.68500

