158

Mg 35.01700 3.44300 29.81000
C  32.97000 4.64400 32.28300
C  37.67200 3.21900 31.96800
C  37.11400 2.80800 27.13100
C  32.44200 4.09300 27.50600
N  35.21900 3.80200 31.92400
C  34.20600 4.27400 32.77300
C  34.72700 4.15100 34.19000
C  36.32400 3.99000 34.07200
C  36.44500 3.69200 32.54400
C  37.18800 5.17800 34.57600
C  34.05800 2.98600 34.94200
C  33.72700 3.14300 36.48000
H  34.53500 4.12400 37.29700
N  37.07900 2.96800 29.56700
C  38.00700 2.81100 30.63800
C  39.30600 2.39800 30.08600
C  39.12700 2.43300 28.70100
C  37.69500 2.75600 28.36500
C  40.49600 2.18900 31.00200
C  40.30000 2.16400 27.65500
O  40.14700 2.26000 26.49300
C  41.72100 1.86200 28.00700
N  34.85800 3.48300 27.74100
C  35.82400 3.14300 26.80400
C  35.40900 3.11900 25.36800
C  33.88000 3.13200 25.57000
C  33.67900 3.57100 27.01800
C  36.03400 4.25300 24.45600
C  33.17200 1.78400 25.32700
C  31.89200 1.75400 24.45200
N  33.06000 4.35900 29.81400
C  32.11900 4.42600 28.87200
C  30.86200 4.85100 29.43400
C  31.15000 4.85600 30.74100
C  32.49800 4.61900 30.98800
C  29.61000 5.14200 28.68700
C  30.56000 5.11600 32.05000
O  29.40400 5.42400 32.41900
C  31.65800 4.75000 33.08600
C  31.55800 5.92100 34.09400
O  31.84400 7.12500 33.91600
O  31.21100 5.32300 35.23700
C  30.79800 6.23400 36.30800
H  38.45700 3.26800 32.72400
H  37.73000 2.61900 26.24900
H  31.58300 3.93700 26.85000
H  34.37500 5.07300 34.65400
H  36.68300 3.08900 34.57100
H  37.78100 5.52000 33.72700
H  37.94800 4.81100 35.26600
H  36.56800 6.02000 34.88100
H  34.60800 2.04600 34.92200
H  33.15300 2.74300 34.38600
H  33.84400 2.11700 36.83000
H  32.69700 3.40800 36.71500
H  41.17900 3.01800 30.81700
H  40.94600 1.20900 30.84400
H  40.07200 2.18200 32.00600
H  42.28600 1.62800 27.10500
H  41.72400 0.92200 28.56000
H  42.14600 2.67700 28.59200
H  35.87100 2.20400 24.99600
H  33.38500 3.82800 24.89200
H  36.85200 4.76000 24.96800
H  35.27400 5.02100 24.31500
H  36.35000 3.70200 23.57000
H  32.88900 1.36500 26.29300
H  33.80100 1.00200 24.90200
H  31.48100 0.76000 24.62800
H  32.16500 1.93200 23.41200
H  31.18800 2.40000 24.97600
H  29.87100 5.57600 27.72200
H  29.14900 5.94900 29.25700
H  28.86000 4.35900 28.79300
H  31.47700 3.83400 33.64900
H  30.33400 5.62800 37.08600
H  30.04500 6.97800 36.04700
H  31.68500 6.62300 36.80700
Mg 47.71500 25.16900 28.31800
C  48.89300 27.14800 30.98500
C  46.85100 22.70100 30.57900
C  47.42500 23.04900 25.74000
C  49.07500 27.46700 26.07800
N  47.78100 25.05400 30.52700
C  48.33600 25.92000 31.43000
C  48.16300 25.39900 32.88700
C  47.42700 24.03800 32.68900
C  47.33400 23.92800 31.16600
C  48.12200 22.85000 33.40400
C  47.50400 26.33900 33.93400
C  46.47200 25.96700 34.94500
H  46.57000 26.55300 36.39500
N  47.13300 23.22100 28.18600
C  46.77100 22.35200 29.20500
C  46.24400 21.12300 28.69300
C  46.51400 21.15000 27.29800
C  46.98900 22.53700 26.99800
C  45.67000 20.06800 29.55400
C  46.31000 20.10500 26.23700
O  46.66700 20.26800 25.08700
C  45.82800 18.75800 26.72700
N  48.38000 25.18600 26.19000
C  47.91700 24.24300 25.30500
C  48.09500 24.60200 23.82600
C  48.42100 26.10200 23.96200
C  48.62100 26.29500 25.48900
C  49.24300 23.70800 23.27400
C  47.31800 27.04000 23.37300
C  46.04100 27.00800 24.13000
N  48.71100 26.96800 28.40100
C  49.15700 27.83800 27.38700
C  49.66100 28.98100 28.03000
C  49.45400 28.81300 29.34200
C  49.05700 27.47800 29.59600
C  50.22500 30.18900 27.49700
C  49.59500 29.52200 30.64000
O  49.96800 30.66900 30.89100
C  49.28000 28.40500 31.72100
C  50.53000 28.14700 32.46700
O  51.51200 27.61700 32.03600
O  50.37600 28.55700 33.74200
C  51.42400 28.16200 34.74200
H  46.36500 22.04800 31.30800
H  47.26500 22.37700 24.89400
H  49.31600 28.20700 25.31200
H  49.15800 25.18900 33.27800
H  46.43200 24.12400 33.12600
H  48.33000 23.17300 34.42400
H  48.98700 22.48000 32.85400
H  47.40000 22.03400 33.43800
H  47.21500 27.20600 33.34100
H  48.35400 26.55200 34.58300
H  46.44000 24.88500 35.08000
H  45.46000 26.23800 34.64500
H  44.59300 20.05600 29.38900
H  45.90200 20.17600 30.61400
H  46.09400 19.12500 29.20800
H  46.47300 18.10300 27.31400
H  45.50500 18.18000 25.86100
H  44.85600 18.94900 27.18000
H  47.13900 24.46800 23.31900
H  49.37600 26.36400 23.50700
H  49.73100 24.16100 22.41100
H  48.79700 22.76000 22.97300
H  50.02900 23.54400 24.01100
H  47.07200 26.89200 22.32100
H  47.82300 27.98300 23.58300
H  46.08400 26.45700 25.07000
H  45.33400 26.39800 23.56600
H  45.65900 28.01000 24.32400
H  51.10600 30.35900 28.11600
H  49.48500 30.98000 27.61600
H  50.60100 30.01900 26.48800
H  48.49600 28.66600 32.43100
H  52.32300 27.99200 34.15000
H  51.10600 27.21800 35.18600
H  51.58000 29.03400 35.37800

