158

Mg 41.24000 40.53300 26.64700
C  40.54900 42.99300 29.06100
C  42.46100 38.47400 29.14000
C  42.23300 38.47200 24.15400
C  40.44600 42.86900 24.20000
N  41.37100 40.70000 28.86800
C  40.99800 41.75900 29.60700
C  41.09200 41.44300 31.09200
C  41.90700 40.07400 31.10600
C  41.92200 39.70700 29.58700
C  43.32100 40.22000 31.77400
C  39.67100 41.45200 31.76700
C  39.49300 42.37400 32.98500
H  38.85000 41.68700 34.19700
N  42.13200 38.72000 26.66800
C  42.62500 38.03400 27.78200
C  43.19000 36.74700 27.27800
C  43.29100 36.74700 25.84400
C  42.53000 38.02500 25.47700
C  43.82300 35.79700 28.27400
C  43.94200 35.86900 24.91700
O  44.21200 36.16600 23.71400
C  44.46600 34.54700 25.44800
N  41.43100 40.72300 24.45800
C  41.71100 39.68400 23.68200
C  41.36300 39.90200 22.18100
C  40.81200 41.39400 22.20800
C  40.87700 41.70400 23.69400
C  42.67200 39.81800 21.32000
C  39.47400 41.66700 21.54400
C  39.36100 43.02600 20.79900
N  40.62600 42.52900 26.55500
C  40.25700 43.32200 25.51300
C  39.90900 44.62600 26.00900
C  39.97300 44.53500 27.37900
C  40.41300 43.18700 27.66200
C  39.58500 45.80600 25.13200
C  39.78700 45.25300 28.59000
O  39.38200 46.38200 28.79500
C  40.10500 44.18700 29.78100
C  41.24600 44.81300 30.54100
O  42.37100 44.93500 30.03500
O  40.79100 45.23400 31.78000
C  41.92900 45.36500 32.68800
H  42.89300 37.81900 29.89900
H  42.51300 37.84600 23.30500
H  40.23600 43.60900 23.42400
H  41.70700 42.21300 31.55700
H  41.25700 39.37200 31.62900
H  43.42800 41.22200 32.18800
H  44.16700 40.19300 31.08700
H  43.44800 39.54900 32.62300
H  39.56300 40.42700 32.12300
H  38.84900 41.56300 31.06000
H  38.76500 43.09500 32.61400
H  40.46000 42.86800 33.09000
H  44.88800 36.00800 28.18300
H  43.72900 34.76000 27.95100
H  43.40200 35.81500 29.27900
H  43.63800 34.07900 25.98200
H  45.34300 34.68700 26.08100
H  44.67800 33.89100 24.60500
H  40.65500 39.17500 21.78300
H  41.54700 42.04600 21.73600
H  43.60000 39.62100 21.85600
H  42.88400 40.61500 20.60800
H  42.64200 38.85300 20.81600
H  38.75500 41.69000 22.36300
H  39.23700 40.86200 20.84800
H  38.69600 42.91400 19.94300
H  40.38700 43.37700 20.69000
H  38.99400 43.79700 21.47700
H  38.96300 45.56700 24.27000
H  40.54900 46.22600 24.84500
H  39.02400 46.49700 25.76200
H  39.20500 43.92600 30.33900
H  41.56800 45.91900 33.55400
H  42.66400 45.98800 32.17900
H  42.32200 44.45500 33.14200
Mg 26.52200 49.55000 26.44900
C  24.43800 50.61200 28.85200
C  28.81000 48.57500 28.74200
C  28.45500 48.40500 23.91900
C  24.36800 50.99400 24.01800
N  26.66000 49.72300 28.65600
C  25.61700 50.04500 29.44100
C  25.92200 49.92200 30.93200
C  27.42300 49.41900 30.84700
C  27.66600 49.16500 29.32100
C  28.50800 50.32800 31.53300
C  24.97600 48.93000 31.73000
C  24.54700 49.32600 33.12100
H  25.64900 49.93100 34.09100
N  28.40900 48.59700 26.33100
C  29.19200 48.30100 27.40600
C  30.38600 47.65000 26.91500
C  30.29400 47.60500 25.49300
C  29.05200 48.16900 25.18300
C  31.52600 47.31100 27.78300
C  31.13100 46.92100 24.42800
O  30.88300 46.92000 23.22400
C  32.34600 46.24900 24.83900
N  26.36400 49.65300 24.28800
C  27.34500 49.06200 23.48000
C  27.02100 49.26400 21.95000
C  25.67900 50.14000 21.96400
C  25.38000 50.18100 23.45300
C  28.05000 49.97700 21.10800
C  24.53200 49.63700 21.09100
C  23.89800 48.31400 21.53300
N  24.79000 50.68300 26.41600
C  23.97300 51.14400 25.38800
C  22.75300 51.74300 25.94000
C  22.89800 51.49700 27.35300
C  24.10100 50.89200 27.55800
C  21.70500 52.43000 25.24400
C  22.26500 51.71500 28.59500
O  21.17100 52.17100 28.82800
C  23.23300 51.18700 29.62900
C  23.43700 52.38100 30.51900
O  24.10500 53.37500 30.24300
O  22.76400 52.10900 31.70600
C  23.16300 52.95000 32.83300
H  29.49700 48.21400 29.51000
H  29.00500 48.16000 23.00900
H  23.66100 51.35400 23.26800
H  25.83800 50.92500 31.35000
H  27.47200 48.51500 31.45400
H  28.29000 51.35400 31.23400
H  29.47100 50.07400 31.09200
H  28.53100 50.01500 32.57700
H  25.41500 47.93300 31.77200
H  24.11600 48.90400 31.06100
H  24.18400 48.41000 33.58700
H  23.74800 50.06700 33.09100
H  31.59800 46.25500 28.04300
H  31.41100 47.71800 28.78800
H  32.44700 47.72900 27.37700
H  32.11200 45.49400 25.58900
H  33.11900 46.96900 25.10700
H  32.71800 45.66000 24.00000
H  26.80800 48.26700 21.56500
H  25.75800 51.21800 21.81900
H  28.79800 50.52200 21.68400
H  27.56700 50.52600 20.30000
H  28.61100 49.27200 20.49400
H  24.85300 49.51700 20.05700
H  23.78800 50.39800 20.85800
H  22.89300 48.43500 21.93900
H  24.51300 47.85600 22.30800
H  23.80400 47.59800 20.71700
H  21.51900 51.75600 24.40800
H  22.03000 53.38600 24.83200
H  20.85900 52.61600 25.90500
H  22.86600 50.38300 30.26600
H  24.10800 52.60900 33.25600
H  22.33200 52.90900 33.53700
H  23.34700 53.99400 32.57600

