158

Mg -9.67800 41.16600 42.44100
C  -8.94600 37.96800 41.39700
C  -6.81700 42.27500 41.04900
C  -11.03900 44.40300 42.32700
C  -12.98100 39.95900 43.07700
N  -8.21500 40.27400 40.93400
C  -8.04200 38.89800 40.81400
C  -6.68200 38.63200 40.33000
C  -5.90300 39.92400 40.67100
C  -7.00400 40.93800 40.82100
C  -4.84800 39.95500 41.81000
C  -6.63100 38.14400 38.81200
C  -5.95800 36.87300 38.44300
H  -4.94300 37.05400 37.25900
N  -8.92800 43.10000 42.02200
C  -7.70900 43.33800 41.45700
C  -7.42400 44.83300 41.49800
C  -8.65100 45.39900 41.93800
C  -9.62100 44.31800 42.08600
C  -6.21200 45.55600 40.96200
C  -8.83000 46.87200 42.16600
O  -7.96700 47.71200 42.01900
C  -10.08800 47.54300 42.77600
N  -11.70000 42.10900 42.64100
C  -12.01000 43.40800 42.57200
C  -13.48600 43.66000 42.72800
C  -14.02700 42.25700 42.98800
C  -12.84300 41.35000 42.89000
C  -14.02400 44.67900 43.72700
C  -15.12200 41.86200 41.95500
C  -16.45300 41.25100 42.42600
N  -10.71900 39.30200 42.62900
C  -11.97600 38.94800 43.01200
C  -12.12800 37.46200 42.98500
C  -10.94700 37.05600 42.38900
C  -10.13900 38.19900 42.11600
C  -13.33800 36.59900 43.27700
C  -10.23700 35.89200 41.92500
O  -10.50700 34.68500 41.94100
C  -8.86100 36.44700 41.34000
C  -7.85100 35.89800 42.19900
O  -7.45800 36.39400 43.28600
O  -7.18200 34.92500 41.42900
C  -5.83300 34.45700 41.96500
H  -5.83000 42.73600 40.96500
H  -11.36400 45.42500 42.12100
H  -14.00600 39.67400 43.32600
H  -6.25300 37.86600 40.97600
H  -5.20800 40.13600 39.85900
H  -4.26700 39.03300 41.80900
H  -5.39800 39.94800 42.75100
H  -4.22400 40.84600 41.74000
H  -6.35400 38.96000 38.14500
H  -7.70600 38.01200 38.68900
H  -6.74200 36.13700 38.26500
H  -5.55600 36.45300 39.36400
H  -6.49600 45.99300 40.00400
H  -5.39300 44.89800 40.67200
H  -5.83800 46.29900 41.66500
H  -10.49600 47.01400 43.63700
H  -10.89800 47.57000 42.04700
H  -9.79100 48.54900 43.07200
H  -13.82700 43.81100 41.70400
H  -14.46700 42.09800 43.97200
H  -14.18200 45.57500 43.12600
H  -13.40600 44.95100 44.58200
H  -15.05300 44.37200 43.91200
H  -14.51800 41.21300 41.32100
H  -15.45400 42.62600 41.25200
H  -17.21700 41.98700 42.17300
H  -16.44800 41.05300 43.49800
H  -16.69700 40.27300 42.01300
H  -14.00000 37.25400 43.84400
H  -13.09100 35.74000 43.90000
H  -13.84100 36.28100 42.36300
H  -8.79200 36.10900 40.30600
H  -5.01800 35.08500 41.60500
H  -5.60700 33.43400 41.66400
H  -5.80200 34.64200 43.03900
Mg -2.47900 34.49100 26.74200
C  -3.81700 32.88700 29.50600
C  -1.02700 36.83600 28.81200
C  -1.55800 36.30700 24.04600
C  -3.92800 32.18900 24.67800
N  -2.53200 34.86000 28.95300
C  -2.94400 33.93100 29.82800
C  -2.43600 34.29300 31.25700
C  -1.61800 35.68600 31.03700
C  -1.77500 35.85200 29.48400
C  -2.01100 36.96600 31.84300
C  -1.61000 33.18500 32.09000
C  -2.25600 32.56700 33.31000
H  -1.36400 32.28700 34.47000
N  -1.45500 36.32000 26.51000
C  -0.84000 37.07500 27.44300
C  -0.17700 38.16400 26.80600
C  -0.29500 37.98400 25.36800
C  -1.16600 36.84300 25.31100
C  0.69200 39.12300 27.55100
C  0.26700 38.84600 24.21100
O  0.10400 38.65100 23.01100
C  1.13600 40.10900 24.49900
N  -2.82200 34.35300 24.63700
C  -2.32300 35.19900 23.71500
C  -2.35800 34.63400 22.26900
C  -2.99800 33.22800 22.50700
C  -3.23200 33.22100 24.03100
C  -3.08800 35.31500 21.12600
C  -2.19200 32.02800 21.91900
C  -0.77400 31.79200 22.52200
N  -3.67300 32.85200 26.96400
C  -4.19200 31.97600 26.03400
C  -4.84700 30.90700 26.69000
C  -4.78300 31.19600 28.09200
C  -4.08600 32.43000 28.17300
C  -5.50300 29.72600 26.12700
C  -5.10000 30.83000 29.46900
O  -5.77800 29.85700 29.83900
C  -4.50300 31.92100 30.44400
C  -5.66800 32.55400 31.21900
O  -6.53700 33.35200 30.83500
O  -5.53500 32.16000 32.50600
C  -6.52800 32.75400 33.44100
H  -0.36700 37.42700 29.45000
H  -0.99200 36.72400 23.21100
H  -4.22400 31.38800 23.99800
H  -3.35100 34.70900 31.67700
H  -0.61700 35.46900 31.41000
H  -2.84300 36.79100 32.52600
H  -2.26400 37.75000 31.12900
H  -1.10500 37.34200 32.31800
H  -0.64000 33.60800 32.35000
H  -1.37700 32.38100 31.39200
H  -2.74700 31.61400 33.11400
H  -3.07900 33.15800 33.71100
H  0.83200 40.09700 27.08300
H  1.66700 38.70700 27.80400
H  0.18200 39.34100 28.48900
H  0.70600 40.76300 25.25700
H  1.11700 40.77600 23.63700
H  2.08400 39.67100 24.81200
H  -1.33500 34.41000 21.96600
H  -4.02000 33.16100 22.13400
H  -3.64100 36.12900 21.59600
H  -3.79600 34.60900 20.69300
H  -2.40800 35.69500 20.36300
H  -1.98500 32.17800 20.85900
H  -2.76500 31.11600 22.08800
H  -0.33500 32.69000 22.95900
H  -0.07700 31.50300 21.73500
H  -0.83700 30.95700 23.22000
H  -4.93500 29.21300 25.35000
H  -6.39200 30.08000 25.60500
H  -5.69600 29.02200 26.93600
H  -3.90500 31.36900 31.16800
H  -6.35500 33.77600 33.77700
H  -6.68900 32.07500 34.27800
H  -7.50600 32.85700 32.97000

