158

Mg 40.10800 8.65700 29.29300
C  41.84900 9.75800 32.20000
C  37.82900 7.03900 31.45800
C  38.58400 7.58700 26.70500
C  42.87400 9.56800 27.52600
N  39.96100 8.33900 31.67600
C  40.65300 9.10000 32.60500
C  40.00800 8.85500 33.97100
C  38.76100 8.00200 33.79100
C  38.83500 7.76900 32.24100
C  38.74200 6.77300 34.66300
C  39.74400 10.18700 34.70300
C  40.01900 10.29900 36.19200
H  40.38500 11.62500 36.88100
N  38.47900 7.46100 29.13200
C  37.73800 6.83100 30.07800
C  36.60300 6.14300 29.41700
C  36.78900 6.32400 28.03300
C  37.97700 7.18200 27.92300
C  35.53400 5.44400 30.09500
C  35.92900 5.78500 26.85400
O  36.36100 5.82600 25.69200
C  34.56800 5.12500 27.13200
N  40.84800 8.23400 27.38000
C  39.89000 8.01600 26.45400
C  40.45500 8.06600 25.03600
C  41.79300 8.96400 25.29600
C  41.85200 8.95200 26.81600
C  40.89300 6.71800 24.38900
C  41.59900 10.40200 24.80200
C  40.44300 11.22400 25.27500
N  41.88900 9.57900 29.66200
C  42.94200 9.83600 28.85800
C  43.94200 10.56200 29.52800
C  43.54800 10.54000 30.83500
C  42.31200 9.90700 30.90000
C  45.19600 11.06200 28.92100
C  43.98100 10.92800 32.14700
O  44.91200 11.57300 32.54300
C  42.84500 10.41300 33.10500
C  43.34700 9.33200 34.06200
O  43.53900 8.19500 33.68400
O  43.34800 9.72100 35.38400
C  43.96800 8.91200 36.46700
H  37.01500 6.70300 32.10300
H  38.06100 7.32900 25.78200
H  43.73500 9.90500 26.94500
H  40.75000 8.30600 34.55100
H  37.84400 8.57400 33.93600
H  39.56600 6.76200 35.37700
H  38.78200 5.83300 34.11100
H  37.93200 6.76300 35.39300
H  38.69800 10.42900 34.51700
H  40.29800 11.03100 34.29000
H  40.76000 9.51800 36.36600
H  39.07100 10.19300 36.72000
H  35.79700 5.33200 31.14700
H  35.31200 4.44500 29.72100
H  34.56500 5.91900 29.94100
H  34.07300 5.88600 27.73600
H  34.74300 4.22000 27.71300
H  34.04000 4.82600 26.22600
H  39.72200 8.54600 24.38800
H  42.75000 8.58400 24.93800
H  41.89100 6.76100 23.95300
H  40.38000 6.29400 23.52500
H  40.76300 5.91800 25.11800
H  41.56100 10.24700 23.72400
H  42.52100 10.88200 25.13000
H  39.93300 10.74000 26.10800
H  39.74100 11.52200 24.49500
H  40.75200 12.20100 25.64600
H  45.64800 10.30100 28.28500
H  45.87700 11.31700 29.73300
H  44.96400 11.86200 28.21800
H  42.33900 11.12700 33.75400
H  45.01100 9.22100 36.39600
H  43.79200 7.84000 36.38400
H  43.48500 9.26300 37.37900
Mg 47.57900 44.94700 42.93300
C  44.13300 44.96900 42.28100
C  47.56800 41.57000 42.30700
C  51.06300 45.00000 42.61100
C  47.50000 48.42900 43.06400
N  46.00200 43.51500 42.28400
C  44.66400 43.70200 42.20000
C  43.96000 42.36200 41.90200
C  45.02400 41.24000 41.97300
C  46.31700 42.15600 42.25200
C  44.96100 40.16300 43.09400
C  43.11400 42.41900 40.64100
C  43.79800 42.92100 39.36400
H  43.58000 42.12500 38.09500
N  49.12600 43.45900 42.74600
C  48.88900 42.12200 42.53500
C  50.15600 41.43700 42.62800
C  51.17500 42.40100 42.81400
C  50.47500 43.72000 42.79100
C  50.30900 39.88300 42.44000
C  52.68100 42.10000 42.86200
O  53.16400 40.98300 42.61500
C  53.59700 43.26400 43.29500
N  49.06400 46.46700 42.89600
C  50.44200 46.23700 42.66800
C  51.22700 47.61500 42.52500
C  50.11900 48.66700 42.88200
C  48.79400 47.86200 42.98700
C  52.50900 47.65200 43.42100
C  50.04100 49.91200 41.92500
C  49.74000 51.22000 42.56400
N  46.18200 46.41500 42.78900
C  46.27800 47.78700 42.83600
C  44.97000 48.42100 42.68900
C  44.11000 47.30500 42.47900
C  44.91100 46.15600 42.48800
C  44.60400 49.89300 42.61000
C  42.72300 46.97800 42.25100
O  41.74500 47.68700 42.12600
C  42.70400 45.43700 42.14400
C  41.78000 44.92700 43.20200
O  40.59400 45.03000 43.12400
O  42.43600 44.57600 44.39900
C  41.58600 44.26200 45.47800
H  47.52700 40.50200 42.08000
H  52.13100 45.03600 42.38700
H  47.37500 49.50300 43.21600
H  43.22800 42.25100 42.70200
H  45.14700 40.74600 41.01000
H  43.94100 40.02300 43.45200
H  45.70700 40.30400 43.87600
H  45.30000 39.25300 42.59800
H  42.15600 42.89900 40.84000
H  42.92800 41.34900 40.56000
H  44.85100 43.20100 39.39800
H  43.35800 43.89200 39.13700
H  51.03100 39.71000 41.64200
H  49.39700 39.35300 42.16500
H  50.67900 39.40800 43.34900
H  54.05400 43.66500 42.39100
H  54.35700 42.85300 43.95900
H  53.15100 44.00400 43.96000
H  51.61600 47.76700 41.51900
H  50.24000 49.02500 43.90400
H  52.78900 48.60100 43.87900
H  53.41000 47.35700 42.88300
H  52.35900 46.91400 44.20900
H  49.34400 49.63000 41.13600
H  50.99000 50.04900 41.40500
H  50.71100 51.70100 42.67900
H  49.20100 51.18000 43.51000
H  49.26400 51.79300 41.76800
H  44.99000 50.13500 41.62000
H  45.19900 50.59700 43.19200
H  43.54300 50.06300 42.79200
H  42.40700 45.12400 41.14300
H  42.21000 44.41400 46.35900
H  41.27800 43.21700 45.49600
H  40.81300 45.02500 45.56600

