158

Mg 8.01800 3.44500 28.46500
C  9.75300 2.21900 31.30100
C  6.31800 5.68400 30.64900
C  6.27500 4.70200 25.84900
C  9.38300 0.92300 26.53800
N  7.93600 3.82500 30.60900
C  8.81000 3.27400 31.53600
C  8.53800 3.80200 32.97800
C  7.38100 4.72600 32.75400
C  7.19500 4.78700 31.17600
C  6.15200 4.50100 33.60300
C  9.89700 4.54600 33.40900
C  9.90300 5.54000 34.58600
H  10.52700 5.09300 35.86500
N  6.64200 5.12400 28.24000
C  6.03200 5.82600 29.26000
C  5.08900 6.78100 28.62900
C  5.19200 6.58500 27.20900
C  6.13300 5.43500 27.02800
C  4.27100 7.71100 29.40000
C  4.38100 7.25800 26.15600
O  4.46900 7.02400 24.97000
C  3.43200 8.38800 26.50300
N  7.74000 2.79700 26.53900
C  7.04000 3.57000 25.61800
C  7.17700 3.02500 24.18400
C  8.21700 1.87100 24.44200
C  8.44400 1.79600 25.91900
C  5.82900 2.44500 23.44500
C  9.58900 1.94900 23.66800
C  10.72500 2.80100 24.39600
N  9.37500 1.88400 28.77500
C  9.81100 0.95900 27.91000
C  10.78200 0.08700 28.51300
C  10.79100 0.53700 29.88000
C  9.89400 1.64700 30.00900
C  11.60300 -0.92500 27.75100
C  11.32300 0.32300 31.21100
O  12.09200 -0.56200 31.47200
C  10.69100 1.35400 32.13100
C  9.95600 0.76700 33.31400
O  8.78700 0.35700 33.33600
O  10.88100 0.62200 34.39900
C  10.40500 -0.33200 35.38000
H  5.83300 6.39200 31.32400
H  5.87100 5.12000 24.92400
H  9.86900 0.17300 25.91100
H  8.28600 2.98100 33.64800
H  7.66200 5.77400 32.85800
H  5.39800 4.14300 32.90200
H  5.65600 5.40400 33.96100
H  6.24300 3.70100 34.33800
H  10.42200 4.99000 32.56300
H  10.62800 3.76100 33.59900
H  8.89600 5.82000 34.89300
H  10.41300 6.45300 34.27700
H  4.36700 8.65700 28.86700
H  4.82900 7.83800 30.32800
H  3.23000 7.48900 29.63300
H  2.87400 8.05400 27.37800
H  2.79500 8.59900 25.64400
H  3.89300 9.34500 26.74900
H  7.50300 3.88000 23.59200
H  7.81300 0.95000 24.02100
H  4.91600 2.96900 23.72800
H  5.73300 1.39000 23.70100
H  6.01200 2.42900 22.37100
H  9.41800 2.20800 22.62300
H  9.93600 0.92700 23.51500
H  10.36600 3.45200 25.19200
H  11.30200 3.42600 23.71500
H  11.54000 2.18300 24.77400
H  11.98000 -0.67200 26.76000
H  11.08200 -1.86500 27.56900
H  12.45700 -1.12800 28.39800
H  11.46000 2.03300 32.50100
H  10.47200 0.15900 36.35100
H  11.01500 -1.23500 35.37000
H  9.34400 -0.56700 35.29300
Mg 47.12300 17.22300 28.31500
C  45.10900 17.13700 31.22100
C  49.48400 18.95600 30.21700
C  48.70500 17.71000 25.49300
C  44.53700 15.66000 26.57700
N  47.29400 17.89000 30.49100
C  46.37400 17.73500 31.45300
C  46.94600 18.06700 32.83800
C  48.24800 18.90300 32.45500
C  48.38500 18.58800 30.93800
C  48.26000 20.49900 32.76800
C  47.11300 16.86100 33.78100
C  46.88300 17.07600 35.29800
H  46.45400 18.49000 35.76000
N  48.94200 17.97200 27.96300
C  49.75800 18.66000 28.84700
C  50.95900 19.08400 28.09100
C  50.77400 18.75100 26.68700
C  49.43600 18.14400 26.62900
C  52.13600 19.70700 28.84800
C  51.69600 19.01900 25.51500
O  51.38800 18.70000 24.37400
C  53.03100 19.62700 25.78600
N  46.67300 16.74900 26.40400
C  47.45500 17.07600 25.34100
C  47.03300 16.46700 24.02100
C  45.97700 15.47600 24.52200
C  45.63000 16.08100 25.92600
C  46.60000 17.60700 23.04100
C  46.34000 13.97100 24.47500
C  45.58900 13.13700 23.43600
N  45.21500 16.60000 28.73400
C  44.28900 15.94500 27.89900
C  43.15800 15.61100 28.61900
C  43.41900 16.01200 29.94700
C  44.70900 16.69300 29.94600
C  41.94000 14.87100 28.01700
C  42.93100 15.97500 31.31900
O  41.91000 15.44200 31.77000
C  44.03800 16.70500 32.12000
C  43.46900 17.68600 33.11300
O  43.24400 18.90100 32.94000
O  43.01600 16.92000 34.14100
C  42.27300 17.66000 35.11600
H  50.21000 19.53700 30.79000
H  49.39400 17.82400 24.65400
H  43.79500 15.17100 25.94100
H  46.18300 18.67400 33.32400
H  49.15100 18.49900 32.91100
H  48.24500 21.07900 31.84400
H  49.07600 20.78400 33.43100
H  47.39100 20.69800 33.39500
H  48.12600 16.49600 33.61300
H  46.46500 16.02000 33.53600
H  47.84800 16.96800 35.79200
H  46.35000 16.27600 35.81300
H  52.03100 20.79200 28.81400
H  53.01300 19.27300 28.36700
H  52.22400 19.43200 29.89900
H  52.78500 20.44900 26.45800
H  53.49900 20.00900 24.87800
H  53.64600 18.86500 26.26400
H  47.94400 16.08100 23.56500
H  45.04700 15.61100 23.97100
H  47.40400 17.67700 22.30900
H  46.47600 18.56800 23.54100
H  45.65000 17.23600 22.65700
H  46.12800 13.66100 25.49900
H  47.42300 13.92200 24.36400
H  46.30700 12.38200 23.11800
H  45.35200 13.70200 22.53400
H  44.75500 12.56700 23.84600
H  41.99500 13.82500 28.31600
H  41.89500 14.91600 26.92800
H  41.00900 15.23100 28.45600
H  44.51900 15.97600 32.77200
H  41.23600 17.80500 34.81300
H  42.81300 18.57500 35.36100
H  42.29800 17.08000 36.03900

