158

Mg 54.99600 24.91700 44.12400
C  51.93200 26.88700 43.36200
C  53.13400 22.23000 43.03600
C  57.86100 23.43600 43.89100
C  56.48900 27.93200 44.77600
N  52.84000 24.73100 43.06900
C  51.82100 25.59900 42.89800
C  50.60300 24.86200 42.29900
C  50.91000 23.41700 42.90900
C  52.37500 23.44000 43.12700
C  50.13500 23.07600 44.30100
C  50.48600 24.90600 40.71800
C  49.06900 24.49000 40.29000
H  48.65300 24.64300 38.80100
N  55.42700 23.05900 43.63300
C  54.51800 22.05200 43.18100
C  55.24800 20.79800 43.08800
C  56.61400 21.06700 43.38400
C  56.67800 22.53200 43.60900
C  54.59000 19.45700 42.66500
C  57.66400 20.03400 43.48900
O  57.39900 18.88100 43.41200
C  59.06700 20.40800 43.83200
N  56.93600 25.62400 44.12100
C  57.96400 24.76600 44.15100
C  59.22200 25.41100 44.65900
C  58.79300 26.95800 44.67300
C  57.23600 26.88400 44.52800
C  59.70900 24.90400 46.06000
C  59.43100 27.74300 43.46100
C  60.15800 29.07200 43.86400
N  54.35300 26.95700 44.21300
C  55.13200 28.02800 44.55900
C  54.31400 29.23000 44.62500
C  53.05800 28.77200 44.18200
C  53.11500 27.39500 43.91100
C  54.72800 30.64100 44.98300
C  51.75800 29.29700 43.86100
O  51.33500 30.45800 43.93200
C  50.91300 28.02000 43.36100
C  50.42000 28.27100 41.99800
O  51.16700 28.68000 41.12200
O  49.10000 27.90200 41.82400
C  48.71200 27.97400 40.42400
H  52.44500 21.39300 42.90800
H  58.78800 22.93000 44.16900
H  57.03300 28.87100 44.89800
H  49.74200 25.26800 42.83100
H  50.74400 22.68400 42.12000
H  49.37600 23.82500 44.52800
H  50.86900 23.02100 45.10500
H  49.65200 22.10400 44.20600
H  51.05000 24.02500 40.41100
H  50.85800 25.81800 40.25300
H  48.26900 24.88800 40.91500
H  48.91400 23.41600 40.38800
H  53.70700 19.70800 42.07700
H  54.19900 18.99000 43.56900
H  55.19600 18.73700 42.11600
H  59.45000 21.11300 43.09400
H  59.70000 19.53700 44.00400
H  58.89600 20.95400 44.75900
H  59.88100 25.07800 43.85600
H  59.10000 27.42500 45.60900
H  60.14800 23.90600 46.06500
H  58.93100 25.06700 46.80500
H  60.52200 25.48100 46.50100
H  58.68600 27.93400 42.68900
H  60.18100 27.08000 43.03000
H  59.82200 29.77600 43.10400
H  61.21500 28.93400 44.09100
H  59.62400 29.38400 44.76200
H  53.94400 31.28100 44.57900
H  55.71300 30.87200 44.57600
H  54.83200 30.72900 46.06400
H  50.19900 27.83200 44.16300
H  47.86200 27.33400 40.19100
H  49.51300 27.69000 39.74200
H  48.41500 28.99300 40.17300
Mg 9.98600 48.36400 25.18300
C  8.10400 48.61600 28.08900
C  12.68300 49.77100 27.23400
C  12.02700 48.16500 22.71700
C  7.29700 47.27900 23.47400
N  10.32200 49.19600 27.43600
C  9.32700 49.10400 28.44600
C  9.91800 49.39100 29.80600
C  11.28600 50.11700 29.40100
C  11.49700 49.58000 27.98300
C  11.30800 51.66800 29.43000
C  10.18400 48.19300 30.71400
C  9.45300 48.25100 32.08000
H  9.72900 47.16900 33.25800
N  12.05000 48.93400 25.01300
C  12.97600 49.45000 25.93600
C  14.28200 49.43600 25.35900
C  14.16700 49.01700 23.95600
C  12.68700 48.74600 23.84600
C  15.62400 49.82700 26.03900
C  15.11900 48.90400 22.77300
O  14.72300 48.78400 21.61800
C  16.55000 48.87100 23.13600
N  9.67300 47.93300 23.29200
C  10.68200 47.90300 22.44400
C  10.19400 47.09600 21.16800
C  8.70300 46.69300 21.44100
C  8.55500 47.36700 22.85700
C  10.33900 47.88600 19.83100
C  8.41800 45.18600 21.45100
C  8.65200 44.34000 22.67000
N  8.05500 48.05100 25.57400
C  7.07200 47.67800 24.77700
C  5.77900 47.70400 25.52100
C  6.16400 47.97800 26.78700
C  7.55500 48.25500 26.80300
C  4.37300 47.23300 25.11800
C  5.66000 48.10200 28.12000
O  4.48300 47.95200 28.50400
C  6.85200 48.35400 29.01500
C  6.93600 47.12000 29.84000
O  7.67300 46.13800 29.69400
O  5.99000 47.19900 30.91300
C  5.93500 46.14500 31.89200
H  13.42500 50.27600 27.85500
H  12.75500 48.03200 21.91400
H  6.44000 46.89800 22.91400
H  9.25600 50.15100 30.21900
H  12.09200 49.70000 30.00500
H  12.29400 52.00900 29.74700
H  10.58500 51.95800 30.19300
H  11.00500 52.28300 28.58300
H  11.22200 48.03700 31.00700
H  9.79200 47.31200 30.20600
H  8.38800 48.18800 31.85800
H  9.54800 49.21500 32.58100
H  15.44700 50.14400 27.06700
H  16.11100 50.62200 25.47400
H  16.30400 48.97700 26.00700
H  16.50400 48.04300 23.84400
H  16.83800 49.76800 23.68300
H  17.19600 48.84500 22.25800
H  10.78400 46.18100 21.11100
H  8.01200 47.15100 20.73300
H  11.03700 48.70400 20.00900
H  9.37900 48.21100 19.42900
H  10.76800 47.24400 19.06300
H  8.92700 44.71600 20.61000
H  7.33800 45.13900 21.31300
H  9.36200 44.90300 23.27500
H  9.15400 43.42200 22.36200
H  7.72500 44.12100 23.20000
H  4.23700 46.38500 25.78800
H  4.33100 47.13300 24.03300
H  3.53800 47.87600 25.39500
H  6.66700 49.26500 29.58400
H  5.96000 46.68900 32.83600
H  6.73400 45.40300 31.89200
H  4.99900 45.59100 31.82700

