158

Mg 3.03300 -0.92600 42.92500
C  6.49400 -0.34100 42.49300
C  2.32200 1.87500 41.11100
C  -0.28400 -1.98600 42.59800
C  3.87400 -4.15900 44.29500
N  4.30100 0.51000 41.85400
C  5.67500 0.60000 41.82200
C  6.14800 1.94600 41.15700
C  4.79300 2.61600 40.79500
C  3.71900 1.63600 41.25300
C  4.67700 4.10700 41.19300
C  7.03400 1.66500 39.96900
C  6.49800 0.74400 38.85700
H  6.23900 1.25400 37.40100
N  1.35600 -0.07300 42.20200
C  1.23000 1.13000 41.62100
C  -0.19800 1.54000 41.60000
C  -0.96900 0.46300 41.96100
C  0.04100 -0.62100 42.25700
C  -0.63700 2.89000 41.05200
C  -2.52600 0.43400 42.04400
O  -3.27700 1.35800 41.64400
C  -3.23800 -0.78100 42.66900
N  2.00800 -2.82500 43.33100
C  0.57100 -2.93000 43.11700
C  0.09000 -4.36500 43.50900
C  1.34400 -4.98600 44.15100
C  2.50600 -3.96400 43.92200
C  -1.21500 -4.44000 44.42000
C  1.57300 -6.47400 43.66200
C  1.45900 -7.58400 44.72600
N  4.72900 -2.00600 43.40500
C  4.89100 -3.25900 43.98600
C  6.27500 -3.41200 44.30400
C  6.92500 -2.33800 43.75300
C  5.94700 -1.52000 43.17300
C  6.93800 -4.54600 45.07000
C  8.25900 -1.66200 43.65800
O  9.41900 -1.90100 44.02100
C  7.97400 -0.38300 42.72100
C  8.42100 0.90000 43.27000
O  9.14100 1.67800 42.71100
O  7.95100 1.08800 44.58700
C  8.32000 2.42900 45.14700
H  2.11900 2.87200 40.71600
H  -1.25600 -2.39600 42.31200
H  4.12900 -5.14500 44.68800
H  6.70800 2.53500 41.88400
H  4.63900 2.56000 39.71800
H  3.94400 4.25100 41.98700
H  4.30700 4.63600 40.31500
H  5.62800 4.53900 41.50500
H  7.95100 1.18800 40.31600
H  7.36200 2.63900 39.60800
H  5.54100 0.32800 39.17000
H  7.16200 -0.12100 38.84400
H  -1.17600 2.88100 40.10500
H  0.23600 3.54000 40.99200
H  -1.24200 3.33700 41.84100
H  -2.68300 -1.23600 43.48900
H  -3.27400 -1.49400 41.84400
H  -4.22300 -0.57500 43.08700
H  -0.18100 -4.84900 42.57100
H  1.14300 -5.00200 45.22200
H  -1.59600 -3.42800 44.56000
H  -0.96800 -4.86600 45.39200
H  -1.95900 -5.07600 43.94000
H  2.56100 -6.47400 43.20100
H  0.86100 -6.64800 42.85400
H  2.37800 -8.15200 44.86600
H  0.73700 -8.31900 44.37100
H  1.16700 -7.19800 45.70400
H  6.45100 -4.56000 46.04500
H  8.02300 -4.55300 45.16600
H  6.59300 -5.49900 44.66900
H  8.54000 -0.71300 41.85000
H  7.35300 2.91400 45.27800
H  8.78300 3.16400 44.48900
H  8.89000 2.35800 46.07300
Mg 9.15600 46.85400 25.64900
C  6.82300 47.04500 28.25100
C  11.61400 47.88900 27.69500
C  11.34200 47.25500 22.91600
C  6.52000 46.60300 23.42800
N  9.11000 47.57400 27.70300
C  8.14100 47.34800 28.62900
C  8.60500 47.68100 30.06600
C  10.09400 48.22100 29.78100
C  10.36800 47.87100 28.25300
C  10.37800 49.73300 30.05500
C  8.50100 46.42500 31.02300
C  9.55100 46.29200 32.25700
H  8.96000 45.88900 33.59100
N  11.23700 47.25700 25.38800
C  12.12800 47.57500 26.38200
C  13.49000 47.76700 25.85300
C  13.42500 47.47500 24.45400
C  11.97700 47.33400 24.20600
C  14.64000 48.12900 26.77700
C  14.50000 47.34700 23.43900
O  14.25100 46.94200 22.28800
C  15.92100 47.56000 23.81800
N  8.91500 46.97800 23.48200
C  9.95200 47.11400 22.58100
C  9.47900 47.04000 21.16200
C  7.94700 46.77600 21.35500
C  7.77300 46.76300 22.83200
C  9.99800 48.09000 20.21400
C  7.39700 45.49400 20.65900
C  6.20600 45.78500 19.72700
N  7.03700 46.77600 25.75900
C  6.15700 46.61200 24.77300
C  4.84100 46.61600 25.38100
C  5.06900 46.71800 26.74600
C  6.42300 46.88300 26.92300
C  3.50300 46.46600 24.72700
C  4.39500 46.74100 28.00200
O  3.20900 46.57500 28.23400
C  5.52600 47.01700 29.13400
C  5.50000 45.75800 30.05000
O  5.94000 44.64400 29.68500
O  4.91000 46.05700 31.24600
C  4.98900 45.05100 32.36500
H  12.33900 48.23100 28.43700
H  11.96200 47.44000 22.03700
H  5.76200 46.28300 22.70900
H  7.95200 48.40800 30.54900
H  10.79200 47.61500 30.35800
H  11.21500 49.68900 30.75100
H  9.47400 50.06800 30.56500
H  10.67100 50.49600 29.33400
H  8.55700 45.47500 30.49200
H  7.46900 46.46800 31.37300
H  10.09200 47.22000 32.44300
H  10.29600 45.55800 31.95000
H  15.28300 48.90400 26.35900
H  15.30700 47.27400 26.88200
H  14.27700 48.31000 27.78900
H  16.55500 47.27000 22.98000
H  16.11300 47.11400 24.79400
H  15.99100 48.63100 24.00900
H  9.93100 46.11600 20.80400
H  7.50600 47.73100 21.06600
H  11.02000 48.38500 20.45400
H  9.54000 49.04900 20.45600
H  9.92500 47.86600 19.15000
H  7.01300 44.85000 21.45000
H  8.17900 44.90100 20.18500
H  5.32200 45.60200 20.33900
H  6.26600 45.18200 18.82100
H  6.24000 46.86800 19.61000
H  3.11200 45.51500 25.09000
H  3.60900 46.67600 23.66300
H  2.71000 47.11400 25.09800
H  5.44800 47.92700 29.72800
H  5.97900 44.63000 32.54400
H  4.18400 44.31800 32.30900
H  4.93900 45.55800 33.32800

