158

Mg 54.66300 23.86700 44.42800
C  52.16500 26.23000 43.40200
C  52.32600 21.35500 43.59100
C  57.25800 21.83800 43.83000
C  56.81600 26.51000 45.03300
N  52.63100 23.80700 43.26500
C  51.79900 24.90400 43.11300
C  50.43200 24.52200 42.57900
C  50.30100 23.06800 43.21400
C  51.85800 22.66500 43.34400
C  49.70800 23.05500 44.64700
C  50.45500 24.59200 41.02700
C  48.99300 24.68100 40.53100
H  48.71600 24.18400 39.10300
N  54.70600 21.84100 44.00500
C  53.68700 20.95900 43.73700
C  54.22000 19.63800 43.67800
C  55.62600 19.74100 43.73400
C  55.91500 21.18000 43.83400
C  53.44600 18.36400 43.50000
C  56.62500 18.47600 43.68100
O  56.19300 17.28300 43.69600
C  58.10700 18.78800 43.51600
N  56.76000 24.08800 44.35700
C  57.63700 23.13100 44.15700
C  59.07900 23.44600 44.49800
C  58.86800 24.93700 44.96300
C  57.37000 25.16700 44.85700
C  59.93600 22.69700 45.47700
C  59.81900 26.01500 44.28300
C  61.04700 26.43700 45.20100
N  54.55200 25.95200 44.40400
C  55.44600 26.86800 44.77800
C  54.74800 28.15600 44.70600
C  53.48400 27.99300 44.21300
C  53.41100 26.60700 43.96200
C  55.28200 29.51200 45.10700
C  52.28100 28.64500 43.73000
O  51.98800 29.81500 43.62100
C  51.34600 27.51200 43.31700
C  51.06500 27.78200 41.96000
O  51.83500 27.84700 41.02300
O  49.74600 28.15800 41.87000
C  49.23300 28.79000 40.60900
H  51.49700 20.65700 43.45600
H  58.13300 21.18600 43.78300
H  57.50700 27.25800 45.42800
H  49.69800 25.20100 43.01200
H  49.77900 22.47000 42.46700
H  49.75300 21.98900 44.86900
H  48.63900 23.26300 44.70700
H  50.35900 23.62500 45.31000
H  50.99700 23.74100 40.61300
H  51.06100 25.37200 40.56800
H  48.55800 25.67500 40.63300
H  48.47100 24.02800 41.23100
H  53.52200 17.88700 44.47700
H  53.66100 17.75100 42.62500
H  52.40200 18.62400 43.32100
H  58.60300 17.81900 43.45300
H  58.39000 19.15200 44.50300
H  58.44300 19.44100 42.71100
H  59.59400 23.41700 43.53800
H  58.97700 25.01200 46.04500
H  59.39100 22.21600 46.28900
H  60.53000 23.40300 46.05700
H  60.67200 22.07500 44.96800
H  59.33800 26.91200 43.89300
H  60.22700 25.50200 43.41200
H  61.97800 26.24100 44.66800
H  61.13100 25.73300 46.02900
H  60.89600 27.43100 45.62200
H  55.30300 30.19800 44.26000
H  56.19400 29.30000 45.66600
H  54.63200 29.92200 45.87900
H  50.44400 27.37800 43.91400
H  49.93300 29.58000 40.33700
H  48.25000 29.25200 40.69200
H  49.20600 28.18900 39.70100
Mg 1.96800 41.63000 25.22500
C  2.72200 41.77500 28.71600
C  -1.04800 40.36800 26.10000
C  1.49900 40.84600 21.97200
C  5.16300 42.95600 24.57200
N  1.02300 41.01200 27.18100
C  1.43800 41.24400 28.49100
C  0.33900 41.01600 29.52800
C  -0.81500 40.49500 28.66700
C  -0.28000 40.64700 27.20800
C  -1.30400 39.01600 28.91900
C  -0.01300 42.26200 30.42600
C  0.09500 41.86800 31.88800
H  -0.77100 40.76900 32.50500
N  0.44100 40.79200 24.16800
C  -0.74000 40.37700 24.69500
C  -1.62600 39.88500 23.57800
C  -0.88000 40.10600 22.38600
C  0.43800 40.55800 22.82800
C  -3.02100 39.23300 23.72300
C  -1.29500 39.82600 20.93400
O  -0.65300 40.24600 19.97300
C  -2.54300 39.14900 20.61300
N  3.25900 41.85000 23.47800
C  2.83600 41.36100 22.23600
C  3.81900 41.85300 21.17600
C  4.90400 42.72000 21.96900
C  4.42400 42.48800 23.41900
C  4.47900 40.67500 20.36800
C  4.88700 44.29100 21.47300
C  3.87500 45.26200 22.12300
N  3.64300 42.32700 26.39500
C  4.83400 42.90200 25.94100
C  5.66000 43.19200 27.09000
C  4.81000 42.70600 28.15800
C  3.61500 42.21500 27.72000
C  7.03600 43.72900 27.10900
C  4.89600 42.55100 29.59400
O  5.75700 42.84800 30.40300
C  3.54800 41.82200 29.94600
C  3.78700 40.53200 30.51600
O  4.43600 39.60300 29.94500
O  3.27900 40.43900 31.77500
C  3.47700 39.24100 32.60100
H  -2.00800 39.90100 26.33000
H  1.38600 40.75200 20.89000
H  6.08000 43.50000 24.33700
H  0.70200 40.16100 30.09900
H  -1.67000 41.14200 28.86800
H  -0.83400 38.54500 29.78200
H  -1.06400 38.39700 28.05500
H  -2.38300 39.05900 29.06600
H  -0.96100 42.75600 30.21000
H  0.61000 43.15300 30.33500
H  0.20200 42.79500 32.45200
H  1.07500 41.41200 32.02700
H  -3.73000 39.66800 23.01900
H  -3.32700 39.35500 24.76200
H  -2.99000 38.16000 23.53400
H  -3.41100 39.79400 20.75100
H  -2.61400 38.24400 21.21600
H  -2.43200 38.95900 19.54600
H  3.15600 42.48000 20.58000
H  5.90600 42.31600 21.82100
H  5.48900 40.49300 20.73700
H  4.46500 41.09000 19.36000
H  3.76700 39.86000 20.49800
H  4.73900 44.28600 20.39300
H  5.86000 44.73400 21.68500
H  3.33600 45.58700 21.23300
H  4.35600 46.08000 22.65800
H  3.20300 44.88500 22.89400
H  7.19700 44.15300 26.11800
H  7.74700 42.91100 27.22700
H  7.10300 44.46900 27.90800
H  3.07800 42.51000 30.64900
H  4.29900 39.64500 33.19300
H  3.67500 38.26500 32.15900
H  2.46600 39.14200 32.99700

