158

Mg 25.69900 -8.56200 47.77800
C  27.94300 -6.15800 46.51800
C  23.44800 -7.59100 45.24700
C  23.94400 -11.43400 48.28500
C  28.38500 -9.77400 49.73000
N  25.71600 -6.99600 46.09500
C  26.70000 -6.13900 45.82000
C  26.25600 -5.10900 44.84000
C  24.74900 -5.52000 44.55900
C  24.56800 -6.73800 45.42200
C  23.71300 -4.41700 44.92200
C  27.10600 -4.93900 43.50300
C  27.41700 -3.54300 43.15200
H  27.46200 -3.17300 41.65200
N  23.87700 -9.36200 46.98000
C  23.15400 -8.80300 45.95000
C  21.94800 -9.63300 45.82400
C  21.97400 -10.64500 46.74400
C  23.30600 -10.54400 47.42100
C  20.82500 -9.32000 44.78200
C  20.98300 -11.79100 46.86700
O  20.06000 -11.93100 46.09200
C  21.24300 -12.85000 47.91600
N  26.18300 -10.34100 48.69900
C  25.18600 -11.27700 48.91800
C  25.69200 -12.46800 49.81300
C  27.14700 -11.89500 50.28800
C  27.25300 -10.58800 49.57600
C  24.74700 -12.89000 50.95400
C  28.27000 -12.85900 49.94700
C  29.01400 -12.55000 48.64600
N  27.66800 -7.98300 48.17100
C  28.61900 -8.55700 49.02800
C  29.82000 -7.76900 48.97500
C  29.59000 -6.72600 48.05800
C  28.29600 -6.94800 47.54500
C  31.05900 -8.04200 49.74700
C  30.11500 -5.59500 47.42700
O  31.18300 -4.99200 47.53300
C  29.02800 -5.15800 46.39900
C  28.51100 -3.84300 46.86300
O  27.57200 -3.69700 47.62400
O  29.04300 -2.87000 46.06800
C  28.34000 -1.56200 46.05300
H  22.68500 -7.19000 44.57700
H  23.55800 -12.45100 48.38500
H  29.12800 -10.23400 50.38500
H  26.26700 -4.16900 45.39000
H  24.66300 -5.87800 43.53300
H  24.14000 -3.47000 44.59100
H  23.62400 -4.48900 46.00600
H  22.74100 -4.65700 44.49100
H  26.54800 -5.38500 42.67900
H  28.02700 -5.51500 43.59300
H  28.32300 -3.27200 43.69500
H  26.68900 -2.90700 43.65600
H  20.92000 -8.41300 44.18400
H  19.95700 -9.17700 45.42600
H  20.59600 -10.14100 44.10300
H  21.62900 -12.41000 48.83600
H  21.98100 -13.42400 47.35500
H  20.40100 -13.48800 48.18000
H  25.97200 -13.29700 49.16400
H  27.14000 -11.71200 51.36200
H  25.16400 -12.58300 51.91300
H  24.68800 -13.97800 50.98700
H  23.77400 -12.45600 50.72200
H  27.94700 -13.88300 49.75800
H  28.93400 -12.75500 50.80500
H  29.42400 -13.50300 48.31300
H  29.85900 -11.89800 48.86800
H  28.37000 -12.08500 47.90000
H  30.90200 -8.83700 50.47600
H  31.47800 -7.17400 50.25500
H  31.66700 -8.65600 49.08200
H  29.34800 -5.05800 45.36200
H  28.82300 -0.80900 45.43000
H  28.16800 -1.18100 47.06000
H  27.29900 -1.65000 45.74100
Mg -9.34100 18.25000 43.67600
C  -5.84200 17.96300 44.02700
C  -8.93800 21.68500 43.14400
C  -12.63200 18.54500 43.14600
C  -9.49300 14.76100 43.40300
N  -7.57500 19.62900 43.49200
C  -6.32900 19.28900 43.83100
C  -5.39500 20.54300 43.73100
C  -6.40100 21.73500 43.81800
C  -7.72000 20.99000 43.41100
C  -6.49700 22.32400 45.22000
C  -4.50100 20.55000 42.43100
C  -5.02700 19.80600 41.11700
H  -5.92400 20.57000 40.15000
N  -10.60100 19.89400 43.16500
C  -10.28800 21.23400 43.09400
C  -11.48800 21.97400 42.74500
C  -12.62100 21.17000 42.87200
C  -11.98600 19.82400 43.01200
C  -11.33600 23.44300 42.49700
C  -14.18900 21.56300 42.79900
O  -14.44700 22.77200 42.80200
C  -15.34300 20.59200 42.88100
N  -10.76000 16.81600 43.15200
C  -12.08300 17.23900 43.19300
C  -13.01400 16.01000 43.35300
C  -12.02400 14.83700 43.09600
C  -10.70800 15.46500 43.25800
C  -13.80300 15.96600 44.67500
C  -12.24700 14.18600 41.66000
C  -13.59800 13.48500 41.47600
N  -7.96300 16.64800 43.70300
C  -8.16200 15.30200 43.57600
C  -6.89200 14.62500 43.77900
C  -5.95200 15.64900 43.94100
C  -6.63900 16.84900 43.89700
C  -6.58800 13.15800 43.70500
C  -4.56700 15.96800 44.13100
O  -3.56700 15.26200 44.31800
C  -4.41800 17.50500 44.18400
C  -3.78300 17.98200 45.38200
O  -2.63100 18.24600 45.43000
O  -4.67700 18.00900 46.41400
C  -4.13700 18.60000 47.65800
H  -8.73800 22.73700 42.92900
H  -13.71200 18.70400 43.16000
H  -9.56300 13.67100 43.42000
H  -4.84100 20.63000 44.66600
H  -6.22600 22.54400 43.10900
H  -7.25100 23.10400 45.11900
H  -5.48500 22.70800 45.34500
H  -6.74400 21.60900 46.00500
H  -3.42800 20.43800 42.58900
H  -4.60100 21.62500 42.28100
H  -5.50500 18.84500 41.31000
H  -4.14900 19.48100 40.56000
H  -11.66200 23.66600 41.48200
H  -10.37100 23.91700 42.68000
H  -12.00400 23.99000 43.16300
H  -15.12000 19.99300 43.76300
H  -15.35600 19.89200 42.04500
H  -16.33100 21.03200 42.74400
H  -13.65100 16.12900 42.47700
H  -12.12500 14.01200 43.80200
H  -13.69300 15.01500 45.19500
H  -14.85200 16.15700 44.44900
H  -13.32700 16.67100 45.35700
H  -11.49100 13.43200 41.43800
H  -12.13500 15.06200 41.02200
H  -14.15800 13.93200 40.65500
H  -14.26600 13.51900 42.33600
H  -13.48400 12.44000 41.18700
H  -5.54900 13.02200 43.40500
H  -7.10100 12.62000 42.90800
H  -6.79900 12.78000 44.70500
H  -3.83100 17.73100 43.29300
H  -4.98200 18.65700 48.34500
H  -3.67600 19.57800 47.52100
H  -3.42100 17.89900 48.08700

