158

Mg 24.94000 2.08300 29.94900
C  27.23400 1.97000 32.67200
C  22.39300 2.43700 32.13700
C  22.85900 1.97200 27.33600
C  27.73600 1.29900 27.81500
N  24.90500 2.13900 32.09500
C  25.88200 2.23200 33.00700
C  25.35800 2.53300 34.38100
C  23.82400 2.46900 34.19500
C  23.69500 2.32800 32.70300
C  23.08100 1.38800 34.96300
C  25.83000 3.92100 34.93200
C  26.62100 3.95000 36.22100
H  26.18000 4.98800 37.21800
N  22.91500 2.16700 29.76700
C  21.99400 2.34900 30.79000
C  20.62500 2.36200 30.24900
C  20.79900 2.12400 28.80900
C  22.25500 2.06200 28.58200
C  19.48500 2.52900 31.05000
C  19.78200 2.01000 27.76300
O  20.05400 1.78300 26.61700
C  18.31600 2.33600 28.10900
N  25.19400 1.49600 27.82500
C  24.20100 1.76900 26.90300
C  24.76300 1.83500 25.47500
C  26.32700 1.69000 25.69600
C  26.45700 1.48700 27.25700
C  24.27000 0.75100 24.42900
C  27.16500 2.84100 25.12900
C  27.25700 4.18800 25.90100
N  27.03500 1.61600 30.14000
C  28.04300 1.22900 29.20200
C  29.30600 1.00300 29.85300
C  28.99800 1.28600 31.20500
C  27.60400 1.63800 31.38500
C  30.55400 0.58500 29.23800
C  29.60900 1.53000 32.51500
O  30.78100 1.32300 32.74700
C  28.50200 2.03900 33.55100
C  28.45100 0.96500 34.62300
O  28.04700 -0.18600 34.47100
O  28.76900 1.54500 35.85600
C  28.50700 0.76600 37.04700
H  21.65300 2.63400 32.91500
H  22.24300 2.00900 26.43500
H  28.57000 1.19100 27.11900
H  25.76900 1.70500 34.95900
H  23.27400 3.38800 34.39700
H  23.70000 0.75000 35.59400
H  22.68900 0.64600 34.26700
H  22.32100 1.91000 35.54600
H  24.91900 4.48500 35.13100
H  26.42100 4.48000 34.20600
H  27.69500 4.13200 36.19400
H  26.47300 3.00400 36.74100
H  18.80100 1.68200 31.00000
H  19.09100 3.51200 30.79000
H  19.58100 2.59900 32.13400
H  18.00600 1.82500 29.02000
H  17.72500 1.88100 27.31400
H  18.26700 3.42500 28.12900
H  24.61200 2.88800 25.23800
H  26.65000 0.73900 25.27300
H  23.24100 0.48900 24.67600
H  24.95900 -0.09000 24.50900
H  24.23800 1.11800 23.40300
H  26.72700 3.08300 24.16100
H  28.11300 2.41800 24.79600
H  28.23300 4.28800 26.37600
H  26.51300 4.17200 26.69800
H  26.99600 5.08500 25.33800
H  31.25100 1.39900 29.04000
H  30.33700 0.10300 28.28500
H  30.93600 -0.13600 29.96100
H  28.64400 3.00300 34.04000
H  27.89200 -0.11200 36.85000
H  27.85500 1.39200 37.65600
H  29.46100 0.53600 37.52200
Mg 36.85000 50.29500 25.31900
C  37.12500 48.33700 28.28300
C  35.85600 52.94200 27.12700
C  36.09600 51.83600 22.41800
C  38.06200 47.59700 23.52200
N  36.41100 50.49800 27.50500
C  36.73600 49.65600 28.53600
C  36.54100 50.36400 29.92700
C  36.20200 51.80600 29.47200
C  36.12500 51.77100 27.94800
C  34.89800 52.43600 30.04800
C  37.89000 50.31600 30.85300
C  37.81400 49.60300 32.18900
H  36.52900 49.63800 33.01500
N  36.12100 52.15400 24.84000
C  35.78300 53.11600 25.75100
C  35.35100 54.30900 24.99500
C  35.32600 53.96600 23.61100
C  35.91100 52.66700 23.55300
C  34.79000 55.48000 25.71800
C  34.86500 54.74500 22.36700
O  34.99000 54.26800 21.28300
C  34.30900 56.09800 22.51800
N  36.93800 49.68400 23.24800
C  36.57800 50.52700 22.24800
C  37.09000 49.99100 20.85400
C  37.91500 48.66200 21.25900
C  37.63000 48.64500 22.74300
C  35.93200 49.74100 19.90400
C  39.45300 48.52400 21.04200
C  40.09500 47.16600 20.67500
N  37.48400 48.38300 25.75900
C  37.87400 47.40000 24.89800
C  38.31500 46.25900 25.70300
C  37.94900 46.59100 27.02400
C  37.43200 47.85100 27.02100
C  39.02800 44.98300 25.25000
C  38.09100 46.11900 28.36900
O  38.51100 45.12000 28.87900
C  37.48600 47.23000 29.24900
C  36.31600 46.76200 29.99300
O  35.13400 47.07000 29.76900
O  36.66900 46.08000 31.09500
C  35.73400 45.57600 32.01000
H  35.49700 53.69500 27.83200
H  36.00800 52.28700 21.42700
H  38.38100 46.72200 22.95100
H  35.68400 49.97300 30.47500
H  36.98000 52.51100 29.76500
H  34.98600 53.44000 30.46300
H  34.55500 51.81400 30.87500
H  34.12200 52.42000 29.28200
H  38.18100 51.34300 31.07300
H  38.67800 49.84500 30.26500
H  38.53000 50.09000 32.85000
H  38.13700 48.57200 32.04900
H  35.04200 56.32400 25.07700
H  35.40000 55.74200 26.58200
H  33.74200 55.34400 25.98600
H  34.04000 56.42100 21.51200
H  35.06200 56.83300 22.80400
H  33.44000 56.24300 23.15900
H  37.87900 50.68100 20.55800
H  37.34900 47.79300 20.92200
H  35.38700 50.66900 19.73500
H  35.23800 49.00900 20.31700
H  36.29000 49.38600 18.93800
H  39.78800 48.80800 22.04000
H  39.76200 49.29300 20.33500
H  40.70700 47.38600 19.80000
H  39.29600 46.45700 20.45900
H  40.77200 46.87800 21.47900
H  39.89300 44.82000 25.89300
H  39.47300 45.13200 24.26600
H  38.41500 44.08400 25.29800
H  38.23500 47.51700 29.98600
H  35.18400 44.81600 31.45500
H  35.05400 46.34100 32.38600
H  36.24600 45.06300 32.82400

