158

Mg 8.12400 2.48900 28.40100
C  9.55800 1.03900 31.25900
C  6.48100 4.72700 30.36500
C  6.16100 3.32100 25.77000
C  9.35200 -0.31100 26.46000
N  7.93000 2.73900 30.62100
C  8.68700 2.09900 31.59200
C  8.54500 2.79300 32.93600
C  7.35200 3.83500 32.58800
C  7.24800 3.82700 31.09700
C  6.00400 3.53100 33.27600
C  9.79300 3.44000 33.56700
C  10.39800 2.76300 34.82100
H  10.79100 3.72800 35.89800
N  6.76700 4.04900 27.99400
C  6.21600 4.90900 28.93800
C  5.27100 5.78800 28.24300
C  5.23800 5.42800 26.85600
C  6.11500 4.28500 26.83500
C  4.47200 6.97200 28.93300
C  4.44600 6.04700 25.63000
O  4.47900 5.68300 24.46900
C  3.51100 7.26400 25.84800
N  7.85200 1.61900 26.38800
C  6.92500 2.17400 25.58400
C  7.13000 1.59300 24.12100
C  8.00500 0.35500 24.37900
C  8.39400 0.55700 25.84800
C  5.87700 1.12400 23.37500
C  9.07700 0.08900 23.26200
C  9.02800 -1.18400 22.37800
N  9.23900 0.77100 28.73600
C  9.65700 -0.23600 27.83600
C  10.48600 -1.20800 28.60600
C  10.48800 -0.70300 29.89300
C  9.70900 0.45900 29.94900
C  11.29800 -2.33400 28.02500
C  10.93400 -0.95900 31.31200
O  11.74200 -1.75300 31.80100
C  10.32400 0.15200 32.17600
C  9.43800 -0.58800 33.16100
O  8.31600 -1.00100 32.97800
O  10.12300 -0.63600 34.34600
C  9.38500 -1.41400 35.41200
H  6.09400 5.54000 30.98200
H  5.60800 3.63200 24.88100
H  9.73600 -1.05700 25.76000
H  8.20800 2.16400 33.76000
H  7.63700 4.79500 33.01800
H  6.09000 2.47300 33.52200
H  5.21800 3.47200 32.52300
H  5.78500 4.36700 33.94000
H  9.71100 4.51600 33.71900
H  10.57700 3.36400 32.81300
H  11.29100 2.25500 34.45500
H  9.75500 1.96800 35.19700
H  4.81800 7.94200 28.57600
H  4.85400 7.05400 29.95000
H  3.43100 6.89300 28.62000
H  2.75100 7.06100 26.60300
H  2.93900 7.55800 24.96800
H  4.10300 8.08900 26.24500
H  7.68300 2.23900 23.43900
H  7.34300 -0.50700 24.45800
H  5.07800 1.33800 24.08600
H  5.77300 0.10700 22.99900
H  5.72100 1.93500 22.66300
H  10.09300 0.20600 23.63800
H  9.03000 0.83500 22.46800
H  8.95300 -0.98700 21.30800
H  8.15900 -1.80400 22.59800
H  9.92800 -1.78900 22.48400
H  12.02400 -2.03600 27.26900
H  10.75200 -3.17600 27.59800
H  11.80800 -2.67400 28.92600
H  11.23200 0.62200 32.55300
H  8.88500 -2.27300 34.96500
H  8.60300 -0.83400 35.90000
H  9.98200 -1.85600 36.21000
Mg 46.24400 17.06200 28.61300
C  44.35300 16.51100 31.47300
C  48.21800 19.27800 30.51200
C  47.65700 18.19400 25.79500
C  43.92400 15.19700 26.80100
N  46.37500 17.66700 30.73500
C  45.63000 17.16200 31.74100
C  46.12200 17.53200 33.14000
C  47.24300 18.59400 32.76700
C  47.35000 18.44900 31.23000
C  46.88500 20.05500 33.28100
C  46.60600 16.24900 33.86000
C  46.92300 16.26300 35.36100
H  46.86100 17.55300 36.10200
N  47.59400 18.63400 28.21100
C  48.31900 19.40200 29.13200
C  49.16300 20.33800 28.38200
C  49.00200 20.01400 27.03900
C  47.96200 18.91100 26.99500
C  50.00400 21.45000 29.02100
C  49.68200 20.66300 25.77000
O  49.35600 20.41600 24.62900
C  50.68800 21.73000 25.98800
N  45.89600 16.78700 26.57600
C  46.70200 17.19000 25.59400
C  46.26600 16.70300 24.21200
C  45.07000 15.73300 24.57700
C  44.93300 15.92500 26.10800
C  45.79700 17.82200 23.28400
C  45.35500 14.31600 24.02800
C  44.55700 13.69700 22.82700
N  44.49900 15.97000 28.97400
C  43.60000 15.33700 28.18700
C  42.36300 14.97800 28.90200
C  42.68900 15.40500 30.20100
C  43.95400 16.00400 30.20700
C  41.13900 14.47300 28.26600
C  42.13300 15.56500 31.57400
O  41.04000 15.26500 32.04000
C  43.34100 15.99000 32.38900
C  42.83300 17.05500 33.31700
O  42.15100 18.03200 32.96300
O  43.19400 16.85800 34.61200
C  42.67300 17.90600 35.52200
H  48.79700 19.97300 31.12300
H  48.15700 18.49000 24.87100
H  43.22800 14.59000 26.21900
H  45.45300 18.09900 33.78800
H  48.11500 18.31000 33.35600
H  45.90100 20.26300 33.70300
H  46.90400 20.64500 32.36500
H  47.54100 20.40100 34.08000
H  47.45400 15.86400 33.29400
H  45.74800 15.59200 33.71400
H  47.95800 15.96400 35.52900
H  46.37300 15.50700 35.92100
H  49.58700 21.67000 30.00300
H  49.96600 22.37600 28.44800
H  51.01700 21.07200 29.16500
H  51.47700 21.60500 26.72900
H  49.99800 22.52300 26.27500
H  51.04100 22.12500 25.03500
H  47.18000 16.26600 23.81000
H  44.13400 16.05700 24.12200
H  44.74500 17.66500 23.04700
H  46.42500 17.72400 22.39900
H  45.85900 18.79200 23.77900
H  45.26300 13.61500 24.85800
H  46.42000 14.22500 23.81600
H  44.01100 12.83600 23.21300
H  45.31700 13.32400 22.14100
H  43.88900 14.42500 22.36700
H  41.27300 13.39800 28.14400
H  40.92100 14.86900 27.27400
H  40.39700 14.64200 29.04700
H  43.56700 15.14900 33.04600
H  41.60000 18.09100 35.58700
H  43.15500 18.80500 35.13900
H  42.88400 17.84400 36.59000

