158

Mg 2.17000 7.58400 26.34500
C  2.38000 9.80400 29.03800
C  2.31800 4.96000 28.50300
C  2.20400 5.54800 23.59600
C  2.48800 10.37300 24.19300
N  2.46100 7.40200 28.54100
C  2.37500 8.44600 29.43700
C  2.04800 7.89700 30.83600
C  2.44000 6.37100 30.64600
C  2.33600 6.19700 29.16300
C  3.79600 5.87200 31.11300
C  0.60600 8.14200 31.42500
C  0.50100 8.41100 32.95700
H  1.69200 7.89600 33.81900
N  2.23600 5.52700 26.11500
C  2.23500 4.57300 27.12600
C  2.15000 3.27700 26.57300
C  2.09100 3.43300 25.15800
C  2.24800 4.86400 24.88600
C  1.93800 2.01700 27.48900
C  2.04900 2.37100 24.11700
O  2.08900 2.59400 22.92400
C  1.99200 0.86900 24.62500
N  2.29100 7.91800 24.25800
C  2.30900 6.92500 23.31200
C  2.37400 7.41600 21.87000
C  2.46500 8.97700 22.04300
C  2.32700 9.11000 23.61500
C  3.42800 6.71800 21.07100
C  1.28200 9.73500 21.36300
C  1.61600 10.64200 20.23800
N  2.36000 9.66400 26.51700
C  2.52000 10.60200 25.57000
C  2.55600 11.94400 26.15800
C  2.51900 11.69100 27.56900
C  2.46300 10.27900 27.70500
C  2.36400 13.29600 25.52500
C  2.35200 12.25800 28.94400
O  2.30100 13.42800 29.29500
C  2.27000 11.06600 29.88600
C  3.39000 11.02500 30.90900
O  4.58300 11.00600 30.70800
O  2.81200 11.11600 32.14100
C  3.76800 11.22100 33.23500
H  2.39700 4.18400 29.26700
H  2.15900 4.93800 22.69200
H  2.44500 11.24300 23.53300
H  2.80100 8.27100 31.53100
H  1.68000 5.71900 31.07600
H  4.41400 5.59500 30.25900
H  3.53800 5.04300 31.77200
H  4.32900 6.56800 31.75900
H  -0.08900 7.32000 31.25400
H  0.23900 9.10900 31.08100
H  -0.38200 7.88200 33.31600
H  0.47400 9.48700 33.13200
H  2.89200 1.49000 27.44900
H  0.99700 1.58500 27.14800
H  1.78400 2.34600 28.51600
H  2.96900 0.66400 25.06300
H  1.79800 0.22900 23.76500
H  1.08000 0.74800 25.20900
H  1.39800 7.14600 21.46500
H  3.43000 9.37300 21.72600
H  4.10400 6.32900 21.83300
H  3.93200 7.40800 20.39500
H  3.03500 5.97900 20.37300
H  0.74500 10.37200 22.06600
H  0.58600 9.04400 20.88700
H  1.04100 10.44800 19.33200
H  2.68100 10.52300 20.04000
H  1.27100 11.65200 20.45800
H  1.60600 13.95000 25.95700
H  2.18500 13.11200 24.46500
H  3.25200 13.92700 25.56700
H  1.36900 11.09000 30.49900
H  3.98400 12.28900 33.24300
H  4.69100 10.67800 33.03000
H  3.40900 11.04300 34.24900
Mg 9.05000 47.57900 25.64200
C  6.77900 47.75300 28.32600
C  11.45300 48.84200 27.79700
C  11.02700 47.46300 23.03200
C  6.31100 47.09700 23.49500
N  9.03000 48.21800 27.80700
C  8.05600 48.10800 28.75000
C  8.61000 48.47200 30.11900
C  9.91900 49.28000 29.74700
C  10.20300 48.72900 28.35700
C  9.81000 50.86500 29.87600
C  8.65000 47.39000 31.20100
C  7.88200 47.49500 32.50800
H  8.17200 46.34100 33.49100
N  11.01900 48.11200 25.46000
C  11.87100 48.54000 26.43200
C  13.16100 48.86300 25.87700
C  13.13000 48.27900 24.56600
C  11.66100 47.90800 24.27500
C  14.34600 49.40500 26.76600
C  14.24200 48.10100 23.58700
O  14.05000 47.50700 22.55000
C  15.52500 48.22800 24.14400
N  8.74400 47.03400 23.54200
C  9.74300 47.06100 22.71700
C  9.29000 46.92300 21.25900
C  7.79700 47.15000 21.34200
C  7.58600 47.00400 22.84700
C  9.97800 47.73200 20.17800
C  6.96300 46.12600 20.54900
C  6.57500 46.58000 19.15300
N  6.96200 47.42300 25.78100
C  5.96600 47.16400 24.85500
C  4.65900 47.24700 25.45200
C  4.98300 47.34400 26.81700
C  6.40800 47.48600 26.95200
C  3.38200 47.06800 24.79700
C  4.36300 47.33400 28.16800
O  3.20500 47.12300 28.44400
C  5.55400 47.52600 29.23100
C  5.62000 46.26400 30.03400
O  6.30600 45.29800 29.70800
O  4.85300 46.39000 31.09700
C  4.79000 45.24100 32.04800
H  12.15900 49.21400 28.54200
H  11.76200 47.33100 22.23600
H  5.37900 47.06700 22.92500
H  7.88200 49.21600 30.44200
H  10.79000 48.98100 30.33200
H  8.87000 51.11400 30.36800
H  9.69000 51.23000 28.85600
H  10.58800 51.41600 30.40300
H  9.70400 47.31900 31.47000
H  8.36700 46.40700 30.82600
H  6.83700 47.50900 32.20000
H  7.98900 48.50900 32.89300
H  13.97500 49.57900 27.77600
H  14.91500 50.22400 26.32600
H  14.94500 48.51900 26.97300
H  15.72100 49.12000 24.73900
H  16.11000 48.32400 23.22900
H  15.74600 47.30600 24.68300
H  9.38500 45.85900 21.03900
H  7.59300 48.18600 21.07100
H  9.38100 48.31500 19.47700
H  10.60300 46.99800 19.66900
H  10.65300 48.41900 20.69000
H  6.10500 45.81100 21.14200
H  7.51400 45.18600 20.51500
H  5.56700 46.21900 18.94900
H  7.24100 46.12000 18.42300
H  6.59800 47.65900 19.00000
H  2.97500 48.07200 24.91700
H  2.88900 46.24900 25.32000
H  3.47700 46.80800 23.74300
H  5.31900 48.32500 29.93400
H  3.94600 44.57600 31.86700
H  4.49600 45.61500 33.02900
H  5.78800 44.84400 32.23500

