158

Mg 49.37200 45.04200 42.77500
C  45.97900 45.43000 41.39000
C  49.17900 41.73900 41.75700
C  52.65300 44.94700 43.02600
C  49.36900 48.54500 43.04700
N  47.77700 43.80800 41.69900
C  46.44400 44.12500 41.31300
C  45.86100 42.85200 40.68500
C  46.71500 41.67900 41.26300
C  47.96900 42.43300 41.62500
C  46.07200 40.94100 42.42600
C  45.84900 42.92500 39.05900
C  44.44100 42.85300 38.41800
H  44.08700 43.88400 37.33900
N  50.70200 43.47000 42.58100
C  50.39400 42.17000 42.15800
C  51.65000 41.43300 42.34200
C  52.69600 42.30900 42.75400
C  52.03900 43.68000 42.85700
C  51.77400 39.92600 41.97800
C  54.08100 41.87400 43.26200
O  54.47800 40.77300 43.10500
C  54.97500 42.74800 44.15400
N  50.86800 46.55500 42.99300
C  52.16300 46.26400 43.08600
C  53.10000 47.54000 43.10500
C  52.02200 48.69600 43.22200
C  50.63100 47.92200 43.05700
C  54.10100 47.40800 44.36300
C  52.12700 49.83500 42.23500
C  52.65200 51.22500 42.82900
N  47.99400 46.69400 42.41000
C  48.06800 47.99900 42.68600
C  46.73000 48.64700 42.66800
C  45.96300 47.74000 42.09200
C  46.70100 46.50800 41.94700
C  46.36300 50.00700 42.99600
C  44.66600 47.52700 41.53100
O  43.73500 48.27500 41.34600
C  44.56000 45.99200 41.13500
C  43.51900 45.35200 42.03500
O  42.77400 44.39100 41.74900
O  43.26900 46.02800 43.17700
C  41.88800 45.86600 43.72100
H  49.13900 40.68700 41.46600
H  53.74200 44.94000 42.94500
H  49.34800 49.63400 43.12300
H  44.80900 42.83700 40.97000
H  46.88200 40.89600 40.52300
H  45.99900 39.86400 42.27200
H  45.07100 41.33400 42.60200
H  46.69400 41.09700 43.30700
H  46.30800 42.01300 38.67800
H  46.40500 43.80400 38.73400
H  43.69100 43.06000 39.18100
H  44.17900 41.93200 37.89800
H  52.58600 39.81400 41.26000
H  50.89100 39.43000 41.57600
H  52.13500 39.26500 42.76700
H  55.38000 43.59700 43.60100
H  55.82100 42.10900 44.40700
H  54.37300 43.06400 45.00600
H  53.76700 47.61500 42.24600
H  52.05200 49.12400 44.22400
H  53.83400 46.52900 44.95100
H  54.02200 48.26600 45.03100
H  55.10100 47.31200 43.94100
H  51.18800 50.01300 41.71000
H  52.81400 49.60300 41.42100
H  52.25200 52.06700 42.26500
H  53.73600 51.18700 42.72000
H  52.37500 51.37200 43.87200
H  45.29200 50.19700 42.92200
H  46.92600 50.69600 42.36700
H  46.60500 50.12400 44.05200
H  44.31000 46.04300 40.07600
H  41.18600 46.03400 42.90400
H  41.63200 46.62300 44.46300
H  41.78000 44.97900 44.34500
Mg 30.35600 57.56700 39.85500
C  27.54500 55.48600 39.24100
C  32.46000 55.09600 39.12700
C  32.87900 59.84500 40.10600
C  28.01800 60.15600 40.54900
N  30.01700 55.53300 39.26600
C  28.81500 54.93600 38.81100
C  29.14100 53.55000 38.23300
C  30.66900 53.42200 38.36600
C  31.06500 54.76200 39.02800
C  31.09700 52.21800 39.25300
C  28.42900 53.34900 36.86200
C  28.75300 54.35800 35.75600
H  27.61400 55.17300 35.20900
N  32.33300 57.48100 39.57600
C  33.04200 56.36200 39.33400
C  34.40600 56.65300 39.19100
C  34.57600 58.02700 39.46100
C  33.24400 58.52200 39.75800
C  35.49200 55.62600 38.96200
C  36.01300 58.69400 39.65400
O  36.93200 58.03700 39.27200
C  36.33500 60.05800 40.16200
N  30.44300 59.77700 40.15200
C  31.62000 60.47300 40.23700
C  31.34600 62.02000 40.48400
C  29.75900 62.03400 40.56900
C  29.39100 60.55200 40.48200
C  32.06600 62.63100 41.71700
C  29.08600 62.77700 39.37900
C  28.74400 64.23400 39.69500
N  28.21900 57.75900 39.98900
C  27.45800 58.85200 40.31000
C  26.08300 58.55100 40.27000
C  26.06600 57.18600 39.85200
C  27.37600 56.77800 39.68100
C  24.89500 59.36300 40.55600
C  25.18100 56.10000 39.62100
O  23.93700 56.07800 39.75500
C  26.13200 54.92900 39.20100
C  26.04400 53.80100 40.18600
O  26.55800 53.67900 41.30300
O  25.40200 52.84100 39.56800
C  25.33000 51.59900 40.34100
H  33.22200 54.36000 38.86500
H  33.72900 60.52700 40.02400
H  27.24500 60.91500 40.69200
H  28.58600 52.83700 38.84400
H  31.11600 53.36300 37.37400
H  31.73700 51.51900 38.71400
H  30.21500 51.72300 39.65900
H  31.56000 52.51400 40.19400
H  27.35700 53.26700 37.03900
H  28.67800 52.34000 36.53300
H  29.04200 53.77500 34.88200
H  29.52000 55.03500 36.13200
H  35.86400 55.87400 37.96800
H  35.21400 54.57300 38.92100
H  36.22100 55.68400 39.77100
H  36.22600 60.71500 39.29900
H  37.40800 60.15900 40.32400
H  35.76600 60.41700 41.02000
H  31.76200 62.49300 39.59400
H  29.42500 62.52400 41.48300
H  32.39800 63.66700 41.64600
H  32.93700 62.06200 42.04200
H  31.22800 62.77400 42.40000
H  28.29700 62.19200 38.90800
H  29.81300 62.91500 38.57800
H  29.29300 64.91700 39.04800
H  28.88800 64.52300 40.73600
H  27.73400 64.40100 39.32000
H  24.50000 58.99600 41.50400
H  24.19500 59.37000 39.72200
H  25.33400 60.33300 40.78800
H  25.85400 54.53600 38.22300
H  26.23200 51.01400 40.16600
H  24.41500 51.13200 39.97700
H  25.30000 51.76400 41.41800

