158

Mg 24.42300 -5.08900 46.33600
C  26.26400 -2.41500 44.82400
C  21.81900 -4.24600 44.43800
C  23.10100 -8.11600 47.18100
C  27.46200 -6.06200 47.80900
N  24.15200 -3.54900 44.80900
C  25.02700 -2.62400 44.27500
C  24.33500 -1.70900 43.17100
C  22.83800 -2.21900 43.19800
C  22.88800 -3.44500 44.29700
C  21.91400 -1.09400 43.66200
C  24.91800 -1.77700 41.67900
C  25.44300 -0.44000 41.03900
H  25.26500 -0.37200 39.51200
N  22.66400 -5.98800 45.98400
C  21.67600 -5.42300 45.20100
C  20.43100 -6.30400 45.36800
C  20.77300 -7.40400 46.15900
C  22.18100 -7.22400 46.50500
C  19.03900 -5.99300 44.76500
C  19.83300 -8.49900 46.68200
O  18.62000 -8.50800 46.41100
C  20.31300 -9.61400 47.42500
N  25.16600 -6.81000 47.30800
C  24.44600 -7.93000 47.53400
C  25.31500 -8.99600 48.29000
C  26.63400 -8.32700 48.53000
C  26.38900 -6.97900 47.78500
C  24.54200 -9.39800 49.63400
C  27.85700 -9.07700 48.05700
C  29.03500 -9.07300 49.00400
N  26.48200 -4.38100 46.44100
C  27.57000 -4.84300 47.09500
C  28.64800 -3.95600 47.01800
C  28.17100 -3.03600 46.12700
C  26.85400 -3.28900 45.78400
C  29.96700 -3.96000 47.77100
C  28.50900 -1.84500 45.40700
O  29.52100 -1.16800 45.42200
C  27.32700 -1.37500 44.53000
C  26.96100 0.02600 44.70200
O  26.41700 0.55300 45.66500
O  27.27900 0.81000 43.60700
C  26.84300 2.27900 43.56700
H  20.94000 -4.03600 43.82500
H  22.64100 -9.07700 47.41900
H  28.37600 -6.37800 48.31700
H  24.48400 -0.67600 43.48400
H  22.49200 -2.66100 42.26400
H  21.19900 -0.93800 42.85500
H  22.37100 -0.10800 43.74700
H  21.39400 -1.29900 44.59800
H  24.16200 -2.17600 41.00300
H  25.76400 -2.45600 41.79200
H  26.42600 -0.06600 41.32700
H  24.75600 0.31600 41.41900
H  18.49400 -6.81100 44.29400
H  19.22400 -5.29800 43.94600
H  18.28300 -5.52500 45.39500
H  19.45700 -10.28700 47.44700
H  20.54600 -9.36200 48.46000
H  21.14000 -10.07400 46.88300
H  25.46800 -9.82700 47.60200
H  26.75400 -7.96300 49.55100
H  25.15100 -9.15600 50.50500
H  24.34600 -10.46900 49.58400
H  23.57600 -8.90700 49.75700
H  28.15500 -8.49700 47.18300
H  27.74100 -10.07300 47.63100
H  29.67800 -8.27400 48.63500
H  29.59100 -10.00700 48.92200
H  28.86400 -8.95400 50.07400
H  30.50300 -3.05200 47.49300
H  30.58200 -4.81100 47.48200
H  29.88800 -4.07900 48.85200
H  27.62200 -1.49900 43.48800
H  27.67000 2.89700 43.21700
H  26.47800 2.69500 44.50500
H  26.02100 2.35800 42.85600
Mg -11.02200 38.27400 42.58000
C  -8.73900 35.56800 41.68400
C  -8.77000 40.32300 40.93200
C  -13.29200 40.68200 42.68800
C  -13.26600 35.82800 43.43900
N  -8.95500 37.98700 41.58200
C  -8.27600 36.81700 41.25200
C  -7.11600 37.05500 40.40300
C  -6.89300 38.60900 40.48700
C  -8.27000 39.06700 41.08300
C  -5.64800 39.09900 41.23100
C  -7.13600 36.40600 39.02900
C  -6.02900 35.36900 38.68100
H  -5.03900 35.71100 37.58200
N  -11.01300 40.20600 41.97200
C  -9.98300 40.89200 41.40000
C  -10.39700 42.25000 41.17300
C  -11.70300 42.42100 41.64100
C  -12.04200 41.13100 42.20600
C  -9.47500 43.34800 40.66000
C  -12.56400 43.64800 41.42300
O  -12.07500 44.67700 40.97300
C  -13.99700 43.70400 41.74300
N  -13.12100 38.21600 42.78600
C  -13.74300 39.34300 42.98500
C  -15.11100 39.09700 43.58100
C  -15.23800 37.50300 43.64400
C  -13.82500 37.14200 43.33100
C  -15.35000 39.79400 44.96500
C  -16.39800 36.78200 42.79200
C  -17.29300 35.81900 43.43800
N  -11.00700 36.15100 42.73800
C  -11.94300 35.34000 43.26700
C  -11.42900 33.98700 43.32100
C  -10.15900 34.05000 42.64000
C  -9.96000 35.35600 42.29200
C  -12.06600 32.72000 43.80000
C  -9.04300 33.26800 42.17200
O  -8.82200 32.08000 42.34700
C  -8.15300 34.17600 41.46200
C  -6.79400 34.06700 42.09800
O  -5.82000 33.55000 41.64400
O  -6.79500 34.64800 43.30400
C  -5.46000 34.75800 43.96400
H  -8.00700 40.98300 40.51400
H  -14.06300 41.41600 42.93300
H  -14.08000 35.13400 43.65600
H  -6.38800 36.53800 41.02700
H  -6.74400 38.89600 39.44600
H  -5.14900 38.30700 41.78800
H  -5.91000 39.92900 41.88700
H  -4.89100 39.46400 40.53600
H  -7.07700 37.07000 38.16600
H  -8.05600 35.82400 38.97600
H  -6.44300 34.39600 38.41700
H  -5.40600 35.19500 39.55800
H  -9.24200 43.93400 41.54900
H  -9.93600 43.98700 39.90700
H  -8.61000 42.90600 40.16500
H  -14.01700 43.49300 42.81200
H  -14.41400 42.84000 41.22500
H  -14.41800 44.64800 41.39700
H  -15.82800 39.41100 42.82200
H  -15.51300 37.13700 44.63300
H  -14.57100 40.54800 45.08400
H  -15.19600 38.97800 45.67200
H  -16.30600 40.29500 45.11400
H  -15.86700 36.16000 42.07100
H  -17.16000 37.43600 42.36700
H  -17.41300 36.22300 44.44300
H  -16.87500 34.81200 43.41600
H  -18.21300 35.80200 42.85400
H  -11.25900 32.03000 44.04400
H  -12.75400 32.27600 43.08200
H  -12.67000 32.90900 44.68800
H  -8.09200 33.96800 40.39400
H  -4.68700 35.27100 43.39100
H  -4.97700 33.81100 44.20500
H  -5.64500 35.15800 44.96100

