158

Mg 44.39200 4.00000 47.49600
C  42.50900 6.76900 47.04700
C  41.57000 2.11700 46.75200
C  46.34400 1.14400 47.44700
C  47.21800 5.87400 47.58400
N  42.29800 4.43200 46.90900
C  41.70300 5.66900 46.80400
C  40.24100 5.64000 46.56800
C  39.92600 4.11500 46.80400
C  41.31800 3.49400 46.89400
C  39.14800 3.87700 48.06700
C  39.79900 6.17300 45.15600
C  40.53300 5.67900 43.85200
H  40.66200 6.71000 42.67700
N  43.95300 1.91200 47.13000
C  42.78200 1.38400 46.76000
C  42.91900 -0.02900 46.61000
C  44.29800 -0.39600 46.81000
C  44.94700 0.92300 47.20600
C  41.77100 -0.92000 46.19700
C  44.86700 -1.76200 46.77700
O  44.19600 -2.69400 46.31600
C  46.28500 -2.17400 47.18000
N  46.47400 3.62600 47.42400
C  47.01200 2.35400 47.55700
C  48.53900 2.37800 47.87100
C  48.82700 3.91900 47.96100
C  47.42100 4.52500 47.63700
C  49.03300 1.43700 49.10000
C  50.09100 4.41100 47.12000
C  50.99500 5.51400 47.78100
N  44.83700 5.95500 47.39200
C  46.03400 6.60200 47.43400
C  45.77700 8.01700 47.49800
C  44.33600 8.11400 47.43700
C  43.85600 6.82800 47.22200
C  46.81500 9.13900 47.51500
C  43.29700 9.03600 47.40500
O  43.33800 10.27200 47.46700
C  41.99400 8.21600 47.20900
C  41.11800 8.39600 48.40800
O  40.97400 7.67700 49.38100
O  40.55000 9.65200 48.23700
C  39.53600 9.98200 49.25200
H  40.69800 1.46300 46.68200
H  46.97200 0.25500 47.53200
H  48.15200 6.43400 47.65200
H  39.68600 6.35500 47.17500
H  39.31200 3.63700 46.04100
H  38.82700 4.87200 48.37600
H  39.78600 3.51000 48.87100
H  38.32500 3.18000 47.90600
H  39.63700 7.25100 45.19100
H  38.84500 5.69200 44.94100
H  40.07200 4.75600 43.50100
H  41.47400 5.42200 44.33900
H  40.99000 -0.28500 45.77800
H  41.45700 -1.46900 47.08500
H  42.09200 -1.56600 45.37900
H  46.38300 -3.25900 47.18700
H  46.43200 -1.76700 48.18100
H  47.02100 -1.70900 46.52400
H  48.99600 2.00200 46.95600
H  49.03100 4.19200 48.99600
H  49.35000 0.48200 48.68000
H  48.19900 1.25900 49.77800
H  49.89800 1.82100 49.64100
H  49.73500 4.97400 46.25700
H  50.79900 3.65600 46.78000
H  51.40800 6.26700 47.10900
H  51.86300 5.07200 48.27100
H  50.55200 6.01000 48.64400
H  46.30600 10.06900 47.26200
H  47.51200 8.96100 46.69600
H  47.37200 9.32600 48.43300
H  41.45300 8.54500 46.32200
H  39.00000 9.12700 49.66300
H  38.71900 10.63600 48.94600
H  40.11400 10.45400 50.04700
Mg -0.35700 44.12200 25.12000
C  1.42100 43.56100 28.22000
C  -3.17900 43.25200 26.71800
C  -1.66600 43.67300 22.05400
C  2.96000 44.36300 23.54600
N  -0.80500 43.39300 27.24700
C  0.02300 43.37900 28.36200
C  -0.83500 43.32900 29.64700
C  -2.20600 42.88900 29.06500
C  -2.09600 43.31500 27.56200
C  -2.69100 41.39500 29.25400
C  -0.80700 44.61100 30.59600
C  -0.49100 44.46600 32.08900
H  -0.82500 43.15200 32.82000
N  -2.16800 43.61800 24.43700
C  -3.19700 43.33000 25.29600
C  -4.41800 43.25700 24.48000
C  -4.03800 43.43100 23.14100
C  -2.57800 43.60200 23.14400
C  -5.77800 43.00000 25.20600
C  -4.81500 43.31100 21.90400
O  -4.32300 43.49400 20.83500
C  -6.29400 43.04000 22.04700
N  0.55100 43.82400 23.09200
C  -0.26500 43.79000 22.03800
C  0.49500 43.83500 20.74200
C  1.95300 44.15200 21.19900
C  1.86800 44.08100 22.71200
C  0.30300 42.54900 19.88800
C  2.52300 45.54400 20.74400
C  1.68500 46.74600 21.21000
N  1.70400 44.24100 25.71900
C  2.87700 44.46100 24.98800
C  3.99600 44.60500 25.88700
C  3.44500 44.23100 27.11200
C  2.07500 43.94400 26.98700
C  5.47100 44.83400 25.55300
C  3.85200 44.10100 28.49200
O  4.91000 44.21500 29.13800
C  2.54900 43.65100 29.28400
C  2.86800 42.41400 30.05900
O  3.04900 41.31300 29.61000
O  2.91900 42.71200 31.44600
C  3.03300 41.53600 32.41300
H  -4.15700 43.01000 27.14000
H  -2.09900 43.81400 21.06100
H  3.87400 44.57400 22.98700
H  -0.36400 42.51000 30.19100
H  -2.88600 43.60900 29.52000
H  -1.85800 40.86200 29.71200
H  -2.93600 40.82900 28.35500
H  -3.47700 41.32700 30.00600
H  -1.77900 45.09500 30.49300
H  -0.05700 45.26500 30.15200
H  -1.13500 45.25100 32.48400
H  0.52600 44.78600 32.31800
H  -6.03700 43.78900 25.91200
H  -5.55000 42.10600 25.78500
H  -6.58600 42.71800 24.53100
H  -6.46600 42.00900 22.35500
H  -6.71200 43.19400 21.05200
H  -6.80700 43.87100 22.53000
H  0.12800 44.65400 20.12300
H  2.60900 43.37000 20.81600
H  -0.04600 41.86000 20.65600
H  1.23200 42.20400 19.43200
H  -0.41500 42.72900 19.08800
H  2.33500 45.55800 19.67000
H  3.56800 45.69600 21.01200
H  1.10900 47.13000 20.36800
H  2.47200 47.45600 21.46800
H  1.02300 46.60800 22.06500
H  5.68900 44.44000 24.56100
H  6.12700 44.31700 26.25400
H  5.69300 45.90100 25.54900
H  2.32800 44.43400 30.00900
H  4.04500 41.17300 32.23500
H  2.31900 40.74200 32.19300
H  2.87900 42.00500 33.38500

