158

Mg 25.86700 0.67300 29.15500
C  27.95100 0.37300 32.07600
C  23.17900 1.35100 31.19100
C  24.10500 0.59400 26.50100
C  28.66900 -0.73600 27.32400
N  25.60500 0.73700 31.45400
C  26.62700 0.64500 32.41800
C  25.95800 0.84500 33.79500
C  24.47900 1.28100 33.46400
C  24.36600 1.09300 31.99700
C  23.39900 0.22300 34.12800
C  26.70900 1.91000 34.66300
C  26.93400 1.48700 36.08500
H  26.47100 2.47600 37.16700
N  23.90000 1.02900 28.89600
C  22.94400 1.24700 29.78300
C  21.75400 1.45300 29.15700
C  21.92800 1.18900 27.76400
C  23.38300 0.90900 27.65900
C  20.44200 1.72200 29.88100
C  20.81300 1.08100 26.67400
O  21.00500 0.53500 25.57600
C  19.39600 1.57400 26.93400
N  26.37800 -0.00800 27.21400
C  25.40100 0.18400 26.27600
C  25.92000 -0.14800 24.82500
C  27.36400 -0.62100 25.07500
C  27.52200 -0.47700 26.57500
C  25.04600 -1.05900 23.94200
C  28.35400 0.15900 24.20700
C  28.84700 1.48100 24.76500
N  27.85800 -0.05100 29.57700
C  28.81200 -0.56900 28.73200
C  30.10800 -0.67700 29.42100
C  29.77600 -0.35100 30.76800
C  28.41500 0.05800 30.78200
C  31.45400 -1.25900 28.95000
C  30.32900 -0.33600 32.13400
O  31.40400 -0.58400 32.61300
C  29.17700 0.14700 32.97600
C  28.84400 -0.87400 33.93100
O  28.13400 -1.80700 33.68600
O  29.38400 -0.61700 35.16500
C  28.92000 -1.53800 36.21100
H  22.28300 1.60100 31.76200
H  23.47400 0.76500 25.62600
H  29.54700 -0.91600 26.70000
H  25.98300 -0.09900 34.33900
H  24.22000 2.32500 33.63900
H  23.60500 -0.80600 33.83400
H  22.35200 0.41500 33.89200
H  23.45300 0.20100 35.21600
H  26.09100 2.80100 34.77200
H  27.63800 2.22000 34.18500
H  28.00600 1.56100 36.27100
H  26.68000 0.46500 36.36800
H  19.59100 1.33300 29.32200
H  20.28700 2.78900 30.04500
H  20.54300 1.22100 30.84400
H  18.84400 0.76900 27.42000
H  18.94300 1.86000 25.98500
H  19.41200 2.47400 27.54800
H  25.75200 0.83900 24.39400
H  27.36800 -1.70400 24.95100
H  24.08700 -1.37600 24.35100
H  25.62300 -1.88400 23.52500
H  24.77800 -0.38200 23.13100
H  27.77900 0.31400 23.29400
H  29.23600 -0.36700 23.84100
H  28.34600 1.72400 25.70300
H  28.68000 2.26600 24.02700
H  29.92200 1.45200 24.93900
H  32.29300 -0.72200 29.39300
H  31.60200 -0.98100 27.90600
H  31.42600 -2.33200 29.14200
H  29.48600 1.04400 33.51200
H  29.72000 -1.54900 36.95100
H  28.83100 -2.59000 35.93900
H  28.01700 -1.20300 36.72000
Mg 35.66000 0.91700 29.19500
C  33.50700 2.41400 31.71100
C  38.15400 1.08500 31.47400
C  37.86300 0.44400 26.72900
C  33.16500 1.67100 26.80000
N  35.78300 1.53900 31.38400
C  34.79200 2.17200 32.23200
C  35.31000 2.36100 33.64700
C  36.88300 2.30400 33.37300
C  36.95900 1.55000 31.99700
C  37.51200 3.73100 33.26200
C  34.69800 1.31700 34.67500
C  34.31400 1.95500 36.03700
H  35.23200 3.02000 36.63400
N  37.66900 0.41500 29.18700
C  38.52500 0.57800 30.18500
C  39.91100 0.21800 29.78000
C  39.75700 -0.10100 28.37700
C  38.40000 0.25000 27.98600
C  41.10200 0.05000 30.74700
C  40.82600 -0.56400 27.39100
O  40.59600 -0.86800 26.20300
C  42.27500 -0.61200 27.84200
N  35.47500 0.84100 27.12800
C  36.56800 0.74200 26.25400
C  36.27300 1.02000 24.80300
C  34.75500 1.44800 24.91800
C  34.36700 1.19000 26.36200
C  37.11600 2.10100 24.00000
C  33.83000 0.73900 23.85200
C  33.17600 1.77800 22.84000
N  33.70400 1.76200 29.19400
C  32.79600 1.94900 28.16500
C  31.61900 2.66900 28.62600
C  31.81300 2.77100 29.99600
C  33.11000 2.21800 30.29600
C  30.52100 3.01400 27.79300
C  31.20800 3.27800 31.22700
O  30.16800 3.85200 31.42500
C  32.22200 2.88100 32.42300
C  32.41000 4.13600 33.23600
O  33.11600 5.10600 33.00700
O  31.51100 3.99700 34.28600
C  31.31100 5.10500 35.20900
H  39.00300 1.32400 32.11800
H  38.57300 0.22900 25.92800
H  32.41500 1.77900 26.01400
H  35.20700 3.41100 33.92300
H  37.39800 1.80500 34.19400
H  38.25900 3.82500 34.05000
H  36.78800 4.53400 33.39900
H  38.00300 3.85900 32.29700
H  35.35600 0.50200 34.97400
H  33.83200 0.83600 34.22200
H  34.20900 1.17300 36.78800
H  33.26000 2.19400 35.89600
H  40.75200 -0.63700 31.51800
H  41.49100 0.94600 31.22900
H  42.05200 -0.33400 30.37500
H  42.54700 -1.33200 28.61400
H  42.60500 0.40900 28.03700
H  42.90700 -0.74900 26.96500
H  36.32500 0.08600 24.24400
H  34.75400 2.53800 24.92500
H  36.50000 2.90900 23.60400
H  37.57300 1.59300 23.15100
H  37.91600 2.44500 24.65700
H  33.11200 0.16900 24.44100
H  34.44800 0.00300 23.33800
H  33.40700 1.42400 21.83600
H  33.57400 2.79000 22.91100
H  32.09300 1.78800 22.96500
H  29.90900 3.78000 28.26900
H  29.95800 2.13100 27.49200
H  30.96600 3.49200 26.92100
H  31.71700 2.12900 33.03000
H  30.79700 5.94600 34.74300
H  32.30900 5.38900 35.54400
H  30.69800 4.74200 36.03300

