158

Mg 25.12400 1.15100 29.03100
C  27.29900 0.81700 31.71900
C  22.45300 1.56000 31.32300
C  22.87200 1.07400 26.41300
C  27.65300 0.45500 26.79700
N  24.84900 1.00000 31.23200
C  25.96900 1.19000 32.05700
C  25.43700 1.38400 33.53200
C  23.91000 1.55200 33.36900
C  23.71800 1.33800 31.90000
C  23.05900 0.60500 34.32800
C  26.10500 2.61600 34.21800
C  26.72700 2.36400 35.58800
H  26.39400 3.41700 36.73100
N  23.01900 1.33300 28.86200
C  22.12000 1.50700 29.93600
C  20.78600 1.70700 29.50400
C  20.87500 1.58700 28.08700
C  22.25700 1.32600 27.71700
C  19.62000 2.11300 30.44200
C  19.79100 1.61900 27.02900
O  19.97900 1.52600 25.81800
C  18.31700 1.67500 27.43100
N  25.30800 0.80700 26.94700
C  24.16600 0.84800 26.07600
C  24.58000 0.63900 24.62700
C  26.19600 0.63700 24.68000
C  26.41700 0.64400 26.18300
C  24.02000 -0.55800 24.03200
C  26.95100 1.84600 24.02900
C  27.02300 3.18200 24.78000
N  27.08300 0.64400 29.23900
C  28.01700 0.38900 28.23400
C  29.31000 0.15100 28.81900
C  29.06200 0.28400 30.25200
C  27.70400 0.61700 30.40700
C  30.59300 -0.21800 28.12400
C  29.63300 0.31600 31.57600
O  30.83300 0.27000 31.89300
C  28.47300 0.76200 32.61600
C  28.28500 -0.18700 33.80300
O  27.59100 -1.21200 33.82100
O  29.02400 0.32700 34.90300
C  28.86600 -0.51500 36.12000
H  21.61800 1.85500 31.96100
H  22.32100 1.33400 25.50700
H  28.52500 0.26900 26.16700
H  25.68000 0.47200 34.07900
H  23.58500 2.57500 33.55700
H  22.43800 -0.10900 33.78700
H  22.39200 1.31100 34.82200
H  23.71700 0.01500 34.96700
H  25.26700 3.29700 34.36500
H  26.85700 3.05300 33.56000
H  27.80600 2.45000 35.46200
H  26.42700 1.39300 35.98100
H  19.05200 2.80400 29.81900
H  19.80800 2.59100 31.40300
H  19.13700 1.14800 30.59400
H  18.09400 0.78400 28.01800
H  17.71100 1.71800 26.52700
H  18.11300 2.55300 28.04500
H  24.20500 1.53700 24.13500
H  26.53600 -0.32100 24.28900
H  24.73800 -1.32000 23.73000
H  23.51200 -0.19300 23.13900
H  23.35200 -1.07300 24.72200
H  26.50500 1.99900 23.04600
H  27.96500 1.59100 23.71900
H  28.09500 3.21600 24.97200
H  26.40900 3.20800 25.68100
H  26.75600 4.02100 24.13700
H  31.41000 -0.27400 28.84300
H  30.81500 0.46800 27.30600
H  30.55100 -1.26300 27.81900
H  28.69900 1.78300 32.92200
H  28.56800 0.06900 36.99100
H  29.84200 -0.86900 36.45100
H  28.29500 -1.42900 35.95900
Mg -1.40000 34.17900 26.53400
C  -3.13100 32.54600 29.02300
C  -0.05500 36.27800 28.70700
C  0.00100 35.78700 23.94900
C  -3.11500 32.12800 24.14400
N  -1.77100 34.46500 28.61000
C  -2.38200 33.62800 29.46100
C  -2.01000 34.06900 30.91100
C  -1.26400 35.35500 30.69600
C  -0.95700 35.37600 29.23700
C  -2.14100 36.60900 30.92300
C  -1.37500 32.82200 31.72900
C  -2.06400 32.24800 32.94400
H  -1.37300 32.30700 34.25700
N  0.01300 35.65600 26.36000
C  0.44300 36.38100 27.41500
C  1.31500 37.40900 26.95700
C  1.32200 37.36800 25.49200
C  0.40300 36.19200 25.19800
C  2.06100 38.44500 27.85800
C  2.05400 38.21900 24.40000
O  2.06800 37.86400 23.18800
C  2.84000 39.35800 24.85500
N  -1.59100 33.95600 24.28400
C  -0.73500 34.68200 23.52200
C  -0.83100 34.23400 22.07200
C  -1.96400 33.22100 22.01000
C  -2.22000 33.09200 23.58400
C  -0.99400 35.40300 21.00800
C  -1.73900 31.88000 21.23300
C  -0.81000 30.91500 21.95400
N  -2.87000 32.60000 26.51600
C  -3.46400 31.94700 25.50500
C  -4.35800 31.00800 26.06500
C  -4.18600 31.16800 27.43700
C  -3.32000 32.18500 27.68400
C  -5.27200 30.08700 25.26900
C  -4.66700 30.59700 28.72200
O  -5.49200 29.69400 28.88800
C  -3.91200 31.48500 29.78400
C  -5.03700 31.94000 30.60600
O  -5.61800 33.02500 30.50400
O  -5.21800 31.05300 31.60300
C  -6.23200 31.42400 32.61500
H  0.53700 36.86200 29.41500
H  0.29600 36.37300 23.07600
H  -3.73600 31.63900 23.39100
H  -2.99300 34.34100 31.29500
H  -0.39100 35.36200 31.34900
H  -2.01400 36.93700 31.95400
H  -3.21300 36.52200 30.74600
H  -2.00800 37.47900 30.28000
H  -0.36300 33.08100 32.04200
H  -1.24600 32.02300 30.99800
H  -2.04600 31.18300 32.71200
H  -3.07700 32.63200 33.06400
H  3.11900 38.24000 27.69900
H  1.83200 38.45500 28.92400
H  1.71300 39.43700 27.57100
H  2.23800 40.00300 25.49600
H  3.27700 39.92500 24.03300
H  3.63600 39.01000 25.51300
H  0.14400 33.84100 21.78100
H  -2.82300 33.69900 21.53900
H  -1.38700 36.33500 21.41500
H  -1.70400 35.12300 20.23000
H  -0.06100 35.65300 20.50200
H  -1.28900 32.12000 20.27000
H  -2.70000 31.39400 21.06200
H  -1.19200 29.89400 21.94300
H  -0.77800 31.25000 22.99100
H  0.16300 30.82500 21.47100
H  -4.67100 29.18200 25.35600
H  -5.28400 30.34400 24.21000
H  -6.25700 30.09600 25.73500
H  -3.39400 30.81300 30.46800
H  -5.94500 32.25400 33.26200
H  -6.42100 30.52900 33.20700
H  -7.16500 31.63300 32.09300

