158

Mg 27.80000 51.74500 26.01300
C  26.02700 52.70300 28.98100
C  30.35700 50.68800 28.35600
C  29.69400 50.89500 23.41500
C  25.35900 53.17800 24.04100
N  28.14700 51.73100 28.43600
C  27.23100 52.12700 29.35800
C  27.69000 51.95300 30.79800
C  29.15400 51.40400 30.57000
C  29.28200 51.22500 29.06400
C  30.30800 52.21300 31.27100
C  26.72600 51.10400 31.69800
C  26.36800 51.72100 33.09800
H  27.21500 51.25900 34.30900
N  29.73900 50.94000 25.88100
C  30.58700 50.48500 26.94200
C  31.67500 49.73800 26.37200
C  31.62400 49.91000 24.96600
C  30.30200 50.61200 24.72900
C  32.66200 49.08600 27.28100
C  32.70200 49.49100 23.99600
O  32.56400 49.72900 22.85400
C  33.96000 48.83900 24.45800
N  27.66400 52.10200 24.01700
C  28.47300 51.55400 23.10400
C  28.00000 51.83600 21.72600
C  26.58600 52.47600 21.82200
C  26.49400 52.53300 23.40100
C  28.99200 52.77000 21.01200
C  25.42400 51.68800 21.14500
C  25.14600 50.20800 21.51900
N  26.04700 52.78600 26.35800
C  25.20800 53.41700 25.45500
C  24.14000 54.05200 26.12500
C  24.33100 53.78300 27.48200
C  25.55200 52.99600 27.61900
C  23.00100 54.76800 25.49400
C  23.81000 53.92400 28.82900
O  22.87000 54.46700 29.33000
C  24.91300 53.15400 29.85600
C  25.25200 54.35700 30.76100
O  26.10100 55.20700 30.60000
O  24.58900 54.29400 31.88800
C  24.75200 55.31800 32.92300
H  31.24500 50.43600 28.93900
H  30.22600 50.54300 22.52900
H  24.65500 53.63500 23.34300
H  27.69500 52.95100 31.23600
H  29.17700 50.34800 30.83800
H  30.82600 52.69100 30.44000
H  30.90400 51.45200 31.77400
H  29.88300 52.98400 31.91400
H  27.10400 50.10800 31.92700
H  25.74800 50.99400 31.23000
H  25.33000 51.42600 33.25100
H  26.45400 52.80700 33.13200
H  32.17600 48.80000 28.21400
H  33.44600 49.84000 27.35700
H  33.02200 48.16900 26.81500
H  34.71000 48.92300 23.67100
H  33.80700 47.79600 24.73600
H  34.24100 49.56700 25.21900
H  28.08300 50.88100 21.20700
H  26.51700 53.51400 21.49600
H  28.51700 53.64600 20.57100
H  29.45500 52.27600 20.15800
H  29.75500 53.18800 21.66900
H  25.48600 51.73200 20.05800
H  24.44400 52.15800 21.23000
H  24.07600 50.06800 21.67700
H  25.76100 49.84300 22.34100
H  25.41100 49.50100 20.73200
H  23.34800 55.35300 24.64200
H  22.71300 55.43400 26.30700
H  22.27900 54.00400 25.20500
H  24.34400 52.44400 30.45600
H  23.82900 55.41400 33.49500
H  25.01600 56.27400 32.47100
H  25.45700 54.97800 33.68300
Mg 2.21300 42.04400 25.23800
C  3.66100 42.04000 28.40700
C  -0.64000 40.62300 26.58900
C  0.95500 41.59400 22.11400
C  5.34000 42.81400 23.92700
N  1.57900 41.37300 27.26200
C  2.35100 41.58600 28.40400
C  1.53700 41.13800 29.66700
C  0.14800 40.57400 29.03400
C  0.39200 40.74400 27.52100
C  -0.20800 39.05600 29.42400
C  1.20600 42.31300 30.64200
C  1.76300 42.25700 32.11300
H  0.79800 42.52000 33.23800
N  0.32900 41.45400 24.48200
C  -0.67600 40.89300 25.19700
C  -1.79100 40.60300 24.30800
C  -1.37200 41.06100 22.98100
C  -0.00700 41.43200 23.14400
C  -3.09000 40.00800 24.80100
C  -2.16200 41.14500 21.74000
O  -1.73700 41.55700 20.67800
C  -3.63500 40.80300 21.68500
N  3.06000 42.24100 23.37500
C  2.33100 41.88700 22.27900
C  3.16700 42.18600 20.98100
C  4.49200 42.69900 21.63500
C  4.30000 42.52800 23.06600
C  3.35600 41.01700 20.03300
C  4.85300 44.15600 21.32400
C  5.03400 44.53700 19.87600
N  4.14000 42.42000 25.93700
C  5.26500 42.85000 25.32700
C  6.25700 43.15100 26.27800
C  5.71200 42.82700 27.50200
C  4.41900 42.36100 27.27900
C  7.56800 43.69800 26.08300
C  5.90200 42.90600 28.91700
O  6.85300 43.36300 29.48300
C  4.67100 42.29400 29.59100
C  4.99000 41.18300 30.47300
O  5.25300 40.01500 30.13400
O  5.07500 41.61900 31.74700
C  5.20900 40.63000 32.82800
H  -1.57900 40.24000 26.99400
H  0.61300 41.58900 21.07700
H  6.23600 43.16500 23.41100
H  2.01000 40.27200 30.12900
H  -0.77000 41.08200 29.33000
H  -0.00000 38.31800 28.65000
H  -1.21600 38.89200 29.80700
H  0.39800 38.76100 30.28100
H  0.12300 42.39500 30.73600
H  1.57500 43.25800 30.24400
H  2.55600 43.00500 32.11400
H  2.25600 41.33300 32.41400
H  -3.88600 40.75200 24.80800
H  -2.96400 39.51700 25.76600
H  -3.26800 39.17700 24.11800
H  -3.62200 39.79000 21.28100
H  -4.31200 41.41100 21.08600
H  -3.99800 40.75600 22.71100
H  2.64300 43.00900 20.49700
H  5.36600 42.08600 21.41600
H  3.05400 40.04200 20.41700
H  4.39200 40.83500 19.74600
H  2.90900 41.15500 19.04900
H  5.86900 44.25400 21.70700
H  4.22400 44.80100 21.93800
H  4.62400 43.75500 19.23700
H  6.10300 44.62800 19.68100
H  4.53500 45.49100 19.70800
H  8.29500 42.88900 26.01300
H  7.68000 44.39300 26.91500
H  7.72100 44.26900 25.16700
H  4.20100 43.04500 30.22700
H  6.14100 40.07500 32.72100
H  4.42000 39.87700 32.81100
H  4.97700 41.11800 33.77500

