158

Mg 35.76300 1.22100 28.79300
C  33.77800 2.25600 31.50400
C  38.46100 1.24900 30.89000
C  37.68200 0.53200 26.16800
C  32.94000 1.55800 26.69000
N  36.01200 1.66600 30.92500
C  35.09500 1.97300 31.82100
C  35.68400 2.07900 33.21700
C  37.23800 1.99700 32.96400
C  37.25300 1.55800 31.49800
C  38.07900 3.28100 33.23400
C  35.04700 1.02800 34.18200
C  34.75500 1.65500 35.53900
H  35.97800 2.27000 36.27800
N  37.82900 0.88400 28.55000
C  38.72700 0.89200 29.53800
C  39.97700 0.57400 29.00400
C  39.79400 0.21900 27.63800
C  38.38800 0.59300 27.38100
C  41.27600 0.43300 29.86700
C  40.71700 -0.38600 26.54900
O  40.34400 -0.75100 25.44900
C  42.12800 -0.75800 26.96900
N  35.32200 0.90400 26.71900
C  36.35400 0.82500 25.79500
C  35.77100 0.77700 24.29200
C  34.26600 0.99600 24.48300
C  34.19000 1.14400 26.05800
C  36.40000 1.87400 23.34900
C  33.27000 0.00600 24.02100
C  33.54300 -0.73700 22.62800
N  33.80000 1.69000 29.01400
C  32.78000 1.83000 28.07600
C  31.58400 2.39300 28.65800
C  31.93700 2.50800 30.00800
C  33.30600 2.10100 30.17100
C  30.30700 2.64700 27.96300
C  31.37800 2.91500 31.32100
O  30.23800 3.25500 31.66900
C  32.54000 2.76300 32.35100
C  32.80900 4.08200 32.89700
O  33.31600 5.09300 32.28200
O  32.45000 4.10600 34.23400
C  32.66500 5.43700 34.88400
H  39.35700 1.16900 31.51000
H  38.27700 0.33500 25.27300
H  32.08900 1.84500 26.06900
H  35.45700 3.02700 33.70500
H  37.66800 1.15500 33.50600
H  38.67500 3.56800 32.36800
H  38.83700 3.09900 33.99600
H  37.56500 4.18700 33.55400
H  35.70000 0.16800 34.32900
H  34.16900 0.52900 33.77200
H  34.24300 0.96800 36.21300
H  34.07600 2.49100 35.36700
H  41.16400 0.74700 30.90500
H  42.09300 1.04300 29.48300
H  41.57000 -0.61600 29.90000
H  42.74900 -1.23100 26.20800
H  41.91700 -1.47000 27.76700
H  42.56800 0.20000 27.24700
H  35.87200 -0.22700 23.88100
H  34.02600 1.99300 24.11300
H  37.10300 1.33700 22.71300
H  36.92000 2.62700 23.94100
H  35.61400 2.25300 22.69500
H  32.29700 0.49800 24.03000
H  33.18400 -0.78600 24.76400
H  33.71800 -1.81200 22.69100
H  34.46400 -0.32300 22.21700
H  32.76800 -0.52500 21.89200
H  29.85600 1.76300 27.51200
H  30.53600 3.41900 27.22900
H  29.61200 3.12100 28.65600
H  32.15700 2.14700 33.16500
H  32.25300 6.18400 34.20500
H  33.72600 5.49500 35.12400
H  32.09700 5.43800 35.81500
Mg -6.15800 25.24700 25.82700
C  -4.44900 26.52500 28.66300
C  -7.50900 22.94600 27.87600
C  -7.51500 23.72800 23.05500
C  -4.26000 27.31900 23.88000
N  -6.08100 24.90300 27.96600
C  -5.29900 25.50900 28.93600
C  -5.83500 25.18600 30.36700
C  -6.58400 23.87600 30.07800
C  -6.74800 23.89400 28.52500
C  -5.95000 22.55900 30.55200
C  -6.69300 26.37300 30.93300
C  -6.46400 26.71500 32.45500
H  -6.12800 25.68300 33.42100
N  -7.42600 23.64800 25.51200
C  -7.82900 22.79600 26.51500
C  -8.83300 21.84900 25.97900
C  -8.79000 21.99800 24.52500
C  -7.95200 23.19700 24.26900
C  -9.71500 21.04100 26.94100
C  -9.46900 21.15000 23.38900
O  -9.32800 21.42300 22.17500
C  -10.24400 20.02800 23.81600
N  -5.91300 25.44800 23.83700
C  -6.56800 24.74200 22.87100
C  -6.16500 25.31000 21.41900
C  -5.24100 26.50700 21.71800
C  -5.07600 26.36400 23.20500
C  -5.51800 24.30800 20.45200
C  -5.76800 27.95300 21.36700
C  -4.75300 28.71900 20.51800
N  -4.58500 26.65600 26.11800
C  -3.93500 27.46400 25.24300
C  -3.10700 28.33200 25.99000
C  -3.26300 28.05700 27.34200
C  -4.18200 27.01100 27.37200
C  -2.13300 29.32200 25.26800
C  -2.84800 28.39600 28.71800
O  -2.21300 29.34400 29.19000
C  -3.68300 27.49600 29.63000
C  -2.73100 26.92400 30.51100
O  -2.22300 25.87500 30.27500
O  -2.54400 27.67700 31.65200
C  -1.72400 27.08800 32.61800
H  -7.92400 22.22300 28.58200
H  -7.91400 23.30600 22.13000
H  -3.71600 28.04300 23.27000
H  -5.03700 24.95300 31.07300
H  -7.59700 23.89200 30.48000
H  -6.64700 22.06900 31.23300
H  -5.03900 22.63700 31.14600
H  -5.71100 21.93700 29.68900
H  -7.73700 26.08300 30.82400
H  -6.50900 27.31000 30.40700
H  -7.35900 27.21000 32.83400
H  -5.75400 27.54100 32.41000
H  -9.18100 20.14200 27.25200
H  -10.61600 20.70300 26.43000
H  -9.96900 21.58700 27.85000
H  -11.10800 20.47000 24.31400
H  -9.69600 19.44100 24.55300
H  -10.50000 19.29300 23.05300
H  -7.03200 25.64400 20.84900
H  -4.30300 26.27300 21.21400
H  -6.06900 23.39900 20.20800
H  -4.60800 23.81300 20.79400
H  -5.33100 24.78000 19.48800
H  -6.07300 28.48200 22.27000
H  -6.73200 27.89400 20.86200
H  -4.57400 29.69600 20.96600
H  -5.12600 29.09900 19.56600
H  -3.77000 28.25800 20.42000
H  -2.78900 30.07300 24.82900
H  -1.62700 28.85300 24.42400
H  -1.35200 29.69100 25.93300
H  -4.36700 28.18100 30.13200
H  -0.70900 26.81600 32.32900
H  -2.25300 26.37400 33.25100
H  -1.59300 27.91800 33.31200

