158

Mg 41.01600 9.19200 29.61900
C  43.00600 10.27800 32.26200
C  38.59100 8.10300 32.00500
C  39.11600 7.89700 27.12000
C  43.45300 9.92100 27.48800
N  40.84900 9.19800 31.90700
C  41.76000 9.78700 32.72400
C  41.16900 9.70400 34.17800
C  39.87300 8.79100 34.07500
C  39.71200 8.78900 32.52900
C  39.75900 7.48500 34.80700
C  40.88800 11.14100 34.67000
C  40.03100 11.34500 35.96600
H  40.63700 12.09800 37.19800
N  39.07700 8.13700 29.51300
C  38.24500 7.77900 30.62000
C  37.15000 6.96200 30.11200
C  37.16400 7.15100 28.67600
C  38.52100 7.71600 28.38500
C  36.24900 6.20400 31.01700
C  36.15800 6.77500 27.71000
O  36.29100 7.01400 26.52400
C  34.84800 6.14900 28.17600
N  41.26900 8.81300 27.62700
C  40.39500 8.34300 26.77200
C  40.82900 8.51100 25.31700
C  42.14500 9.26900 25.42200
C  42.31700 9.35100 26.98400
C  40.78500 7.16900 24.45400
C  42.39400 10.58000 24.62200
C  41.56700 11.78700 24.96500
N  42.90800 9.89300 29.86000
C  43.84300 10.19700 28.85200
C  45.03500 10.86500 29.43600
C  44.69600 10.86600 30.83700
C  43.49700 10.26600 31.04500
C  46.25200 11.44500 28.66300
C  45.18900 11.30400 32.07000
O  46.31300 11.79100 32.39900
C  44.01500 11.08500 33.05600
C  44.52900 10.41800 34.31100
O  45.07700 9.34800 34.31100
O  44.42400 11.25300 35.40300
C  44.94300 10.64900 36.63100
H  37.79900 7.84600 32.71200
H  38.61300 7.48300 26.24300
H  44.24700 10.28500 26.83200
H  41.87000 9.14100 34.79400
H  39.00400 9.36000 34.40600
H  40.64600 7.35600 35.42800
H  39.45300 6.74900 34.06300
H  38.92600 7.51700 35.50900
H  40.45800 11.75600 33.88000
H  41.90600 11.51900 34.76200
H  39.64200 10.41600 36.38300
H  39.15000 11.87200 35.60000
H  35.28300 6.69900 31.12400
H  36.59700 6.08900 32.04400
H  36.07500 5.20800 30.60900
H  34.45400 6.67500 29.04500
H  34.92800 5.07600 28.34800
H  34.02700 6.31300 27.47800
H  40.11900 9.22200 24.89300
H  42.95900 8.69100 24.98300
H  40.54300 6.33900 25.11800
H  41.75100 7.09900 23.95300
H  40.07100 7.28100 23.63800
H  42.05700 10.28900 23.62700
H  43.46800 10.74200 24.53000
H  42.36300 12.47100 25.26200
H  40.86400 11.48900 25.74300
H  41.01500 12.00500 24.05100
H  46.21400 11.16600 27.61000
H  47.07000 11.01600 29.24100
H  46.27700 12.53500 28.68500
H  43.60900 12.05600 33.33700
H  44.87700 9.56500 36.54200
H  44.37300 11.02700 37.47900
H  45.98100 10.85300 36.89500
Mg -1.25900 35.35700 26.85800
C  -3.26000 33.53800 29.00700
C  -0.08000 37.19600 29.58400
C  0.51700 37.20400 24.73300
C  -2.59600 33.44900 24.19800
N  -1.70000 35.39900 29.01600
C  -2.49600 34.51000 29.67200
C  -2.24100 34.54300 31.21600
C  -1.51800 35.89800 31.37500
C  -1.05100 36.17900 29.87800
C  -2.37300 37.00800 32.01000
C  -1.60100 33.24900 31.74500
C  -2.32400 32.37000 32.81000
H  -1.65300 32.05800 34.15400
N  0.00300 37.03000 27.12800
C  0.41300 37.64100 28.32800
C  1.41100 38.63000 27.96600
C  1.70200 38.57400 26.57700
C  0.71000 37.57900 26.11100
C  2.02900 39.45200 29.09400
C  2.70800 39.32300 25.77400
O  2.80300 39.24200 24.56600
C  3.66100 40.20400 26.48400
N  -1.23600 35.53800 24.76600
C  -0.30300 36.27100 24.10000
C  -0.14700 35.83400 22.63900
C  -1.05800 34.56300 22.49100
C  -1.73200 34.49600 23.88400
C  -0.55400 36.98200 21.72000
C  -0.36700 33.21700 22.00400
C  0.65300 32.61100 23.00900
N  -2.73900 33.92700 26.59000
C  -3.23900 33.24400 25.43400
C  -4.09600 32.13500 25.83200
C  -4.11500 32.24400 27.21900
C  -3.29200 33.28300 27.63700
C  -4.48200 31.11100 24.86200
C  -4.62000 31.63000 28.41300
O  -5.37200 30.69600 28.57600
C  -4.12000 32.49500 29.60100
C  -5.32300 33.10300 30.26600
O  -6.11100 33.90500 29.75600
O  -5.45300 32.51600 31.55100
C  -6.61200 33.03600 32.34200
H  0.36000 37.67800 30.45900
H  1.12300 37.68000 23.96000
H  -2.88300 32.86600 23.32000
H  -3.19000 34.61600 31.74700
H  -0.63400 35.79000 32.00400
H  -2.01100 37.07100 33.03600
H  -3.42700 36.73200 32.03400
H  -2.47000 37.83800 31.31100
H  -0.62000 33.54500 32.11600
H  -1.47600 32.58000 30.89300
H  -2.53200 31.35400 32.47500
H  -3.30900 32.80300 32.98400
H  1.54200 39.39700 30.06800
H  1.82400 40.50100 28.87900
H  3.10200 39.26800 29.04000
H  3.18900 40.97200 27.09700
H  4.08000 40.89600 25.75200
H  4.39200 39.71000 27.12300
H  0.88700 35.56900 22.42000
H  -1.77400 34.70600 21.68200
H  -0.74200 37.96700 22.14500
H  -1.50400 36.75200 21.23700
H  0.21700 37.13000 20.96400
H  0.25000 33.39000 21.12300
H  -1.06700 32.43200 21.71900
H  0.35900 31.67500 23.48300
H  0.63900 33.32000 23.83700
H  1.58600 32.57200 22.44700
H  -5.04900 31.57900 24.05700
H  -5.24300 30.46200 25.29500
H  -3.62200 30.63200 24.39500
H  -3.54000 31.82500 30.23600
H  -6.24900 33.76300 33.06800
H  -7.17100 32.19000 32.74100
H  -7.31600 33.67100 31.80300

