158

Mg 25.74100 0.10400 29.48500
C  27.62100 -0.28400 32.46200
C  22.98800 0.26600 31.40400
C  23.94000 0.12000 26.63100
C  28.71800 -0.68100 27.61500
N  25.30900 -0.16800 31.73400
C  26.27600 -0.12600 32.76100
C  25.63300 0.02500 34.09900
C  24.07300 0.19900 33.75800
C  24.11900 0.05100 32.20400
C  23.03300 -0.68800 34.55900
C  26.26400 1.26200 34.85400
C  25.63200 1.80600 36.14000
H  26.62700 1.91200 37.33600
N  23.73800 0.20700 29.10400
C  22.70900 0.19500 29.99200
C  21.37500 0.26400 29.38400
C  21.63000 0.24100 27.95900
C  23.17400 0.29200 27.84200
C  20.09600 0.20000 30.17100
C  20.65000 0.25400 26.80900
O  20.91200 0.28900 25.60400
C  19.21400 0.40400 27.16200
N  26.24100 -0.10000 27.42700
C  25.35400 0.04300 26.46800
C  26.03000 -0.15200 25.08100
C  27.54400 -0.26600 25.41800
C  27.49600 -0.40900 26.93000
C  25.50300 -1.37300 24.40600
C  28.26200 1.14100 25.00600
C  29.75300 1.08300 24.85400
N  27.81300 -0.31900 29.88500
C  28.87600 -0.65500 29.04900
C  30.02300 -0.95700 29.82100
C  29.63600 -0.75500 31.19800
C  28.27800 -0.39100 31.16000
C  31.33400 -1.34900 29.21500
C  30.10100 -0.62200 32.56300
O  31.17400 -0.68100 33.16000
C  28.82600 -0.24400 33.42300
C  28.82900 -1.31000 34.45800
O  28.69000 -2.50000 34.29300
O  28.96800 -0.72000 35.68100
C  28.80200 -1.67100 36.80600
H  22.10300 0.50600 31.99700
H  23.37300 0.14500 25.69800
H  29.54300 -0.91800 26.94100
H  25.60900 -0.87400 34.71500
H  23.93500 1.24400 34.03400
H  23.41100 -1.29700 35.38100
H  22.52000 -1.33300 33.84600
H  22.32800 0.00500 35.01800
H  26.39300 1.98900 34.05300
H  27.28600 0.94700 35.06500
H  24.76900 1.21200 36.44100
H  25.19100 2.74500 35.80800
H  19.37000 1.00900 30.08900
H  20.33200 0.15500 31.23400
H  19.56700 -0.74700 30.07300
H  18.60400 0.57400 26.27400
H  19.00800 1.19900 27.87800
H  18.94100 -0.59200 27.50900
H  25.75600 0.72100 24.48900
H  28.11100 -1.14200 25.10300
H  24.82000 -1.91400 25.06000
H  26.30600 -2.08100 24.20000
H  25.00200 -1.15500 23.46200
H  27.96000 2.03100 25.55900
H  27.77000 1.37300 24.06200
H  30.09900 0.10500 24.52000
H  30.23600 1.24900 25.81600
H  30.19000 1.84500 24.20800
H  31.42600 -2.37300 28.85400
H  32.12400 -1.15700 29.94200
H  31.44100 -0.69500 28.35000
H  29.08100 0.75300 33.78500
H  27.80500 -1.41900 37.16800
H  29.46300 -1.25300 37.56500
H  29.01300 -2.71900 36.59100
Mg -8.98900 19.04800 42.66600
C  -5.62200 18.70900 42.85700
C  -8.60900 22.39800 41.89700
C  -12.40600 19.32200 42.25500
C  -9.28300 15.55500 42.54600
N  -7.30000 20.34800 42.39300
C  -5.99400 20.01900 42.51800
C  -5.06600 21.20600 42.25000
C  -6.09300 22.34700 42.11700
C  -7.45200 21.65800 42.16100
C  -5.95500 23.54400 43.14500
C  -4.21600 20.89100 40.98200
C  -4.78700 20.06200 39.74700
H  -4.33400 20.51700 38.35300
N  -10.38100 20.66600 42.05500
C  -9.97600 21.96600 41.86000
C  -11.16700 22.76500 41.66800
C  -12.33600 21.89400 41.91400
C  -11.72000 20.53400 42.06200
C  -11.17200 24.16600 41.13300
C  -13.72800 22.36800 41.84900
O  -13.96100 23.55100 41.61600
C  -14.99700 21.44400 41.96600
N  -10.59800 17.63100 42.15900
C  -11.88700 18.00800 42.27700
C  -12.84900 16.79500 42.37000
C  -11.87400 15.55500 42.10700
C  -10.47000 16.23700 42.24500
C  -13.54600 16.74000 43.71000
C  -12.10000 14.79800 40.69900
C  -12.19700 13.29200 40.73000
N  -7.76900 17.46700 42.74400
C  -7.95600 16.09300 42.74800
C  -6.81100 15.37300 43.02300
C  -5.80200 16.40400 43.05100
C  -6.46000 17.61500 42.82900
C  -6.70500 13.90800 43.07500
C  -4.40700 16.67800 43.28600
O  -3.45900 15.92600 43.61300
C  -4.22200 18.16200 43.19300
C  -3.70400 18.80800 44.38000
O  -2.68500 19.53600 44.40300
O  -4.48900 18.31000 45.43100
C  -4.01000 18.67500 46.84100
H  -8.53100 23.48600 41.84000
H  -13.49600 19.38500 42.27400
H  -9.34400 14.48000 42.72700
H  -4.43100 21.20800 43.13700
H  -6.04000 22.91500 41.18700
H  -5.85600 24.46900 42.57600
H  -5.06100 23.44000 43.76000
H  -6.82600 23.55100 43.80100
H  -3.26000 20.43700 41.24100
H  -3.85700 21.83600 40.57500
H  -5.87000 20.13600 39.65900
H  -4.62900 18.98500 39.81000
H  -11.76100 24.20600 40.21700
H  -10.11500 24.39400 40.99700
H  -11.59800 24.77100 41.93300
H  -14.98000 20.90800 42.91500
H  -14.96600 20.60400 41.27200
H  -15.85600 22.09500 41.80100
H  -13.61100 16.96100 41.60900
H  -11.90400 14.75300 42.84400
H  -14.56400 16.37700 43.56700
H  -13.59500 17.70700 44.21100
H  -13.01300 16.17300 44.47300
H  -11.25100 15.07800 40.07600
H  -12.98900 15.10300 40.14600
H  -12.98700 12.86200 40.11500
H  -12.14800 12.83800 41.72000
H  -11.39800 12.90100 40.10000
H  -5.72400 13.56800 42.74300
H  -7.33400 13.50100 42.28400
H  -6.97000 13.36900 43.98500
H  -3.54100 18.46800 42.39900
H  -2.96700 18.97300 46.73300
H  -4.04300 17.80500 47.49600
H  -4.48200 19.59600 47.18400

