158

Mg 9.13900 3.20700 27.58000
C  10.15800 1.59700 30.57900
C  7.56200 5.47300 29.51300
C  7.96500 4.55500 24.76400
C  10.20300 0.39100 25.90900
N  9.01500 3.54500 29.73000
C  9.55400 2.86800 30.79700
C  9.26900 3.42400 32.18900
C  8.36400 4.64100 31.80000
C  8.29300 4.62700 30.26800
C  6.96400 4.77900 32.45500
C  10.58300 3.59400 33.05200
C  10.58600 4.74800 34.09600
H  11.19900 4.36800 35.52300
N  7.87100 4.74000 27.22900
C  7.32500 5.58400 28.10200
C  6.62600 6.64900 27.35700
C  6.91700 6.45900 25.95000
C  7.66500 5.24800 25.94000
C  5.83100 7.78900 28.09200
C  6.49900 7.26500 24.66100
O  6.81100 6.89300 23.58800
C  5.64000 8.47100 24.81700
N  9.21900 2.65800 25.62600
C  8.68900 3.35400 24.63300
C  8.95900 2.80900 23.17300
C  9.64900 1.42200 23.59400
C  9.74900 1.49900 25.11900
C  7.78000 2.74800 22.23500
C  11.06900 1.22500 22.88300
C  11.16000 0.16800 21.80200
N  10.09800 1.38700 28.05900
C  10.44700 0.33500 27.24000
C  11.07700 -0.69500 28.01900
C  11.00400 -0.27200 29.35700
C  10.42600 0.99100 29.33400
C  11.87200 -1.80400 27.42800
C  11.29100 -0.59500 30.76400
O  11.74700 -1.59000 31.30300
C  10.78800 0.62000 31.60600
C  9.75500 0.14600 32.58600
O  8.62100 -0.09800 32.27800
O  10.19700 0.10500 33.84000
C  9.13700 0.06000 34.88100
H  6.96600 6.16800 30.10700
H  7.78100 4.95200 23.76300
H  10.66000 -0.41500 25.33200
H  8.54400 2.70200 32.56500
H  8.83200 5.56900 32.12900
H  6.20500 4.49400 31.72600
H  6.68800 5.80600 32.69500
H  6.88600 4.19100 33.37000
H  11.42700 3.76000 32.38400
H  10.76800 2.61800 33.50000
H  9.55700 4.99000 34.36200
H  11.12800 5.64900 33.80800
H  6.48300 8.66300 28.06400
H  5.45300 7.48500 29.06800
H  4.90400 8.03700 27.57600
H  4.77000 8.02600 25.30000
H  5.45300 8.85200 23.81300
H  6.18600 9.26500 25.32700
H  9.64100 3.45600 22.62100
H  9.09000 0.57000 23.20900
H  8.02400 3.38100 21.38200
H  6.87500 3.22400 22.61000
H  7.48500 1.72700 21.99200
H  11.80400 1.05500 23.67000
H  11.24100 2.18400 22.39200
H  10.80800 -0.80200 22.15200
H  12.16400 -0.08900 21.46400
H  10.52700 0.41200 20.94900
H  12.45900 -1.45000 26.58100
H  11.15100 -2.49400 26.99000
H  12.56600 -2.16700 28.18700
H  11.65300 1.15800 31.99500
H  8.53400 0.96800 34.91100
H  9.44100 0.06600 35.92700
H  8.49700 -0.78400 34.62600
Mg 46.86800 24.34300 27.97400
C  47.45700 26.88600 30.33000
C  46.27900 22.17100 30.36500
C  46.67600 22.15300 25.55800
C  47.91000 26.80300 25.51800
N  46.99200 24.51500 30.11000
C  47.09400 25.63400 30.88700
C  46.70700 25.33700 32.35500
C  46.62200 23.75900 32.26500
C  46.63500 23.44900 30.82200
C  47.71400 23.02700 33.13000
C  45.42300 25.98000 32.89300
C  45.03500 25.51500 34.31100
H  44.80900 26.60500 35.40000
N  46.51600 22.36300 27.97100
C  46.12100 21.62400 29.02800
C  45.96200 20.25100 28.60800
C  46.04000 20.24200 27.15700
C  46.49000 21.60500 26.84900
C  45.54800 19.12900 29.55600
C  45.73800 19.06600 26.22800
O  45.71500 19.18400 24.97400
C  45.37900 17.65600 26.78000
N  47.26100 24.45400 25.86900
C  47.08400 23.34500 25.09100
C  47.34700 23.66100 23.62700
C  47.61900 25.16100 23.57700
C  47.52100 25.51000 25.08100
C  48.69500 22.95200 23.15000
C  46.59000 25.99800 22.68400
C  45.35800 26.56200 23.39200
N  47.47900 26.42300 27.86400
C  47.89400 27.23200 26.79100
C  48.28500 28.53100 27.25100
C  48.15800 28.48500 28.63500
C  47.66700 27.21500 28.94200
C  48.84500 29.52900 26.34600
C  48.39300 29.12100 29.94300
O  48.92300 30.19100 30.10200
C  47.69200 28.21800 31.05600
C  48.47200 28.10200 32.32600
O  49.53400 27.45600 32.51200
O  47.75400 28.70900 33.36000
C  48.45200 28.57800 34.63500
H  45.99000 21.40100 31.08400
H  46.47300 21.48800 24.71600
H  48.18800 27.37300 24.62900
H  47.60300 25.67800 32.87400
H  45.61600 23.47100 32.57100
H  47.43900 22.88500 34.17400
H  48.56300 23.70700 33.20400
H  48.10800 22.10300 32.70700
H  44.51500 25.77800 32.32600
H  45.53400 27.06000 32.80100
H  45.78700 24.85300 34.74200
H  44.12200 24.92500 34.23400
H  44.62300 18.70300 29.16600
H  45.49000 19.48300 30.58500
H  46.38400 18.42900 29.54600
H  46.04100 17.39200 27.60500
H  45.51800 16.93700 25.97200
H  44.31400 17.72300 27.00100
H  46.57100 23.21400 23.00600
H  48.60400 25.47800 23.23600
H  48.95900 22.10300 23.78200
H  49.51600 23.66500 23.08300
H  48.51500 22.48200 22.18400
H  46.16700 25.29800 21.96400
H  47.16200 26.80600 22.22800
H  45.42600 26.30500 24.44900
H  44.40500 26.12400 23.09400
H  45.40800 27.64800 23.31100
H  48.69600 30.50400 26.81000
H  48.25500 29.51800 25.43000
H  49.90800 29.37200 26.16100
H  46.69200 28.55100 31.33500
H  48.23700 29.46300 35.23300
H  49.54100 28.61000 34.66800
H  48.11300 27.70600 35.19400

