158

Mg 2.34600 -0.44300 43.23600
C  5.71100 0.30000 42.82300
C  1.53200 2.49400 41.67600
C  -0.86700 -1.45500 43.24200
C  3.32200 -3.65000 44.37200
N  3.61000 1.16300 42.31600
C  4.95300 1.23800 42.16500
C  5.40100 2.60800 41.64500
C  4.02200 3.33600 41.42300
C  2.90400 2.30700 41.90200
C  3.86800 4.77100 42.06800
C  6.26000 2.46300 40.40000
C  5.84400 1.36300 39.32000
H  5.59000 1.91900 37.93200
N  0.55200 0.39500 42.51000
C  0.46400 1.64300 41.98500
C  -1.00000 1.90600 41.69400
C  -1.72400 0.80400 42.11700
C  -0.70200 -0.15500 42.67600
C  -1.43100 3.23700 41.07700
C  -3.28700 0.75200 42.02400
O  -3.96900 1.70400 41.52900
C  -4.09100 -0.42100 42.47300
N  1.42300 -2.32700 43.59400
C  0.05100 -2.38500 43.69200
C  -0.41900 -3.82100 44.23800
C  0.89500 -4.62200 44.34000
C  1.94500 -3.44200 44.10600
C  -1.44400 -3.82100 45.43000
C  1.17600 -5.88800 43.42400
C  1.50500 -7.22300 44.15700
N  4.15100 -1.47600 43.70200
C  4.38600 -2.72400 44.15600
C  5.75000 -2.97000 44.33900
C  6.37800 -1.76000 43.86600
C  5.32600 -0.91100 43.48600
C  6.46700 -4.21500 44.77300
C  7.66500 -1.00600 43.65400
O  8.85000 -1.33300 43.80600
C  7.21000 0.32500 42.97600
C  7.80500 1.47100 43.76400
O  8.88600 2.01700 43.55500
O  6.94300 1.73700 44.79700
C  7.39600 2.87000 45.60000
H  1.36600 3.49400 41.27000
H  -1.89900 -1.71900 43.48000
H  3.66100 -4.64100 44.68100
H  5.80800 3.08000 42.53900
H  3.85000 3.49500 40.35800
H  2.91000 4.87400 42.57700
H  3.93500 5.49000 41.25200
H  4.73500 4.92000 42.71300
H  7.29500 2.22500 40.64400
H  6.26000 3.50000 40.06400
H  4.97000 0.80500 39.65400
H  6.68000 0.66300 39.33100
H  -1.34700 3.21800 39.99000
H  -0.72000 3.99300 41.41100
H  -2.47500 3.49500 41.25900
H  -4.01300 -0.53700 43.55400
H  -3.75700 -1.33300 41.97900
H  -5.07700 -0.34900 42.01400
H  -1.01000 -4.21300 43.41000
H  0.98300 -4.86700 45.39800
H  -2.42300 -4.10600 45.04700
H  -1.41300 -2.80800 45.83300
H  -1.09900 -4.60700 46.10100
H  2.02500 -5.55100 42.83100
H  0.32800 -6.11800 42.77800
H  0.70300 -7.95700 44.07000
H  1.69800 -6.97100 45.20000
H  2.50900 -7.49200 43.82900
H  6.53900 -4.94500 43.96700
H  6.00100 -4.71900 45.62000
H  7.47300 -3.90000 45.04700
H  7.67300 0.44400 41.99600
H  7.20600 3.77800 45.02800
H  8.43700 2.66800 45.85300
H  6.84500 2.97900 46.53500
Mg -4.75900 24.58800 26.47400
C  -2.82500 26.35400 28.70700
C  -5.79600 22.62200 29.09500
C  -6.17400 22.54000 24.11600
C  -3.11600 26.34800 23.94100
N  -4.43200 24.57700 28.64700
C  -3.56700 25.40800 29.33800
C  -3.81300 25.23200 30.78000
C  -4.40600 23.79400 30.98900
C  -4.94600 23.63100 29.50900
C  -3.35600 22.68100 31.35700
C  -4.64800 26.38600 31.40500
C  -4.34200 26.77300 32.86500
H  -5.34000 26.41200 33.91300
N  -5.72700 22.78500 26.61700
C  -6.05300 22.19100 27.75800
C  -6.79300 21.01500 27.35400
C  -7.08500 20.97800 25.95900
C  -6.34000 22.21400 25.51700
C  -7.17900 19.98700 28.45900
C  -7.88800 20.06100 25.13100
O  -8.17200 20.36900 23.97300
C  -8.40200 18.76100 25.78200
N  -4.71800 24.49400 24.36900
C  -5.37400 23.56800 23.60200
C  -5.23500 23.86900 22.05700
C  -4.27100 25.10900 22.06400
C  -3.93800 25.27200 23.57600
C  -4.77300 22.67900 21.23900
C  -4.88000 26.40100 21.43200
C  -4.09900 27.11200 20.35000
N  -3.44800 26.10900 26.32000
C  -2.85100 26.70900 25.19500
C  -1.91900 27.76300 25.59100
C  -1.87000 27.65600 26.96600
C  -2.79800 26.60600 27.32900
C  -1.11300 28.67900 24.61800
C  -1.25500 28.15400 28.20300
O  -0.41300 29.05000 28.34100
C  -1.85300 27.34100 29.37600
C  -0.74000 26.64100 30.17900
O  0.02900 25.86200 29.66200
O  -0.75000 27.05900 31.46300
C  0.27200 26.36400 32.28900
H  -6.14100 22.08100 29.97900
H  -6.82000 22.13600 23.33300
H  -2.75000 26.89900 23.07200
H  -2.81100 25.19700 31.20600
H  -5.29400 23.84300 31.61900
H  -3.38100 21.75500 30.78400
H  -3.24000 22.56300 32.43400
H  -2.37500 23.08000 31.09700
H  -5.67400 26.02300 31.34600
H  -4.64800 27.29000 30.79600
H  -4.28300 27.85300 32.73700
H  -3.31300 26.41600 32.92600
H  -7.34100 20.33400 29.48000
H  -6.41000 19.23400 28.28400
H  -8.17700 19.60500 28.24400
H  -8.75600 18.02600 25.06000
H  -9.16100 19.04800 26.50900
H  -7.58300 18.25600 26.29600
H  -6.25000 24.10500 21.73700
H  -3.31100 24.76900 21.67700
H  -4.36900 21.79100 21.72300
H  -4.08200 22.93300 20.43400
H  -5.66900 22.45600 20.65900
H  -5.05700 27.06600 22.27600
H  -5.88900 26.12000 21.13200
H  -3.10000 26.71400 20.17000
H  -3.90200 28.14700 20.63000
H  -4.64800 27.07300 19.41000
H  -0.63300 29.52900 25.10400
H  -1.88700 29.11100 23.98500
H  -0.36900 27.97700 24.24200
H  -2.39200 28.00700 30.04900
H  1.16000 26.97800 32.14100
H  0.35600 25.30900 32.02600
H  0.00800 26.53800 33.33200

