158

Mg 16.66400 -1.42500 27.70400
C  15.81900 0.39700 30.56600
C  18.87200 -3.25800 29.58800
C  17.76400 -2.94900 24.85300
C  14.75300 0.67900 25.72800
N  17.34100 -1.34400 29.79900
C  16.92400 -0.42500 30.76300
C  17.52300 -0.67600 32.12500
C  18.60300 -1.77500 31.66400
C  18.24100 -2.24600 30.31700
C  20.00900 -1.19300 31.75000
C  16.50500 -1.28000 33.14100
C  16.23400 -0.54200 34.49500
H  17.54400 0.00500 35.09700
N  18.04500 -2.98000 27.30900
C  18.74000 -3.62100 28.25200
C  19.39600 -4.76900 27.56600
C  19.20800 -4.61200 26.13200
C  18.30400 -3.47800 26.04400
C  20.19600 -5.83800 28.27300
C  19.75000 -5.36800 24.94400
O  19.53200 -5.10000 23.78100
C  20.52000 -6.62600 25.10400
N  16.51000 -0.99900 25.66200
C  16.93900 -1.82300 24.67500
C  16.51900 -1.26400 23.28900
C  15.49600 -0.14900 23.58100
C  15.52700 -0.18200 25.11800
C  17.72100 -0.77000 22.47800
C  14.09200 -0.32300 22.90400
C  14.07800 -0.35300 21.38200
N  15.42600 0.21300 28.05900
C  14.70900 0.93500 27.08900
C  13.89600 1.84600 27.80900
C  14.33500 1.70300 29.20200
C  15.21100 0.64300 29.28900
C  12.76600 2.81400 27.31700
C  14.13400 2.19500 30.53500
O  13.28300 3.01300 30.94200
C  15.08100 1.37800 31.43600
C  15.92900 2.48600 31.95700
O  16.81400 3.03800 31.35000
O  15.27200 2.88400 33.11200
C  15.70500 4.13800 33.62800
H  19.53400 -3.88800 30.18600
H  17.89400 -3.37900 23.85800
H  13.99800 1.17500 25.11500
H  17.93100 0.26200 32.50200
H  18.52500 -2.69100 32.24900
H  20.07500 -0.32500 32.40600
H  20.45200 -0.95600 30.78200
H  20.74300 -1.82100 32.25400
H  16.78300 -2.32000 33.31600
H  15.53000 -1.19900 32.66100
H  15.83800 -1.29100 35.18100
H  15.42700 0.18000 34.37500
H  19.98400 -6.86700 27.98200
H  20.00000 -5.87300 29.34400
H  21.25400 -5.66200 28.08100
H  20.89300 -7.02300 24.15900
H  19.77100 -7.29700 25.52300
H  21.30700 -6.51400 25.85000
H  16.01000 -2.11000 22.82800
H  15.86900 0.82000 23.24900
H  17.75800 0.31100 22.34200
H  17.75000 -1.32300 21.53900
H  18.65600 -1.11300 22.92000
H  13.44300 0.50500 23.18800
H  13.66500 -1.29300 23.15900
H  13.12700 -0.07100 20.93200
H  14.28800 -1.36700 21.04000
H  14.89000 0.26700 21.00200
H  12.72200 3.74100 27.88900
H  11.75800 2.40600 27.38200
H  12.89600 3.15700 26.29100
H  14.61600 0.91200 32.30500
H  15.01800 4.98000 33.54000
H  16.71400 4.37800 33.29200
H  15.77500 3.90500 34.69100
Mg 29.52600 57.67900 40.35800
C  26.73900 55.94600 39.25700
C  31.47700 55.12900 39.25300
C  32.12400 59.81100 40.61300
C  27.31000 60.37700 41.15800
N  29.16000 55.73500 39.30600
C  27.92700 55.24000 39.04200
C  28.12700 53.90700 38.30500
C  29.52500 53.47300 38.85100
C  30.11700 54.83900 39.14000
C  29.36100 52.72500 40.21700
C  28.16300 54.17700 36.75000
C  26.94300 53.74400 35.89300
H  26.40900 54.83600 34.91900
N  31.53900 57.55600 39.86600
C  32.17300 56.34100 39.56000
C  33.53600 56.67600 39.50800
C  33.73900 58.04900 39.89600
C  32.43500 58.57500 40.08700
C  34.55900 55.72200 39.01000
C  35.10700 58.66600 39.86800
O  36.11600 57.96200 39.64200
C  35.35900 60.14800 39.92100
N  29.69700 59.84000 40.81100
C  30.88900 60.44000 40.93500
C  30.73800 61.93100 41.12500
C  29.29000 61.94900 41.68000
C  28.70200 60.65500 41.18000
C  31.71700 62.50700 42.25900
C  28.51200 63.21800 41.33200
C  27.56600 63.73100 42.44700
N  27.46100 58.09800 40.31900
C  26.72500 59.23600 40.65000
C  25.29100 58.95900 40.56500
C  25.20700 57.66100 39.95100
C  26.54900 57.18100 39.85000
C  24.12000 59.81700 40.99600
C  24.26200 56.66800 39.39200
O  23.12600 56.67700 39.24500
C  25.25700 55.52500 38.82400
C  24.91700 54.20000 39.34000
O  25.42300 53.74300 40.37800
O  24.24300 53.46300 38.38500
C  23.94500 52.01800 38.75300
H  32.16900 54.30600 39.06400
H  33.03500 60.30300 40.96100
H  26.60200 61.18100 41.36700
H  27.30400 53.20500 38.43900
H  30.07800 52.96100 38.06300
H  28.37500 52.27300 40.31500
H  29.64700 53.32500 41.08100
H  30.11300 51.93700 40.26100
H  29.05900 53.69300 36.36300
H  28.22000 55.24900 36.56100
H  26.16400 53.23000 36.45600
H  27.27700 52.84500 35.37400
H  34.81100 56.17200 38.05000
H  34.18500 54.73300 38.74500
H  35.43500 55.55300 39.63700
H  34.52600 60.76300 39.58200
H  36.30000 60.37700 39.42000
H  35.52600 60.42000 40.96300
H  30.92200 62.51700 40.22500
H  29.25700 61.72100 42.74600
H  32.20800 61.67700 42.76700
H  31.16400 63.08800 42.99600
H  32.46600 63.19200 41.86100
H  27.81900 63.08800 40.50100
H  29.31300 63.93100 41.13500
H  27.45000 63.02600 43.26900
H  26.55600 63.90400 42.07700
H  28.03900 64.56800 42.96100
H  23.97800 60.70700 40.38200
H  24.09000 59.99500 42.07100
H  23.24900 59.17900 40.84700
H  25.10100 55.50900 37.74600
H  22.86700 51.87600 38.82300
H  24.35200 51.58900 39.66900
H  24.18800 51.30600 37.96400

