158

Mg 2.03600 -1.26600 44.64600
C  5.24000 0.48000 43.99300
C  0.73300 1.46600 42.57000
C  -0.73800 -2.75800 44.51000
C  3.85700 -3.87300 45.89300
N  2.91100 0.79000 43.52500
C  4.18600 1.25100 43.55600
C  4.39200 2.53600 42.70600
C  2.87400 2.93900 42.54200
C  2.09500 1.62200 42.85700
C  2.46700 4.16000 43.41400
C  5.22600 2.33500 41.31700
C  6.40100 3.31600 40.98600
H  6.10700 4.37400 39.91200
N  0.24800 -0.69800 43.83800
C  -0.06300 0.36000 42.97400
C  -1.47500 0.22300 42.62100
C  -1.98600 -0.95900 43.35200
C  -0.83200 -1.49600 43.98400
C  -2.25100 1.20600 41.69200
C  -3.48700 -1.39300 43.35700
O  -4.29100 -0.68900 42.78200
C  -3.98400 -2.54000 44.31700
N  1.61800 -3.12400 45.05400
C  0.36100 -3.55100 45.03700
C  0.23800 -4.91000 45.73000
C  1.68500 -5.29000 46.02600
C  2.44200 -4.00400 45.71500
C  -0.67800 -4.73900 46.98300
C  2.33500 -6.50300 45.30300
C  1.56500 -7.80000 45.68800
N  4.05500 -1.62400 45.03200
C  4.62700 -2.74400 45.62500
C  6.05800 -2.56300 45.66400
C  6.28600 -1.31100 45.04500
C  5.05500 -0.78200 44.66500
C  7.01600 -3.52800 46.23500
C  7.33600 -0.34200 44.71600
O  8.54800 -0.35300 44.99300
C  6.60900 0.87500 44.04800
C  6.86000 2.11600 44.79900
O  6.13900 2.43400 45.73500
O  7.83600 2.90700 44.23500
C  8.01300 4.21200 44.95500
H  0.30400 2.23100 41.92000
H  -1.56100 -3.47500 44.47800
H  4.38700 -4.74200 46.28800
H  5.04200 3.21600 43.25600
H  2.67800 3.29900 41.53200
H  2.37600 5.11800 42.90300
H  3.21400 4.16900 44.20800
H  1.47800 4.00100 43.84200
H  4.47000 2.34200 40.53200
H  5.73500 1.37100 41.29100
H  7.28100 2.81900 40.57900
H  6.77100 3.90500 41.82500
H  -2.94000 0.65500 41.05200
H  -1.51800 1.79200 41.13700
H  -2.76100 1.92900 42.32800
H  -5.06100 -2.45900 44.46700
H  -3.40300 -2.51800 45.23900
H  -3.71400 -3.46800 43.81300
H  -0.18700 -5.66900 45.07500
H  1.90100 -5.51800 47.07000
H  -1.32900 -5.61300 46.95200
H  -1.16300 -3.76400 47.00200
H  -0.27200 -4.72700 47.99500
H  3.38600 -6.68400 45.53000
H  2.23700 -6.28500 44.24000
H  2.25200 -8.62500 45.87800
H  0.95100 -8.14900 44.85900
H  0.83000 -7.63200 46.47500
H  7.54100 -4.06500 45.44500
H  6.46900 -4.33800 46.71800
H  7.62800 -3.18600 47.06900
H  6.93600 1.15700 43.04700
H  7.26000 4.90700 44.58200
H  8.94100 4.71400 44.68100
H  8.02400 3.98600 46.02100
Mg -2.79200 34.17000 26.77400
C  -4.66500 32.47800 29.22100
C  -1.92700 36.58400 29.17800
C  -1.24200 35.81300 24.38600
C  -4.09500 32.01600 24.32300
N  -3.33800 34.48400 28.91000
C  -4.02400 33.61100 29.72600
C  -3.92200 34.01000 31.20200
C  -3.32200 35.46800 31.03500
C  -2.84100 35.53800 29.62300
C  -4.34700 36.57600 31.36000
C  -3.10000 33.03000 31.97700
C  -3.82800 32.29400 33.06000
H  -4.30100 33.01900 34.26600
N  -1.69200 35.98100 26.79000
C  -1.46000 36.80300 27.86000
C  -0.49200 37.79100 27.47800
C  -0.30000 37.61900 26.03100
C  -1.07200 36.41800 25.68900
C  -0.07800 38.94600 28.33000
C  0.45700 38.48400 25.10700
O  0.50000 38.22400 23.94900
C  1.12800 39.79600 25.59500
N  -2.64400 33.84700 24.64400
C  -1.90500 34.66500 23.90400
C  -1.64200 34.20800 22.43400
C  -2.42400 32.82500 22.52000
C  -3.10100 32.91000 23.91200
C  -2.12900 35.11800 21.29600
C  -1.51800 31.53000 22.41800
C  -2.04200 30.37500 21.52700
N  -4.12100 32.66400 26.70700
C  -4.43400 31.78300 25.64600
C  -5.27800 30.80300 26.20100
C  -5.37700 30.97600 27.54300
C  -4.66200 32.12600 27.82700
C  -5.75400 29.68700 25.38800
C  -6.01300 30.45700 28.73900
O  -6.74200 29.49700 28.81800
C  -5.57300 31.43500 29.92400
C  -6.82000 32.06500 30.59600
O  -7.35300 33.14100 30.25700
O  -7.24500 31.30300 31.70200
C  -8.03700 32.00100 32.66300
H  -1.62300 37.25900 29.98000
H  -0.72400 36.22200 23.51600
H  -4.32800 31.21800 23.61400
H  -4.88000 34.06000 31.71900
H  -2.54300 35.69100 31.76400
H  -4.56800 37.16400 30.46900
H  -3.86500 37.28500 32.03400
H  -5.22700 36.13200 31.82400
H  -2.27400 33.48600 32.52400
H  -2.57900 32.25400 31.41700
H  -3.29400 31.40500 33.39600
H  -4.71600 31.78200 32.68700
H  0.97900 38.82900 28.57100
H  -0.63000 38.98600 29.26900
H  -0.14900 39.92300 27.85100
H  0.41300 40.58400 25.83200
H  1.81300 40.27900 24.89800
H  1.72700 39.58700 26.48100
H  -0.60000 33.93200 22.27100
H  -3.19000 32.82500 21.74400
H  -2.45100 36.06600 21.72600
H  -2.94600 34.63200 20.76200
H  -1.31900 35.30700 20.59100
H  -1.27100 31.22800 23.43600
H  -0.52700 31.88700 22.13800
H  -2.42100 29.56400 22.14900
H  -1.15000 30.16100 20.93900
H  -2.87700 30.70100 20.90700
H  -5.12300 29.33100 24.57400
H  -6.65500 30.01000 24.86600
H  -6.03800 28.88900 26.07400
H  -4.97200 30.88600 30.64900
H  -8.83500 32.60800 32.23400
H  -7.38400 32.65800 33.23800
H  -8.42200 31.33800 33.43800

