158

Mg 25.60200 51.70900 26.55300
C  23.17100 52.53900 29.03500
C  27.72600 50.69500 29.14100
C  28.08400 51.24600 24.41100
C  23.53700 52.94400 24.03800
N  25.49100 51.77400 28.85900
C  24.35600 52.00500 29.56900
C  24.66200 51.60300 30.98500
C  26.13100 51.06500 31.02100
C  26.51800 51.18100 29.57400
C  27.10800 51.72200 32.10800
C  23.67000 50.60100 31.58000
C  22.98700 51.06500 32.83400
H  23.14200 50.25600 34.11600
N  27.63900 51.08300 26.74100
C  28.28300 50.68200 27.89400
C  29.66700 50.35900 27.55100
C  29.80400 50.38200 26.12600
C  28.47000 50.92800 25.72100
C  30.55000 49.66900 28.58700
C  31.01000 49.97900 25.26200
O  31.12100 50.06000 24.00800
C  32.32200 49.40200 25.93600
N  25.75300 52.00800 24.52000
C  26.87600 51.76500 23.94500
C  26.66000 51.89400 22.43500
C  25.23600 52.42600 22.29400
C  24.76100 52.41700 23.67700
C  27.70300 52.82100 21.66000
C  24.36500 51.55000 21.35800
C  23.36100 52.30100 20.48200
N  23.76000 52.53600 26.48800
C  23.06200 53.06700 25.37000
C  21.74300 53.51200 25.88800
C  21.79400 53.33500 27.29100
C  22.97100 52.71600 27.60600
C  20.63800 53.98400 25.06800
C  20.97200 53.42100 28.45000
O  19.80600 53.75200 28.51000
C  21.82400 52.90400 29.62100
C  22.10000 54.01700 30.53300
O  22.56200 55.10300 30.22200
O  21.51300 53.64900 31.71800
C  21.26500 54.87200 32.54900
H  28.40700 50.32700 29.91100
H  28.80400 51.18300 23.59200
H  22.91400 53.41000 23.27200
H  24.63700 52.53200 31.55500
H  26.24100 49.98500 30.92400
H  27.55500 50.93300 32.71300
H  26.51800 52.44100 32.67800
H  27.85500 52.27000 31.53400
H  24.18000 49.66500 31.81000
H  22.94500 50.47400 30.77600
H  21.91700 51.05900 32.62700
H  23.21500 52.11200 33.03100
H  30.59100 48.58600 28.47000
H  30.39500 49.91500 29.63700
H  31.54700 50.02500 28.33000
H  32.05300 48.55500 26.56600
H  32.81000 50.20500 26.48800
H  33.06700 49.05600 25.21800
H  26.73100 50.87600 22.05100
H  25.25500 53.45700 21.94100
H  27.13000 53.55100 21.08800
H  28.41300 52.28300 21.03300
H  28.31500 53.38200 22.36600
H  23.94200 50.77700 22.00000
H  25.01000 51.04300 20.64100
H  23.48400 52.07800 19.42200
H  23.37700 53.37200 20.68600
H  22.36900 51.95100 20.76700
H  19.78800 53.63100 25.65100
H  20.68000 53.55300 24.06800
H  20.44600 55.05300 24.97500
H  21.36100 52.03400 30.08600
H  21.45100 55.84900 32.10300
H  21.70300 54.84700 33.54600
H  20.21800 54.88600 32.84900
Mg -9.84500 18.07300 42.75500
C  -6.40800 17.60600 42.81800
C  -9.25800 21.36300 42.18500
C  -13.09900 18.35300 41.94900
C  -10.12100 14.50000 42.59500
N  -8.02200 19.28900 42.54700
C  -6.69600 18.89900 42.60800
C  -5.71600 20.11100 42.61800
C  -6.76700 21.31100 42.83400
C  -8.09300 20.63700 42.51400
C  -6.73200 21.90500 44.29400
C  -4.98700 20.21000 41.23000
C  -5.77500 20.30400 39.95600
H  -5.68200 19.11800 39.00500
N  -11.02700 19.65600 42.06100
C  -10.58600 20.89600 41.83500
C  -11.64300 21.75300 41.38600
C  -12.84600 20.99300 41.56200
C  -12.44100 19.60200 41.87200
C  -11.45300 23.32200 40.94800
C  -14.23100 21.58200 41.28300
O  -14.45900 22.75500 41.04400
C  -15.40000 20.69800 41.52300
N  -11.38100 16.64700 42.17500
C  -12.65600 17.02900 42.08900
C  -13.71000 15.81200 42.20400
C  -12.68900 14.61300 42.33500
C  -11.29700 15.26400 42.32500
C  -14.75500 16.00100 43.32000
C  -12.75200 13.47400 41.18200
C  -13.22200 12.09100 41.58800
N  -8.56900 16.38000 42.80500
C  -8.83500 14.99000 42.78800
C  -7.58500 14.26600 42.99100
C  -6.58700 15.28500 43.03400
C  -7.23800 16.52100 42.87100
C  -7.35600 12.76000 43.00400
C  -5.19500 15.43900 43.22300
O  -4.33200 14.60200 43.43900
C  -5.01900 17.01000 43.11800
C  -4.43100 17.42600 44.36700
O  -3.34100 18.01900 44.54500
O  -5.38600 17.30000 45.43100
C  -5.08600 17.76000 46.79000
H  -9.08800 22.43200 42.33000
H  -14.18900 18.28800 41.91200
H  -10.23400 13.41300 42.59400
H  -5.04500 19.86200 43.44100
H  -6.40100 22.09200 42.16800
H  -7.73600 21.68000 44.65400
H  -6.70300 22.99200 44.37300
H  -5.92200 21.52700 44.91800
H  -4.25100 19.41000 41.15900
H  -4.28900 21.03500 41.37500
H  -5.42200 21.16700 39.39100
H  -6.82600 20.55600 40.09500
H  -11.89000 23.45400 39.95900
H  -10.38400 23.52700 40.88600
H  -11.84100 24.00400 41.70500
H  -15.32900 19.78500 40.93000
H  -16.34300 21.22300 41.36800
H  -15.56200 20.33700 42.53800
H  -14.20900 15.70000 41.24200
H  -12.80600 14.18300 43.33000
H  -14.53400 16.79900 44.02900
H  -14.79900 15.04200 43.83700
H  -15.75700 16.20800 42.94500
H  -11.83700 13.41900 40.59200
H  -13.49300 13.92200 40.52000
H  -12.85100 11.82300 42.57700
H  -12.80100 11.33600 40.92400
H  -14.30300 11.94800 41.60900
H  -7.56700 12.45700 44.02900
H  -6.35500 12.42900 42.72500
H  -8.15300 12.35700 42.37900
H  -4.40000 17.19300 42.23900
H  -4.07900 18.17500 46.84500
H  -4.97500 16.92800 47.48500
H  -5.80100 18.52600 47.08900

