158

Mg 24.07400 -4.97000 45.66400
C  26.20500 -2.52400 44.25600
C  21.62700 -3.87500 43.60900
C  22.45100 -8.01000 46.17200
C  26.89400 -6.28500 47.29300
N  23.94000 -3.32300 44.20600
C  24.88900 -2.48400 43.79300
C  24.40400 -1.52900 42.62600
C  22.76900 -1.77800 42.79500
C  22.74400 -3.04500 43.61900
C  22.12400 -0.61300 43.59000
C  24.96700 -2.04100 41.26100
C  25.10300 -0.94400 40.18100
H  24.73700 -1.23900 38.69900
N  22.25700 -5.79900 45.03200
C  21.35600 -5.15400 44.21800
C  20.14100 -5.99500 44.14000
C  20.35000 -7.10300 45.01500
C  21.76300 -7.02000 45.47600
C  19.07600 -5.63000 43.30500
C  19.23200 -8.06200 45.37900
O  18.12000 -7.90300 44.90200
C  19.35900 -9.08300 46.41000
N  24.60600 -7.00400 46.46400
C  23.72000 -7.95300 46.70000
C  24.43400 -9.11600 47.45900
C  25.88200 -8.54400 47.78500
C  25.80900 -7.15500 47.19200
C  23.52800 -9.66100 48.61400
C  27.12000 -9.38000 47.31200
C  27.92700 -9.90600 48.49400
N  26.12500 -4.46100 45.88700
C  27.06200 -5.09600 46.63900
C  28.21900 -4.27600 46.62300
C  28.02400 -3.26500 45.61200
C  26.69700 -3.44600 45.19100
C  29.53900 -4.42100 47.50800
C  28.52300 -2.12500 44.92000
O  29.56400 -1.50600 45.06400
C  27.38100 -1.70400 43.82700
C  27.23800 -0.23600 43.82100
O  26.96300 0.53000 44.73600
O  27.41500 0.17900 42.54900
C  27.16300 1.64600 42.43300
H  20.70500 -3.46100 43.19300
H  22.05500 -9.02700 46.21800
H  27.72200 -6.70200 47.86900
H  24.62700 -0.46200 42.66100
H  22.24300 -1.99500 41.86600
H  21.41300 -0.11800 42.92900
H  22.83200 0.04000 44.10100
H  21.56500 -1.03000 44.42800
H  24.36500 -2.81700 40.78800
H  25.91400 -2.57000 41.37100
H  26.16300 -0.72200 40.29800
H  24.58500 -0.04500 40.51500
H  19.40400 -5.74000 42.27200
H  18.87300 -4.56100 43.36500
H  18.19300 -6.26900 43.26600
H  18.36300 -9.40100 46.72100
H  19.90300 -8.68900 47.26900
H  19.94700 -9.87600 45.94800
H  24.67200 -10.01200 46.88600
H  25.98100 -8.55800 48.87100
H  23.97900 -9.41400 49.57500
H  23.36300 -10.73800 48.59800
H  22.52600 -9.25200 48.48000
H  27.80500 -8.78900 46.70400
H  26.82500 -10.23500 46.70500
H  27.49300 -10.84700 48.83300
H  27.95200 -9.18700 49.31200
H  28.91800 -10.20000 48.14900
H  30.39700 -4.47600 46.83800
H  29.47300 -5.32200 48.11800
H  29.77400 -3.59800 48.18200
H  27.74400 -2.08200 42.87100
H  27.29200 2.25100 43.33000
H  26.19800 1.73700 41.93300
H  27.98000 1.97600 41.79100
Mg 42.88800 42.10700 26.39600
C  41.82700 44.45700 28.81400
C  44.29500 40.32700 28.84000
C  43.73700 39.94800 24.07800
C  42.00600 44.44000 23.85900
N  43.01900 42.45400 28.61000
C  42.39100 43.32200 29.37600
C  42.46300 42.92400 30.88500
C  43.49400 41.71200 30.82800
C  43.61500 41.47300 29.33400
C  44.93600 41.95200 31.37600
C  41.05700 42.72100 31.51600
C  40.72400 43.32300 32.94600
H  41.73800 43.11600 34.09900
N  43.77400 40.29400 26.46100
C  44.39700 39.72900 27.52900
C  44.85000 38.40000 27.22100
C  44.61400 38.25300 25.84900
C  43.98800 39.51300 25.41700
C  45.56900 37.40500 28.22900
C  44.91900 37.11300 24.95400
O  44.94200 37.16200 23.70700
C  45.32900 35.82900 25.64000
N  42.95200 42.13800 24.32800
C  43.21300 41.09100 23.61700
C  43.08200 41.42500 22.12700
C  42.37000 42.82100 22.05600
C  42.48100 43.18300 23.52600
C  44.45000 41.52200 21.35000
C  40.95200 42.71600 21.51700
C  39.87200 41.93700 22.26400
N  42.13600 44.07600 26.31800
C  41.75700 44.88800 25.22200
C  41.12500 46.12000 25.71500
C  41.14700 46.00500 27.16200
C  41.71800 44.72600 27.45600
C  40.59900 47.09700 24.80800
C  40.84600 46.62300 28.41200
O  40.33500 47.72500 28.65600
C  41.16900 45.62800 29.53400
C  42.05300 46.33400 30.52700
O  43.25400 46.49300 30.55300
O  41.19200 46.73600 31.49900
C  41.71700 47.57400 32.61800
H  44.63700 39.65200 29.62800
H  43.99800 39.26000 23.27100
H  41.64100 45.08400 23.05600
H  42.94000 43.74300 31.42300
H  43.20600 40.90200 31.49700
H  45.13500 42.96500 31.72500
H  45.70700 41.62800 30.67700
H  44.99900 41.30400 32.24900
H  40.81400 41.65800 31.52200
H  40.25900 43.15100 30.91100
H  39.77000 42.86900 33.21300
H  40.70100 44.41200 32.95300
H  46.56900 37.40300 27.79600
H  45.25700 36.37300 28.38900
H  45.53700 37.91800 29.19000
H  46.28300 35.94700 26.15300
H  45.12100 35.00300 24.96000
H  44.71000 35.50500 26.47700
H  42.46200 40.69200 21.61100
H  43.03200 43.49300 21.50900
H  45.12400 40.81500 21.83500
H  44.99700 42.45900 21.45900
H  44.30000 41.34500 20.28500
H  40.96300 42.20900 20.55200
H  40.65700 43.73000 21.24800
H  40.26000 41.47400 23.17100
H  39.41300 41.10700 21.72700
H  39.11200 42.65600 22.57100
H  40.32900 47.86300 25.53400
H  39.81500 46.45100 24.41400
H  41.47000 47.26700 24.17500
H  40.28700 45.31800 30.09400
H  42.44800 48.31400 32.29100
H  42.15800 46.97100 33.41200
H  40.96900 48.22200 33.07500

