158

Mg 8.59600 3.73800 26.84700
C  10.09300 2.03800 29.63100
C  6.69800 5.42700 29.09400
C  6.93500 4.93500 24.31100
C  10.38400 1.63400 24.78400
N  8.40300 3.63800 29.14500
C  9.15300 3.01800 30.05500
C  8.81400 3.57500 31.50600
C  7.58700 4.45700 31.28400
C  7.54800 4.47000 29.70600
C  6.25500 3.97700 31.97800
C  9.89800 4.37400 32.15900
C  9.66400 4.46200 33.68600
H  10.79600 4.58400 34.64700
N  7.21000 5.27300 26.70700
C  6.50200 5.78900 27.74900
C  5.40900 6.60500 27.20100
C  5.59100 6.53000 25.79200
C  6.61800 5.55100 25.51800
C  4.48100 7.39400 28.07000
C  4.88200 7.37700 24.72100
O  5.23100 7.35200 23.54300
C  3.72200 8.27700 25.05500
N  8.68800 3.30100 24.80700
C  7.90400 3.93700 23.92900
C  8.13400 3.46000 22.47700
C  9.31300 2.50800 22.69600
C  9.53600 2.52300 24.16500
C  6.83200 2.90800 21.85600
C  10.53200 2.67700 21.70400
C  11.32500 1.45100 21.20900
N  9.91400 2.13500 27.07600
C  10.65800 1.42900 26.13100
C  11.48400 0.42600 26.78000
C  11.24100 0.64400 28.15700
C  10.29800 1.68300 28.32200
C  12.32200 -0.60900 26.12300
C  11.71800 0.23800 29.40200
O  12.47700 -0.64900 29.80100
C  11.14100 1.26800 30.43800
C  10.58900 0.47100 31.60000
O  9.59200 -0.12900 31.43500
O  11.18100 0.78200 32.82700
C  10.57900 0.19700 34.07600
H  5.98900 5.80200 29.83500
H  6.31300 5.20800 23.45500
H  10.89900 0.99800 24.06100
H  8.53800 2.67700 32.05800
H  7.74900 5.49700 31.56700
H  5.84000 4.61300 32.76000
H  6.44500 3.01100 32.44800
H  5.49800 3.86100 31.20300
H  10.02000 5.26300 31.54000
H  10.87500 3.90800 32.02700
H  8.97800 3.67900 34.00800
H  9.09700 5.38300 33.82500
H  4.45000 8.42700 27.72500
H  4.76800 7.36500 29.12100
H  3.51900 6.95100 27.81400
H  2.98000 7.88400 25.75000
H  3.25300 8.59200 24.12300
H  4.08100 9.24200 25.41200
H  8.42900 4.31600 21.87000
H  8.87300 1.53700 22.46800
H  6.16500 2.62600 22.67100
H  7.02400 1.99700 21.28900
H  6.26700 3.60400 21.23600
H  11.16500 3.37800 22.24700
H  10.30200 3.14100 20.74500
H  11.30900 1.50800 20.12100
H  11.07000 0.48100 21.63500
H  12.37400 1.51400 21.50100
H  13.17600 -0.74300 26.78800
H  12.60900 -0.25000 25.13500
H  11.74500 -1.53300 26.16500
H  11.95100 1.92900 30.74700
H  10.25700 1.05700 34.66200
H  11.22400 -0.29800 34.80200
H  9.70000 -0.41500 33.87400
Mg 25.73600 1.89900 29.29100
C  27.50700 1.59000 32.13000
C  22.78700 2.00300 31.04500
C  24.03700 1.76000 26.25900
C  28.62200 1.09900 27.46500
N  25.28100 1.93200 31.41500
C  26.16500 1.81300 32.40800
C  25.47900 2.04200 33.76800
C  23.86800 2.11200 33.39900
C  23.92200 2.09400 31.86900
C  22.97300 1.10500 34.04900
C  26.10200 3.17600 34.63100
C  26.55800 2.91600 36.16000
H  25.96700 3.81100 37.25600
N  23.68200 1.93300 28.75700
C  22.67700 2.07400 29.59200
C  21.46300 2.23100 28.82600
C  21.80400 1.98900 27.46800
C  23.22500 1.91400 27.44000
C  20.09000 2.41600 29.45100
C  20.91400 1.80700 26.27200
O  21.30200 1.50400 25.14400
C  19.38400 1.90000 26.29900
N  26.36200 1.79400 27.17900
C  25.45300 1.69600 26.14700
C  26.10300 1.59500 24.77100
C  27.63100 1.40100 25.17100
C  27.55900 1.49800 26.65800
C  25.51300 0.51600 23.85900
C  28.57600 2.46500 24.49900
C  29.64300 1.87000 23.55500
N  27.76400 1.43200 29.62600
C  28.81400 1.00100 28.82900
C  29.96900 0.75700 29.61200
C  29.50400 0.90700 30.92600
C  28.20500 1.32800 30.85700
C  31.36200 0.51500 29.09700
C  29.88000 1.02900 32.34600
O  30.98400 0.89100 32.90100
C  28.66500 1.49700 33.18900
C  28.38700 0.56800 34.31100
O  27.78400 -0.45800 34.21100
O  29.02800 0.83500 35.47600
C  28.89300 -0.13000 36.57600
H  21.91200 2.06500 31.69500
H  23.49300 1.74000 25.31300
H  29.53700 1.02400 26.87300
H  25.62900 1.11100 34.31400
H  23.51700 3.10800 33.66800
H  22.57700 0.30000 33.42900
H  22.13100 1.63300 34.49600
H  23.47500 0.54300 34.83600
H  25.43900 4.03800 34.69800
H  26.96100 3.47100 34.02800
H  27.62900 3.02200 36.33300
H  26.24200 1.91200 36.44300
H  19.47400 3.02000 28.78500
H  20.10100 2.82800 30.46000
H  19.77900 1.37100 29.47500
H  19.11300 1.56700 25.29700
H  19.04300 2.93500 26.31400
H  18.87400 1.33400 27.07800
H  25.99300 2.56400 24.28400
H  28.06000 0.41500 24.99300
H  24.87100 -0.13700 24.45000
H  26.29000 -0.13700 23.46100
H  24.90800 1.05100 23.12700
H  29.13100 2.99300 25.27500
H  28.04800 3.24500 23.95100
H  30.45600 1.26300 23.95300
H  30.21300 2.67700 23.09400
H  29.15000 1.23600 22.81800
H  31.43800 0.74400 28.03400
H  31.59300 -0.53200 29.28900
H  32.00200 1.16800 29.69000
H  28.89000 2.48000 33.60200
H  28.90800 -1.18400 36.29500
H  28.10800 0.07700 37.30300
H  29.85600 0.07800 37.04200

