158

Mg -1.89800 17.09900 25.72600
C  -2.34300 14.80200 28.28100
C  -2.63100 19.67000 27.85600
C  -1.88900 19.23800 23.03900
C  -1.87500 14.28200 23.46200
N  -2.41000 17.21800 27.81400
C  -2.45800 16.17900 28.71300
C  -2.82600 16.65600 30.12700
C  -3.51300 17.99300 29.77200
C  -2.85000 18.42100 28.38400
C  -5.11100 17.88300 29.78400
C  -1.62300 16.78800 31.14800
C  -1.74000 15.97400 32.44100
H  -2.41500 16.67000 33.65300
N  -2.12200 19.20600 25.53200
C  -2.23000 20.08000 26.56000
C  -2.20700 21.38900 26.04900
C  -2.00600 21.30000 24.65500
C  -2.00800 19.87800 24.34600
C  -2.33900 22.61000 26.88100
C  -1.91700 22.35400 23.54900
O  -1.87600 22.09600 22.35900
C  -1.71700 23.79800 23.86300
N  -1.97300 16.73700 23.57500
C  -1.78700 17.85300 22.75100
C  -1.50500 17.34900 21.29600
C  -1.24500 15.84600 21.48500
C  -1.77300 15.58200 22.91900
C  -2.69200 17.67200 20.34500
C  0.24300 15.49400 21.12500
C  1.21200 16.17000 22.17800
N  -1.96200 14.96000 25.85500
C  -1.98600 13.95200 24.87200
C  -2.02400 12.70000 25.48600
C  -2.22000 12.98900 26.86700
C  -2.09100 14.34800 27.01700
C  -1.96600 11.43900 24.77500
C  -2.52900 12.39800 28.13300
O  -2.63900 11.24700 28.43800
C  -2.63800 13.60300 29.12800
C  -1.69900 13.39600 30.19000
O  -0.53300 13.64600 30.20200
O  -2.32800 12.69700 31.17600
C  -1.43000 12.25600 32.24200
H  -2.86900 20.50400 28.51900
H  -1.86200 19.77300 22.08800
H  -1.78100 13.60400 22.61100
H  -3.57800 15.98500 30.54300
H  -3.24200 18.79700 30.45600
H  -5.55300 17.69500 28.80500
H  -5.46400 18.80600 30.24400
H  -5.37800 17.07500 30.46500
H  -1.45600 17.83000 31.41800
H  -0.70700 16.53400 30.61400
H  -0.69600 15.80600 32.70700
H  -2.25900 15.03600 32.24400
H  -2.16100 22.46500 27.94700
H  -3.38000 22.91700 26.77500
H  -1.67500 23.41300 26.56100
H  -0.69400 23.77800 24.23800
H  -2.58800 23.99500 24.48800
H  -1.75600 24.39400 22.95200
H  -0.59900 17.89700 21.03700
H  -1.94200 15.37400 20.79200
H  -3.29500 16.77300 20.21200
H  -2.38000 18.10900 19.39600
H  -3.43500 18.36800 20.73400
H  0.54100 15.84900 20.13800
H  0.30200 14.40800 21.18600
H  1.84600 16.94300 21.74400
H  1.85100 15.41000 22.62600
H  0.72800 16.75500 22.96000
H  -2.97400 11.04400 24.65500
H  -1.33500 10.81600 25.40900
H  -1.47900 11.54000 23.80500
H  -3.69400 13.47900 29.36700
H  -0.71300 11.58700 31.76500
H  -1.96000 11.63700 32.96500
H  -0.85000 13.06300 32.69000
Mg 17.45900 -2.49800 27.18800
C  16.57300 -0.51500 30.03100
C  19.13100 -4.44500 29.36000
C  18.32300 -4.04000 24.47600
C  15.80200 -0.06300 25.22200
N  17.93900 -2.38700 29.55900
C  17.39400 -1.60300 30.47000
C  17.64600 -1.98900 31.90100
C  18.59000 -3.25100 31.59700
C  18.57100 -3.39500 30.10900
C  19.97200 -3.19000 32.31700
C  16.37300 -2.23900 32.78700
C  16.28200 -1.44400 34.03800
H  17.57500 -0.93800 34.84700
N  18.51400 -4.11000 26.94600
C  19.14200 -4.80400 27.90000
C  19.95800 -5.80900 27.29300
C  19.63000 -5.75400 25.91100
C  18.71900 -4.65400 25.72700
C  20.87000 -6.65000 28.15100
C  20.09400 -6.65300 24.82200
O  19.75200 -6.59200 23.63100
C  20.85400 -7.89200 25.13800
N  16.96600 -2.14200 25.04100
C  17.54300 -2.94000 24.13700
C  17.21700 -2.41300 22.69900
C  16.31800 -1.16900 23.00600
C  16.37800 -1.09400 24.50900
C  18.53700 -2.11100 21.92700
C  14.79200 -1.39500 22.52400
C  14.39500 -0.63300 21.28200
N  16.32000 -0.70600 27.51700
C  15.74800 0.15600 26.61900
C  15.14100 1.25700 27.26800
C  15.34100 1.05000 28.63400
C  16.05100 -0.18000 28.73800
C  14.54700 2.48800 26.62900
C  15.25400 1.58500 29.97200
O  14.65000 2.62600 30.28300
C  15.90300 0.60500 30.96200
C  16.86100 1.51400 31.71900
O  17.97400 1.79700 31.31300
O  16.21000 2.00700 32.81400
C  16.93300 3.05500 33.51800
H  19.64500 -5.09900 30.06700
H  18.84700 -4.52500 23.65000
H  15.26700 0.66600 24.60800
H  18.10900 -1.09000 32.31000
H  17.98200 -4.08100 31.95800
H  20.73400 -2.88100 31.60300
H  20.29300 -4.17800 32.64800
H  20.03000 -2.50800 33.16500
H  16.15000 -3.29600 32.93300
H  15.54000 -1.86600 32.19200
H  15.59200 -2.00300 34.67000
H  15.70900 -0.54700 33.80600
H  21.87700 -6.80700 27.76300
H  20.59900 -7.70400 28.20700
H  21.09100 -6.42000 29.19300
H  20.28700 -8.56400 25.78300
H  21.80100 -7.62600 25.60700
H  21.06800 -8.39600 24.19500
H  16.75800 -3.22400 22.13400
H  16.66000 -0.21600 22.60300
H  18.62300 -2.69300 21.00900
H  19.38800 -2.35000 22.56500
H  18.63000 -1.05200 21.68600
H  14.08600 -0.98900 23.24800
H  14.49600 -2.43300 22.37400
H  15.27200 -0.34500 20.70200
H  13.95400 0.29600 21.64400
H  13.70900 -1.16900 20.62700
H  13.47400 2.36700 26.48100
H  14.90000 2.67100 25.61400
H  14.77100 3.34300 27.26600
H  15.19300 0.25100 31.70900
H  17.11500 3.85800 32.80400
H  17.87900 2.65100 33.87900
H  16.28900 3.43400 34.31200

