158

Mg 6.40300 55.59200 39.95200
C  5.58600 52.11500 39.62300
C  9.65400 54.80900 39.15300
C  6.95100 58.85500 39.84300
C  2.92600 56.15900 40.73600
N  7.43000 53.63900 39.18900
C  6.97400 52.35900 39.32300
C  8.14400 51.37300 39.19400
C  9.48200 52.24200 39.26600
C  8.79800 53.64300 39.24000
C  10.50900 52.05400 40.41400
C  8.05000 50.46800 37.90000
C  7.41100 51.29800 36.70600
H  7.12000 50.56000 35.35700
N  8.11900 56.65600 39.45100
C  9.35300 56.19800 39.24900
C  10.26100 57.29000 39.07800
C  9.54900 58.52700 39.25100
C  8.12700 58.04200 39.45800
C  11.76600 57.13800 38.99100
C  10.13900 59.91600 39.23900
O  11.38400 59.93300 39.39800
C  9.34500 61.15700 39.04900
N  4.99500 57.33800 39.92200
C  5.65100 58.50400 40.17400
C  4.60800 59.56800 40.67300
C  3.31000 58.67100 40.95800
C  3.77100 57.28300 40.52500
C  4.98000 60.42000 41.82100
C  2.04000 59.03300 40.22100
C  0.76200 59.11400 41.02200
N  4.59700 54.44700 40.15100
C  3.28600 54.79200 40.55500
C  2.54100 53.60100 40.71200
C  3.40100 52.57300 40.39300
C  4.60500 53.10600 39.99500
C  1.06900 53.43700 41.06000
C  3.47500 51.08600 40.28300
O  2.65700 50.22700 40.55600
C  4.91100 50.81200 39.89500
C  4.93500 49.84000 38.72900
O  4.71400 50.04100 37.51100
O  5.34400 48.63200 39.22900
C  5.49600 47.41600 38.38800
H  10.71100 54.60200 38.97100
H  7.16100 59.92700 39.86400
H  1.96000 56.29800 41.22600
H  8.02100 50.75400 40.08200
H  10.12300 52.23700 38.38500
H  10.11500 51.26900 41.06000
H  10.62400 52.88000 41.11600
H  11.48200 51.75100 40.02900
H  7.60100 49.50800 38.15500
H  9.07700 50.20700 37.64500
H  8.15700 52.05500 36.46600
H  6.46200 51.75600 36.98700
H  12.07900 56.10800 38.81800
H  12.23500 57.37300 39.94600
H  12.25500 57.69700 38.19300
H  10.02000 62.00000 38.90400
H  8.78800 61.40300 39.95300
H  8.79300 61.15500 38.10900
H  4.47900 60.24800 39.83000
H  3.24600 58.55100 42.03900
H  4.03900 60.73500 42.27200
H  5.41400 61.35800 41.47600
H  5.61200 59.95400 42.57800
H  1.92000 58.45000 39.30800
H  2.23900 60.05200 39.89000
H  0.11900 59.92800 40.68500
H  1.00900 59.18400 42.08200
H  0.06900 58.29600 40.82700
H  0.78300 52.45500 41.43900
H  0.62300 53.65900 40.09100
H  0.76000 54.22100 41.75200
H  5.41400 50.31200 40.72300
H  4.99100 47.58100 37.43600
H  4.96600 46.59800 38.87700
H  6.54200 47.13500 38.26900
Mg 17.12100 53.39500 26.22600
C  18.88100 51.75300 28.83100
C  14.61100 53.91700 28.55600
C  15.50400 54.92000 23.87500
C  19.47600 52.20500 24.00200
N  16.90000 53.00500 28.50800
C  17.68900 52.36700 29.31800
C  17.25200 52.54200 30.76400
C  15.75300 52.99300 30.62900
C  15.70100 53.28400 29.14700
C  14.70100 51.95800 31.17100
C  18.10700 53.65400 31.46800
C  18.29600 53.35900 32.93900
H  17.25600 52.52500 33.75200
N  15.39500 54.44000 26.26600
C  14.48400 54.53100 27.29400
C  13.49400 55.44000 26.92100
C  13.72300 55.87000 25.56000
C  14.88200 55.03200 25.16200
C  12.31400 55.85600 27.85500
C  12.88400 56.72300 24.66400
O  13.24000 56.91800 23.50600
C  11.80500 57.57700 25.31600
N  17.19600 53.21000 24.07000
C  16.53400 54.06900 23.34300
C  17.09500 54.00800 21.91300
C  18.42500 53.21300 21.97300
C  18.41100 52.84100 23.49100
C  16.08600 53.38300 20.87500
C  19.66000 54.17400 21.65800
C  20.72900 53.70900 20.73300
N  18.80600 52.13900 26.28200
C  19.69200 51.81100 25.34500
C  20.72500 50.95500 25.86600
C  20.36600 50.79200 27.20100
C  19.23800 51.63200 27.43900
C  21.89900 50.22000 25.08600
C  20.77100 50.20900 28.47300
O  21.62100 49.34600 28.74400
C  19.95300 50.94800 29.57700
C  19.45200 50.00600 30.67700
O  18.79200 49.02100 30.48300
O  19.81400 50.44800 31.91000
C  19.57400 49.43800 33.01200
H  13.79300 54.04000 29.26900
H  15.08600 55.54600 23.08500
H  20.20800 51.90400 23.25000
H  17.36500 51.61000 31.31700
H  15.47200 53.85200 31.23700
H  14.14600 51.49500 30.35500
H  13.92900 52.51000 31.70600
H  15.21400 51.27000 31.84300
H  17.52500 54.56100 31.30600
H  19.04600 53.85000 30.95000
H  18.48700 54.28600 33.48000
H  19.16500 52.73700 33.15400
H  11.35900 55.63800 27.37600
H  12.44300 56.91700 28.07200
H  12.31800 55.24500 28.75700
H  10.96900 56.98200 25.68400
H  11.39200 58.19300 24.51700
H  12.27900 58.20500 26.07000
H  17.16400 55.04200 21.57600
H  18.52800 52.28000 21.41900
H  15.90700 54.30000 20.31400
H  15.13900 53.16200 21.36700
H  16.51000 52.59200 20.25600
H  20.11700 54.58100 22.56000
H  19.25600 55.05800 21.16500
H  20.57500 52.71100 20.32200
H  21.69900 53.89600 21.19400
H  20.61000 54.25900 19.80000
H  22.68900 50.91200 24.79300
H  21.53400 49.67900 24.21300
H  22.33800 49.47400 25.74800
H  20.52800 51.59700 30.23800
H  20.01700 49.88300 33.90300
H  19.97000 48.45800 32.74700
H  18.50700 49.27500 33.16600

