158

Mg 7.65500 2.26700 27.97700
C  9.26100 1.15000 30.92000
C  5.68400 4.32900 29.72700
C  6.19600 3.11800 25.05400
C  9.50000 -0.16200 26.23600
N  7.38100 2.58300 30.08600
C  8.24800 2.09300 31.08900
C  7.89000 2.76600 32.40200
C  6.61000 3.64500 32.00700
C  6.53800 3.50200 30.51400
C  5.31900 3.23300 32.66100
C  9.04600 3.56800 33.10200
C  8.69200 4.45500 34.26500
H  9.12400 4.06200 35.68500
N  6.15800 3.42800 27.49300
C  5.46800 4.28400 28.34000
C  4.51200 5.07700 27.65500
C  4.63600 4.79500 26.27300
C  5.72400 3.72700 26.20900
C  3.61600 6.14100 28.42700
C  3.91100 5.42200 25.13700
O  4.07700 5.12400 23.96800
C  2.86300 6.49100 25.31900
N  7.81900 1.55100 25.94100
C  7.05200 2.10400 24.96700
C  7.45500 1.62400 23.58700
C  8.44200 0.44900 23.92900
C  8.74800 0.72400 25.42800
C  6.20400 1.28900 22.66900
C  9.71400 0.29800 23.06700
C  9.93100 -1.12400 22.57200
N  9.03700 0.75600 28.42000
C  9.69500 -0.11700 27.62900
C  10.60400 -0.84700 28.33000
C  10.55200 -0.38900 29.66600
C  9.52300 0.58800 29.64000
C  11.46900 -2.01500 27.80200
C  10.96700 -0.65000 31.02300
O  11.73500 -1.51000 31.42100
C  10.24400 0.42500 31.85700
C  9.65200 -0.19000 33.14300
O  8.85900 -1.11700 33.26600
O  10.21700 0.40500 34.24300
C  9.85300 -0.17500 35.55300
H  5.14500 5.01400 30.38500
H  5.74500 3.58400 24.17600
H  9.98600 -0.98200 25.70400
H  7.48400 2.01800 33.08300
H  6.86200 4.68700 32.20100
H  5.15000 3.72800 33.61800
H  5.27600 2.14400 32.64500
H  4.49100 3.52700 32.01700
H  9.42500 4.30000 32.38900
H  9.86000 2.97800 33.52400
H  7.60500 4.39800 34.21200
H  9.14200 5.43200 34.08700
H  4.00400 7.15800 28.36800
H  3.57800 5.86500 29.48100
H  2.59500 6.18600 28.04900
H  1.95000 5.92900 25.51700
H  2.64400 6.95800 24.35800
H  3.20300 7.20300 26.07100
H  8.01300 2.42300 23.09900
H  7.88900 -0.48600 24.01100
H  5.22400 1.29300 23.14700
H  6.29200 0.27600 22.27800
H  6.10800 1.98500 21.83500
H  10.60000 0.58300 23.63400
H  9.61700 0.99700 22.23700
H  10.32100 -1.17200 21.55600
H  9.00200 -1.69000 22.63800
H  10.59800 -1.57900 23.30500
H  11.92700 -1.74100 26.85200
H  10.81400 -2.88500 27.75800
H  12.26800 -2.20300 28.52000
H  10.99400 1.14400 32.18600
H  9.27400 0.59200 36.06800
H  10.66600 -0.37700 36.25100
H  9.19800 -1.04600 35.52700
Mg 34.98700 3.55800 30.42600
C  33.08900 4.56000 32.95300
C  37.81500 3.58900 32.42600
C  37.06200 2.91100 27.70400
C  32.30200 3.91100 28.17600
N  35.38300 3.90500 32.40600
C  34.41000 4.28400 33.31600
C  35.04000 4.44400 34.75000
C  36.53900 4.43100 34.42400
C  36.59900 4.04400 32.93400
C  37.31300 5.72000 34.78300
C  34.51800 3.33400 35.64100
C  33.98100 3.72600 37.05300
H  34.70100 4.95600 37.66900
N  37.08700 3.02100 30.23400
C  38.07400 3.02900 31.14500
C  39.36700 2.56800 30.62700
C  39.12400 2.39500 29.25600
C  37.67900 2.76700 29.01800
C  40.58600 2.32700 31.51000
C  40.14100 2.00300 28.20900
O  39.91100 2.02100 27.02000
C  41.52100 1.60500 28.52000
N  34.71100 3.42800 28.32000
C  35.72400 3.18700 27.40200
C  35.24000 3.24100 25.94700
C  33.68500 3.15700 26.17700
C  33.53600 3.50700 27.64700
C  35.62500 4.55900 25.14800
C  33.09300 1.79200 25.78800
C  31.57100 1.73700 25.43100
N  33.13200 4.18500 30.51200
C  32.13700 4.29800 29.52400
C  30.95800 4.72900 30.16600
C  31.29600 4.99300 31.52900
C  32.61400 4.55400 31.63900
C  29.66500 4.91400 29.46000
C  30.80200 5.36300 32.82900
O  29.73600 5.77000 33.24100
C  31.93900 5.12100 33.82400
C  32.23100 6.47900 34.42000
O  32.75500 7.49200 33.90200
O  31.75900 6.46300 35.67200
C  31.68900 7.78300 36.34300
H  38.64600 3.59800 33.13400
H  37.51700 2.57000 26.77200
H  31.43100 3.88000 27.51700
H  34.69100 5.41300 35.10800
H  37.04500 3.67200 35.02100
H  37.52200 6.41500 33.97000
H  38.24900 5.46900 35.28300
H  36.79000 6.21600 35.60000
H  35.25700 2.53600 35.72000
H  33.74600 2.80800 35.07900
H  34.01100 2.95400 37.82200
H  32.92700 3.93500 36.87100
H  40.49700 1.31000 31.89200
H  40.66500 3.07700 32.29600
H  41.48300 2.45600 30.90500
H  41.99000 2.55000 28.79500
H  42.02500 1.17100 27.65600
H  41.54800 0.89200 29.34500
H  35.76000 2.39900 25.49200
H  33.13400 3.88300 25.57900
H  34.81000 5.11800 24.68800
H  36.37800 4.26400 24.41800
H  36.13500 5.21300 25.85600
H  33.31100 1.11600 26.61500
H  33.60600 1.46500 24.88400
H  31.33600 2.79900 25.35900
H  31.07800 1.28500 26.29200
H  31.38000 1.14000 24.53900
H  29.24300 3.91400 29.35400
H  29.85100 5.45300 28.53100
H  28.99600 5.43900 30.14300
H  31.63100 4.41300 34.59300
H  32.09100 7.53500 37.32600
H  30.65800 8.11300 36.47400
H  32.23800 8.58500 35.85100

