158

Mg 49.31500 35.30000 27.43600
C  47.34800 33.85900 29.87400
C  49.70600 38.08100 29.25700
C  51.26800 36.55200 24.89300
C  48.54300 32.55200 25.32800
N  48.67000 35.85800 29.37400
C  47.97400 35.11400 30.30800
C  47.71200 35.89700 31.62400
C  48.03700 37.37900 31.22100
C  48.89400 37.14500 29.93000
C  46.81100 38.37900 31.31200
C  48.64200 35.36500 32.73400
C  48.11000 34.72900 34.00800
H  48.77200 35.22200 35.29300
N  50.18300 37.14000 27.05800
C  50.31700 38.12800 27.94900
C  51.01100 39.33400 27.38600
C  51.53400 38.88300 26.12300
C  51.04500 37.42700 25.92600
C  51.12100 40.70100 28.10400
C  52.35400 39.67700 25.09400
O  52.70700 39.23400 24.01500
C  52.71900 41.07500 25.40400
N  49.86800 34.61800 25.46100
C  50.71100 35.31900 24.61400
C  51.08900 34.56000 23.33600
C  50.13900 33.30700 23.40600
C  49.37200 33.51800 24.80000
C  51.00600 35.27000 21.99300
C  50.73500 31.87400 23.14700
C  51.95200 31.76200 22.34000
N  48.20500 33.52700 27.51600
C  47.92800 32.52800 26.59900
C  47.01200 31.53900 27.20300
C  46.80300 31.99800 28.52700
C  47.56100 33.22000 28.62400
C  46.44300 30.32100 26.60700
C  46.04300 31.80100 29.79800
O  45.23500 30.92600 30.14100
C  46.55300 32.94700 30.68800
C  47.11200 32.24200 31.82900
O  48.30100 31.98200 31.94800
O  46.14200 31.85900 32.70600
C  46.59900 30.99500 33.87700
H  49.73200 39.05700 29.74500
H  51.92800 36.90700 24.09800
H  48.39100 31.70300 24.65800
H  46.69100 35.84400 32.00300
H  48.82500 37.78500 31.85500
H  45.87500 37.83700 31.17700
H  46.99200 39.11300 30.52700
H  46.82600 38.93600 32.24800
H  49.37800 36.11500 33.02100
H  49.22800 34.59800 32.22800
H  48.36600 33.67000 33.96700
H  47.02300 34.74800 33.91900
H  52.09800 40.69700 28.58800
H  50.36800 40.62600 28.88800
H  50.92500 41.62100 27.55300
H  53.28100 41.07400 26.33700
H  51.85100 41.68500 25.65700
H  53.36400 41.52500 24.64900
H  52.14400 34.36200 23.52400
H  49.33300 33.46100 22.68900
H  50.60500 36.28000 22.07700
H  50.46500 34.80600 21.16800
H  52.02600 35.44700 21.65300
H  50.00900 31.25100 22.62500
H  50.79200 31.35400 24.10300
H  52.73200 31.83600 23.09800
H  51.88200 32.51100 21.55100
H  52.02000 30.77400 21.88500
H  47.27300 29.75000 26.19000
H  45.88200 30.69500 25.75100
H  45.80800 29.83700 27.34900
H  45.72300 33.47600 31.15600
H  45.69900 30.93300 34.48900
H  47.41900 31.51600 34.37200
H  46.95900 30.01100 33.57800
Mg -5.66100 24.83900 26.19900
C  -4.42800 26.30300 29.09200
C  -7.94200 23.07900 28.13000
C  -6.38100 23.12900 23.45100
C  -3.21600 26.57300 24.44100
N  -6.11600 24.74100 28.41700
C  -5.46300 25.37900 29.38700
C  -5.97100 25.07800 30.72700
C  -6.94000 23.91700 30.46800
C  -6.97000 23.83300 28.92000
C  -6.71700 22.56300 31.16100
C  -6.68400 26.25100 31.41500
C  -6.35000 26.50700 32.95000
H  -5.86700 25.31500 33.80100
N  -6.94800 23.32200 25.87900
C  -7.89600 22.83400 26.73300
C  -8.85900 22.06200 25.90000
C  -8.36200 21.96500 24.57100
C  -7.19100 22.76500 24.60500
C  -10.06300 21.28900 26.51500
C  -8.76700 21.02700 23.42100
O  -7.97300 20.82200 22.56200
C  -10.09800 20.24600 23.39900
N  -4.77300 24.68000 24.29600
C  -5.19500 23.89000 23.34800
C  -4.40000 24.11900 22.01000
C  -3.65100 25.42800 22.26300
C  -3.98300 25.63600 23.72100
C  -3.70500 22.83900 21.59500
C  -3.80700 26.58200 21.22000
C  -2.64600 26.91000 20.34800
N  -4.07600 26.17900 26.60300
C  -3.27100 26.90300 25.81100
C  -2.35900 27.73600 26.55500
C  -2.80600 27.53700 27.83900
C  -3.92500 26.69500 27.79700
C  -1.30900 28.60300 25.95900
C  -2.46100 27.86500 29.26600
O  -1.62300 28.57000 29.79400
C  -3.53400 27.08400 30.08600
C  -2.67400 26.26700 31.13000
O  -2.14600 25.15700 30.90500
O  -2.49500 27.03800 32.29100
C  -1.58500 26.49800 33.27600
H  -8.69500 22.68800 28.81700
H  -6.77100 22.84300 22.47200
H  -2.34200 26.94800 23.90600
H  -5.15200 24.57800 31.24300
H  -7.93300 24.24900 30.77100
H  -7.47700 22.47700 31.93700
H  -5.73100 22.58000 31.62700
H  -6.72400 21.75500 30.43000
H  -7.77200 26.25300 31.36100
H  -6.43900 27.23100 31.00400
H  -7.16700 26.92800 33.53600
H  -5.55700 27.25500 32.93000
H  -11.04300 21.68900 26.25400
H  -10.18100 21.39400 27.59300
H  -9.95300 20.22800 26.29000
H  -10.82900 20.94800 23.80200
H  -9.97100 19.37200 24.03800
H  -10.25700 19.87900 22.38500
H  -5.24400 24.28600 21.34100
H  -2.57600 25.24700 22.23700
H  -2.61600 22.83100 21.63900
H  -3.81000 22.67400 20.52300
H  -4.12600 21.93500 22.03700
H  -3.95500 27.45100 21.86100
H  -4.72600 26.51100 20.63700
H  -2.20300 26.02600 19.89000
H  -1.84300 27.32000 20.96000
H  -3.00200 27.62600 19.60600
H  -0.42800 28.05500 25.62500
H  -0.86800 29.23400 26.73100
H  -1.61800 29.21200 25.11000
H  -4.19300 27.75100 30.64200
H  -0.67500 27.08200 33.14400
H  -1.33000 25.45200 33.10400
H  -1.88500 26.67700 34.30800

