158

Mg 17.67500 -1.72800 27.59000
C  16.53100 0.08100 30.45000
C  19.71800 -3.43600 29.69500
C  19.37700 -2.71300 24.80400
C  15.79400 0.46300 25.65700
N  18.13300 -1.53500 29.87500
C  17.42400 -0.86100 30.81700
C  17.91600 -1.20100 32.30400
C  19.01500 -2.29100 31.98600
C  18.94900 -2.45700 30.39200
C  20.36200 -2.01100 32.56600
C  16.70400 -1.60700 33.21800
C  16.60200 -0.92200 34.59900
H  17.80500 -0.26000 35.20400
N  19.12100 -3.03000 27.29000
C  19.81600 -3.70700 28.30900
C  20.67600 -4.73900 27.66900
C  20.61700 -4.45700 26.28100
C  19.64000 -3.33000 26.02600
C  21.28900 -5.90300 28.46900
C  21.62100 -5.12000 25.16900
O  21.42900 -4.80100 23.96300
C  22.63700 -6.04800 25.65400
N  17.62300 -1.15900 25.52900
C  18.43200 -1.71600 24.57900
C  18.13000 -1.16200 23.21400
C  16.83300 -0.36200 23.40600
C  16.70700 -0.30200 24.93300
C  19.34900 -0.40900 22.53900
C  15.52700 -1.00600 22.81600
C  14.49800 -0.03000 22.20700
N  16.29500 -0.17700 27.88700
C  15.65400 0.62000 27.01700
C  14.74500 1.53600 27.65700
C  15.12300 1.43400 29.03200
C  16.06500 0.32500 29.09700
C  13.87000 2.47500 26.97200
C  14.84300 1.89700 30.44600
O  13.98000 2.69700 30.87100
C  15.82300 1.09600 31.38000
C  16.71900 2.09600 31.94500
O  17.84600 2.41600 31.54200
O  15.98800 2.66600 32.93600
C  16.77700 3.67400 33.62300
H  20.35300 -4.03300 30.35200
H  20.06100 -2.93700 23.98300
H  15.27300 1.14900 24.98500
H  18.38600 -0.29300 32.68100
H  18.70900 -3.13500 32.60400
H  20.52800 -2.67800 33.41200
H  20.50800 -0.98000 32.88600
H  21.15500 -2.18000 31.83700
H  16.68000 -2.69600 33.23500
H  15.78900 -1.35200 32.68200
H  16.21000 -1.66000 35.29900
H  15.77000 -0.21800 34.61100
H  21.01100 -6.82600 27.96000
H  20.84500 -5.94400 29.46400
H  22.37300 -5.80000 28.51100
H  23.46600 -5.69700 26.26800
H  23.01900 -6.44600 24.71400
H  22.00800 -6.76900 26.17800
H  17.79100 -2.01900 22.63200
H  16.88300 0.63500 22.96800
H  20.28300 -0.54000 23.08600
H  19.14200 0.66000 22.58300
H  19.40200 -0.66600 21.48100
H  15.07100 -1.51400 23.66600
H  15.68800 -1.77100 22.05600
H  14.40900 -0.08500 21.12200
H  14.64100 1.02200 22.45200
H  13.53800 -0.28300 22.65600
H  13.18900 1.91900 26.32800
H  14.48400 3.14200 26.36600
H  13.26100 3.04700 27.67300
H  15.22100 0.69500 32.19600
H  16.91500 4.47200 32.89400
H  17.63400 3.19500 34.09700
H  16.20100 4.02900 34.47700
Mg 35.94000 2.69500 30.64100
C  33.21600 3.40500 33.01600
C  38.17300 2.76900 33.36900
C  38.38600 1.94300 28.57000
C  33.59700 2.92000 28.15000
N  35.66700 3.08900 32.90200
C  34.49100 3.31800 33.61400
C  34.84800 3.32500 35.13100
C  36.42500 3.52400 35.13500
C  36.83900 3.13100 33.67800
C  36.91600 4.97700 35.50600
C  34.36100 2.03000 35.84900
C  33.87000 2.15200 37.32600
H  34.30500 3.41300 38.06000
N  37.99200 2.24200 30.95200
C  38.66800 2.23100 32.16000
C  40.04700 1.78400 31.83600
C  40.12700 1.62900 30.46900
C  38.79600 1.98300 29.95600
C  41.12400 1.69600 32.86800
C  41.27100 1.22200 29.61500
O  41.19100 1.04600 28.40500
C  42.56000 0.82700 30.31300
N  36.03600 2.59400 28.62600
C  37.18000 2.25400 27.93600
C  36.92000 2.35400 26.44500
C  35.34500 2.58200 26.33200
C  34.98000 2.72300 27.81700
C  37.83700 3.45200 25.83700
C  34.54200 1.33400 25.82500
C  33.49800 1.78500 24.84400
N  33.76500 3.17400 30.55200
C  33.00700 3.18800 29.43000
C  31.69300 3.46800 29.78000
C  31.62500 3.56000 31.18300
C  33.01100 3.40000 31.60700
C  30.53000 3.50800 28.83000
C  30.83300 3.75400 32.38200
O  29.66000 3.91100 32.51200
C  31.85800 3.69100 33.64800
C  31.86600 4.96300 34.39200
O  32.58900 5.94400 34.22100
O  30.96200 4.84000 35.41800
C  30.98600 5.98700 36.37000
H  38.79400 2.79900 34.26700
H  39.17200 1.79600 27.82600
H  32.87500 2.94300 27.33100
H  34.30700 4.14300 35.60700
H  36.88500 2.91000 35.90900
H  37.41900 4.93600 36.47200
H  36.04200 5.62800 35.51100
H  37.62700 5.22800 34.72000
H  35.15300 1.30600 35.66100
H  33.54100 1.69000 35.21600
H  34.08900 1.20900 37.82700
H  32.78000 2.15400 37.31300
H  41.69000 0.76500 32.83100
H  40.69200 1.67900 33.86800
H  41.88000 2.48100 32.86800
H  42.24400 -0.12100 30.75000
H  42.93000 1.61000 30.97300
H  43.26200 0.61400 29.50700
H  37.18400 1.36600 26.06700
H  35.06700 3.48900 25.79400
H  37.20400 4.13700 25.27400
H  38.64100 3.02500 25.23600
H  38.24000 4.09200 26.62100
H  34.05200 0.77100 26.61900
H  35.15100 0.63200 25.25600
H  33.79800 1.41100 23.86500
H  33.20700 2.82600 24.98800
H  32.58300 1.25300 25.10500
H  30.40900 2.54200 28.34100
H  30.61000 4.37600 28.17500
H  29.59500 3.65000 29.37100
H  31.58800 2.97600 34.42500
H  29.97000 6.37700 36.43300
H  31.60200 6.86700 36.18800
H  31.32600 5.64200 37.34600

