158

Mg 25.21400 -5.37800 45.99800
C  27.48700 -3.40900 44.21700
C  22.75000 -4.38700 43.86900
C  23.33800 -8.01100 46.87000
C  27.88300 -6.50700 47.90300
N  25.16700 -4.11500 44.22400
C  26.19000 -3.37600 43.70700
C  25.62800 -2.31300 42.72000
C  24.10300 -2.42300 42.92200
C  24.00400 -3.71100 43.72200
C  23.40600 -1.32100 43.69000
C  26.05800 -2.62400 41.22400
C  26.43000 -1.37500 40.34300
H  25.74000 -1.18900 38.95000
N  23.30300 -6.11300 45.42500
C  22.40000 -5.48900 44.64800
C  21.07600 -6.01700 44.72200
C  21.11700 -7.08000 45.65400
C  22.58500 -7.14900 46.01200
C  19.88100 -5.56300 43.90300
C  20.03300 -8.15300 46.00700
O  18.84600 -8.05700 45.57500
C  20.41200 -9.35000 46.86400
N  25.50400 -7.01800 47.13200
C  24.59400 -7.96800 47.33500
C  25.14400 -9.14200 48.17800
C  26.59600 -8.58200 48.56700
C  26.68600 -7.26200 47.85200
C  24.28000 -9.49900 49.40300
C  27.83300 -9.57800 48.24300
C  28.14000 -10.58100 49.39800
N  27.36400 -5.04400 46.17600
C  28.26800 -5.46800 47.09600
C  29.50700 -4.75300 46.92500
C  29.22900 -3.93700 45.75700
C  27.96400 -4.19200 45.31000
C  30.76100 -4.93000 47.68700
C  29.84600 -2.97200 44.84000
O  30.97700 -2.49500 44.82100
C  28.63700 -2.51600 43.85100
C  28.26700 -1.08000 44.09100
O  27.88000 -0.58300 45.17400
O  28.34300 -0.28800 42.97000
C  28.14300 1.17200 43.11400
H  21.83500 -3.91500 43.50800
H  22.90300 -8.90900 47.31300
H  28.75500 -6.85500 48.46100
H  26.03600 -1.33000 42.95300
H  23.57600 -2.39300 41.96800
H  24.16000 -0.60100 44.00800
H  22.90900 -1.63000 44.61000
H  22.68900 -0.81200 43.04600
H  25.25300 -3.25800 40.85200
H  26.93200 -3.26700 41.32400
H  27.45900 -1.63200 40.09100
H  26.52200 -0.46400 40.93500
H  20.10800 -5.13500 42.92600
H  19.37600 -4.79000 44.48200
H  19.19300 -6.38000 43.68400
H  19.56800 -10.02700 46.99600
H  20.73600 -8.85100 47.77800
H  21.24500 -9.91400 46.44500
H  25.21700 -10.01000 47.52300
H  26.54300 -8.46300 49.64900
H  23.93000 -10.52200 49.27100
H  23.43900 -8.81800 49.53700
H  24.79000 -9.53800 50.36600
H  28.68700 -8.93900 48.01700
H  27.57300 -10.18800 47.37900
H  29.10900 -10.35500 49.84200
H  28.34200 -11.59600 49.05500
H  27.42700 -10.65500 50.21900
H  30.80800 -5.93900 48.09800
H  30.76700 -4.22300 48.51700
H  31.60000 -4.75200 47.01500
H  28.98500 -2.56700 42.81900
H  28.84300 1.58000 43.84200
H  27.11600 1.40700 43.39300
H  28.43600 1.62500 42.16600
Mg 54.88000 24.38000 44.10900
C  52.21300 26.69100 43.78700
C  52.60400 21.85000 43.28000
C  57.48800 22.40300 43.69200
C  57.07000 27.13800 44.63300
N  52.64100 24.34200 43.37100
C  51.72800 25.39200 43.43700
C  50.35600 24.89200 42.83400
C  50.46100 23.39100 43.17000
C  52.00600 23.11500 43.29800
C  49.73900 23.07800 44.49400
C  50.31700 25.14700 41.35700
C  48.92200 24.94700 40.71600
H  48.93300 24.66600 39.15600
N  55.09500 22.41400 43.58400
C  54.04700 21.55000 43.30600
C  54.59000 20.24700 43.07800
C  55.98600 20.38200 43.18500
C  56.25100 21.76500 43.43400
C  53.71200 19.07300 42.80000
C  56.91500 19.18700 42.91500
O  56.52500 18.05100 42.59200
C  58.41400 19.33800 42.98600
N  57.01600 24.78000 44.02900
C  57.83700 23.72400 43.96000
C  59.38100 24.15000 44.00200
C  59.18400 25.63100 44.40100
C  57.69300 25.92200 44.29200
C  60.15400 23.36300 45.08200
C  60.13000 26.55600 43.64500
C  60.97300 27.58400 44.47400
N  54.62700 26.47800 44.35800
C  55.64700 27.42400 44.66200
C  54.98200 28.71600 44.82000
C  53.61300 28.49000 44.52500
C  53.50000 27.11900 44.24200
C  55.66800 29.92600 45.15100
C  52.31300 29.10400 44.35800
O  51.96800 30.28300 44.54300
C  51.42000 27.99200 43.85000
C  50.79100 28.57900 42.56600
O  51.43800 28.80600 41.53500
O  49.44300 28.45500 42.59200
C  48.69800 28.97200 41.50600
H  51.82500 21.09000 43.19200
H  58.29100 21.67000 43.59000
H  57.79100 27.85600 45.02900
H  49.55800 25.30600 43.45100
H  50.09500 22.79800 42.33200
H  48.97400 22.32600 44.30300
H  49.18700 23.98600 44.73800
H  50.40800 22.90900 45.33800
H  51.04600 24.49700 40.87200
H  50.61200 26.18800 41.22600
H  48.31500 25.84300 40.84400
H  48.43800 24.10200 41.20600
H  54.15600 18.53400 41.96300
H  52.78100 19.42800 42.35700
H  53.53400 18.29100 43.53800
H  58.72500 19.99300 42.17200
H  58.97500 18.42300 42.79700
H  58.66300 19.63300 44.00500
H  59.84000 24.01400 43.02300
H  59.32500 25.77100 45.47200
H  59.59100 22.52700 45.49600
H  60.31800 23.89900 46.01600
H  61.08800 23.16700 44.55500
H  59.50500 27.20900 43.03500
H  60.76300 26.01100 42.94500
H  60.74200 28.58800 44.12000
H  62.01800 27.47300 44.18300
H  60.77500 27.62800 45.54500
H  55.06600 30.82900 45.04300
H  56.59000 29.89800 44.57000
H  55.91400 29.89300 46.21200
H  50.58700 27.68600 44.48200
H  47.94200 29.71700 41.75400
H  48.03600 28.14300 41.25700
H  49.27100 29.12400 40.59100

