158

Mg 25.37700 1.50300 29.21000
C  27.30000 0.90300 32.23000
C  22.67500 1.27500 31.20000
C  23.55700 1.69300 26.38100
C  28.26900 0.93100 27.39300
N  25.04900 0.99300 31.58200
C  25.95700 0.91900 32.56700
C  25.15800 1.06300 33.92800
C  23.76700 0.67400 33.49400
C  23.79900 1.04900 32.02000
C  23.50000 -0.84500 33.72500
C  25.27700 2.50100 34.58300
C  26.12500 2.45600 35.89200
H  25.70400 3.45900 36.90800
N  23.43700 1.71100 28.85800
C  22.46900 1.58000 29.81700
C  21.13000 1.81300 29.11100
C  21.34500 1.91100 27.71000
C  22.84000 1.81300 27.62500
C  19.82600 1.92000 29.82300
C  20.37600 1.96000 26.51200
O  20.76900 2.21600 25.34400
C  18.95700 1.82700 26.73500
N  25.83600 1.29600 27.25900
C  24.94400 1.47300 26.23300
C  25.57300 1.36600 24.82700
C  27.11100 1.30600 25.16800
C  27.10100 1.16100 26.66100
C  25.06500 0.08200 24.02300
C  27.88600 2.58400 24.76200
C  27.24800 4.00200 24.83900
N  27.35300 1.08700 29.64200
C  28.47900 0.96600 28.82500
C  29.65400 0.76400 29.54300
C  29.25900 0.80800 30.90000
C  27.81200 0.88500 30.89500
C  31.08200 0.50400 29.09500
C  29.77400 0.82100 32.25100
O  30.89200 0.71000 32.63700
C  28.55700 0.92400 33.18300
C  28.52900 -0.11100 34.22200
O  27.83400 -1.15400 34.18300
O  29.29300 0.26500 35.34700
C  29.34200 -0.68900 36.41400
H  21.68500 1.35700 31.65100
H  22.98400 1.78700 25.45600
H  29.20200 0.72300 26.86400
H  25.47300 0.34300 34.68300
H  23.08000 1.29300 34.07000
H  22.64700 -0.85400 34.40300
H  24.30700 -1.32300 34.28100
H  23.15000 -1.33800 32.81800
H  24.29500 2.79300 34.95500
H  25.61000 3.19700 33.81400
H  27.08500 2.77400 35.48700
H  26.30000 1.44200 36.25200
H  19.43500 2.88400 29.49700
H  19.85200 1.89800 30.91200
H  19.08500 1.18800 29.50200
H  18.55400 2.33800 27.60900
H  18.86200 0.74300 26.79000
H  18.45100 2.19000 25.84100
H  25.44000 2.25100 24.20500
H  27.58200 0.40500 24.77300
H  24.03300 -0.18800 24.24600
H  25.64700 -0.79000 24.32100
H  25.25100 0.22700 22.95900
H  28.24000 2.29600 23.77300
H  28.84300 2.58700 25.28300
H  27.98600 4.76900 25.07600
H  26.56700 4.01000 25.69100
H  26.79400 4.24900 23.88000
H  31.27000 -0.56200 28.96300
H  31.62500 0.94400 29.93100
H  31.30600 1.06400 28.18700
H  28.55000 1.89200 33.68400
H  30.26700 -0.62100 36.98600
H  29.26400 -1.73300 36.10900
H  28.57300 -0.49100 37.16000
Mg 44.09500 4.81900 46.48800
C  41.88100 7.55800 46.10000
C  41.52200 2.69400 46.09600
C  46.35000 2.26700 46.18800
C  46.70600 7.11300 46.20000
N  41.92100 5.09800 45.89800
C  41.24100 6.27500 45.95500
C  39.73300 6.06100 45.86300
C  39.61100 4.48500 45.95200
C  41.11400 4.03600 46.04100
C  38.64900 3.96100 47.08100
C  39.02700 6.76000 44.66600
C  39.83500 6.78500 43.41400
H  39.10400 7.25000 42.12200
N  43.90100 2.65800 46.34700
C  42.72400 2.07300 46.14200
C  42.92400 0.60200 45.97400
C  44.38800 0.50900 45.85600
C  44.94400 1.84200 46.10600
C  41.85500 -0.48100 45.71500
C  45.17300 -0.75900 45.46300
O  44.52600 -1.81100 45.37500
C  46.65300 -0.79000 45.23500
N  46.25800 4.63200 46.30500
C  46.93600 3.51800 46.23800
C  48.44900 3.66300 46.12000
C  48.51400 5.24300 46.09200
C  47.09100 5.71400 46.23800
C  49.24900 3.04200 47.32600
C  49.08800 5.72800 44.72000
C  50.59500 5.49800 44.61100
N  44.27300 6.89400 46.26400
C  45.41600 7.71800 46.20900
C  45.00200 9.11600 45.98700
C  43.63200 9.05900 46.16200
C  43.21400 7.75100 46.20900
C  45.88400 10.31300 45.79700
C  42.45500 9.93300 46.26000
O  42.40600 11.15200 46.32600
C  41.20600 8.95000 46.10300
C  40.22900 9.14300 47.25300
O  40.22100 8.50200 48.32100
O  39.32800 10.13000 46.92900
C  38.49200 10.66500 47.97200
H  40.70000 2.01800 45.85200
H  46.97300 1.37100 46.21200
H  47.59100 7.71600 45.98600
H  39.44700 6.55700 46.79000
H  39.25600 4.08900 45.00100
H  39.32800 3.38400 47.70900
H  37.85600 3.37600 46.61500
H  38.22100 4.81300 47.60900
H  39.08100 7.82700 44.88300
H  38.00300 6.46500 44.43500
H  40.20300 5.79500 43.14500
H  40.73000 7.39200 43.55200
H  41.93100 -1.36800 46.34300
H  41.97200 -0.82200 44.68600
H  40.86600 -0.05900 45.89600
H  47.21500 -0.79700 46.16900
H  46.75300 0.04900 44.54700
H  46.88900 -1.72100 44.72000
H  48.74000 3.29300 45.13700
H  49.14200 5.50900 46.94300
H  48.63200 3.10700 48.22200
H  50.24800 3.46600 47.43400
H  49.36400 1.97500 47.13400
H  48.97300 6.80600 44.60800
H  48.66800 5.15300 43.89500
H  51.00700 5.00800 45.49300
H  51.03600 6.49000 44.51100
H  50.83200 4.99100 43.67600
H  46.01100 10.48700 44.72800
H  46.80200 10.09200 46.34200
H  45.38800 11.21100 46.16300
H  40.75500 9.21100 45.14500
H  38.81800 11.59100 48.44700
H  38.48100 9.99500 48.83200
H  37.51500 10.74400 47.49500

