158

Mg 25.77500 0.76100 28.83300
C  27.23300 0.34400 31.93600
C  22.74100 0.91000 30.36000
C  24.43400 0.86700 25.72600
C  28.89300 -0.25200 27.31500
N  25.11600 0.47900 30.99100
C  25.86600 0.47000 32.06500
C  25.01200 0.42800 33.39400
C  23.54000 0.70400 32.82200
C  23.76300 0.69400 31.28200
C  22.48000 -0.31100 33.26600
C  25.53300 1.53900 34.45800
C  25.24700 1.13300 35.91400
H  26.09300 1.86100 36.92600
N  23.84800 0.82200 28.12600
C  22.74400 0.87600 28.92300
C  21.59000 0.89100 28.11500
C  22.08200 0.89900 26.73500
C  23.48700 0.85400 26.85400
C  20.18800 0.89200 28.77000
C  21.30500 0.86100 25.44400
O  21.83500 0.60200 24.37400
C  19.86300 1.26500 25.48200
N  26.56000 0.32000 26.71700
C  25.79100 0.55400 25.63200
C  26.65200 0.45400 24.33300
C  28.08500 -0.07400 24.93200
C  27.83600 -0.01700 26.42200
C  25.98300 -0.27900 23.13300
C  29.30200 0.83000 24.48100
C  30.59800 0.03600 24.31000
N  27.75500 0.30200 29.45100
C  28.88100 -0.13500 28.71600
C  29.96800 -0.30900 29.63200
C  29.39400 -0.07000 30.95800
C  27.98000 0.23500 30.72500
C  31.41800 -0.71000 29.32600
C  29.69800 -0.10200 32.34100
O  30.72300 -0.33700 32.97400
C  28.32100 0.14000 33.01200
C  28.02100 -0.94900 34.02300
O  27.52100 -2.00200 33.71500
O  28.64900 -0.65500 35.23700
C  28.55000 -1.82300 36.21500
H  21.81800 1.02400 30.93200
H  24.20000 0.92800 24.66100
H  29.83400 -0.61700 26.89800
H  25.05700 -0.59200 33.77800
H  23.19600 1.66200 33.21200
H  22.88600 -0.89500 34.09200
H  22.27400 -1.14900 32.59900
H  21.50400 0.02800 33.61300
H  24.99800 2.46600 34.25400
H  26.57500 1.80300 34.27800
H  25.35800 0.06300 36.08500
H  24.22200 1.38500 36.18300
H  20.26700 0.80600 29.85400
H  19.54000 0.19200 28.24300
H  19.80300 1.88500 28.53700
H  19.59400 1.51700 24.45600
H  19.78400 2.13300 26.13600
H  19.20700 0.45800 25.80900
H  26.78400 1.50700 24.08600
H  28.23000 -1.13600 24.73600
H  26.79700 -0.82100 22.65200
H  25.63900 0.44900 22.39800
H  25.16800 -0.93800 23.42900
H  29.53400 1.53500 25.28000
H  29.17400 1.41300 23.56900
H  30.79500 -0.25800 23.28000
H  30.48000 -0.84300 24.94400
H  31.42700 0.64700 24.66700
H  31.80700 -1.32100 30.14000
H  32.02000 0.19800 29.30400
H  31.48600 -1.23400 28.37200
H  28.53600 1.05000 33.57200
H  29.44500 -2.41100 36.41700
H  27.76100 -2.50400 35.89700
H  28.34900 -1.38600 37.19400
Mg 16.23400 51.79400 26.66600
C  18.25900 50.50200 29.31800
C  13.96700 52.74100 29.09400
C  14.67700 53.52300 24.33800
C  18.39700 50.41300 24.36600
N  16.27700 51.86300 29.02300
C  17.14300 51.24400 29.83700
C  16.69900 51.25200 31.28500
C  15.17000 51.70900 31.15000
C  15.07000 52.11100 29.64800
C  14.11100 50.68300 31.67300
C  17.59300 52.21500 32.13000
C  17.79800 51.79900 33.58400
H  17.24800 52.60500 34.72600
N  14.51700 52.86300 26.68800
C  13.71500 53.15500 27.76600
C  12.60400 53.91000 27.27100
C  12.89000 54.31200 25.92800
C  14.08900 53.54600 25.55500
C  11.41700 54.26000 28.10400
C  12.19700 55.29100 25.04600
O  12.57900 55.63200 23.92300
C  10.97300 56.05600 25.56300
N  16.42900 51.90200 24.57100
C  15.67500 52.73000 23.80800
C  16.23300 52.82600 22.32900
C  17.33400 51.66900 22.36500
C  17.41200 51.28200 23.86600
C  15.05800 52.82000 21.26200
C  18.78100 52.05200 21.78000
C  19.66900 53.15700 22.45700
N  17.90400 50.55500 26.77700
C  18.66200 50.06900 25.72700
C  19.83800 49.37400 26.29100
C  19.65100 49.42400 27.65600
C  18.54400 50.26300 27.92400
C  20.95500 48.71100 25.48000
C  20.19500 49.01900 28.89600
O  21.16000 48.26500 29.04400
C  19.40100 49.68600 30.06000
C  18.78000 48.49200 30.81600
O  18.32500 47.46100 30.32500
O  18.97000 48.73600 32.21200
C  18.41600 47.67200 32.94800
H  13.27300 52.96900 29.90600
H  14.23500 54.17200 23.58000
H  19.03200 49.98700 23.58600
H  16.74100 50.20900 31.60000
H  14.98600 52.68800 31.59400
H  13.65200 51.07100 32.58300
H  14.60800 49.80200 32.08000
H  13.40900 50.47400 30.86500
H  17.15700 53.21100 32.05200
H  18.53900 52.34100 31.60500
H  18.87900 51.85000 33.71800
H  17.48600 50.77600 33.79500
H  11.70800 55.00300 28.84700
H  11.13900 53.36600 28.66300
H  10.52400 54.51500 27.53500
H  10.04300 55.50300 25.69800
H  10.75500 56.87400 24.87600
H  11.26900 56.60500 26.45600
H  16.75900 53.75600 22.11200
H  16.92000 50.81500 21.82900
H  15.34300 52.14500 20.45500
H  14.90700 53.81500 20.84300
H  14.10700 52.47000 21.66400
H  18.71000 52.28900 20.71800
H  19.39600 51.16100 21.65200
H  19.51000 54.13400 22.00200
H  20.68800 52.78400 22.34500
H  19.46000 53.19700 23.52600
H  21.57200 49.47700 25.01000
H  20.51300 48.02200 24.76100
H  21.59700 48.00200 26.00400
H  19.98100 50.31400 30.73700
H  18.61900 46.71700 32.46300
H  17.36400 47.82800 33.18700
H  19.04800 47.54800 33.82700

