158

Mg 0.19200 7.98600 26.65800
C  0.74000 10.17900 29.32400
C  0.28600 5.31700 28.96800
C  -0.20200 5.83000 24.10800
C  0.45200 10.61400 24.41300
N  0.53000 7.81300 28.89600
C  0.62800 8.85200 29.78000
C  0.78800 8.35700 31.21500
C  0.67300 6.79300 30.99000
C  0.48900 6.61800 29.51900
C  1.79800 5.86100 31.62000
C  -0.34400 8.90400 32.09500
C  0.01400 9.26200 33.54700
H  -0.69900 8.45300 34.61800
N  0.16900 5.83300 26.52000
C  0.14700 4.93300 27.58500
C  -0.01600 3.56300 27.09000
C  -0.25300 3.67900 25.70900
C  -0.13500 5.13900 25.33900
C  -0.15400 2.36900 27.89900
C  -0.68900 2.58800 24.66800
O  -1.24700 2.90000 23.59800
C  -0.58800 1.09200 25.04400
N  0.13000 8.17700 24.60900
C  -0.00300 7.18700 23.76700
C  -0.12700 7.71000 22.27000
C  -0.17700 9.22500 22.43800
C  0.04400 9.39100 23.93700
C  0.96300 7.22600 21.27800
C  -1.59300 9.87300 22.02400
C  -1.56400 11.17100 21.14300
N  0.52400 9.96800 26.80200
C  0.73200 10.89800 25.79900
C  1.18900 12.19100 26.41600
C  1.11100 11.89800 27.75200
C  0.71900 10.56500 27.98400
C  1.60600 13.44300 25.77000
C  1.29800 12.57600 29.01900
O  1.63100 13.74800 29.30800
C  1.11500 11.43600 30.14000
C  2.37100 11.25300 30.96400
O  3.50700 10.96400 30.54300
O  2.12800 11.56100 32.23000
C  3.27000 11.44200 33.21600
H  0.31800 4.51400 29.70800
H  -0.40200 5.13700 23.28700
H  0.58800 11.45500 23.72900
H  1.78000 8.66400 31.54900
H  -0.30100 6.47000 31.36000
H  1.28300 5.09700 32.20300
H  2.50500 6.32900 32.30400
H  2.31300 5.44600 30.75400
H  -1.21200 8.24500 32.11500
H  -0.69700 9.85000 31.68400
H  -0.19300 10.31800 33.72100
H  1.07800 9.09400 33.71500
H  -1.20200 2.22000 28.15800
H  0.37700 2.59800 28.82300
H  0.35500 1.47700 27.53300
H  0.28800 0.78700 25.61600
H  -0.66000 0.53900 24.10700
H  -1.51900 0.89400 25.57500
H  -1.10800 7.39000 21.91800
H  0.61400 9.72100 21.87600
H  1.25800 8.00700 20.57700
H  0.49600 6.39600 20.74800
H  1.79800 6.84900 21.86800
H  -2.13800 10.10000 22.94100
H  -2.22200 9.17900 21.46700
H  -0.57400 11.58700 20.95600
H  -2.05500 12.01800 21.62400
H  -2.09200 10.98300 20.20800
H  2.22700 13.11000 24.93900
H  2.19600 14.10900 26.39900
H  0.72600 14.00500 25.45500
H  0.31600 11.81800 30.77500
H  2.94800 11.46600 34.25700
H  3.95600 12.28300 33.11800
H  3.82100 10.51100 33.07800
Mg 41.70400 9.36200 29.98600
C  43.43500 10.61000 32.81700
C  39.36300 8.16300 32.03900
C  40.27000 8.25500 27.27200
C  44.54900 10.24800 28.00900
N  41.50600 9.30800 32.19300
C  42.27100 9.93300 33.17100
C  41.66000 9.78800 34.56800
C  40.44700 8.78700 34.33700
C  40.42600 8.63300 32.77900
C  40.61100 7.42300 35.13100
C  41.31100 11.19500 35.27100
C  40.43700 11.10300 36.44000
H  40.78200 11.95800 37.60900
N  39.98400 8.33000 29.68400
C  39.12100 7.96700 30.60600
C  37.95200 7.46500 29.91200
C  38.17400 7.41300 28.50200
C  39.51500 8.00400 28.40900
C  36.71400 7.03000 30.65800
C  37.33600 6.97600 27.35900
O  37.69400 7.13500 26.17900
C  35.99000 6.50000 27.55300
N  42.37900 9.03500 27.99700
C  41.55600 8.62500 27.04900
C  42.14500 8.77000 25.66300
C  43.49600 9.32100 25.91100
C  43.53300 9.51900 27.42900
C  42.19100 7.39300 24.84600
C  43.83800 10.57400 25.13600
C  43.24300 11.92900 25.59200
N  43.58500 10.24400 30.26100
C  44.62100 10.54800 29.36000
C  45.58800 11.29900 30.00800
C  45.22600 11.25700 31.35900
C  44.00000 10.61800 31.48700
C  46.80400 11.88200 29.39300
C  45.58900 11.77700 32.62500
O  46.61600 12.30800 32.94900
C  44.43800 11.39500 33.63400
C  45.10900 10.79300 34.80600
O  45.81700 9.79700 34.73100
O  44.52800 11.23200 36.04100
C  44.88100 10.44400 37.30100
H  38.51900 7.96600 32.70400
H  39.62000 8.15800 26.39900
H  45.37000 10.65600 27.41700
H  42.44400 9.34400 35.18100
H  39.47100 9.18800 34.60900
H  41.59700 7.40900 35.59500
H  40.48900 6.62600 34.39800
H  39.86000 7.25400 35.90200
H  40.97000 11.95900 34.57300
H  42.22400 11.62700 35.68100
H  40.35600 10.06400 36.75700
H  39.43700 11.35900 36.09100
H  36.82900 7.11900 31.73800
H  36.56300 5.99800 30.34100
H  35.82900 7.52900 30.26600
H  35.45600 6.55000 26.60400
H  35.42400 7.12300 28.24600
H  35.90500 5.47400 27.91400
H  41.52800 9.50700 25.14800
H  44.28400 8.60000 25.69100
H  41.63400 6.61800 25.37300
H  43.21000 7.04100 24.68800
H  41.61100 7.61800 23.95100
H  43.95900 10.34300 24.07700
H  44.91500 10.71500 25.22300
H  42.21400 11.94100 25.95100
H  43.26700 12.58600 24.72200
H  43.79600 12.28100 26.46200
H  46.49800 12.66300 28.69700
H  47.40100 11.07500 28.97000
H  47.34800 12.35300 30.21200
H  44.01800 12.34400 33.96800
H  44.40800 10.80100 38.21600
H  45.95300 10.55900 37.46200
H  44.61600 9.39500 37.17000

