158

Mg 16.83400 -1.97400 27.42700
C  16.13000 0.36500 30.05600
C  18.83000 -3.71800 29.63500
C  18.14000 -3.69500 24.78200
C  15.44600 0.40600 25.25000
N  17.48800 -1.63400 29.63800
C  16.90200 -0.75100 30.54200
C  17.28100 -1.16300 31.94900
C  18.17800 -2.43600 31.79900
C  18.17900 -2.61500 30.28600
C  19.53500 -2.53500 32.57800
C  15.98800 -1.49900 32.72400
C  15.93700 -1.32300 34.27800
H  17.24900 -0.76500 34.91000
N  17.99800 -3.61700 27.26600
C  18.71900 -4.22600 28.27500
C  19.33700 -5.49500 27.87200
C  19.08900 -5.49100 26.40300
C  18.38000 -4.19800 26.08800
C  20.06900 -6.56200 28.79700
C  19.51700 -6.60800 25.42000
O  19.21500 -6.55000 24.22400
C  20.15100 -7.79700 25.91500
N  16.80200 -1.66800 25.35200
C  17.42100 -2.51700 24.45500
C  17.28600 -2.09000 22.90600
C  16.48900 -0.75400 23.15600
C  16.16100 -0.64100 24.67300
C  18.68800 -1.85900 22.16100
C  15.18500 -0.45600 22.30900
C  13.97800 -1.33300 22.66000
N  15.91000 0.00200 27.55200
C  15.36200 0.78500 26.56700
C  14.75900 1.96800 27.15700
C  15.03600 1.86100 28.53400
C  15.75500 0.63000 28.74700
C  14.03600 3.06500 26.46900
C  14.90600 2.43200 29.86200
O  14.47200 3.54100 30.17600
C  15.51700 1.46800 30.86100
C  16.47300 2.14400 31.87200
O  17.67400 2.38000 31.72000
O  15.78700 2.57500 32.97400
C  16.46300 3.49100 33.86200
H  19.32400 -4.29500 30.42000
H  18.56400 -4.25500 23.94600
H  15.05400 1.17100 24.57700
H  17.87700 -0.32100 32.30000
H  17.70500 -3.26800 32.32100
H  19.50500 -3.08500 33.51900
H  19.72800 -1.50800 32.88600
H  20.34200 -2.92800 31.95900
H  15.72900 -2.55300 32.62800
H  15.16000 -0.95400 32.27000
H  15.78900 -2.28700 34.76400
H  15.13900 -0.66600 34.62400
H  19.64100 -7.56500 28.79600
H  20.03000 -6.31000 29.85700
H  21.12000 -6.56100 28.50900
H  21.17600 -7.65800 26.25900
H  20.43200 -8.44200 25.08300
H  19.45100 -8.29800 26.58400
H  16.59400 -2.69000 22.31600
H  17.14200 0.07600 22.88700
H  19.05800 -0.83500 22.11000
H  18.71400 -2.19300 21.12400
H  19.51000 -2.40500 22.62500
H  15.35200 -0.46700 21.23200
H  14.95600 0.58000 22.55900
H  13.23000 -0.66700 23.09100
H  14.09800 -2.13700 23.38500
H  13.60200 -1.66100 21.69100
H  13.71700 2.70400 25.49200
H  14.71000 3.91300 26.35000
H  13.16300 3.25400 27.09500
H  14.68800 1.03100 31.41700
H  16.84900 4.29900 33.24100
H  17.30200 3.03500 34.38800
H  15.71200 3.94100 34.51200
Mg 54.67400 22.91600 45.10100
C  52.40500 25.15000 43.73700
C  52.50300 20.31600 44.04900
C  57.10800 20.69200 45.57800
C  56.78800 25.62100 45.83100
N  52.74700 22.85800 44.06700
C  51.98700 23.83600 43.59100
C  50.65000 23.36000 43.00100
C  50.52000 21.87100 43.57500
C  52.04200 21.66900 43.95900
C  49.53700 21.67200 44.78300
C  50.47000 23.47200 41.47800
C  49.08700 23.88400 40.96600
H  48.59000 23.21100 39.66600
N  54.82200 20.75200 44.84200
C  53.84800 19.92000 44.34600
C  54.34600 18.55900 44.41600
C  55.73300 18.63100 44.91800
C  55.97000 20.08700 45.13900
C  53.59500 17.40400 43.82100
C  56.59800 17.45200 45.08900
O  56.23200 16.32300 44.76400
C  58.05900 17.61900 45.42700
N  56.79200 23.15000 45.36800
C  57.51600 22.05300 45.74100
C  58.80400 22.50700 46.46900
C  58.60500 24.08800 46.70100
C  57.36600 24.34200 45.77700
C  59.25400 21.76000 47.78800
C  59.83900 24.99600 46.30300
C  60.48200 25.80800 47.45700
N  54.59800 25.05500 45.01400
C  55.51400 26.05700 45.29300
C  54.85300 27.25200 45.23200
C  53.64500 26.94100 44.60400
C  53.59400 25.59800 44.41500
C  55.25600 28.62800 45.62500
C  52.44000 27.54900 44.10100
O  52.03100 28.72000 43.97500
C  51.63100 26.41800 43.50300
C  51.56400 26.73600 42.08100
O  52.50600 26.68400 41.33900
O  50.34700 27.22100 41.75500
C  50.24500 27.53300 40.29800
H  51.78400 19.49500 44.06700
H  57.97100 20.05900 45.79400
H  57.32900 26.52200 46.12800
H  49.82900 23.92600 43.44100
H  50.22200 21.11000 42.85300
H  49.94800 21.04000 45.57100
H  48.60500 21.17000 44.52200
H  49.35700 22.65100 45.22700
H  50.66800 22.52700 40.97200
H  51.19200 24.21200 41.13500
H  48.90800 24.92300 40.68700
H  48.38300 23.68000 41.77200
H  52.78500 17.70900 43.15800
H  53.26500 16.67600 44.56300
H  54.32400 16.95400 43.14700
H  58.60700 18.19900 44.68400
H  58.52900 16.64100 45.32800
H  58.25100 17.90900 46.46000
H  59.67500 22.38800 45.82500
H  58.33000 24.31500 47.73100
H  59.40700 22.45000 48.61800
H  60.23000 21.29700 47.64900
H  58.54300 20.97100 48.03300
H  59.66100 25.69900 45.48900
H  60.63300 24.35400 45.92200
H  60.37900 26.86500 47.21300
H  61.52600 25.62100 47.71100
H  59.89900 25.65800 48.36500
H  55.36200 28.72000 46.70600
H  54.51100 29.32800 45.24600
H  56.22900 28.87600 45.20200
H  50.63200 26.43500 43.93700
H  51.02600 28.15600 39.86300
H  49.30300 27.89700 39.88700
H  50.33800 26.58400 39.76900

