158

Mg 26.48300 50.93100 26.31000
C  24.71700 52.06500 28.92000
C  28.73800 49.70500 28.39300
C  28.00600 49.81900 23.66400
C  24.21600 52.73100 24.08900
N  26.86400 51.18800 28.47000
C  25.82200 51.40800 29.37000
C  26.16200 50.87800 30.82300
C  27.59700 50.32500 30.68300
C  27.76600 50.41900 29.07700
C  28.69100 51.06500 31.52300
C  25.08200 49.99200 31.46100
C  24.48000 50.26600 32.83000
H  25.51300 50.91100 33.71700
N  28.14300 49.86200 26.04200
C  28.99300 49.48000 26.99100
C  30.07500 48.79600 26.38600
C  29.79000 48.67800 25.03500
C  28.59600 49.43300 24.84700
C  31.23300 48.19300 27.31400
C  30.49100 47.75100 24.06500
O  30.06700 47.62700 22.93500
C  31.69100 46.88800 24.50600
N  26.32800 51.49000 24.13000
C  27.01100 50.71400 23.21600
C  26.54200 50.86100 21.75900
C  25.28500 51.74300 21.98800
C  25.24600 52.04100 23.48700
C  27.61600 51.38200 20.77000
C  23.95200 51.05000 21.63400
C  22.74900 51.89300 21.15100
N  24.92100 52.24200 26.37900
C  24.07900 52.88900 25.46100
C  23.01100 53.60600 26.16200
C  23.25100 53.28600 27.48000
C  24.41000 52.48900 27.59200
C  21.90400 54.51400 25.61700
C  22.70300 53.41500 28.79400
O  21.78100 53.95200 29.35300
C  23.72600 52.67300 29.80500
C  24.23900 53.86000 30.55700
O  25.17800 54.54700 30.16000
O  23.49200 54.01200 31.71300
C  24.17900 54.81800 32.69200
H  29.37500 49.12000 29.05900
H  28.49500 49.31500 22.82700
H  23.53500 53.15700 23.34900
H  26.33500 51.77900 31.41100
H  27.56100 49.29800 31.04700
H  29.33500 50.43800 32.14000
H  28.28600 51.79100 32.22800
H  29.29200 51.70800 30.88000
H  25.43100 48.96400 31.35800
H  24.23100 50.11100 30.79000
H  24.17000 49.32400 33.28300
H  23.60800 50.92000 32.81400
H  31.21300 48.36000 28.39100
H  32.21000 48.60200 27.05800
H  31.13100 47.11300 27.21100
H  31.26800 46.07100 25.09000
H  32.54700 47.37300 24.97600
H  32.04200 46.50600 23.54700
H  26.21000 49.88700 21.39800
H  25.43600 52.71200 21.51300
H  28.56300 51.28600 21.30000
H  27.37500 52.41100 20.50200
H  27.58200 50.82800 19.83100
H  23.65100 50.36300 22.42500
H  24.26100 50.40600 20.81100
H  22.46400 51.58500 20.14500
H  22.94900 52.96400 21.18900
H  21.90900 51.67000 21.80800
H  21.34100 54.06400 24.79900
H  22.45500 55.35900 25.20400
H  21.35600 54.69200 26.54200
H  23.22900 52.01200 30.51500
H  23.57000 55.03600 33.57000
H  24.48700 55.76400 32.24700
H  25.11300 54.36200 33.01900
Mg 16.39300 53.15600 27.00500
C  18.59200 51.64300 29.20300
C  14.22400 53.63700 29.66200
C  14.29900 54.37300 24.82900
C  18.67000 52.37400 24.42600
N  16.43200 52.70200 29.16800
C  17.46500 52.13000 29.82800
C  17.20600 52.23100 31.36800
C  15.68000 52.30200 31.39400
C  15.35700 52.88000 29.97700
C  15.01000 50.82500 31.65600
C  17.98900 53.40000 32.09300
C  18.23300 53.10400 33.60000
H  17.19500 52.23400 34.40600
N  14.62200 54.08900 27.25900
C  13.86700 54.21800 28.40400
C  12.63000 54.88100 28.08700
C  12.71200 55.25400 26.67000
C  13.91100 54.55600 26.20500
C  11.64500 55.39300 29.14900
C  11.73500 56.17700 25.79100
O  12.00800 56.52400 24.64700
C  10.49600 56.71500 26.46800
N  16.42300 53.29200 24.92800
C  15.37000 53.82600 24.18500
C  15.73200 54.05100 22.66500
C  17.17900 53.41700 22.69400
C  17.45100 53.00800 24.13200
C  14.86300 53.24300 21.62400
C  18.28800 54.27400 21.90100
C  19.44000 54.79300 22.72600
N  18.29500 52.12100 26.79000
C  19.05100 51.75900 25.65900
C  20.17300 51.01100 26.04500
C  20.03900 50.94800 27.42700
C  18.84800 51.64100 27.83200
C  21.18800 50.45800 25.08100
C  20.65000 50.37100 28.64100
O  21.51100 49.54500 28.79100
C  19.75600 50.92600 29.83900
C  19.36300 49.83200 30.77800
O  18.51100 48.99200 30.51700
O  19.96700 49.95700 31.97100
C  19.57500 48.98700 32.99000
H  13.48300 53.75600 30.45600
H  13.53800 54.71900 24.12700
H  19.38500 52.25000 23.61000
H  17.48100 51.30200 31.86700
H  15.25500 52.92700 32.17900
H  15.73300 50.12300 32.07300
H  14.75500 50.44300 30.66700
H  14.18300 50.99800 32.34400
H  17.37700 54.27900 31.88800
H  18.95400 53.51000 31.59800
H  18.39600 54.07700 34.06300
H  19.18400 52.58600 33.72000
H  11.64000 56.48100 29.22800
H  11.93500 55.00600 30.12600
H  10.61500 55.10200 28.93900
H  10.02600 57.40400 25.76600
H  10.93100 57.30500 27.27500
H  9.88400 55.86200 26.76100
H  15.80300 55.11200 22.42200
H  17.13100 52.43800 22.21700
H  15.14600 52.19100 21.60800
H  14.91800 53.68100 20.62800
H  13.84700 53.34600 22.00600
H  17.79300 55.11400 21.41300
H  18.80900 53.69200 21.14100
H  19.11200 54.85300 23.76400
H  19.75000 55.82900 22.58800
H  20.36900 54.22200 22.72600
H  21.28400 49.38400 25.23900
H  22.12300 51.01400 25.14600
H  20.78500 50.57700 24.07500
H  20.40300 51.62900 30.36300
H  18.57500 49.22400 33.35600
H  20.33200 49.09900 33.76600
H  19.62100 47.94900 32.66300

