158

Mg 1.60000 -1.60300 43.94000
C  5.08400 -1.09000 43.76800
C  1.14900 1.37600 42.20300
C  -1.62500 -2.39100 43.51100
C  2.24600 -4.79500 45.15500
N  2.93300 0.05200 43.24300
C  4.33100 0.05200 43.20700
C  4.89200 1.29500 42.58100
C  3.54000 2.11200 42.32600
C  2.43200 1.06700 42.58300
C  3.38300 3.40700 43.11400
C  5.77400 0.88600 41.39700
C  5.24400 0.04300 40.27200
H  5.67800 0.36000 38.85800
N  -0.05600 -0.61600 42.99900
C  -0.00900 0.59400 42.26700
C  -1.38000 0.88900 41.81200
C  -2.19400 -0.13100 42.28000
C  -1.29500 -1.15600 42.95400
C  -1.77100 2.24100 41.14000
C  -3.74500 -0.00600 42.25300
O  -4.25400 1.04700 41.81700
C  -4.67000 -1.01700 42.93300
N  0.49100 -3.38800 44.20200
C  -0.82900 -3.33200 44.09000
C  -1.50600 -4.66200 44.56500
C  -0.25700 -5.39300 45.19800
C  0.92200 -4.48300 44.83100
C  -2.73300 -4.44000 45.61800
C  -0.01500 -6.91200 44.80600
C  0.03300 -7.76900 46.12000
N  3.29800 -2.72500 44.53300
C  3.41900 -4.02300 44.95600
C  4.77100 -4.27900 45.36600
C  5.49600 -3.15200 44.89400
C  4.53600 -2.28200 44.31200
C  5.32700 -5.50000 46.00400
C  6.76400 -2.54800 44.80900
O  7.86300 -2.99600 45.15100
C  6.53600 -1.19600 44.08400
C  7.01600 -0.11300 44.96000
O  6.58300 0.18200 46.04000
O  8.04100 0.55000 44.25400
C  8.39600 1.87600 44.72900
H  1.13000 2.31700 41.65000
H  -2.66000 -2.73700 43.52800
H  2.57500 -5.79200 45.45500
H  5.50900 1.82800 43.30400
H  3.56800 2.31500 41.25500
H  4.31800 3.91200 43.35700
H  2.83900 3.16800 44.02800
H  2.79000 4.12200 42.54400
H  6.73600 0.53400 41.77100
H  5.98600 1.82700 40.88900
H  4.15800 0.10200 40.34900
H  5.60400 -0.94600 40.55400
H  -2.13600 2.98500 41.84700
H  -2.49700 2.14200 40.33300
H  -0.85800 2.64600 40.70200
H  -5.64400 -0.81800 42.48600
H  -4.64200 -0.75500 43.99000
H  -4.29000 -2.02900 42.79100
H  -1.83700 -5.23000 43.69500
H  -0.27900 -5.31700 46.28600
H  -2.56300 -5.02300 46.52300
H  -3.72500 -4.62800 45.20800
H  -2.73300 -3.37700 45.86100
H  0.89700 -7.06600 44.22900
H  -0.85200 -7.25200 44.19600
H  -0.79400 -8.47800 46.10700
H  -0.05000 -7.14700 47.01100
H  0.96500 -8.33000 46.05400
H  4.53000 -6.17400 46.31500
H  5.89500 -5.33800 46.92100
H  6.01600 -5.94800 45.28800
H  7.22200 -1.30500 43.24400
H  9.08300 1.98200 45.56800
H  7.51200 2.47100 44.95800
H  8.98000 2.45100 44.01000
Mg -5.03600 24.99700 26.12000
C  -3.77400 26.21300 29.09200
C  -7.07200 22.82100 27.95600
C  -6.06500 23.45700 23.25800
C  -2.90800 26.95500 24.31300
N  -5.32200 24.61100 28.28800
C  -4.78100 25.37500 29.30200
C  -5.28400 24.94200 30.67300
C  -6.14500 23.66800 30.23400
C  -6.19700 23.69900 28.74100
C  -5.67100 22.28800 30.82600
C  -6.12400 26.09700 31.42300
C  -6.19100 26.02800 32.95600
H  -5.53100 24.78300 33.66800
N  -6.45200 23.47800 25.65100
C  -7.23500 22.74800 26.56500
C  -8.08200 21.79900 25.86100
C  -7.81300 22.03400 24.53400
C  -6.70600 22.97500 24.41800
C  -9.19700 21.01700 26.46600
C  -8.60600 21.36500 23.44100
O  -8.18900 21.50000 22.29500
C  -9.87000 20.62000 23.62400
N  -4.52600 25.14000 24.05000
C  -5.09700 24.41000 23.07200
C  -4.38000 24.71500 21.68300
C  -3.60500 25.99700 22.01400
C  -3.61700 26.02200 23.55800
C  -3.48200 23.52400 21.16200
C  -4.19700 27.32800 21.43600
C  -3.28400 28.12700 20.43000
N  -3.52500 26.23100 26.57100
C  -2.84700 27.14700 25.71000
C  -2.02500 27.97700 26.59200
C  -2.40300 27.69200 27.90100
C  -3.22400 26.52600 27.85900
C  -1.06500 29.05600 26.20600
C  -2.15400 28.02500 29.26900
O  -1.50600 28.95800 29.77900
C  -3.04300 27.04300 30.11000
C  -2.09300 26.38400 31.09600
O  -1.26100 25.52400 30.85800
O  -2.27800 26.93000 32.29500
C  -1.54500 26.49600 33.46800
H  -7.73900 22.22700 28.58400
H  -6.35300 22.98300 22.31700
H  -2.34700 27.77900 23.86700
H  -4.35300 24.70300 31.18600
H  -7.20500 23.81600 30.44400
H  -6.45800 21.65800 31.24000
H  -5.00500 22.49500 31.66300
H  -5.22400 21.67000 30.04700
H  -7.14800 26.18500 31.06000
H  -5.73900 27.08900 31.18400
H  -7.24700 25.97000 33.21900
H  -5.71000 26.90300 33.39300
H  -9.07900 21.06000 27.54900
H  -9.12000 19.94200 26.30500
H  -10.19600 21.40400 26.26500
H  -9.70600 19.65700 24.10800
H  -10.30100 20.47700 22.63400
H  -10.62900 21.04500 24.28000
H  -5.07800 24.99500 20.89400
H  -2.55300 25.82200 21.79000
H  -4.02300 23.31600 20.23900
H  -3.57400 22.68500 21.85000
H  -2.41200 23.71700 21.07500
H  -4.41800 28.04100 22.23000
H  -5.13700 27.05100 20.96000
H  -3.55800 28.08500 19.37600
H  -2.27900 27.70400 20.44400
H  -3.31200 29.19400 20.64800
H  -0.69300 28.87800 25.19700
H  -0.20800 29.19700 26.86400
H  -1.59900 30.00300 26.12000
H  -3.77300 27.61600 30.68200
H  -1.37900 27.29800 34.18800
H  -0.67500 25.92100 33.15200
H  -2.10500 25.72200 33.99200

