158

Mg 50.06900 46.42900 43.80800
C  46.99800 47.42500 42.41400
C  49.61600 43.43800 41.92200
C  53.37000 45.78400 44.00000
C  50.45900 49.67800 44.83000
N  48.41100 45.50400 42.45800
C  47.30500 46.12200 42.01500
C  46.47700 45.24500 41.01400
C  47.16000 43.83700 41.28500
C  48.45800 44.20200 42.02200
C  46.26100 42.71500 41.97300
C  46.64100 45.93400 39.61700
C  45.25000 46.12900 38.89000
H  45.01100 44.94200 37.89100
N  51.26300 44.75400 43.24700
C  50.95500 43.65300 42.40500
C  52.03500 42.72000 42.44300
C  53.13700 43.44200 42.96300
C  52.62600 44.74400 43.40300
C  52.02500 41.34100 41.80500
C  54.55300 42.90800 43.05400
O  54.78200 41.80800 42.61300
C  55.68900 43.64400 43.58700
N  51.69600 47.54000 44.33300
C  52.95200 47.04600 44.38800
C  53.90800 48.11600 44.96700
C  52.93800 49.32900 45.32900
C  51.61500 48.87700 44.82000
C  54.72500 47.68800 46.13600
C  53.34600 50.67300 44.59200
C  53.32500 51.83000 45.48000
N  48.96200 48.20500 43.90300
C  49.18500 49.45600 44.37100
C  48.02500 50.33400 44.19700
C  47.11400 49.51000 43.52700
C  47.78300 48.26400 43.30100
C  47.83100 51.78000 44.58900
C  45.83400 49.50400 42.76900
O  44.93600 50.34700 42.66400
C  45.68900 48.15900 42.10100
C  44.46200 47.51900 42.60000
O  44.37400 46.81300 43.55300
O  43.51300 47.72900 41.68000
C  42.25000 46.95900 41.95700
H  49.40700 42.65400 41.19100
H  54.44300 45.63400 44.13800
H  50.66000 50.69200 45.18200
H  45.42900 45.30200 41.30700
H  47.47100 43.48400 40.30100
H  46.80100 42.40500 42.86800
H  46.04700 41.85400 41.34000
H  45.32200 43.21800 42.20600
H  47.26100 45.25400 39.03400
H  47.28100 46.81600 39.65800
H  45.24700 47.14000 38.48300
H  44.43600 46.04100 39.60900
H  51.01000 41.07700 41.50900
H  52.37400 40.57400 42.49600
H  52.65800 41.33700 40.91800
H  56.63700 43.10700 43.56200
H  55.47600 43.98200 44.60100
H  55.72900 44.54900 42.98200
H  54.55600 48.29000 44.10800
H  52.72600 49.52600 46.38000
H  54.52900 48.09100 47.12900
H  55.76000 47.95900 45.92600
H  54.80500 46.60100 46.11500
H  52.66400 50.93100 43.78200
H  54.34600 50.58100 44.16900
H  53.15300 51.58500 46.52700
H  52.52100 52.53700 45.27400
H  54.23100 52.42400 45.35900
H  46.77300 52.04100 44.54300
H  48.46800 52.27700 43.85700
H  48.12000 52.07700 45.59700
H  45.71000 48.25400 41.01600
H  41.63300 46.96300 41.05900
H  41.71400 47.42700 42.78200
H  42.48200 45.91400 42.16200
Mg 17.64000 52.64300 26.40100
C  19.69900 51.31800 28.92000
C  15.24500 53.29700 28.85200
C  15.81700 53.97300 24.07000
C  19.99100 51.80200 24.06400
N  17.49400 52.19100 28.72900
C  18.45000 51.69000 29.49700
C  18.13100 51.91100 31.00900
C  16.56200 52.19500 30.95300
C  16.35700 52.58000 29.40300
C  15.65500 51.02100 31.41500
C  19.10700 53.08200 31.56200
C  19.43000 52.96200 33.09500
H  18.52700 52.16500 34.13400
N  15.89200 53.61800 26.52500
C  14.99200 53.77200 27.49300
C  13.92400 54.64100 27.13100
C  13.98700 54.71800 25.72100
C  15.32700 54.07500 25.37500
C  12.89100 55.10300 28.15300
C  13.00000 55.32100 24.75400
O  13.24400 55.42300 23.58200
C  11.80900 56.09800 25.20500
N  18.01100 53.04300 24.31500
C  16.97000 53.43300 23.55700
C  17.32100 53.39400 22.02400
C  18.76100 52.83900 22.10700
C  18.98600 52.58400 23.60800
C  16.25300 52.50000 21.27400
C  19.88300 53.81500 21.46500
C  20.72700 54.69200 22.35300
N  19.40000 51.70400 26.41300
C  20.25600 51.40800 25.38200
C  21.46200 50.74200 25.89800
C  21.30300 50.71500 27.25900
C  19.99400 51.33500 27.50900
C  22.62500 50.27800 25.05900
C  21.89900 50.28200 28.48500
O  22.95200 49.72200 28.64100
C  20.91600 50.72000 29.61700
C  20.51700 49.63500 30.55100
O  20.10900 48.58500 30.20200
O  20.87100 49.98000 31.83800
C  20.64000 48.92600 32.76800
H  14.43200 53.45700 29.56400
H  15.14600 54.44000 23.34600
H  20.70700 51.52200 23.28900
H  18.30400 50.97400 31.53700
H  16.22700 53.03900 31.55600
H  14.73900 51.35200 31.90300
H  16.21000 50.47600 32.17900
H  15.47100 50.33300 30.58900
H  18.47400 53.95300 31.38900
H  19.93700 53.22100 30.87000
H  19.68900 53.96400 33.43600
H  20.41600 52.49600 33.10800
H  13.60000 55.30100 28.95600
H  12.21000 54.28100 28.37100
H  12.33800 56.00300 27.88200
H  11.17200 55.56800 25.91300
H  11.29500 56.47200 24.31900
H  12.22600 56.94000 25.75800
H  17.27500 54.41200 21.63800
H  18.78300 51.88200 21.58600
H  15.62400 52.00600 22.01400
H  16.81800 51.71000 20.77900
H  15.68500 53.01700 20.50000
H  19.39600 54.36200 20.65800
H  20.56800 53.15200 20.93600
H  20.73300 55.70500 21.95100
H  21.76800 54.38100 22.43300
H  20.36200 54.77600 23.37700
H  22.61400 49.20500 24.87000
H  23.54700 50.54900 25.57300
H  22.62600 50.79400 24.09800
H  21.43300 51.50900 30.16400
H  20.78500 49.28300 33.78800
H  21.27800 48.05700 32.61000
H  19.60300 48.59900 32.69200

