158

Mg 3.47600 1.06200 44.35200
C  6.22600 3.25800 43.84700
C  1.53200 3.50200 42.71100
C  1.15700 -1.22200 43.80600
C  5.84900 -1.39100 45.26100
N  3.88500 3.03000 43.26000
C  5.00100 3.71500 43.36900
C  4.81500 5.11200 42.74300
C  3.31700 5.26900 42.80600
C  2.85800 3.86100 42.85700
C  2.74800 6.11300 43.97300
C  5.35500 5.25500 41.34200
C  5.42400 3.96700 40.51300
H  5.67000 4.10400 39.01400
N  1.59200 1.16000 43.52700
C  0.94400 2.25000 42.99900
C  -0.44700 1.93100 42.85600
C  -0.58400 0.54400 43.17200
C  0.75600 0.07400 43.57300
C  -1.43600 2.91800 42.29900
C  -1.90300 -0.26500 43.15100
O  -2.94900 0.22000 42.77400
C  -1.95900 -1.67600 43.41600
N  3.59100 -1.03100 44.38900
C  2.44600 -1.78500 44.16600
C  2.57600 -3.30900 44.57400
C  3.99400 -3.26300 45.23700
C  4.60300 -1.87600 44.90300
C  1.44100 -3.80100 45.50500
C  4.82400 -4.50300 44.86100
C  5.43200 -5.25100 45.99800
N  5.66100 0.95000 44.56500
C  6.44300 -0.13000 44.99300
C  7.82300 0.32900 44.94500
C  7.72100 1.69400 44.58200
C  6.43400 2.00900 44.30700
C  9.08400 -0.43800 45.44800
C  8.52600 2.87100 44.39800
O  9.76200 3.02400 44.44900
C  7.57600 3.92100 43.83800
C  7.63300 5.21900 44.58600
O  8.12200 6.27600 44.25600
O  6.94000 4.95300 45.79000
C  6.57500 6.20700 46.52500
H  0.85600 4.28000 42.34800
H  0.45700 -2.04000 43.62300
H  6.52100 -2.16900 45.62900
H  5.33200 5.90900 43.27700
H  2.81000 5.69300 41.93900
H  2.54900 7.15100 43.70700
H  3.38500 6.29400 44.83900
H  1.82100 5.76100 44.42500
H  6.31300 5.75500 41.48900
H  4.75100 5.94200 40.74900
H  4.45600 3.46700 40.55600
H  6.24600 3.31700 40.81200
H  -1.43100 2.98800 41.21100
H  -1.19100 3.91800 42.65700
H  -2.47900 2.70500 42.53400
H  -1.74100 -2.10700 44.39300
H  -1.40600 -2.11200 42.58300
H  -2.96400 -2.08900 43.32300
H  2.63400 -3.91000 43.66600
H  3.87100 -3.09100 46.30700
H  0.54200 -4.09400 44.96300
H  1.16000 -2.99200 46.18000
H  1.70000 -4.66700 46.11400
H  5.65300 -4.15300 44.24600
H  4.25600 -5.16200 44.20500
H  5.30300 -6.26600 45.62200
H  4.96800 -5.10100 46.97300
H  6.51900 -5.18800 46.04400
H  9.76100 -0.74400 44.65000
H  8.80100 -1.31800 46.02600
H  9.59900 0.12700 46.22500
H  8.06600 4.11200 42.88400
H  5.69400 5.92800 47.10300
H  6.43100 7.00700 45.79900
H  7.34200 6.40500 47.27400
Mg 34.89900 49.81300 25.48600
C  34.76600 47.89900 28.33500
C  33.27200 52.34300 27.27000
C  34.04700 51.30200 22.62900
C  35.67700 46.90900 23.66500
N  34.05300 50.07400 27.61200
C  34.19700 49.16500 28.57100
C  33.90800 49.84400 30.00800
C  33.13400 51.16800 29.57700
C  33.57300 51.20800 28.12700
C  31.61700 51.28300 29.77900
C  35.22000 50.12300 30.83800
C  35.14900 49.54800 32.29500
H  33.77600 49.45400 32.92400
N  34.03300 51.69900 25.00900
C  33.42500 52.55600 25.85100
C  32.96700 53.75200 25.10200
C  33.24100 53.42500 23.73700
C  33.79000 52.15800 23.71100
C  32.29500 54.91200 25.71700
C  32.94100 54.27600 22.41500
O  33.20600 53.85300 21.24900
C  32.38300 55.68800 22.64200
N  34.91200 49.20000 23.43300
C  34.48100 49.97200 22.48900
C  34.67500 49.29400 21.03600
C  35.45100 48.03800 21.45100
C  35.38800 48.08700 22.94300
C  33.39800 48.98200 20.18500
C  36.97200 48.00400 20.87900
C  38.11600 48.82800 21.61800
N  35.17900 47.76400 25.90100
C  35.45300 46.70200 25.08500
C  35.82100 45.60300 25.91700
C  35.57500 46.01900 27.21700
C  35.07000 47.32700 27.13500
C  36.34800 44.32500 25.40800
C  35.53200 45.57400 28.64300
O  35.82800 44.54000 29.21700
C  34.93100 46.80100 29.44100
C  33.77600 46.26600 30.18900
O  32.59600 46.12200 29.71900
O  34.12500 45.84900 31.44300
C  33.02000 45.44000 32.33300
H  32.79700 53.12800 27.86200
H  33.88300 51.67900 21.61700
H  35.97300 46.02000 23.10400
H  33.29000 49.12900 30.55000
H  33.61900 52.05200 29.99100
H  31.18400 51.49800 28.80200
H  31.55100 52.06200 30.53700
H  31.11900 50.38400 30.14200
H  35.37000 51.20300 30.84300
H  36.04700 49.77900 30.21700
H  35.63800 50.24200 32.97900
H  35.65100 48.58200 32.22900
H  31.21800 54.98500 25.57100
H  32.77100 55.81200 25.32800
H  32.40800 55.08600 26.78700
H  32.15700 56.20200 21.70800
H  33.15400 56.35300 23.03000
H  31.49900 55.65500 23.27800
H  35.30700 49.92200 20.40800
H  35.06300 47.10200 21.04800
H  33.54800 49.50900 19.24200
H  32.50500 49.43000 20.62200
H  33.18800 47.93900 19.94900
H  37.06200 48.27600 19.82700
H  37.27600 46.95800 20.85500
H  38.56800 48.31700 22.46800
H  37.62200 49.68600 22.07400
H  38.79500 49.32300 20.92300
H  37.31000 44.43700 24.90900
H  35.66700 43.79300 24.74400
H  36.68200 43.67000 26.21400
H  35.70700 47.11300 30.14000
H  32.19700 46.15200 32.38900
H  33.42400 45.23500 33.32400
H  32.54800 44.55500 31.90500

