158

Mg 36.74900 49.28100 25.95400
C  36.76600 47.43500 28.79700
C  35.32400 51.91700 27.74100
C  36.41700 51.00400 22.98900
C  38.23600 46.75100 24.20400
N  36.03200 49.52300 28.04100
C  36.23400 48.72400 29.08200
C  35.90300 49.30900 30.49000
C  35.30500 50.67700 30.03600
C  35.58600 50.73400 28.56000
C  33.74800 50.76400 30.42900
C  37.21500 49.45300 31.30000
C  37.31300 48.99300 32.77500
H  36.08700 48.86300 33.65500
N  35.95400 51.22200 25.44200
C  35.46000 52.15800 26.31800
C  35.10500 53.36500 25.61200
C  35.39700 53.08500 24.22000
C  35.94600 51.74000 24.17900
C  34.52600 54.57600 26.31400
C  35.21600 54.01600 23.02800
O  35.51400 53.59200 21.88700
C  34.69600 55.33500 23.19700
N  37.21600 48.93500 23.94100
C  37.00100 49.77500 22.86800
C  37.61400 49.27200 21.52400
C  38.44600 47.99700 21.96200
C  38.01100 47.95300 23.47600
C  36.48200 48.97300 20.48200
C  39.98000 48.09200 21.80500
C  40.67700 47.26800 20.66700
N  37.35700 47.47000 26.31700
C  37.92900 46.49600 25.56700
C  38.17800 45.30200 26.30300
C  37.68000 45.65300 27.56300
C  37.21700 46.96100 27.53100
C  38.80500 44.02900 25.71000
C  37.54300 45.08300 28.89400
O  37.70700 43.97900 29.39400
C  36.94100 46.24400 29.77700
C  35.63800 45.68900 30.30500
O  34.59500 45.57600 29.66400
O  35.85400 45.33700 31.58000
C  34.66700 45.19500 32.30900
H  34.90900 52.75100 28.31100
H  36.39600 51.39600 21.97000
H  38.71900 45.96300 23.62300
H  35.22100 48.70200 31.08600
H  35.83200 51.49000 30.53500
H  33.39400 50.01100 31.13300
H  33.17300 50.75000 29.50400
H  33.68600 51.71600 30.95700
H  37.65700 50.44900 31.30700
H  37.92700 48.83500 30.75200
H  37.96800 49.71400 33.26500
H  37.88000 48.06300 32.79200
H  33.82600 55.17600 25.73200
H  35.28500 55.26300 26.68700
H  33.82500 54.19900 27.05900
H  34.89800 55.89300 22.28200
H  35.13500 55.90600 24.01500
H  33.63200 55.15600 23.34800
H  38.33700 50.04400 21.26100
H  38.06200 47.07000 21.53600
H  36.50600 49.76400 19.73200
H  35.50100 49.01500 20.95500
H  36.64200 48.03300 19.95300
H  40.49300 47.73900 22.69900
H  40.21600 49.14300 21.64100
H  39.86200 46.82800 20.09200
H  41.28600 46.45800 21.06900
H  41.37800 47.80900 20.03100
H  39.28800 44.17900 24.74500
H  38.06900 43.28800 25.39700
H  39.61100 43.69700 26.36500
H  37.57500 46.39500 30.65100
H  33.79400 45.80400 32.07300
H  34.87500 45.46700 33.34400
H  34.47200 44.12900 32.20000
Mg 9.53600 46.76900 26.55100
C  7.58400 46.77400 29.49700
C  12.28000 47.72700 28.49900
C  11.38600 46.57900 23.81100
C  6.61300 46.05300 24.74000
N  9.83700 47.38700 28.73900
C  8.95500 47.13600 29.76600
C  9.63300 47.36000 31.06900
C  11.07000 48.06300 30.76700
C  11.07800 47.75200 29.24100
C  11.24300 49.52400 31.27500
C  9.80700 46.04600 31.91300
C  9.23100 46.15300 33.35200
H  9.48500 45.13900 34.34500
N  11.47000 47.15000 26.17700
C  12.46800 47.46500 27.10000
C  13.66900 47.70900 26.37300
C  13.41900 47.41000 25.01700
C  12.06900 47.04000 24.96900
C  15.01800 48.19200 27.02800
C  14.36200 47.60100 23.80100
O  14.01500 47.24000 22.67900
C  15.66100 48.39200 23.94000
N  9.05700 46.43500 24.57900
C  10.05300 46.31900 23.58500
C  9.43700 45.85200 22.21700
C  7.96300 45.38300 22.64200
C  7.85700 45.93300 24.08800
C  9.37900 46.85200 21.10500
C  7.68200 43.86600 22.41200
C  8.43400 43.01500 23.47100
N  7.49400 46.48100 26.94200
C  6.41700 46.30600 26.10300
C  5.14800 46.24100 26.83500
C  5.56800 46.34600 28.19500
C  7.00200 46.50800 28.20500
C  3.73800 46.13300 26.23900
C  5.07900 46.42200 29.59600
O  3.94200 46.40300 30.01800
C  6.38900 46.60100 30.51900
C  6.42600 45.33200 31.28100
O  7.05300 44.34000 30.87500
O  5.69100 45.44800 32.44800
C  5.90900 44.32500 33.37900
H  13.13100 48.09800 29.07400
H  11.94100 46.48400 22.87500
H  5.68700 45.71400 24.27200
H  8.99600 48.10100 31.55200
H  11.90400 47.53700 31.23200
H  11.86900 49.61000 32.16300
H  10.23900 49.82800 31.57200
H  11.68000 50.19300 30.53400
H  10.83900 45.69600 31.91900
H  9.39600 45.16400 31.42000
H  8.16800 46.27000 33.14400
H  9.55100 47.13100 33.71400
H  14.88300 48.00900 28.09400
H  15.16800 49.26600 26.90900
H  15.89700 47.63200 26.70900
H  15.37800 49.42100 24.16200
H  16.25300 48.41400 23.02400
H  16.35200 48.01100 24.69200
H  10.06100 44.98400 22.00700
H  7.27800 45.85000 21.93300
H  8.51300 47.50700 21.19500
H  9.37900 46.28900 20.17200
H  10.27400 47.46700 21.01000
H  8.10400 43.55900 21.45500
H  6.61300 43.65500 22.42800
H  7.72100 42.27700 23.83800
H  8.79200 43.59800 24.31900
H  9.25700 42.46500 23.01400
H  3.05400 45.90500 27.05700
H  3.74900 45.38600 25.44600
H  3.44700 47.05900 25.74300
H  6.22300 47.44000 31.19500
H  6.38000 44.65400 34.30500
H  6.53200 43.50100 33.03100
H  4.96600 43.83400 33.61900

