158

Mg 35.74300 1.99900 30.51800
C  33.02700 3.09900 32.62100
C  37.77900 2.27000 33.01600
C  38.22100 1.25500 28.29300
C  33.50600 2.15800 27.74200
N  35.43300 2.73500 32.57000
C  34.28200 2.93000 33.27800
C  34.58100 3.07700 34.80100
C  36.13500 2.99700 34.77500
C  36.48000 2.66900 33.37000
C  36.94000 4.18400 35.30700
C  33.84900 1.95000 35.61800
C  33.69400 2.12800 37.09200
H  34.39000 3.33900 37.75400
N  37.77400 1.73000 30.64000
C  38.46000 1.80600 31.82300
C  39.72200 1.30200 31.63800
C  39.82800 0.94700 30.25300
C  38.56700 1.31100 29.64400
C  40.69500 1.17100 32.83300
C  41.04200 0.35200 29.54100
O  41.00200 0.08200 28.36000
C  42.33000 -0.04200 30.22600
N  35.80400 1.72500 28.33800
C  36.99000 1.42700 27.69000
C  36.82400 1.45900 26.15800
C  35.24200 1.66300 25.99800
C  34.80900 1.73800 27.46500
C  37.58300 2.65300 25.42700
C  34.51700 0.55800 25.11700
C  34.08700 -0.73500 25.88900
N  33.68600 2.40100 30.14700
C  32.94000 2.47800 29.03700
C  31.61700 2.95000 29.35400
C  31.59900 3.14400 30.69200
C  32.90200 2.90900 31.16400
C  30.55600 3.17700 28.26600
C  30.75500 3.62300 31.81400
O  29.59600 3.91900 31.87900
C  31.63800 3.61400 33.14700
C  31.68300 4.89500 33.78900
O  31.79700 5.94500 33.20700
O  31.35400 4.68900 35.09100
C  31.55200 5.91100 36.03900
H  38.44400 2.24500 33.88200
H  39.00500 0.93400 27.60400
H  32.97600 2.40800 26.82000
H  34.18500 4.06000 35.05500
H  36.39600 2.10800 35.35000
H  37.73200 3.76500 35.92800
H  36.30900 4.79700 35.95100
H  37.20700 4.86700 34.50000
H  34.45100 1.07200 35.38300
H  32.88500 1.81700 35.12700
H  33.87900 1.29300 37.76800
H  32.65800 2.43700 37.23200
H  41.47500 0.41700 32.73200
H  40.06100 1.03000 33.70800
H  41.24900 2.11000 32.85600
H  42.05800 -0.80600 30.95400
H  42.97800 0.77100 30.55300
H  43.04000 -0.52600 29.55600
H  37.00500 0.47100 25.73400
H  34.93700 2.63900 25.61900
H  38.35200 2.17900 24.81800
H  38.02900 3.38100 26.10500
H  37.02800 3.27900 24.72900
H  35.10600 0.29400 24.23900
H  33.63200 0.91100 24.58900
H  34.45300 -0.73400 26.91600
H  34.51600 -1.63400 25.44600
H  33.01500 -0.92800 25.92400
H  29.60900 3.54600 28.66100
H  30.38900 2.16400 27.90200
H  30.84400 3.91000 27.51200
H  31.35600 2.88300 33.90500
H  31.68000 5.50300 37.04200
H  30.58900 6.42200 36.00700
H  32.40700 6.50300 35.71300
Mg -1.84000 34.75700 26.40300
C  -3.61600 33.21000 29.15400
C  -0.75200 37.02500 28.68400
C  -0.67700 36.32700 23.79800
C  -3.23200 32.25800 24.41900
N  -2.23300 35.07900 28.72400
C  -2.97500 34.37000 29.58200
C  -2.92200 34.99900 31.03100
C  -2.04600 36.25000 30.82700
C  -1.65500 36.11800 29.34000
C  -2.59400 37.71100 31.34000
C  -2.33700 34.07600 32.03600
C  -2.43900 34.47600 33.53600
H  -3.17100 33.58900 34.60100
N  -0.91500 36.47800 26.25600
C  -0.44500 37.22600 27.30800
C  0.32500 38.29000 26.82200
C  0.44500 38.09200 25.47400
C  -0.42200 36.93600 25.08900
C  0.94200 39.29000 27.75900
C  1.28100 38.81600 24.47100
O  1.45400 38.48600 23.26300
C  2.12000 40.00500 24.93600
N  -2.03600 34.44500 24.42800
C  -1.42200 35.17100 23.49600
C  -1.40700 34.51500 22.08600
C  -2.11700 33.16200 22.37600
C  -2.44100 33.25000 23.84200
C  -1.97900 35.51700 21.03700
C  -1.39900 31.89600 21.89400
C  -0.05000 31.50600 22.58800
N  -3.28400 33.08300 26.60000
C  -3.71400 32.17500 25.75100
C  -4.45300 31.15300 26.41100
C  -4.40800 31.47900 27.71700
C  -3.70100 32.72000 27.80400
C  -5.13100 30.02500 25.74800
C  -4.87200 31.10500 28.96900
O  -5.59600 30.16500 29.25900
C  -4.37600 32.21800 30.01600
C  -5.50900 32.67500 30.73500
O  -6.50900 33.17800 30.27300
O  -5.31700 32.43000 32.12100
C  -6.57600 32.55100 32.91600
H  -0.26100 37.71100 29.37800
H  -0.22500 36.83600 22.94400
H  -3.58400 31.53700 23.67800
H  -3.96000 35.21700 31.28500
H  -1.11500 36.09200 31.37000
H  -2.59300 38.40000 30.49600
H  -2.06700 38.08800 32.21600
H  -3.62600 37.51800 31.63600
H  -1.33200 33.78100 31.73300
H  -2.84800 33.12300 31.89800
H  -2.73400 35.52200 33.45200
H  -1.37700 34.55300 33.77000
H  2.01800 39.29500 27.57900
H  0.70500 39.23900 28.82200
H  0.75800 40.31000 27.42200
H  1.42600 40.77200 25.28100
H  2.61000 40.31300 24.01200
H  2.87300 39.68500 25.65500
H  -0.33700 34.39800 21.91500
H  -3.05000 33.08500 21.81900
H  -1.19000 35.78800 20.33600
H  -2.33900 36.45100 21.46800
H  -2.74300 35.08000 20.39400
H  -1.26900 31.99100 20.81600
H  -2.16700 31.12500 21.95900
H  0.13300 32.13600 23.45900
H  0.79500 31.40800 21.90700
H  -0.09700 30.48400 22.96300
H  -5.42700 29.37700 26.57300
H  -4.53800 29.51400 24.99000
H  -6.04300 30.42100 25.30300
H  -3.66200 31.60600 30.56700
H  -6.39900 32.73900 33.97500
H  -7.14600 31.62300 32.86600
H  -7.24400 33.38100 32.68600

