158

Mg 26.06900 0.58300 30.10700
C  28.12000 0.73200 33.02000
C  23.29600 1.08700 32.22200
C  24.02800 0.05900 27.59900
C  28.85000 -0.19600 28.16800
N  25.74300 0.72900 32.42500
C  26.69900 0.85700 33.37100
C  26.12000 1.32900 34.75400
C  24.64500 1.35500 34.40400
C  24.54600 0.99800 32.94200
C  23.71500 0.46200 35.33300
C  26.70300 2.69700 35.19200
C  27.64100 2.62200 36.38200
H  27.08000 3.08600 37.73900
N  23.93300 0.64200 29.94900
C  23.01900 0.90700 30.89800
C  21.71000 0.85300 30.28500
C  21.83800 0.64400 28.91600
C  23.30400 0.42400 28.73800
C  20.40900 1.08100 31.06900
C  20.77200 0.58400 27.81400
O  21.06100 0.35700 26.61700
C  19.35300 0.60100 28.13800
N  26.41400 0.18200 28.12000
C  25.36800 -0.04400 27.29400
C  25.82200 -0.40700 25.89500
C  27.36900 0.01800 25.96400
C  27.62000 -0.07800 27.45000
C  25.52900 -1.83400 25.54300
C  27.88700 1.38900 25.36200
C  28.59400 1.27500 24.02400
N  28.07900 0.27800 30.45800
C  29.09600 -0.04600 29.56400
C  30.38400 -0.03800 30.26700
C  30.02500 0.24600 31.62800
C  28.60900 0.42400 31.69900
C  31.71700 -0.37600 29.75200
C  30.50600 0.41400 32.94900
O  31.67800 0.47600 33.32800
C  29.29700 0.66800 33.89300
C  29.27100 -0.57600 34.64000
O  28.45500 -1.50400 34.50500
O  30.23100 -0.54800 35.65000
C  30.08800 -1.50000 36.70600
H  22.53900 1.30000 32.98000
H  23.37000 -0.15300 26.75300
H  29.76300 -0.46700 27.63400
H  26.33500 0.61500 35.54900
H  24.18700 2.34300 34.44500
H  23.24500 -0.34500 34.77100
H  22.85600 1.08000 35.59300
H  24.20800 0.05100 36.21400
H  25.91200 3.40000 35.45100
H  27.26200 3.21300 34.41100
H  28.46900 3.30300 36.18500
H  28.02500 1.62800 36.61100
H  19.65500 0.37600 30.71900
H  20.12400 2.12500 30.93900
H  20.51100 0.81900 32.12200
H  18.70200 0.60100 27.26400
H  19.15100 1.48300 28.74500
H  19.12500 -0.24800 28.78300
H  25.27100 0.20700 25.18300
H  27.96400 -0.79000 25.53900
H  25.01000 -2.35000 26.35000
H  26.46400 -2.33000 25.28200
H  24.98800 -1.90400 24.59900
H  28.51800 1.96800 26.03700
H  26.95600 1.94100 25.23600
H  27.89600 1.34100 23.19000
H  29.13500 0.32900 24.00400
H  29.45500 1.93900 24.10200
H  31.83300 -0.81700 28.76200
H  31.99400 -1.16800 30.44800
H  32.30700 0.53600 29.66600
H  29.44800 1.65600 34.32800
H  29.88800 -2.51000 36.34900
H  29.16400 -1.23400 37.22000
H  30.95600 -1.50100 37.36500
Mg 50.07600 45.64300 42.72200
C  46.85600 46.13500 41.18500
C  49.67700 42.25700 41.97200
C  53.31600 45.22800 43.29200
C  50.37600 49.01000 43.16100
N  48.38700 44.44500 41.66800
C  47.22600 44.83000 41.18100
C  46.51300 43.65400 40.50300
C  47.18500 42.42700 41.23200
C  48.53600 43.05000 41.67300
C  46.49400 41.70500 42.41800
C  46.60200 43.64300 38.98100
C  45.45300 43.08400 38.18200
H  45.85100 42.17300 36.96400
N  51.32600 43.94800 42.76200
C  50.98900 42.65600 42.34100
C  52.14400 41.81200 42.44100
C  53.25400 42.64000 42.91200
C  52.67300 43.98200 43.02200
C  52.22800 40.37600 42.10400
C  54.65200 42.20300 43.32900
O  54.93800 41.03100 43.19800
C  55.68800 43.17700 43.97300
N  51.67200 46.92900 43.02000
C  52.89300 46.52900 43.35600
C  53.82500 47.68800 43.53300
C  52.90300 48.93900 43.61500
C  51.55700 48.23700 43.25200
C  54.77100 47.57900 44.69500
C  53.23200 50.10200 42.59100
C  53.12900 51.50600 43.00000
N  48.82000 47.25400 42.43100
C  49.12900 48.55200 42.65000
C  47.95400 49.39600 42.18000
C  47.07500 48.46100 41.65400
C  47.67300 47.22600 41.79000
C  47.76900 50.99100 42.42500
C  45.75500 48.31900 41.05300
O  44.89700 49.21600 40.87100
C  45.65900 46.80100 40.62700
C  44.33900 46.21500 41.03400
O  43.58100 45.71100 40.19700
O  43.98800 46.50900 42.30300
C  42.69100 46.06300 42.73400
H  49.55400 41.19400 41.75500
H  54.38800 45.01800 43.32000
H  50.41700 50.08000 43.37600
H  45.45300 43.70000 40.75400
H  47.37500 41.62100 40.52200
H  47.13800 41.73000 43.29600
H  46.18500 40.68400 42.19300
H  45.61800 42.29900 42.68000
H  47.50600 43.12900 38.65200
H  46.71700 44.67300 38.64300
H  44.84800 43.79200 37.61600
H  44.74700 42.55900 38.82600
H  53.08800 40.36700 41.43400
H  51.42000 40.04100 41.45400
H  52.29300 39.72400 42.97600
H  56.10200 43.89200 43.26200
H  56.55100 42.57800 44.26500
H  55.43500 43.79600 44.83400
H  54.39000 47.70300 42.60100
H  52.85400 49.36300 44.61800
H  54.55800 46.71900 45.33000
H  54.91000 48.41600 45.38000
H  55.75400 47.43600 44.24800
H  52.47600 49.88200 41.83700
H  54.15400 49.97800 42.02300
H  52.58700 52.10300 42.26700
H  54.04800 52.08100 43.11600
H  52.56600 51.52700 43.93400
H  46.77100 51.19300 42.03500
H  48.59600 51.55700 41.99600
H  47.81600 51.17900 43.49800
H  45.71500 46.66800 39.54700
H  42.57300 45.00300 42.51000
H  41.84200 46.62600 42.34700
H  42.72800 46.20500 43.81500

