158

Mg 35.58100 1.94600 29.38700
C  33.68300 3.04200 31.90000
C  38.31700 1.91100 31.69800
C  37.76500 1.20200 26.90300
C  33.22700 2.86800 27.13400
N  36.02300 2.60400 31.50700
C  34.99900 2.85300 32.35000
C  35.49700 2.92700 33.82200
C  36.99500 2.78700 33.77500
C  37.12900 2.43900 32.21300
C  37.85400 4.07800 34.11000
C  34.76200 1.88100 34.68900
C  34.34100 2.24800 36.15100
H  34.73800 3.63000 36.70200
N  37.71100 1.49600 29.32300
C  38.59700 1.48500 30.34000
C  39.83100 0.93200 29.80100
C  39.67000 0.55000 28.47000
C  38.35000 1.07000 28.15900
C  41.08000 0.79200 30.66000
C  40.71500 -0.11400 27.43700
O  40.35100 -0.37100 26.28600
C  42.14900 -0.44700 27.93700
N  35.47000 2.02500 27.30600
C  36.51000 1.61800 26.49800
C  36.22900 1.95400 25.02700
C  34.69600 2.34300 25.08900
C  34.40800 2.41600 26.60300
C  37.14600 3.12100 24.47800
C  33.79800 1.33800 24.34700
C  33.57800 -0.04700 25.03100
N  33.79500 2.91800 29.43000
C  32.83000 3.09000 28.42700
C  31.61800 3.63900 29.01300
C  31.86600 3.54000 30.41600
C  33.27000 3.16400 30.55000
C  30.30400 3.98100 28.37100
C  31.22900 3.64700 31.70800
O  30.07300 3.87500 32.10000
C  32.47700 3.51800 32.70800
C  32.73100 4.87100 33.39500
O  33.57500 5.77300 33.07600
O  31.79600 5.08100 34.34900
C  31.75800 6.31500 35.04300
H  39.09400 1.72200 32.44100
H  38.47900 1.03300 26.09400
H  32.48200 3.19300 26.40400
H  35.34500 3.93800 34.20200
H  37.38600 1.98600 34.40300
H  38.38100 4.27700 33.17700
H  38.57500 3.89900 34.90700
H  37.27500 4.96100 34.38400
H  35.43700 1.02500 34.68900
H  33.90000 1.46100 34.17000
H  34.66200 1.51300 36.88900
H  33.25900 2.12100 36.19200
H  41.33100 -0.23100 30.94000
H  40.88100 1.22400 31.64000
H  41.95700 1.35100 30.33400
H  42.67900 -0.97300 27.14300
H  42.03600 -1.11700 28.79000
H  42.59200 0.51700 28.18600
H  36.52700 1.02600 24.54000
H  34.42100 3.29100 24.62700
H  36.57300 3.99900 24.18000
H  37.72100 2.75400 23.62800
H  37.82800 3.35500 25.29600
H  34.17000 1.14400 23.34100
H  32.80700 1.77400 24.22200
H  33.22900 -0.79000 24.31400
H  32.95300 0.05400 25.91800
H  34.55400 -0.35000 25.41100
H  30.26600 3.45400 27.41800
H  30.34600 5.04400 28.13500
H  29.45600 3.76700 29.02200
H  32.30100 2.76400 33.47600
H  32.76800 6.60000 35.33700
H  31.21900 6.13400 35.97200
H  31.27900 7.09000 34.44400
Mg 36.12600 49.25000 25.48300
C  35.96700 47.41500 28.53900
C  35.38300 52.08100 27.33500
C  35.98600 50.93200 22.59300
C  36.33000 46.22600 23.73000
N  35.77400 49.70700 27.71900
C  35.73600 48.78600 28.75300
C  35.64300 49.56600 30.15300
C  35.20400 50.99400 29.60600
C  35.46900 50.95900 28.14500
C  33.72000 51.35500 29.83900
C  36.89900 49.42500 31.05200
C  36.64300 48.95500 32.50900
H  35.24300 49.29200 33.14400
N  35.83500 51.25600 25.06600
C  35.56600 52.26200 25.93700
C  35.54200 53.54000 25.16600
C  35.79700 53.23100 23.80000
C  35.92300 51.78400 23.76700
C  35.41700 54.85700 25.83400
C  36.00400 54.17200 22.61700
O  36.33700 53.83300 21.49300
C  35.64500 55.55400 22.72700
N  35.85600 48.65100 23.48900
C  35.84800 49.58900 22.53600
C  35.92500 48.86400 21.16100
C  36.38000 47.38200 21.53100
C  36.09900 47.40700 23.00900
C  34.59900 48.98900 20.43000
C  37.97800 47.16400 21.33700
C  38.26300 46.29800 20.11900
N  36.08100 47.28900 25.97200
C  36.22500 46.16300 25.14300
C  36.27600 44.97700 25.94500
C  36.12000 45.42100 27.28800
C  36.13300 46.82400 27.27300
C  36.31000 43.54200 25.43600
C  36.08000 45.04200 28.68600
O  36.15100 43.91400 29.21800
C  35.99900 46.30700 29.56000
C  34.69100 46.14200 30.33200
O  33.56500 46.25400 29.84200
O  34.89600 45.80500 31.63300
C  33.56600 45.54100 32.30200
H  35.15200 52.96200 27.93700
H  36.00100 51.38900 21.60200
H  36.45200 45.31400 23.14200
H  34.79900 49.12300 30.68200
H  35.82800 51.74400 30.09200
H  33.28200 50.68300 30.57800
H  33.00900 51.30900 29.01500
H  33.67900 52.38100 30.20500
H  37.45700 50.36100 31.08700
H  37.51400 48.68700 30.53800
H  37.39700 49.50200 33.07500
H  36.79800 47.89600 32.71600
H  36.31500 55.45400 25.67200
H  35.54300 54.77800 26.91300
H  34.50500 55.35000 25.49900
H  34.56300 55.61300 22.84000
H  35.86900 56.08900 21.80300
H  36.13500 56.04200 23.56900
H  36.68000 49.31500 20.51800
H  35.71000 46.76000 20.93700
H  34.24900 48.00900 20.10500
H  34.63400 49.74200 19.64300
H  33.82600 49.21700 21.16500
H  38.50800 46.73400 22.18700
H  38.47000 48.11600 21.13900
H  38.81200 45.38100 20.33400
H  38.82700 46.89800 19.40400
H  37.35000 45.98500 19.61300
H  37.17400 43.51800 24.77100
H  35.44100 43.33400 24.81200
H  36.37300 42.82600 26.25500
H  36.88800 46.35200 30.18900
H  32.80300 46.29000 32.09300
H  33.80200 45.47800 33.36500
H  33.27700 44.51800 32.06000

