158

Mg 25.58800 0.12600 29.07400
C  27.34700 -0.22400 32.07000
C  22.68900 0.25500 30.97600
C  23.91000 0.61100 26.26500
C  28.46800 -0.51400 27.24200
N  25.05700 0.09500 31.35000
C  25.96000 -0.16900 32.33600
C  25.12200 -0.09800 33.68900
C  23.62500 -0.05000 33.27500
C  23.79100 0.04000 31.82300
C  22.68900 -1.24800 33.58200
C  25.43100 1.23300 34.45800
C  25.88800 1.02000 35.95000
H  25.68600 2.22100 36.87500
N  23.58600 0.37400 28.66800
C  22.56200 0.36300 29.54700
C  21.29000 0.54800 28.80900
C  21.64800 0.67400 27.45300
C  23.10200 0.56900 27.39800
C  19.94100 0.58000 29.43900
C  20.72900 0.84100 26.25400
O  21.14400 0.88200 25.13800
C  19.29100 0.88900 26.45400
N  26.03500 -0.26500 27.03000
C  25.26000 0.31400 26.08400
C  25.93000 0.43400 24.74300
C  27.31400 -0.20700 24.97500
C  27.25600 -0.36000 26.49700
C  25.18400 -0.05900 23.53100
C  28.58500 0.56100 24.45500
C  29.50400 -0.40300 23.57300
N  27.48500 -0.18200 29.49700
C  28.57500 -0.54600 28.67900
C  29.74800 -0.74800 29.50000
C  29.44100 -0.52700 30.87000
C  27.99500 -0.25100 30.77600
C  31.18400 -1.22000 29.00900
C  29.84700 -0.53800 32.25100
O  30.93300 -0.85100 32.77800
C  28.50100 -0.29000 33.09900
C  28.33500 -1.39900 34.13500
O  27.92400 -2.56400 33.85400
O  28.85500 -1.07000 35.38700
C  28.81400 -1.95300 36.53800
H  21.80000 0.34200 31.60400
H  23.43100 0.93400 25.33800
H  29.37300 -0.81500 26.70900
H  25.44600 -0.95400 34.28000
H  23.02900 0.83300 33.50300
H  22.77500 -1.79700 34.52000
H  22.75400 -2.03200 32.82700
H  21.68300 -0.84200 33.47300
H  24.56600 1.89700 34.46800
H  26.23700 1.74400 33.93200
H  26.93200 0.71400 35.89200
H  25.29000 0.25600 36.44800
H  19.95300 0.51300 30.52700
H  19.44700 -0.23500 28.91000
H  19.44300 1.48800 29.09700
H  18.98100 1.68600 27.13100
H  19.14900 -0.11000 26.86500
H  18.82900 0.96500 25.47000
H  25.99500 1.51300 24.59800
H  27.31200 -1.27100 24.73700
H  25.11100 0.77100 22.82900
H  24.23600 -0.52700 23.79800
H  25.69200 -0.89300 23.04700
H  29.17700 0.83800 25.32800
H  28.43300 1.46300 23.86300
H  28.92500 -1.05200 22.91500
H  30.18200 -1.03000 24.15200
H  30.14800 0.16900 22.90400
H  31.39700 -0.98400 27.96700
H  31.25100 -2.27500 29.27400
H  31.86900 -0.63100 29.61900
H  28.69600 0.53600 33.78300
H  28.60700 -3.01600 36.41600
H  28.07500 -1.60200 37.25800
H  29.67200 -1.89400 37.20800
Mg -5.48400 24.58200 27.33800
C  -3.63200 26.26600 29.75800
C  -6.52500 22.23900 29.68600
C  -6.98200 22.75700 24.84100
C  -4.32300 26.77200 24.91100
N  -5.14600 24.39000 29.48100
C  -4.45200 25.23000 30.31800
C  -4.65700 24.90600 31.76700
C  -5.20000 23.46400 31.63800
C  -5.66800 23.32500 30.12200
C  -4.29100 22.32900 32.28700
C  -5.57800 25.76200 32.64600
C  -5.10700 25.81600 34.12100
H  -5.49700 24.79700 35.21400
N  -6.58500 22.73100 27.30300
C  -6.94000 21.89100 28.36000
C  -7.74900 20.79900 27.85200
C  -7.89100 20.91500 26.49700
C  -7.16500 22.22200 26.18200
C  -8.32200 19.78300 28.74800
C  -8.60300 20.08000 25.51400
O  -8.71400 20.45500 24.39300
C  -9.01900 18.69500 25.93000
N  -5.58500 24.73100 25.19300
C  -6.35100 23.96700 24.43600
C  -6.28600 24.32900 22.94600
C  -5.86600 25.79700 23.12300
C  -5.21700 25.79600 24.50500
C  -5.44500 23.51900 22.03100
C  -6.92500 26.81900 22.73100
C  -7.01000 27.17600 21.27300
N  -4.14700 26.17300 27.25100
C  -3.81400 27.00300 26.20100
C  -2.83200 28.03600 26.70100
C  -2.77000 27.76000 28.06300
C  -3.56200 26.65400 28.36300
C  -1.93700 28.88800 25.82200
C  -2.06700 28.16400 29.26400
O  -1.17800 29.00700 29.43500
C  -2.66200 27.23300 30.37700
C  -1.53000 26.59700 31.20200
O  -0.75900 25.77100 30.94800
O  -1.75900 27.03800 32.46900
C  -0.92000 26.44100 33.54400
H  -6.82700 21.54700 30.47500
H  -7.52000 22.24700 24.03900
H  -4.17600 27.64600 24.27200
H  -3.65200 24.80600 32.17700
H  -6.15500 23.34700 32.15100
H  -4.05600 21.63600 31.48000
H  -4.94800 21.77800 32.95900
H  -3.34600 22.61900 32.74600
H  -6.61500 25.43000 32.60100
H  -5.63800 26.76700 32.23000
H  -5.14100 26.86900 34.40200
H  -4.02300 25.73100 34.04200
H  -8.12200 18.78000 28.37000
H  -9.40000 19.90700 28.84400
H  -7.92300 19.87900 29.75800
H  -8.12000 18.17100 26.25500
H  -9.51800 18.09800 25.16700
H  -9.80000 18.80200 26.68300
H  -7.32000 24.22700 22.61700
H  -5.00100 26.07700 22.52100
H  -5.04700 22.58400 22.42500
H  -4.55100 24.07100 21.74100
H  -6.07000 23.31200 21.16100
H  -6.58500 27.67800 23.30900
H  -7.88100 26.51400 23.15600
H  -7.97200 27.24500 20.76500
H  -6.58500 26.43700 20.59400
H  -6.52200 28.13600 21.10500
H  -1.84700 29.96200 25.98300
H  -2.44300 28.85600 24.85800
H  -0.94200 28.44500 25.78100
H  -3.12800 27.94500 31.05800
H  0.14600 26.48100 33.32300
H  -1.15300 25.40800 33.80200
H  -1.21100 27.06000 34.39300

