158

Mg 46.36500 35.60900 28.77300
C  44.57500 33.39700 30.89400
C  46.74900 37.76100 31.38100
C  47.13800 37.90000 26.57000
C  45.55300 33.39400 26.06800
N  45.74600 35.57300 30.81500
C  45.08300 34.52700 31.49300
C  45.28700 34.78900 33.04500
C  45.38900 36.32400 33.07500
C  46.08700 36.53300 31.75800
C  43.99600 37.03300 33.11400
C  46.56700 34.09800 33.68600
C  46.40100 33.60400 35.16100
H  45.67700 34.53300 36.08900
N  47.04500 37.51200 28.96600
C  47.21000 38.22500 30.14400
C  47.89600 39.38600 29.87800
C  48.03900 39.48500 28.45500
C  47.39500 38.27500 27.94400
C  48.67300 40.19300 30.84800
C  48.73300 40.56000 27.69200
O  48.66500 40.66700 26.44100
C  49.41700 41.70900 28.36500
N  46.10500 35.70900 26.63600
C  46.67200 36.75300 25.96100
C  46.41800 36.58000 24.42100
C  46.16200 35.03800 24.30000
C  45.88700 34.66300 25.75900
C  45.14200 37.33300 23.83600
C  47.41400 34.29100 23.88400
C  47.38600 33.47300 22.56500
N  45.30400 33.74100 28.46300
C  45.11700 33.00800 27.36000
C  44.50100 31.76300 27.78400
C  44.25600 31.84000 29.14200
C  44.78800 33.05900 29.54600
C  44.17400 30.60100 26.81300
C  43.73400 31.15800 30.35400
O  43.19800 30.06400 30.51700
C  43.76400 32.23300 31.45600
C  43.96500 31.57900 32.82400
O  45.00600 30.99100 33.15300
O  42.91300 31.89100 33.70700
C  42.95000 31.12100 34.95200
H  46.76300 38.49700 32.18700
H  47.58000 38.53300 25.79700
H  45.61800 32.72700 25.20500
H  44.42300 34.41900 33.59600
H  45.96300 36.67000 33.93500
H  44.18800 37.97000 32.59100
H  43.80900 37.26000 34.16400
H  43.15400 36.42500 32.78300
H  47.40500 34.79300 33.62000
H  46.70600 33.24400 33.02300
H  47.41200 33.48000 35.54800
H  45.88000 32.65000 35.24400
H  48.45600 39.88500 31.87000
H  48.47400 41.26200 30.92400
H  49.70700 39.98800 30.57100
H  48.61600 42.14100 28.96500
H  49.85800 42.30900 27.56900
H  50.20500 41.24800 28.96100
H  47.30100 36.89300 23.86400
H  45.27400 34.68700 23.77600
H  44.75000 38.05300 24.55500
H  44.33100 36.73400 23.42300
H  45.44100 37.91800 22.96600
H  47.75400 33.54400 24.60200
H  48.23700 35.00500 23.87400
H  46.63500 33.89900 21.90000
H  47.20900 32.45100 22.90100
H  48.34600 33.51200 22.05100
H  44.96500 30.43300 26.08300
H  43.24700 30.83700 26.29000
H  44.04900 29.75300 27.48600
H  42.72400 32.55600 31.40400
H  43.15000 30.07400 34.72500
H  41.95700 31.14800 35.40200
H  43.69700 31.41400 35.69000
Mg 40.82000 41.08800 27.45500
C  39.92400 43.51100 29.87800
C  41.47800 38.86500 29.96700
C  41.85200 38.99000 25.04200
C  40.27800 43.51300 25.04900
N  40.90400 41.31500 29.77200
C  40.35500 42.31700 30.50300
C  40.34100 42.01200 32.03300
C  40.76200 40.50700 32.00300
C  40.99600 40.10700 30.49600
C  41.87200 39.96200 32.95700
C  39.02400 42.31500 32.79600
C  38.50200 41.43600 33.88900
H  37.79600 42.09900 35.11700
N  41.46200 39.14400 27.47700
C  41.63900 38.35600 28.63100
C  41.92800 37.02400 28.22800
C  41.91300 37.00500 26.79700
C  41.76400 38.41300 26.35000
C  42.22600 35.87900 29.18500
C  41.99000 35.84700 25.87900
O  41.80300 35.97100 24.66000
C  42.00000 34.45100 26.41800
N  41.20600 41.33800 25.39900
C  41.51400 40.29000 24.64100
C  41.32100 40.60100 23.13300
C  40.70700 42.03200 23.10900
C  40.76200 42.35900 24.61000
C  42.74500 40.50800 22.41100
C  39.28500 42.04100 22.45900
C  38.12500 41.48400 23.26400
N  40.28700 43.08600 27.45800
C  40.09900 43.92200 26.37500
C  39.59000 45.23300 26.80200
C  39.42600 45.08900 28.15200
C  39.92000 43.80200 28.54000
C  39.31200 46.50000 26.05800
C  39.03300 45.74300 29.41200
O  38.66300 46.88300 29.57500
C  39.31900 44.78900 30.47300
C  40.19900 45.47300 31.50300
O  41.32400 45.78300 31.30800
O  39.57300 45.60700 32.72800
C  40.46000 46.04500 33.86100
H  41.75800 38.09900 30.69300
H  42.15800 38.33200 24.22500
H  40.05200 44.27600 24.30100
H  41.19000 42.62700 32.33000
H  39.80400 40.05100 32.25200
H  42.70700 39.59300 32.36200
H  41.52000 39.15400 33.59800
H  42.30000 40.73900 33.59100
H  38.24200 42.63800 32.10900
H  39.38000 43.19600 33.33000
H  39.36100 40.84800 34.21400
H  37.73500 40.69500 33.66700
H  41.34800 35.24000 29.09200
H  42.27300 36.14200 30.24200
H  43.06700 35.22100 28.96700
H  41.24000 34.49700 27.19700
H  42.96900 34.18100 26.83700
H  41.76300 33.78300 25.58900
H  40.62400 39.87200 22.71900
H  41.38400 42.75800 22.66000
H  43.27400 39.73300 22.96500
H  43.25300 41.45300 22.21500
H  42.46000 40.16500 21.41700
H  39.30600 41.51800 21.50300
H  39.04800 43.08700 22.26600
H  38.53400 40.76500 23.97400
H  37.43900 41.00400 22.56600
H  37.61200 42.24700 23.85000
H  38.69900 46.22700 25.19900
H  40.24100 47.03600 25.86300
H  38.80300 47.13100 26.78600
H  38.37500 44.53400 30.95600
H  41.51800 45.81300 33.73500
H  40.07800 45.42500 34.67300
H  40.40000 47.10800 34.09200

