158

Mg 17.17000 52.28900 26.52400
C  19.09100 50.83300 29.28200
C  14.63300 52.66600 28.80800
C  15.25800 53.10800 23.94900
C  19.57100 50.70900 24.27000
N  16.92400 51.72800 28.79400
C  17.90600 51.36500 29.69100
C  17.40300 51.49600 31.12700
C  15.82300 51.80800 30.91100
C  15.76600 52.10900 29.43300
C  14.95800 50.55300 31.27900
C  18.23000 52.58100 31.81500
C  18.56300 52.47100 33.34600
H  17.69000 51.59500 34.25400
N  15.33900 53.04700 26.46000
C  14.41100 53.16800 27.51300
C  13.23800 53.86200 26.98200
C  13.40000 54.01400 25.52500
C  14.68000 53.39000 25.28000
C  12.10300 54.31800 27.90000
C  12.55200 54.76500 24.50000
O  12.94200 54.98700 23.35000
C  11.21900 55.27900 24.85700
N  17.37800 51.93900 24.43900
C  16.53100 52.56500 23.57900
C  16.97100 52.38900 22.08400
C  18.45600 51.90300 22.26500
C  18.46900 51.42100 23.71000
C  16.09100 51.47600 21.19100
C  19.52700 52.91800 21.94700
C  20.63500 52.47500 20.97700
N  18.99500 51.06500 26.74300
C  19.79200 50.47900 25.66300
C  20.84700 49.82900 26.28000
C  20.69600 49.99100 27.67100
C  19.49700 50.66100 27.90800
C  21.99400 49.16200 25.56100
C  21.24200 49.67300 29.04200
O  22.21600 48.97500 29.36700
C  20.14800 50.18200 30.06900
C  19.61200 48.95100 30.74500
O  18.81100 48.13000 30.28400
O  19.96000 49.02500 32.11000
C  19.58000 47.85500 32.94300
H  13.76900 52.67200 29.47500
H  14.70800 53.41500 23.05700
H  20.29700 50.38700 23.52000
H  17.46300 50.52400 31.61600
H  15.45900 52.60300 31.56200
H  15.08100 50.26900 32.32400
H  15.31200 49.69300 30.71100
H  13.93100 50.89500 31.15200
H  17.65700 53.50000 31.69100
H  19.21100 52.76700 31.37700
H  18.71000 53.47900 33.73400
H  19.53200 52.01000 33.53800
H  12.20400 53.79200 28.84900
H  11.09300 54.15300 27.52400
H  12.15000 55.38200 28.13100
H  11.25700 56.24600 25.35900
H  10.72100 54.44400 25.35000
H  10.66400 55.55000 23.95900
H  16.95200 53.35800 21.58500
H  18.51700 50.98000 21.69000
H  15.02100 51.64600 21.31200
H  16.34900 50.45100 21.46000
H  16.35000 51.74900 20.16900
H  19.95100 53.06400 22.94100
H  19.09900 53.88600 21.68700
H  20.91900 53.25100 20.26600
H  20.35600 51.56900 20.43800
H  21.53100 52.29400 21.57100
H  22.82800 49.07300 26.25700
H  22.26300 49.82500 24.73900
H  21.64300 48.25000 25.07700
H  20.69200 50.80000 30.78200
H  20.45900 47.21100 32.95900
H  18.73300 47.34900 32.47900
H  19.36300 48.06400 33.99000
Mg -12.22400 36.72000 42.31100
C  -9.61500 34.42700 42.00000
C  -10.21300 39.10700 40.76300
C  -14.84600 38.85500 42.13200
C  -14.27400 34.06600 43.05600
N  -10.12500 36.69700 41.39400
C  -9.28000 35.63400 41.35800
C  -7.98600 36.03500 40.71800
C  -8.00700 37.61000 40.78600
C  -9.54000 37.84900 41.00500
C  -7.11100 38.22000 41.84100
C  -7.91700 35.43800 39.31500
C  -6.52600 34.77000 39.01000
H  -5.60900 35.50000 38.05700
N  -12.48400 38.66600 41.65400
C  -11.48500 39.44800 41.13500
C  -12.02300 40.76000 40.94600
C  -13.36500 40.83700 41.37900
C  -13.63800 39.43000 41.71100
C  -11.13600 41.96200 40.38500
C  -14.34700 42.08800 41.50500
O  -13.86700 43.15100 41.11400
C  -15.71100 42.04600 41.94200
N  -14.23100 36.53100 42.63200
C  -15.19800 37.54800 42.48300
C  -16.63400 37.05100 42.83700
C  -16.35800 35.50900 43.07000
C  -14.86600 35.33900 42.90800
C  -17.32100 37.69500 44.09600
C  -17.33600 34.53500 42.15700
C  -17.90100 33.33200 42.92100
N  -11.99200 34.74500 42.60200
C  -12.92200 33.79400 42.91600
C  -12.24300 32.53500 43.20000
C  -10.96800 32.75300 42.83500
C  -10.84700 34.12000 42.42400
C  -12.71400 31.29100 43.76300
C  -9.73800 32.09000 42.69000
O  -9.37300 30.93100 42.83700
C  -8.79200 33.18700 42.12100
C  -7.66600 33.36400 43.03100
O  -6.51700 32.98700 42.92000
O  -8.05200 33.95600 44.20700
C  -7.09100 33.86600 45.34800
H  -9.44200 39.85200 40.55600
H  -15.74000 39.47900 42.06000
H  -15.02000 33.29900 43.27500
H  -7.21600 35.56600 41.33000
H  -7.60700 38.01800 39.85800
H  -6.24500 37.59200 42.05100
H  -7.65000 38.39600 42.77100
H  -6.78100 39.21400 41.53900
H  -7.95900 36.23200 38.56900
H  -8.72900 34.74300 39.09900
H  -6.68100 33.74000 38.68700
H  -5.96000 34.68100 39.93700
H  -10.74000 42.46000 41.27000
H  -11.68700 42.70800 39.81300
H  -10.30600 41.58600 39.78700
H  -15.97000 43.09900 42.05900
H  -15.68300 41.65800 42.96000
H  -16.36700 41.46400 41.29600
H  -17.13300 37.20600 41.88000
H  -16.60200 35.18800 44.08300
H  -17.78200 38.66900 43.93500
H  -16.61500 37.84300 44.91300
H  -18.07000 37.00800 44.49100
H  -16.67200 34.05600 41.43800
H  -18.11700 35.16800 41.73600
H  -18.97200 33.51200 42.82400
H  -17.62300 33.27800 43.97300
H  -17.54100 32.39400 42.49800
H  -12.04300 31.03100 44.58200
H  -12.67300 30.51400 42.99900
H  -13.72300 31.44100 44.14700
H  -8.39100 32.91500 41.14500
H  -6.66500 32.86500 45.41600
H  -7.51500 34.03100 46.33800
H  -6.35600 34.64400 45.14100

