158

Mg 17.44600 -0.81700 28.09100
C  16.44600 1.29000 30.83900
C  19.09800 -2.76600 30.10700
C  18.91100 -2.15400 25.24500
C  15.64700 1.48300 25.96700
N  17.85000 -0.63500 30.20600
C  17.29700 0.24300 31.19200
C  17.79600 -0.13900 32.55700
C  18.79400 -1.38600 32.26600
C  18.53800 -1.63700 30.77300
C  20.32000 -1.10200 32.49000
C  16.56700 -0.62700 33.51900
C  16.65700 -0.15800 35.01100
H  17.92600 0.52300 35.58700
N  18.70500 -2.34000 27.75000
C  19.20800 -3.08900 28.71300
C  19.96100 -4.20600 28.19400
C  19.87500 -4.03700 26.76400
C  19.12900 -2.80500 26.50300
C  20.60800 -5.29200 29.00000
C  20.38200 -4.92900 25.63700
O  20.13700 -4.72300 24.48400
C  21.08700 -6.22600 25.82300
N  17.21300 -0.52800 25.93500
C  18.05800 -1.05300 25.02600
C  17.81400 -0.42800 23.60000
C  16.75200 0.59100 23.88300
C  16.45200 0.47600 25.40100
C  19.19300 0.10600 22.90500
C  15.45100 0.47500 23.03900
C  15.18100 1.47200 21.89100
N  16.21600 1.00700 28.27400
C  15.53000 1.78500 27.33700
C  14.86600 2.89400 27.97600
C  15.14800 2.68500 29.42100
C  16.01900 1.58100 29.50900
C  14.16900 4.03300 27.45700
C  14.94400 3.21800 30.74000
O  14.32600 4.19400 31.22800
C  15.75100 2.32000 31.71600
C  16.72800 3.14000 32.48800
O  17.72100 3.61500 32.03700
O  16.17000 3.41600 33.75100
C  16.73900 4.44900 34.61100
H  19.60500 -3.40500 30.83200
H  19.49000 -2.48900 24.38200
H  15.13200 2.09700 25.22600
H  18.36300 0.66300 33.02900
H  18.57900 -2.25400 32.89000
H  20.92900 -1.13000 31.58700
H  20.72500 -1.69700 33.31000
H  20.47800 -0.08900 32.85900
H  16.66000 -1.71100 33.57000
H  15.62100 -0.30800 33.08100
H  16.41000 -1.00500 35.65100
H  15.84700 0.56000 35.14600
H  20.20500 -6.22400 28.60300
H  20.33300 -5.31400 30.05500
H  21.66600 -5.30600 28.74000
H  21.47800 -6.61600 24.88300
H  20.41300 -6.95700 26.27000
H  21.90700 -6.13800 26.53600
H  17.48300 -1.26100 22.97900
H  17.22800 1.55500 23.70300
H  20.08400 -0.03800 23.51700
H  19.04900 1.17900 22.77800
H  19.30600 -0.37600 21.93400
H  14.61100 0.62500 23.71800
H  15.35400 -0.55500 22.69600
H  16.11400 2.03000 21.81900
H  14.36700 2.18200 22.04200
H  15.17200 0.99700 20.91000
H  14.74500 4.48900 26.65200
H  14.08800 4.90500 28.10600
H  13.18300 3.71900 27.11600
H  15.17900 1.75800 32.45500
H  16.12900 4.45400 35.51500
H  16.85900 5.39100 34.07600
H  17.74900 4.14000 34.87700
Mg 9.24700 48.47900 25.65200
C  6.82800 49.06500 28.15900
C  11.65800 49.45900 27.95300
C  11.36900 48.15400 23.23200
C  6.52000 47.81700 23.48200
N  9.24100 49.32200 27.69300
C  8.17400 49.34500 28.53500
C  8.61300 49.55400 30.01500
C  9.95800 50.20500 29.73800
C  10.32900 49.60900 28.40700
C  9.91000 51.70900 29.73700
C  8.83000 48.21100 30.79700
C  9.49500 48.23100 32.23600
H  8.85100 47.23600 33.20600
N  11.19100 48.75700 25.61000
C  12.01000 49.04900 26.63300
C  13.43100 49.01000 26.17200
C  13.32700 48.67400 24.78900
C  11.94100 48.58400 24.48600
C  14.56600 49.28000 27.03500
C  14.54600 48.47200 23.79300
O  14.53000 48.25200 22.61300
C  15.89300 48.45200 24.45800
N  8.94100 47.90000 23.68000
C  10.04900 47.89100 22.86500
C  9.63200 47.38500 21.46200
C  8.05600 47.54500 21.45200
C  7.83500 47.72200 22.96000
C  10.23100 48.05700 20.22000
C  7.24900 46.34100 20.81900
C  6.05300 46.57800 19.86800
N  7.04900 48.34200 25.73500
C  6.11500 48.08000 24.77700
C  4.75400 48.16700 25.40300
C  5.01400 48.43700 26.73000
C  6.41500 48.65200 26.85900
C  3.44600 47.89800 24.71700
C  4.36100 48.51400 27.96000
O  3.19100 48.29100 28.30900
C  5.49000 49.02600 28.91000
C  5.38900 48.07400 30.06300
O  5.49000 46.86800 30.01200
O  4.88800 48.68600 31.19000
C  4.36800 47.68900 32.16400
H  12.44100 49.91600 28.56100
H  12.14800 48.06400 22.47200
H  5.77700 47.61600 22.70800
H  7.88300 50.11700 30.59600
H  10.81500 49.91500 30.34600
H  8.88200 52.06600 29.80600
H  10.37600 52.09700 28.83100
H  10.44400 52.09300 30.60600
H  9.61600 47.67300 30.26700
H  7.97600 47.53500 30.78000
H  9.36000 49.22200 32.66900
H  10.54300 48.00100 32.04500
H  15.12800 48.34900 27.10700
H  14.30200 49.54100 28.06000
H  15.16200 50.05500 26.55400
H  16.18600 49.42900 24.84300
H  16.64800 48.07100 23.77100
H  15.98100 47.63500 25.17400
H  10.00100 46.36100 21.39200
H  7.63200 48.50600 21.16200
H  11.29400 48.21700 20.40400
H  9.67200 48.95900 19.97100
H  10.29900 47.31200 19.42800
H  6.90400 45.72600 21.65000
H  7.89100 45.71300 20.20200
H  6.03200 47.56200 19.39800
H  5.10300 46.30500 20.32800
H  6.14300 45.86300 19.05000
H  3.09900 48.76100 24.14900
H  2.71300 47.46100 25.39500
H  3.63100 47.06900 24.03400
H  5.06600 49.98800 29.19800
H  3.81000 46.86600 31.71600
H  3.81600 48.04000 33.03500
H  5.19000 47.11800 32.59600

