158

Mg 47.99300 35.22600 26.43800
C  46.54500 33.65200 29.35400
C  48.29600 38.09500 28.53800
C  49.37900 36.82000 23.90300
C  47.41300 32.38000 24.61400
N  47.33900 35.80100 28.71300
C  46.99700 34.93400 29.73100
C  47.19900 35.60600 31.04900
C  47.17200 37.11200 30.65600
C  47.59800 37.03000 29.18600
C  45.85100 37.93500 30.88800
C  48.50300 35.17500 31.82100
C  48.38600 34.93300 33.35800
H  47.20800 35.73800 33.95100
N  48.82800 37.08800 26.24100
C  48.82700 38.07000 27.24100
C  49.48300 39.24100 26.63900
C  49.88300 38.88500 25.29600
C  49.33300 37.55200 25.10600
C  49.67200 40.57200 27.36500
C  50.76900 39.64800 24.24000
O  51.19600 39.25800 23.17000
C  50.98400 41.10500 24.46700
N  48.27900 34.69300 24.58700
C  48.91800 35.52200 23.63100
C  49.05100 34.84300 22.33100
C  48.88700 33.36000 22.79300
C  48.11000 33.46000 24.09800
C  48.02800 35.34600 21.28200
C  50.18800 32.51500 22.94900
C  50.06800 31.09900 22.46700
N  47.04500 33.45600 26.75900
C  46.88000 32.35300 25.87300
C  46.15400 31.32000 26.59800
C  46.10700 31.79500 27.94700
C  46.60100 33.10100 28.01600
C  45.71300 30.00900 25.94700
C  45.72500 31.32200 29.25600
O  45.22200 30.31100 29.65000
C  45.79200 32.62700 30.19300
C  46.19300 32.33400 31.59500
O  47.36500 32.28200 31.93400
O  45.14600 32.13000 32.45200
C  45.41600 31.80600 33.86700
H  48.67100 38.89100 29.18600
H  49.83700 37.28500 23.02800
H  47.21300 31.46300 24.05600
H  46.26400 35.46000 31.58900
H  47.92700 37.69200 31.18800
H  45.20800 37.57700 31.69200
H  45.41600 38.06900 29.89700
H  46.20800 38.93600 31.12700
H  49.31000 35.88800 31.65100
H  48.78100 34.23900 31.33700
H  49.31300 35.39500 33.69500
H  48.46800 33.87000 33.58400
H  50.71300 40.81900 27.57000
H  49.16400 40.67400 28.32500
H  49.37300 41.33900 26.65000
H  50.09500 41.73400 24.40500
H  51.76700 41.50300 23.82200
H  51.53100 41.11100 25.41000
H  50.07600 34.99900 21.99600
H  48.24200 32.79600 22.11900
H  48.60300 35.73700 20.44300
H  47.24100 36.04100 21.57800
H  47.47300 34.51400 20.85000
H  50.67100 32.54500 23.92500
H  50.99600 32.99000 22.39200
H  49.24700 31.06500 21.75100
H  49.84400 30.29900 23.17200
H  51.02500 30.84300 22.01200
H  46.20800 29.76700 25.00700
H  44.63600 30.14000 25.84600
H  45.89300 29.18000 26.63100
H  44.77200 32.99000 30.31700
H  44.67800 31.11700 34.27800
H  45.53000 32.72900 34.43500
H  46.36300 31.35600 34.16400
Mg -2.03000 35.48200 26.73600
C  -3.72400 33.72600 29.31700
C  -0.84900 37.66100 29.16900
C  -0.48000 37.03100 24.38200
C  -3.62400 33.22500 24.48100
N  -2.24200 35.66700 28.97100
C  -2.90500 34.79500 29.81100
C  -2.82800 35.19800 31.27200
C  -2.03100 36.53700 31.11100
C  -1.71300 36.67600 29.69300
C  -2.69000 37.75500 31.74000
C  -1.99600 34.18000 32.12700
C  -1.85500 34.54000 33.53800
H  -2.66500 33.64000 34.44900
N  -0.84700 37.17800 26.76400
C  -0.46500 37.96600 27.86300
C  0.40300 39.04100 27.37600
C  0.54100 38.86800 25.97000
C  -0.37400 37.64900 25.61000
C  1.07700 40.03000 28.26700
C  1.33500 39.57400 24.84900
O  1.47100 39.11300 23.74100
C  2.20800 40.78600 25.30800
N  -2.06700 35.19900 24.78300
C  -1.16100 35.85800 24.07600
C  -0.97000 35.15800 22.64200
C  -2.00300 33.95200 22.63200
C  -2.58700 34.09400 24.02500
C  -1.09400 36.21300 21.50500
C  -1.31500 32.54100 22.36100
C  -2.14000 31.59300 21.40200
N  -3.48800 33.90400 26.82300
C  -4.03200 33.11600 25.83800
C  -4.98900 32.20200 26.41600
C  -4.85100 32.42300 27.80700
C  -3.97000 33.41200 28.00300
C  -5.77900 31.17500 25.67900
C  -5.23000 31.91400 29.13600
O  -5.78900 30.87000 29.43800
C  -4.63300 32.87500 30.15500
C  -5.71200 33.67100 30.75400
O  -6.55700 34.17500 30.04900
O  -5.77300 33.54600 32.13000
C  -6.91600 34.20400 32.81200
H  -0.58000 38.38800 29.93700
H  0.05600 37.51600 23.56300
H  -3.94300 32.46200 23.76800
H  -3.82000 35.36000 31.69500
H  -1.05300 36.37900 31.56700
H  -3.72500 37.52200 31.98900
H  -2.64600 38.64700 31.11600
H  -2.31500 38.06800 32.71400
H  -0.98200 34.32200 31.75300
H  -2.47300 33.20100 32.10900
H  -2.08000 35.57800 33.78200
H  -0.80500 34.48300 33.82400
H  0.55200 40.98000 28.16800
H  2.09400 40.17500 27.90200
H  1.15200 39.82500 29.33400
H  2.42500 41.41100 24.44200
H  3.07200 40.40100 25.84900
H  1.63300 41.38600 26.01300
H  0.08300 34.88100 22.70300
H  -2.63600 34.21100 21.78400
H  -1.63500 37.09400 21.85200
H  -1.69400 35.84400 20.67400
H  -0.12200 36.51900 21.11700
H  -1.03500 32.08800 23.31200
H  -0.36000 32.73500 21.87300
H  -1.54700 31.10000 20.63100
H  -2.98100 32.12400 20.95600
H  -2.53100 30.79900 22.03700
H  -5.67300 31.32900 24.60500
H  -6.73900 31.19700 26.19400
H  -5.40400 30.18400 25.93800
H  -4.17500 32.23700 30.91100
H  -7.77800 34.15400 32.14700
H  -6.61100 35.22800 33.02800
H  -7.11000 33.63500 33.72200

