158

Mg 7.42200 54.57800 41.45700
C  6.69400 51.22700 41.18400
C  10.59900 53.98200 40.35600
C  7.78000 57.99000 41.05600
C  4.04300 55.21800 42.00600
N  8.53800 52.75200 40.97100
C  8.01400 51.46100 40.81500
C  9.06200 50.45900 40.29400
C  10.35100 51.32200 40.38900
C  9.78200 52.76200 40.61600
C  11.45000 50.78100 41.33500
C  8.79200 49.89200 38.88400
C  8.35400 50.87600 37.75200
H  9.04600 50.76400 36.41200
N  8.97000 55.76200 40.69300
C  10.22000 55.31000 40.41900
C  11.07600 56.47300 40.28700
C  10.21200 57.61700 40.36000
C  8.95100 57.16900 40.78200
C  12.54800 56.38800 39.91900
C  10.67900 59.01800 40.12500
O  11.85400 59.21000 39.93100
C  9.71800 60.13300 40.07100
N  6.07100 56.27500 41.31000
C  6.47200 57.57200 41.32800
C  5.38100 58.62200 41.47300
C  4.15500 57.69300 41.70500
C  4.79300 56.30500 41.68500
C  5.74100 59.67800 42.57600
C  2.99600 57.95600 40.66500
C  3.26100 57.62900 39.14400
N  5.75900 53.52900 41.77900
C  4.44400 53.87200 42.05700
C  3.65000 52.71200 42.40000
C  4.56800 51.65800 42.07800
C  5.75200 52.21500 41.62400
C  2.16900 52.46200 42.77300
C  4.66200 50.19700 42.07400
O  3.88600 49.37600 42.53500
C  6.07900 49.88300 41.41200
C  5.84800 49.01600 40.20800
O  5.62200 49.46200 39.11600
O  5.72700 47.66300 40.52400
C  5.17400 46.86400 39.41300
H  11.62800 53.67800 40.15600
H  7.81000 59.07100 41.21000
H  2.97100 55.38100 42.13900
H  9.17400 49.67800 41.04700
H  10.83100 51.36900 39.41100
H  11.24300 49.73200 41.55000
H  11.42500 51.29600 42.29500
H  12.39400 50.95700 40.81900
H  8.00900 49.13500 38.92600
H  9.70700 49.32900 38.69800
H  8.34100 51.89500 38.13800
H  7.32700 50.55900 37.57500
H  12.85500 55.55900 39.28200
H  13.23600 56.43500 40.76300
H  12.86000 57.29100 39.39500
H  10.09000 60.97200 39.48300
H  9.30600 60.41600 41.03900
H  8.79600 59.84100 39.56800
H  5.26200 59.06900 40.48600
H  3.78200 57.78500 42.72500
H  6.68900 59.57200 43.10500
H  4.98200 59.57800 43.35200
H  5.68000 60.63000 42.04900
H  2.74300 59.01500 40.71400
H  2.14600 57.35600 40.99100
H  3.87000 56.79900 38.78800
H  3.27300 58.51600 38.51000
H  2.26400 57.28100 38.87700
H  1.58700 52.40200 41.85300
H  1.69400 53.26700 43.33400
H  1.92500 51.52400 43.27300
H  6.73800 49.43600 42.15500
H  5.63100 47.05600 38.44200
H  4.10800 47.04600 39.27200
H  5.26600 45.78200 39.51300
Mg 16.39300 52.88300 26.51200
C  18.42400 51.34000 29.15300
C  14.12200 53.68300 28.98800
C  14.56400 54.02000 24.18000
C  18.69700 51.53900 24.23600
N  16.24300 52.45700 28.83200
C  17.25800 51.96700 29.61400
C  16.89500 52.31100 31.03100
C  15.36300 52.59200 30.90800
C  15.26200 52.98700 29.50200
C  14.44400 51.32400 31.25500
C  17.79900 53.44300 31.48400
C  17.87600 53.77300 33.01700
H  16.96100 53.01400 34.02800
N  14.63300 53.85300 26.59700
C  13.84700 54.11200 27.67800
C  12.66700 54.83500 27.26300
C  12.74900 54.92800 25.85600
C  13.99900 54.28600 25.43900
C  11.49200 55.19800 28.16800
C  11.68000 55.42000 24.81900
O  11.94000 55.46200 23.60900
C  10.25500 55.92000 25.30000
N  16.54700 52.68900 24.51000
C  15.63900 53.30300 23.76300
C  15.80100 53.01600 22.28900
C  17.28800 52.37700 22.29900
C  17.62300 52.25500 23.75000
C  14.72000 52.20700 21.69700
C  18.40200 53.16700 21.52900
C  19.29600 52.24200 20.73700
N  18.22000 51.71700 26.60400
C  19.04200 51.23100 25.59100
C  20.21300 50.62100 26.09700
C  20.00700 50.64400 27.48800
C  18.78400 51.30400 27.75300
C  21.36600 49.96300 25.36600
C  20.67500 50.26000 28.70900
O  21.78800 49.78000 28.85900
C  19.71800 50.80300 29.91000
C  19.35400 49.68100 30.84000
O  19.07700 48.53300 30.53400
O  19.49600 50.03000 32.16400
C  19.55300 48.92500 33.17600
H  13.32100 53.79300 29.72200
H  13.95200 54.42600 23.37100
H  19.51300 51.28300 23.55600
H  17.16900 51.51500 31.72400
H  15.02800 53.35700 31.60800
H  14.29900 51.22700 32.33100
H  15.03400 50.53500 30.78800
H  13.50800 51.42500 30.70500
H  17.53300 54.37200 30.97700
H  18.81800 53.35500 31.10900
H  17.49400 54.79400 33.01700
H  18.87900 53.84000 33.43800
H  10.76000 54.39200 28.22100
H  10.90600 56.05700 27.84100
H  11.98800 55.45100 29.10500
H  10.35300 56.88000 25.80700
H  9.95300 55.13000 25.98700
H  9.63800 56.12200 24.42400
H  15.85300 54.01100 21.84800
H  17.25200 51.34600 21.94700
H  15.23400 51.54300 21.00300
H  13.91500 52.74900 21.20000
H  14.21700 51.61600 22.46300
H  19.03700 53.80500 22.14500
H  17.91400 53.87700 20.86100
H  19.27000 51.20700 21.07700
H  20.34300 52.43700 20.96700
H  19.14500 52.37700 19.66600
H  22.30300 49.96300 25.92400
H  21.60200 50.49700 24.44600
H  21.18400 48.88800 25.33600
H  20.17600 51.59600 30.50000
H  19.54200 49.45300 34.13000
H  20.42600 48.28100 33.07500
H  18.62300 48.36800 33.06200

