158

Mg 25.47700 51.29600 26.38800
C  23.20300 51.99600 29.10000
C  27.65300 50.19500 28.88000
C  27.82200 51.13100 24.07100
C  23.17400 52.44900 24.11300
N  25.44200 51.21700 28.79500
C  24.40700 51.51400 29.65900
C  24.77500 51.25400 31.15400
C  26.24100 50.68600 31.02200
C  26.44000 50.66000 29.47700
C  27.22500 51.58200 31.60900
C  23.78300 50.31400 31.82200
C  23.44600 50.55700 33.34100
H  24.45800 51.29900 34.24500
N  27.43900 50.68800 26.45600
C  28.14900 50.24500 27.53300
C  29.50000 49.75400 27.03800
C  29.55000 50.13500 25.71000
C  28.23400 50.64000 25.34900
C  30.59000 49.21200 27.96700
C  30.76300 49.99400 24.77400
O  30.73600 50.32900 23.59700
C  32.12800 49.60100 25.27200
N  25.55200 51.72700 24.39700
C  26.62700 51.65400 23.62600
C  26.27100 51.76300 22.05300
C  24.74300 52.18800 22.08300
C  24.43700 52.12500 23.64500
C  27.22100 52.77000 21.33500
C  23.89300 51.28400 21.15800
C  23.51300 49.86300 21.51400
N  23.65800 52.07200 26.55000
C  22.78600 52.42700 25.50800
C  21.55700 52.77900 26.07200
C  21.70000 52.65000 27.42400
C  22.95500 52.18400 27.72600
C  20.35400 53.23700 25.40900
C  20.98500 52.84700 28.69000
O  19.84600 53.23800 28.90000
C  21.91500 52.40100 29.84000
C  22.08300 53.66600 30.62100
O  22.56200 54.69800 30.24000
O  21.58100 53.47600 31.94800
C  21.93100 54.50400 32.95100
H  28.35800 49.92500 29.67000
H  28.52400 50.78300 23.31100
H  22.41300 52.71600 23.37700
H  24.62100 52.20200 31.67000
H  26.43800 49.66600 31.35400
H  26.86500 52.11200 32.49100
H  27.41000 52.48500 31.02900
H  28.19200 51.16200 31.88700
H  24.27300 49.34100 31.84900
H  22.88600 50.30900 31.20400
H  23.22900 49.58800 33.79000
H  22.61600 51.26300 33.33100
H  30.21100 49.15300 28.98700
H  31.42600 49.91100 27.93300
H  30.89300 48.19800 27.70400
H  32.25900 48.74700 25.93700
H  32.54000 50.41800 25.86500
H  32.81800 49.33100 24.47200
H  26.44500 50.79700 21.58100
H  24.53500 53.14300 21.60300
H  28.19000 52.93300 21.80600
H  26.77600 53.75200 21.49600
H  27.27900 52.57100 20.26500
H  24.43000 51.26800 20.20900
H  22.97000 51.77900 20.85800
H  23.87000 49.20400 20.72200
H  22.43300 49.74900 21.42100
H  23.67100 49.55000 22.54600
H  20.25400 54.32200 25.37300
H  19.51200 52.81600 25.95900
H  20.23000 52.88600 24.38500
H  21.29800 51.78600 30.49500
H  21.70100 54.19500 33.97000
H  21.34900 55.38400 32.67700
H  22.95300 54.85800 32.81400
Mg 0.08800 42.84900 24.84500
C  2.33300 42.38300 27.50700
C  -2.24300 41.07200 26.71600
C  -2.01200 43.18100 22.34900
C  2.81100 43.74800 22.87900
N  0.10400 41.64900 26.81200
C  1.06200 41.91200 27.80300
C  0.49000 41.65100 29.25300
C  -0.92400 41.02100 28.91200
C  -1.07600 41.26400 27.42200
C  -1.21100 39.55000 29.44100
C  0.52200 42.96300 30.12700
C  0.88800 42.78600 31.62100
H  0.70900 41.35600 32.16400
N  -1.86300 42.23600 24.60500
C  -2.65200 41.56000 25.48000
C  -4.03400 41.44000 24.89800
C  -3.93200 42.06300 23.61200
C  -2.49700 42.57100 23.47200
C  -5.14900 40.71900 25.51600
C  -5.07800 42.22300 22.73000
O  -4.87800 42.75700 21.59400
C  -6.40700 41.89300 22.98300
N  0.33500 43.25200 22.88600
C  -0.72900 43.51200 22.06600
C  -0.30800 44.33500 20.81300
C  1.22900 44.42200 20.91100
C  1.49100 43.83800 22.35200
C  -0.93400 43.74500 19.43200
C  1.85400 45.77300 20.78300
C  1.41800 46.92500 21.66700
N  2.16900 43.04600 25.09500
C  3.14300 43.40400 24.20900
C  4.42300 43.37000 24.79000
C  4.15900 43.08700 26.19800
C  2.76100 42.84000 26.26500
C  5.80100 43.59200 24.20900
C  4.67100 43.00400 27.52400
O  5.83400 43.16000 27.89100
C  3.49600 42.58400 28.44600
C  3.99100 41.25800 28.94100
O  4.15000 40.24400 28.23200
O  4.31100 41.28700 30.27000
C  4.78800 40.03000 30.84900
H  -3.04500 40.72000 27.36800
H  -2.71200 43.49500 21.57200
H  3.56200 43.96500 22.11600
H  1.23000 40.93500 29.61100
H  -1.66500 41.65800 29.39500
H  -0.51600 39.23500 30.21900
H  -1.28000 38.80200 28.65100
H  -2.19200 39.61000 29.91100
H  -0.47200 43.41000 30.09700
H  1.20100 43.68800 29.68100
H  0.31800 43.52300 32.18700
H  1.93700 43.07600 31.67700
H  -5.76800 41.42100 26.07500
H  -4.89900 39.97100 26.26800
H  -5.69100 40.06800 24.83000
H  -6.68700 40.84900 22.84600
H  -6.99700 42.40100 22.21900
H  -6.77700 42.02800 23.99900
H  -0.62800 45.36000 21.00100
H  1.62600 43.64600 20.25700
H  -1.56700 44.56700 19.09600
H  -1.48500 42.81700 19.57800
H  -0.12200 43.63100 18.71400
H  1.56700 46.05200 19.76900
H  2.94100 45.84100 20.83400
H  1.19700 47.78100 21.03000
H  2.22700 47.23400 22.33000
H  0.64800 46.68000 22.39800
H  5.92200 44.20200 23.31500
H  6.13700 42.58200 23.97100
H  6.38600 43.99000 25.03800
H  3.30400 43.25300 29.28500
H  3.90900 39.38900 30.91300
H  4.97000 40.13100 31.91900
H  5.59400 39.50200 30.34000

