158

Mg 0.86500 8.38700 26.59000
C  1.38200 10.17200 29.41900
C  0.99000 5.37800 28.16100
C  0.89900 6.71100 23.50600
C  1.68600 11.34600 24.84800
N  1.32100 7.86500 28.51600
C  1.20100 8.75500 29.56600
C  0.92800 8.05700 30.85300
C  1.40200 6.62800 30.54300
C  1.23800 6.57800 28.95800
C  2.82200 6.16200 30.83400
C  -0.46600 8.31000 31.39900
C  -0.65600 8.01700 32.89600
H  0.48900 7.39200 33.66000
N  0.59500 6.42500 25.92200
C  0.76300 5.27600 26.68300
C  0.53300 4.08300 25.92200
C  0.49600 4.45500 24.60900
C  0.63100 5.91500 24.61400
C  0.50900 2.66700 26.51600
C  0.24800 3.62300 23.41200
O  0.04800 4.08500 22.28500
C  0.05500 2.10700 23.59600
N  1.23900 8.90500 24.45500
C  1.30500 8.02400 23.44800
C  1.69100 8.74700 22.20300
C  1.80100 10.26700 22.52300
C  1.56000 10.24000 24.05100
C  2.95200 8.14200 21.58900
C  0.79700 11.22100 21.78400
C  -0.75900 11.01900 22.06300
N  1.25600 10.41200 26.99600
C  1.64400 11.48600 26.23300
C  1.87300 12.68000 26.99500
C  1.80500 12.13500 28.31400
C  1.49000 10.81000 28.26300
C  2.16000 14.07800 26.54600
C  1.96400 12.47600 29.76100
O  2.33700 13.49900 30.30400
C  1.55200 11.18900 30.46600
C  2.69900 10.94800 31.45700
O  3.81800 10.55400 31.22200
O  2.27600 11.46200 32.61800
C  3.21800 11.72400 33.68400
H  1.11500 4.39600 28.62100
H  1.10500 6.31800 22.50800
H  1.87200 12.30200 24.35300
H  1.66800 8.38200 31.58400
H  0.67500 5.95200 30.99300
H  3.27600 5.92200 29.87300
H  2.91100 5.34900 31.55400
H  3.29400 7.05900 31.23600
H  -1.22800 7.71700 30.89400
H  -0.75400 9.36000 31.33700
H  -1.54100 7.40000 33.05200
H  -0.86400 8.95500 33.41200
H  0.64700 2.72300 27.59500
H  1.36000 2.11500 26.11700
H  -0.39300 2.15000 26.18700
H  -0.83700 1.93500 24.19800
H  0.94500 1.69400 24.07000
H  0.00300 1.66400 22.60100
H  0.77300 8.60900 21.63100
H  2.81800 10.65400 22.44900
H  3.64100 7.80600 22.36300
H  3.45500 8.89900 20.98800
H  2.66300 7.25000 21.03200
H  0.99700 11.12100 20.71700
H  1.17900 12.18500 22.12100
H  -1.40300 10.88200 21.19500
H  -0.90000 12.02900 22.45000
H  -0.95300 10.34600 22.89800
H  1.27400 14.56500 26.13900
H  2.90900 14.06200 25.75500
H  2.55700 14.61400 27.40800
H  0.59000 11.34800 30.95300
H  4.03400 11.00600 33.77800
H  2.74400 11.62900 34.66000
H  3.54400 12.76400 33.67900
Mg 25.67200 1.32900 29.27200
C  27.76600 0.80700 32.04200
C  23.04700 1.70700 31.38000
C  23.80400 1.44500 26.58000
C  28.40600 0.30200 27.24200
N  25.47400 1.31000 31.40500
C  26.48500 1.22900 32.32800
C  25.96000 1.58400 33.68200
C  24.38300 1.47500 33.54000
C  24.24100 1.51300 32.03300
C  23.68200 0.19700 34.21600
C  26.42300 2.96100 34.19600
C  27.50500 3.03300 35.31400
H  27.16100 3.80100 36.59200
N  23.61600 1.57500 29.04000
C  22.71700 1.73600 30.00900
C  21.41300 2.02400 29.36800
C  21.71100 2.03700 27.94500
C  23.06500 1.71900 27.76400
C  20.18500 2.37700 30.11600
C  20.70300 2.27300 26.84300
O  20.97200 2.41600 25.62500
C  19.24100 2.35700 27.15000
N  25.92000 0.56700 27.35300
C  25.05000 0.88700 26.43700
C  25.52200 0.64600 24.99300
C  27.09600 0.57300 25.15800
C  27.12000 0.45900 26.71000
C  24.84600 -0.55000 24.43700
C  27.78100 1.90600 24.72800
C  29.04600 1.66400 23.83900
N  27.69900 0.61100 29.46900
C  28.74000 0.32400 28.58700
C  29.95300 0.06300 29.24100
C  29.62300 0.21900 30.64600
C  28.24000 0.53400 30.68100
C  31.26400 -0.24000 28.61100
C  30.20300 0.17400 31.95700
O  31.30700 -0.10100 32.38200
C  28.98300 0.65000 32.95700
C  28.90600 -0.27000 34.16600
O  28.28300 -1.28500 34.21900
O  29.56100 0.29600 35.18700
C  29.38800 -0.41700 36.43700
H  22.22300 1.91400 32.06600
H  23.26700 1.47700 25.63000
H  29.28500 0.20100 26.60200
H  26.28300 0.85000 34.42100
H  24.02000 2.37900 34.02900
H  22.97900 0.61500 34.93800
H  24.37700 -0.44100 34.76200
H  23.29300 -0.48500 33.46000
H  25.61100 3.64900 34.43300
H  26.78000 3.50000 33.31900
H  28.36800 3.55600 34.90300
H  27.78000 2.01100 35.57600
H  19.68100 3.24600 29.69300
H  20.35200 2.65400 31.15700
H  19.41300 1.60900 30.05900
H  18.88600 1.49900 27.72100
H  18.69900 2.49300 26.21400
H  19.17100 3.30100 27.69100
H  25.27800 1.58800 24.50200
H  27.57500 -0.33500 24.79100
H  24.80400 -1.32300 25.20400
H  25.29300 -1.05500 23.58000
H  23.84300 -0.23400 24.15200
H  28.14500 2.57000 25.51300
H  27.14500 2.44300 24.02400
H  29.84700 2.33000 24.16000
H  28.81300 1.76100 22.77900
H  29.45600 0.65700 23.92200
H  31.09000 -0.97500 27.82500
H  31.91200 -0.74200 29.32800
H  31.70900 0.63300 28.13400
H  29.24200 1.61300 33.39700
H  29.69100 -1.46400 36.39600
H  28.33700 -0.35400 36.71700
H  29.92200 0.05000 37.26400

