158

Mg -3.23300 17.26500 25.56500
C  -3.24600 14.82100 28.20100
C  -3.95500 19.57000 27.92100
C  -3.35700 19.41900 23.09200
C  -2.77800 14.68500 23.33000
N  -3.55300 17.13600 27.91500
C  -3.39300 16.11200 28.73000
C  -3.50500 16.53600 30.20100
C  -4.04400 18.00500 30.08100
C  -3.87200 18.30600 28.53100
C  -5.43500 18.42800 30.61200
C  -2.08500 16.32900 30.85500
C  -1.52600 17.08200 32.06300
H  -1.30600 16.17800 33.29500
N  -3.63900 19.21100 25.47100
C  -3.82700 19.99300 26.57000
C  -4.08300 21.29500 26.11600
C  -3.83300 21.38600 24.75000
C  -3.63000 19.96600 24.35700
C  -4.47400 22.45400 27.09700
C  -3.71600 22.66500 23.82500
O  -3.68500 22.56600 22.62200
C  -3.55400 24.03300 24.50500
N  -2.74600 17.11600 23.51200
C  -2.97700 18.16700 22.70800
C  -2.76700 17.82200 21.20600
C  -2.85700 16.28200 21.36800
C  -2.66600 15.98800 22.80200
C  -3.77100 18.36500 20.12400
C  -1.97000 15.43000 20.36900
C  -2.56900 14.24400 19.64100
N  -3.16400 15.23800 25.71000
C  -3.05200 14.31800 24.69100
C  -3.14700 12.97900 25.15000
C  -3.19500 13.17100 26.48800
C  -3.22400 14.56200 26.83800
C  -3.06000 11.67800 24.43800
C  -3.26200 12.39900 27.72400
O  -3.16600 11.19500 27.89300
C  -3.26100 13.49300 28.89100
C  -2.03900 13.12200 29.71500
O  -0.86100 13.31500 29.42900
O  -2.47800 12.56700 30.90900
C  -1.47700 12.48000 31.93200
H  -4.35400 20.26100 28.66700
H  -3.39400 20.10100 22.24000
H  -2.81000 13.91600 22.55600
H  -4.23500 15.84400 30.62100
H  -3.37400 18.65500 30.64300
H  -5.93700 17.59300 31.10100
H  -6.08900 18.70900 29.78700
H  -5.43500 19.23000 31.35000
H  -1.34000 16.51800 30.08200
H  -2.02100 15.24700 30.97500
H  -2.28500 17.83400 32.27900
H  -0.52100 17.43600 31.83400
H  -4.88100 22.04300 28.02100
H  -5.25900 22.96600 26.54200
H  -3.58700 23.06600 27.26300
H  -3.50800 24.80800 23.73900
H  -2.60300 24.07500 25.03700
H  -4.38600 24.22700 25.18200
H  -1.77000 18.08400 20.85000
H  -3.81800 15.80700 21.17300
H  -4.72300 18.60400 20.59700
H  -3.81500 17.66700 19.28700
H  -3.32500 19.31200 19.82100
H  -1.14900 15.05500 20.98000
H  -1.56400 16.13500 19.64400
H  -3.56800 14.09200 20.05000
H  -1.91100 13.37800 19.70700
H  -2.63600 14.54600 18.59600
H  -4.07300 11.37600 24.17000
H  -2.51500 10.87700 24.93600
H  -2.39000 11.71600 23.57900
H  -4.13100 13.29300 29.51600
H  -0.65300 13.19300 31.95100
H  -1.05500 11.48100 31.82900
H  -2.11300 12.65400 32.80100
Mg 42.71000 40.76100 26.47500
C  41.43100 43.00500 28.99400
C  43.76200 38.69400 28.90000
C  43.76500 38.75600 24.04000
C  41.88700 43.10100 24.07500
N  42.58600 40.85300 28.74000
C  41.95200 41.74800 29.55500
C  42.07800 41.43400 30.99900
C  42.92400 40.09500 30.88800
C  43.15400 39.85400 29.45400
C  44.13400 39.98700 31.79300
C  40.70600 41.23800 31.68800
C  40.64700 40.73600 33.18500
H  40.39300 41.72500 34.30900
N  43.49200 38.96000 26.47800
C  43.87300 38.24700 27.59000
C  44.34700 36.98600 27.22200
C  44.24700 36.95600 25.77600
C  43.88200 38.31300 25.34700
C  44.91500 35.90100 28.20600
C  44.51000 35.88000 24.70400
O  44.34900 35.94000 23.47000
C  45.00200 34.59600 25.34000
N  42.81300 40.92900 24.35800
C  43.32000 39.98800 23.57800
C  43.30600 40.38400 22.05900
C  42.74600 41.80500 22.06300
C  42.42400 42.00900 23.55200
C  44.65600 40.21400 21.25300
C  41.50600 41.92200 21.14300
C  40.23100 41.31200 21.70200
N  41.98000 42.67600 26.52600
C  41.63900 43.45600 25.47000
C  41.07400 44.73300 25.88500
C  40.96600 44.51700 27.28100
C  41.56200 43.28100 27.61200
C  40.93800 45.96000 25.02600
C  40.44300 45.21100 28.50900
O  40.02700 46.36800 28.68600
C  40.72800 44.13300 29.65900
C  41.63100 44.71700 30.66900
O  42.79600 45.04600 30.41800
O  40.96600 44.90800 31.86100
C  41.77000 45.56800 32.87000
H  44.02900 38.04400 29.73600
H  44.05600 38.18700 23.15500
H  41.61600 43.85800 23.33600
H  42.68000 42.20300 31.48400
H  42.34300 39.23500 31.22000
H  44.36100 40.84500 32.42700
H  44.98000 39.86100 31.11700
H  44.07100 39.12800 32.46100
H  39.96500 40.77500 31.03600
H  40.31700 42.25400 31.75800
H  41.61000 40.24600 33.32800
H  39.91700 39.93200 33.27700
H  44.41000 34.94200 28.09200
H  44.69800 36.17300 29.23900
H  45.98300 35.81400 28.00300
H  44.26400 34.19200 26.03400
H  45.90800 34.77200 25.91900
H  45.12100 33.88600 24.52100
H  42.53800 39.79900 21.55300
H  43.47900 42.53600 21.72300
H  45.41800 39.82500 21.92900
H  45.10300 41.06400 20.73800
H  44.38400 39.50400 20.47300
H  41.53600 41.42800 20.17100
H  41.44200 42.99300 20.95300
H  39.61600 41.01200 20.85400
H  39.68800 42.05300 22.29000
H  40.43300 40.49500 22.39500
H  39.89100 46.22200 24.87600
H  41.28000 45.77800 24.00700
H  41.49400 46.80500 25.43200
H  39.83100 43.69400 30.09500
H  42.72700 45.08100 33.05500
H  41.26200 45.51300 33.83300
H  41.87500 46.62300 32.62000

