158

Mg 24.80600 -7.50900 48.55200
C  27.24200 -5.26700 46.91900
C  22.56600 -6.28100 46.24700
C  22.81000 -9.72000 49.83000
C  27.57900 -9.08000 50.07600
N  24.94300 -5.85700 46.77200
C  25.98500 -5.03500 46.39700
C  25.49600 -4.02800 45.32900
C  23.93400 -4.39200 45.25800
C  23.73500 -5.50800 46.24500
C  23.07200 -3.09100 45.40400
C  26.22700 -4.06800 43.94300
C  26.64600 -2.70700 43.34900
H  26.53900 -2.51000 41.86800
N  22.94500 -7.93300 48.12800
C  22.26700 -7.32000 47.08500
C  20.95100 -7.96700 47.09900
C  20.92600 -8.88200 48.20000
C  22.23800 -8.83600 48.81600
C  19.75600 -7.62100 46.11000
C  19.78800 -9.78600 48.55100
O  18.63700 -9.62200 48.07100
C  19.93100 -10.90500 49.54500
N  25.17300 -9.19100 49.76200
C  24.12600 -9.91800 50.21600
C  24.57200 -10.97600 51.18700
C  26.11500 -10.87900 51.14200
C  26.28800 -9.62600 50.29300
C  24.04500 -10.88600 52.67300
C  26.90900 -12.08300 50.56800
C  28.04600 -12.69200 51.47500
N  26.96600 -7.26800 48.62000
C  27.93300 -7.93800 49.35000
C  29.21200 -7.40000 49.10300
C  28.99300 -6.26200 48.34700
C  27.57000 -6.31600 47.91500
C  30.50300 -8.03800 49.62600
C  29.70500 -5.13900 47.67600
O  30.85800 -4.83100 47.71500
C  28.49800 -4.39200 46.74800
C  28.26800 -3.02200 47.26600
O  27.86500 -2.65500 48.36400
O  28.64600 -2.15700 46.35700
C  28.21600 -0.80700 46.56100
H  21.77200 -5.93300 45.58300
H  22.24600 -10.54300 50.27500
H  28.34300 -9.69600 50.55600
H  25.63100 -3.02400 45.73100
H  23.50200 -4.79000 44.34000
H  22.73700 -2.85700 46.41400
H  22.13900 -3.32300 44.88900
H  23.51100 -2.24700 44.87200
H  25.49500 -4.43100 43.22200
H  27.09600 -4.72600 43.91800
H  27.67000 -2.45200 43.62300
H  25.95300 -1.96800 43.75400
H  19.88800 -8.22100 45.21000
H  19.82400 -6.60000 45.73500
H  18.76200 -7.87300 46.47800
H  20.57700 -11.63400 49.05500
H  18.95000 -11.33700 49.74100
H  20.29500 -10.57300 50.51800
H  24.21500 -11.97200 50.92500
H  26.52700 -10.69000 52.13400
H  23.99500 -9.86100 53.04100
H  24.68500 -11.50300 53.30400
H  23.05100 -11.32300 52.76100
H  27.35500 -11.89300 49.59100
H  26.22000 -12.92700 50.56800
H  29.06500 -12.61700 51.09500
H  27.79900 -13.72600 51.71500
H  27.92300 -12.18200 52.43100
H  30.31800 -9.09300 49.42700
H  30.46500 -7.89700 50.70700
H  31.42400 -7.65700 49.18600
H  28.81700 -4.26700 45.71300
H  28.65200 -0.29300 47.41700
H  27.13000 -0.71500 46.53500
H  28.45500 -0.23800 45.66300
Mg -0.85000 43.25400 26.68500
C  1.70900 43.20900 29.08900
C  -3.16400 42.77100 29.22900
C  -3.21100 43.22900 24.34900
C  1.63100 43.54900 24.11400
N  -0.72000 42.98200 28.81900
C  0.43500 43.04100 29.62200
C  0.05100 42.95500 31.14000
C  -1.43200 42.52400 31.16600
C  -1.85600 42.81700 29.64000
C  -1.58800 41.02000 31.51100
C  0.34300 44.32800 31.84300
C  0.45100 44.29600 33.36900
H  0.26600 43.06700 34.19200
N  -2.97500 43.13400 26.79900
C  -3.69800 42.93100 27.92200
C  -5.09900 42.96300 27.51600
C  -5.15700 43.02400 26.08000
C  -3.73700 43.10300 25.68800
C  -6.34100 42.85000 28.43100
C  -6.32100 42.94900 25.10700
O  -6.28600 42.99500 23.88300
C  -7.71500 42.88700 25.73300
N  -0.75000 43.28500 24.56000
C  -1.89400 43.32100 23.85700
C  -1.63300 43.47300 22.35700
C  -0.06600 43.66000 22.21100
C  0.29200 43.56900 23.68300
C  -2.17100 42.22500 21.59800
C  0.47100 44.99900 21.50500
C  0.10400 46.29100 22.10100
N  1.22500 43.19900 26.58000
C  2.06600 43.33600 25.50100
C  3.44600 43.22800 26.00500
C  3.39500 43.19900 27.38700
C  2.00000 43.19600 27.69100
C  4.64700 43.30100 25.20500
C  4.12900 43.05000 28.65500
O  5.38500 42.86900 28.73800
C  3.08000 43.23600 29.82200
C  3.29600 42.09600 30.74600
O  3.26000 40.87600 30.53000
O  3.59700 42.60400 31.93900
C  3.92800 41.58200 32.98100
H  -3.90200 42.68700 30.03000
H  -3.99800 43.17200 23.59300
H  2.38100 43.69400 23.33500
H  0.68900 42.17900 31.56300
H  -2.01300 43.12800 31.86500
H  -0.81700 40.50000 30.94200
H  -2.57900 40.63200 31.27700
H  -1.31700 40.79400 32.54200
H  -0.44400 45.06800 31.70000
H  1.28300 44.72000 31.45400
H  -0.24900 45.00300 33.81200
H  1.44600 44.71700 33.51200
H  -7.08000 43.51400 27.98100
H  -6.26100 43.18900 29.46400
H  -6.54000 41.77900 28.42100
H  -8.37100 42.77400 24.87000
H  -8.05100 43.83900 26.14600
H  -7.84400 42.07700 26.45100
H  -2.18300 44.34200 21.99400
H  0.30700 42.79500 21.66400
H  -2.04900 41.32200 22.19600
H  -1.61500 41.98700 20.69100
H  -3.24100 42.34700 21.42900
H  -0.01900 44.97000 20.53200
H  1.53800 44.92600 21.29500
H  -0.38100 46.93100 21.36400
H  1.04700 46.76700 22.36900
H  -0.47100 46.23800 23.02600
H  4.61900 44.16200 24.53700
H  4.81900 42.39500 24.62300
H  5.52600 43.51300 25.81300
H  3.24900 44.13200 30.41900
H  3.99900 42.21500 33.86500
H  4.89100 41.08700 32.86200
H  3.09700 40.87700 33.00000

