158

Mg 2.70100 -3.13000 45.13200
C  5.61000 -1.42200 44.55300
C  0.95700 -0.82700 43.12900
C  -0.12800 -5.12800 45.19700
C  4.45200 -5.71100 46.57800
N  3.24200 -1.34500 44.09300
C  4.49500 -0.88500 43.91700
C  4.58700 0.30400 42.85600
C  3.03200 0.65800 42.72100
C  2.34800 -0.61100 43.30400
C  2.57400 1.91900 43.53900
C  5.22500 -0.23100 41.55200
C  6.10100 0.85700 40.91500
H  5.49700 1.55600 39.63600
N  0.71600 -2.93500 44.27500
C  0.18200 -1.87600 43.58900
C  -1.22200 -2.10400 43.31600
C  -1.55200 -3.30000 43.96600
C  -0.26400 -3.85700 44.47900
C  -2.11100 -1.10700 42.52300
C  -3.01700 -3.75900 44.21000
O  -3.96900 -3.18100 43.70900
C  -3.39400 -5.00200 44.99600
N  2.25200 -5.30900 45.51800
C  0.99900 -5.77100 45.66700
C  0.90500 -7.10400 46.49000
C  2.44800 -7.40600 46.67100
C  3.10600 -6.09600 46.17600
C  -0.04300 -7.13300 47.74700
C  3.01600 -8.60900 45.90200
C  4.15600 -9.43100 46.54000
N  4.60500 -3.56900 45.52400
C  5.23200 -4.61500 46.15400
C  6.67000 -4.29600 46.41500
C  6.84100 -3.04900 45.76700
C  5.57300 -2.61500 45.27900
C  7.72300 -5.17300 47.02300
C  7.78500 -2.08600 45.41800
O  8.97500 -2.05700 45.63900
C  7.06200 -1.04400 44.48300
C  7.24300 0.18600 45.13500
O  6.62600 0.63000 46.10100
O  8.19900 0.77800 44.31700
C  8.58300 2.12900 44.59000
H  0.69600 -0.06600 42.39100
H  -1.01300 -5.74400 45.37100
H  4.97600 -6.53100 47.07300
H  5.03100 1.20600 43.27600
H  2.62900 0.93000 41.74500
H  2.14500 1.65900 44.50700
H  1.81300 2.35600 42.89200
H  3.40000 2.60800 43.71300
H  4.44800 -0.37000 40.80100
H  5.76400 -1.13000 41.85300
H  7.07500 0.40500 40.72500
H  6.25500 1.66200 41.63400
H  -1.59400 -0.30000 42.00300
H  -2.81200 -0.65800 43.22700
H  -2.65900 -1.66300 41.76300
H  -2.89900 -5.90100 44.62700
H  -4.44700 -5.27100 44.91200
H  -3.07000 -4.83400 46.02300
H  0.45200 -7.82200 45.80600
H  2.61700 -7.43300 47.74800
H  -0.92700 -7.73600 47.54100
H  -0.33900 -6.14800 48.11000
H  0.49200 -7.65300 48.54100
H  3.32800 -8.33600 44.89400
H  2.21100 -9.33600 45.80200
H  4.51200 -9.07300 47.50600
H  5.06200 -9.51700 45.93900
H  3.72600 -10.40700 46.76300
H  8.35900 -4.73200 47.79100
H  8.40100 -5.55200 46.25800
H  7.21600 -6.07100 47.37600
H  7.47600 -1.00200 43.47500
H  7.77900 2.86200 44.65300
H  9.37300 2.48800 43.93000
H  9.03700 2.21000 45.57700
Mg 9.95100 47.97500 26.29700
C  8.22800 47.71500 29.37100
C  12.50500 49.67000 27.96500
C  11.72300 48.12600 23.36800
C  7.18800 46.90800 24.55700
N  10.26600 48.69300 28.40400
C  9.53500 48.32300 29.47800
C  10.14000 48.86200 30.77200
C  11.23500 49.76400 30.21600
C  11.35900 49.34200 28.79100
C  11.23600 51.27700 30.46800
C  10.55700 47.68800 31.66600
C  10.06200 47.68700 33.17600
H  10.19000 46.33400 33.94700
N  11.86300 48.63000 25.79800
C  12.77500 49.22200 26.65800
C  14.04300 49.22200 25.92400
C  13.79900 48.84700 24.61100
C  12.34100 48.56200 24.49300
C  15.36700 49.52400 26.67400
C  14.84100 48.61400 23.44300
O  14.54100 48.26600 22.28200
C  16.36100 48.77700 23.75400
N  9.53700 47.61600 24.19100
C  10.38800 47.75000 23.18200
C  9.83100 47.11500 21.86700
C  8.43800 46.55300 22.39600
C  8.33800 47.10800 23.75500
C  9.73200 48.06500 20.61500
C  8.40800 44.99700 22.29900
C  9.31400 44.22700 23.19200
N  8.06200 47.44100 26.78900
C  7.06200 47.02600 25.98800
C  5.87700 46.82400 26.82300
C  6.29000 47.01900 28.14300
C  7.66600 47.37000 28.09000
C  4.54600 46.50400 26.37300
C  5.89600 47.09800 29.55700
O  4.76400 46.81900 30.07100
C  7.19300 47.36600 30.35700
C  7.42500 46.03600 30.97100
O  8.09500 45.17500 30.57100
O  6.59500 45.81700 32.03600
C  6.74700 44.54600 32.73400
H  13.30600 50.23900 28.44200
H  12.24800 48.19200 22.41300
H  6.31700 46.67300 23.94100
H  9.31700 49.45500 31.17200
H  12.17100 49.40800 30.64800
H  10.55200 51.58500 31.25800
H  10.96400 51.78700 29.54400
H  12.17800 51.66500 30.85600
H  11.63600 47.65900 31.51100
H  10.14300 46.84100 31.11900
H  8.99500 47.91300 33.17400
H  10.52500 48.56900 33.61700
H  15.24600 49.72700 27.73800
H  15.91800 50.30300 26.14700
H  16.09300 48.72300 26.53200
H  16.70000 49.80100 23.91100
H  16.87400 48.37700 22.88000
H  16.70000 48.11200 24.54800
H  10.47800 46.28300 21.59000
H  7.55600 46.93100 21.88000
H  8.71300 48.41500 20.45300
H  10.11800 47.47800 19.78200
H  10.40100 48.92200 20.69900
H  8.68800 44.78000 21.26900
H  7.38900 44.66200 22.49500
H  9.66500 44.90800 23.96800
H  10.25300 44.01700 22.68000
H  8.83100 43.32500 23.56700
H  3.93700 47.38600 26.17400
H  3.98000 45.89500 27.07800
H  4.56100 45.88200 25.47800
H  7.04100 48.09100 31.15700
H  6.10200 43.79200 32.28200
H  6.48100 44.85000 33.74600
H  7.74700 44.11500 32.78600

