158

Mg 47.80600 16.60300 27.74600
C  45.97900 16.26600 30.75400
C  50.20100 18.29300 29.45500
C  49.41300 17.05600 24.81900
C  45.10200 15.12900 25.98600
N  48.11400 17.05700 29.89700
C  47.26800 16.70200 30.95300
C  47.90000 17.10800 32.30100
C  49.22200 17.95300 31.85200
C  49.21200 17.72300 30.33500
C  49.21500 19.46200 32.29500
C  48.30800 15.96700 33.16800
C  47.52700 15.89100 34.59200
H  47.40400 17.22700 35.34800
N  49.64500 17.41800 27.26700
C  50.43400 18.11200 28.09000
C  51.70600 18.31300 27.38200
C  51.49500 17.96900 25.96700
C  50.11100 17.43000 25.98100
C  52.87700 18.93100 28.01500
C  52.48200 18.18200 24.82900
O  52.21300 17.96600 23.68000
C  53.83100 18.84400 25.04400
N  47.37200 16.14500 25.69500
C  48.16400 16.50500 24.64000
C  47.70400 15.88200 23.33600
C  46.24500 15.30200 23.69000
C  46.23500 15.48000 25.20500
C  47.66300 16.87100 22.12100
C  46.12700 13.81900 23.25000
C  44.95200 13.39300 22.41700
N  45.82000 16.06300 28.18600
C  44.90000 15.34200 27.39500
C  43.83300 14.89300 28.35000
C  44.18000 15.29600 29.62800
C  45.45400 15.89500 29.49700
C  42.66500 14.07700 27.98400
C  43.75300 15.29000 30.96700
O  42.73000 14.82600 31.45400
C  44.94500 15.72900 31.79900
C  44.38900 16.77000 32.68500
O  44.05500 17.87100 32.29800
O  44.06800 16.22000 33.87700
C  43.24100 17.08000 34.78400
H  50.88800 18.92700 30.02100
H  50.03700 16.97600 23.92700
H  44.33600 14.60600 25.41000
H  47.16600 17.75700 32.77900
H  50.13500 17.49900 32.23700
H  50.18600 19.68000 32.74100
H  48.47200 19.55100 33.08700
H  48.94100 20.07800 31.43900
H  49.37600 16.02700 33.37800
H  48.04900 15.12700 32.52400
H  48.05700 15.18800 35.23500
H  46.55100 15.42300 34.46500
H  52.82700 18.95900 29.10400
H  53.23500 19.90800 27.69100
H  53.77200 18.31900 27.89800
H  53.82900 19.89000 25.35100
H  54.40200 18.80200 24.11600
H  54.32000 18.25500 25.81900
H  48.42400 15.08600 23.15100
H  45.43300 15.92300 23.31200
H  47.91100 16.33300 21.20600
H  48.38300 17.68600 22.19100
H  46.68800 17.31400 21.91300
H  46.16600 13.25900 24.18400
H  47.08300 13.61100 22.77000
H  44.20300 14.16800 22.57700
H  44.57500 12.49700 22.91000
H  45.27000 13.25600 21.38300
H  42.55000 14.22700 26.91100
H  41.84400 14.56700 28.50700
H  42.87100 13.03700 28.23800
H  45.37100 14.91800 32.39000
H  42.37500 17.34800 34.17900
H  43.80800 17.98400 35.00800
H  43.15300 16.56300 35.74000
Mg 1.28000 43.58100 25.98900
C  3.50000 43.80800 28.67700
C  -1.25900 42.94800 27.97500
C  -0.50200 42.93400 23.25900
C  4.19100 43.92900 23.83200
N  1.15500 43.40400 27.98100
C  2.13100 43.74800 28.92400
C  1.58100 43.81800 30.39200
C  0.23000 43.13100 30.20100
C  -0.01400 43.20200 28.64700
C  -0.03300 41.75700 30.80200
C  1.52900 45.27900 30.81500
C  1.47500 45.57200 32.37500
H  1.22000 44.45600 33.40000
N  -0.63400 43.12300 25.65400
C  -1.59500 42.99700 26.60400
C  -2.88000 42.72400 26.07200
C  -2.71700 42.62200 24.68000
C  -1.23200 42.88200 24.44100
C  -4.13900 42.50600 26.91300
C  -3.71800 42.37600 23.60500
O  -3.44300 42.21000 22.41000
C  -5.14700 42.28800 23.96200
N  1.77500 43.58500 23.85500
C  0.84700 43.15800 22.98900
C  1.43500 42.98100 21.58200
C  2.85500 43.53000 21.74200
C  2.97400 43.61600 23.26700
C  1.41300 41.49400 21.12100
C  3.00900 44.96800 20.92600
C  4.36800 45.57200 20.97100
N  3.40800 43.87300 26.16000
C  4.37900 44.03000 25.16700
C  5.62400 44.22500 25.85100
C  5.40400 44.13500 27.24300
C  4.00100 43.88200 27.35700
C  6.94300 44.61400 25.16900
C  5.92000 44.19500 28.56000
O  7.09200 44.37200 28.90300
C  4.74700 44.04400 29.53500
C  5.05700 43.06400 30.58000
O  4.84900 41.84800 30.50700
O  5.65700 43.63800 31.69200
C  5.68900 42.76700 32.98400
H  -2.02500 42.62100 28.68200
H  -1.12100 42.68000 22.39500
H  5.03600 43.96900 23.14200
H  2.12300 43.20300 31.11000
H  -0.60700 43.72500 30.56700
H  -0.87100 41.75400 31.49800
H  0.93000 41.48000 31.23200
H  -0.08900 40.99200 30.02700
H  0.61600 45.69600 30.39000
H  2.43800 45.80100 30.51600
H  0.58600 46.17800 32.55200
H  2.35000 46.03900 32.82800
H  -4.53300 41.52800 26.63600
H  -4.81900 43.28100 26.56100
H  -4.05900 42.62800 27.99300
H  -5.51400 43.21600 24.40100
H  -5.36900 41.38200 24.52600
H  -5.76400 42.35600 23.06600
H  0.82800 43.68900 21.01800
H  3.51700 42.76600 21.33400
H  1.36100 40.79200 21.95200
H  2.34600 41.35300 20.57600
H  0.57700 41.35500 20.43500
H  2.27200 45.75500 21.09100
H  2.78700 44.79500 19.87300
H  4.42400 46.22800 21.84000
H  4.61400 46.23400 20.14100
H  5.12500 44.80800 21.14800
H  6.86500 45.23100 24.27400
H  7.45100 43.68800 24.90200
H  7.57600 45.02500 25.95600
H  4.63700 45.01300 30.02200
H  4.98400 43.18500 33.70400
H  6.70000 42.55500 33.33000
H  5.20400 41.82200 32.74100

