158

Mg 0.93700 7.82000 26.21200
C  1.85200 9.81100 28.88500
C  1.20200 5.03500 28.09200
C  0.19100 6.06800 23.36300
C  0.94000 10.68300 24.14700
N  1.46100 7.48400 28.27600
C  1.63900 8.46100 29.23800
C  1.50600 7.87800 30.62600
C  1.70800 6.34600 30.31500
C  1.48600 6.25500 28.76600
C  3.01300 5.69300 30.79500
C  0.15900 8.17500 31.19200
C  0.01300 7.81600 32.65000
H  1.17200 7.67200 33.55600
N  0.84500 5.81800 25.78700
C  0.97900 4.78500 26.68600
C  0.76200 3.50600 26.02300
C  0.42200 3.83500 24.65500
C  0.42700 5.33800 24.54100
C  1.00400 2.21800 26.82100
C  0.04700 2.84500 23.49600
O  -0.21500 3.21200 22.40500
C  0.00900 1.35700 23.80200
N  0.44600 8.34500 24.09600
C  0.21700 7.39200 23.15900
C  0.26700 8.01200 21.80700
C  0.18100 9.50700 22.10900
C  0.56500 9.54100 23.56000
C  1.55600 7.70100 21.02400
C  -1.28800 10.09400 22.05300
C  -1.32400 11.45300 21.20900
N  1.33300 9.84400 26.42100
C  1.28300 10.84500 25.48700
C  1.66300 12.08000 26.11600
C  1.88500 11.75800 27.43700
C  1.66200 10.37500 27.59300
C  1.75300 13.47200 25.58500
C  2.15000 12.21600 28.78400
O  2.45100 13.38400 29.08400
C  2.01800 11.01300 29.82400
C  3.20800 11.03900 30.67600
O  4.28200 10.57100 30.38400
O  3.03600 11.76600 31.87000
C  3.97400 11.64400 33.02400
H  1.20300 4.20800 28.80500
H  -0.12900 5.49800 22.48800
H  1.06500 11.45800 23.38700
H  2.32200 8.19600 31.27500
H  0.98800 5.64800 30.74200
H  2.77900 4.91100 31.51700
H  3.63600 6.40500 31.33700
H  3.54600 5.18100 29.99300
H  -0.58500 7.59300 30.64900
H  -0.11500 9.18600 30.89100
H  -0.56900 6.89600 32.71600
H  -0.65400 8.51200 33.15900
H  0.07300 1.67900 26.99800
H  1.53100 2.39200 27.75900
H  1.60600 1.59400 26.16000
H  -0.57200 1.32200 24.72300
H  1.02800 1.02900 24.00800
H  -0.26200 0.80000 22.90500
H  -0.59900 7.57500 21.31100
H  0.92100 10.00200 21.48100
H  2.17700 6.88800 21.39800
H  2.11300 8.61100 20.80000
H  1.34100 7.39300 20.00100
H  -1.78600 10.29500 23.00200
H  -1.88900 9.37600 21.49300
H  -0.73300 11.54900 20.29800
H  -0.89500 12.30100 21.74500
H  -2.37800 11.65000 21.01500
H  2.08100 14.13600 26.38400
H  0.88600 13.87000 25.05700
H  2.56800 13.55400 24.86500
H  1.10700 11.19300 30.39400
H  3.37400 11.40600 33.90200
H  4.28300 12.67500 33.19100
H  4.81300 10.99300 32.77800
Mg 26.09100 1.44100 29.15300
C  27.90400 0.86200 31.99400
C  23.30400 1.90700 30.98400
C  24.36700 1.53400 26.17100
C  29.02300 0.41700 27.29200
N  25.75800 1.61000 31.31200
C  26.62700 1.35800 32.29100
C  26.01700 1.52400 33.63900
C  24.51800 1.65600 33.36000
C  24.49100 1.72400 31.74600
C  23.63800 0.46100 33.80400
C  26.49000 2.72100 34.54300
C  27.05300 2.36200 35.93600
H  26.99400 3.42400 37.09300
N  24.12000 1.76800 28.61900
C  23.11100 1.90500 29.54000
C  21.78900 1.94400 28.81800
C  22.11600 1.79500 27.37300
C  23.59700 1.69800 27.31700
C  20.48700 1.99400 29.57400
C  21.09900 1.75500 26.15900
O  21.47800 1.45300 25.04200
C  19.69400 1.90300 26.45800
N  26.58600 1.03500 27.04500
C  25.78800 1.42000 26.06200
C  26.47200 1.39900 24.72700
C  27.92800 1.52500 25.21800
C  27.90900 1.00900 26.58900
C  26.14200 0.14400 23.87700
C  28.59500 2.96300 25.14000
C  29.86400 3.11000 24.41100
N  28.13200 0.69800 29.54100
C  29.14200 0.33700 28.69800
C  30.26800 -0.03600 29.55100
C  29.87400 0.20200 30.91800
C  28.54800 0.61500 30.82300
C  31.50600 -0.51100 28.99700
C  30.24500 0.27400 32.29500
O  31.26400 0.02800 32.87400
C  28.94200 0.54700 33.05200
C  28.50400 -0.63600 33.90500
O  27.89300 -1.63600 33.51700
O  29.11600 -0.53400 35.07100
C  28.92200 -1.51500 36.13900
H  22.47200 2.06800 31.67400
H  23.89000 1.59800 25.19100
H  29.93300 0.13100 26.76000
H  26.33300 0.67000 34.23700
H  24.17700 2.64500 33.66600
H  23.67300 -0.38500 33.11700
H  22.61500 0.82900 33.87500
H  23.98400 0.07300 34.76300
H  25.86200 3.60900 34.61500
H  27.40300 3.05700 34.05100
H  28.12600 2.24600 35.78300
H  26.59700 1.43400 36.28100
H  20.21300 3.04800 29.52800
H  20.72300 1.66900 30.58700
H  19.75700 1.34400 29.09000
H  19.50700 1.07800 27.14500
H  19.13800 1.76800 25.53000
H  19.57800 2.93600 26.78500
H  26.19900 2.30300 24.18200
H  28.46400 0.83100 24.57000
H  25.42800 -0.51200 24.37500
H  27.00200 -0.50900 23.73000
H  25.73100 0.43500 22.90900
H  28.76800 3.33500 26.15000
H  27.94400 3.64800 24.59500
H  29.77200 3.80800 23.57900
H  30.16900 2.19000 23.91200
H  30.68300 3.40400 25.06700
H  31.16800 -1.23300 28.25300
H  32.15700 -0.93500 29.76100
H  32.02600 0.27700 28.45200
H  29.11800 1.42500 33.67500
H  29.64600 -1.31300 36.92900
H  29.00300 -2.51500 35.71300
H  27.99000 -1.29500 36.66000

