158

Mg 16.16700 -1.74300 27.64800
C  15.46000 0.51000 30.29200
C  18.33000 -3.40200 29.81800
C  17.59200 -3.14100 25.00400
C  14.37600 0.39400 25.51700
N  16.95600 -1.32800 29.69900
C  16.39800 -0.50300 30.61900
C  16.77100 -0.91500 32.01000
C  17.81800 -2.02800 31.84100
C  17.66200 -2.32800 30.37200
C  19.29000 -1.93300 32.34800
C  15.55400 -1.23300 32.97800
C  15.72400 -0.52500 34.36000
H  17.01700 -0.05600 34.83800
N  17.72200 -3.15900 27.41800
C  18.44600 -3.76500 28.41500
C  19.26200 -4.73100 27.78700
C  19.06100 -4.70600 26.35800
C  18.15700 -3.63200 26.20600
C  20.03900 -5.57100 28.68500
C  19.56800 -5.58600 25.21400
O  19.27900 -5.47500 24.03200
C  20.42600 -6.66500 25.59200
N  16.02200 -1.38000 25.58900
C  16.71300 -2.11100 24.69800
C  16.61000 -1.50800 23.28600
C  15.36200 -0.59900 23.40000
C  15.17700 -0.55500 24.91800
C  17.81900 -0.69400 22.76800
C  14.18500 -1.06600 22.54500
C  13.68600 -0.11600 21.45900
N  15.02100 0.00700 27.80400
C  14.32900 0.73000 26.85600
C  13.57800 1.73100 27.48400
C  14.02200 1.75400 28.85200
C  14.92700 0.68100 28.95600
C  12.63200 2.70500 26.84200
C  13.89800 2.44600 30.05100
O  13.14800 3.35800 30.45400
C  14.80800 1.60800 31.10400
C  15.76900 2.59200 31.72600
O  16.71100 3.09100 31.16400
O  15.38900 2.82800 33.00900
C  16.05800 3.99900 33.60400
H  18.83800 -3.87500 30.66100
H  18.00800 -3.56900 24.09000
H  13.89200 1.00200 24.75000
H  17.13500 0.07400 32.28700
H  17.40800 -2.88600 32.37500
H  20.00300 -1.69800 31.55800
H  19.44400 -2.92500 32.77300
H  19.52900 -1.26300 33.17400
H  15.50400 -2.32100 33.02800
H  14.66700 -0.87200 32.45600
H  15.36600 -1.33800 34.99200
H  15.04800 0.32800 34.41400
H  20.93300 -5.82500 28.11500
H  19.42100 -6.42200 28.97100
H  20.36600 -5.08100 29.60200
H  20.76300 -7.25500 24.74000
H  19.93900 -7.28000 26.34900
H  21.32800 -6.26400 26.05400
H  16.44000 -2.33300 22.59400
H  15.47400 0.43600 23.07700
H  18.72500 -1.25500 23.00000
H  17.91300 0.30600 23.19200
H  17.76700 -0.66700 21.68000
H  13.27400 -1.35300 23.07000
H  14.50500 -1.85900 21.87000
H  12.98400 0.67600 21.72100
H  13.15200 -0.73300 20.73600
H  14.48500 0.38700 20.91500
H  11.62200 2.48500 27.18700
H  12.55900 2.71400 25.75400
H  12.85000 3.75800 27.02200
H  14.12500 1.30900 31.89900
H  16.48800 3.68000 34.55300
H  15.28800 4.73700 33.83200
H  16.88500 4.41400 33.03000
Mg 49.29900 35.00700 28.11000
C  47.03300 33.75700 30.57400
C  49.56000 37.89000 29.93100
C  51.15400 36.31700 25.71700
C  48.60700 32.18900 26.28900
N  48.32700 35.77600 30.03100
C  47.52300 35.01400 30.85600
C  47.23300 35.77900 32.23600
C  47.81500 37.20600 31.85800
C  48.69300 36.98300 30.55200
C  46.75800 38.36400 31.72600
C  47.94700 35.04100 33.43000
C  48.90500 35.78600 34.40000
H  48.22200 36.75400 35.39000
N  50.18500 36.92500 27.85600
C  50.19000 37.93800 28.71300
C  51.04100 39.02400 28.25700
C  51.71600 38.51400 27.10100
C  51.04800 37.22700 26.85000
C  51.26500 40.35400 29.06400
C  52.95000 39.06400 26.40000
O  53.42000 38.44300 25.45900
C  53.50600 40.45500 26.70700
N  49.63200 34.45300 26.28500
C  50.43200 35.17600 25.44300
C  50.65900 34.36000 24.15300
C  50.15100 32.91400 24.40800
C  49.43900 33.18600 25.71500
C  50.08100 34.97500 22.90600
C  51.15300 31.79800 24.56600
C  51.00500 30.57400 23.57200
N  48.20200 33.23900 28.43300
C  47.94600 32.22100 27.50700
C  47.04800 31.26900 28.08300
C  46.66800 31.84000 29.28000
C  47.36100 33.05000 29.45800
C  46.63100 30.00500 27.38200
C  45.74600 31.61900 30.37200
O  44.99500 30.69800 30.68400
C  46.03400 32.76600 31.32500
C  46.39000 32.19200 32.67200
O  47.45500 31.63000 32.97000
O  45.30800 32.42700 33.47900
C  45.74100 32.34500 34.91500
H  49.56400 38.78600 30.55500
H  51.81300 36.67700 24.92500
H  48.51700 31.23000 25.77400
H  46.15200 35.78900 32.37200
H  48.49700 37.59300 32.61400
H  47.05300 39.16800 32.40100
H  45.72000 38.05700 31.85800
H  46.82400 38.69100 30.68800
H  48.44400 34.11200 33.15100
H  47.14800 34.66700 34.07100
H  49.60700 36.30000 33.74400
H  49.40000 34.91300 34.82600
H  52.15400 40.20700 29.67700
H  50.46800 40.43700 29.80400
H  51.31700 41.23600 28.42600
H  52.56600 41.00500 26.68000
H  54.25400 40.65700 25.94100
H  53.91500 40.40600 27.71700
H  51.74500 34.30500 24.08500
H  49.41100 32.75100 23.62500
H  50.86800 35.46300 22.33000
H  49.31800 35.69700 23.19600
H  49.76200 34.25200 22.15600
H  51.17200 31.35400 25.56100
H  52.15800 32.17500 24.37800
H  50.39900 30.79600 22.69400
H  50.38600 29.85500 24.10800
H  52.03700 30.41200 23.26000
H  45.73400 30.22600 26.80300
H  46.42800 29.26400 28.15500
H  47.43800 29.70500 26.71400
H  45.03800 33.19700 31.43200
H  46.68600 32.86600 35.06600
H  45.80900 31.30800 35.24100
H  44.99200 32.81400 35.55400

