158

Mg 30.03600 57.37600 40.23000
C  27.37800 55.19400 39.21300
C  32.30600 55.07900 39.29300
C  32.36100 59.73800 40.36900
C  27.49700 59.83900 40.57900
N  29.80800 55.50100 39.02500
C  28.70000 54.76500 38.88300
C  28.96200 53.32900 38.42700
C  30.52800 53.29700 38.59200
C  30.93000 54.75200 39.07200
C  31.21000 52.10300 39.32700
C  28.31800 52.99100 37.01700
C  28.78000 53.84200 35.75300
H  27.66300 54.40900 34.92700
N  32.10900 57.41500 40.04400
C  32.86200 56.33300 39.64200
C  34.26300 56.69000 39.64100
C  34.38100 58.11400 40.03400
C  32.91400 58.52100 40.15800
C  35.28500 55.63600 39.27700
C  35.61400 58.91300 40.24600
O  36.71300 58.36200 40.06800
C  35.53900 60.28000 40.83300
N  29.94300 59.44800 40.51700
C  31.03800 60.16500 40.61000
C  30.74600 61.72700 40.79600
C  29.19800 61.65600 40.98000
C  28.84100 60.22800 40.75300
C  31.63300 62.39500 41.91500
C  28.53400 62.58400 39.81400
C  27.29800 63.39100 40.24100
N  27.78800 57.46600 40.14000
C  26.97200 58.53600 40.32700
C  25.58100 58.10600 40.20000
C  25.69300 56.76600 39.76400
C  27.03300 56.45500 39.69900
C  24.31900 58.97300 40.54400
C  24.90500 55.63400 39.38000
O  23.66800 55.55200 39.33100
C  26.00300 54.58400 38.93500
C  25.60400 53.33800 39.68700
O  26.24800 52.80700 40.60700
O  24.50000 52.78700 39.13000
C  23.92600 51.70100 39.99300
H  32.84700 54.16200 39.05000
H  33.08800 60.54900 40.45200
H  26.79700 60.67700 40.59800
H  28.47700 52.65200 39.13000
H  30.99600 53.43900 37.61800
H  31.67400 52.49800 40.23000
H  31.94000 51.60700 38.68700
H  30.49700 51.34700 39.65700
H  27.23400 52.94300 37.11800
H  28.64100 51.95600 36.90100
H  29.24300 53.11100 35.09100
H  29.41900 54.66700 36.06900
H  35.37800 54.84300 40.01800
H  36.18800 56.07600 38.85300
H  34.86300 55.11500 38.41700
H  35.13600 60.97700 40.09900
H  36.54600 60.48100 41.19800
H  34.83700 60.30400 41.66600
H  31.04200 62.16300 39.84200
H  28.91700 61.98200 41.98200
H  32.24200 61.63400 42.40500
H  30.87100 62.75700 42.60500
H  32.30900 63.09400 41.42300
H  28.37200 61.90900 38.97400
H  29.21900 63.35300 39.45600
H  26.47600 63.16200 39.56200
H  27.53400 64.44300 40.08400
H  27.05900 63.35400 41.30300
H  24.19300 59.73500 39.77400
H  24.51800 59.64200 41.38100
H  23.45800 58.31200 40.64400
H  25.73200 54.35200 37.90500
H  23.97900 52.00300 41.03900
H  24.33900 50.70100 39.85700
H  22.86200 51.65300 39.75800
Mg -4.83000 25.54700 25.85600
C  -3.54900 27.26700 28.72800
C  -6.57000 23.56100 27.94400
C  -5.59700 23.95100 23.20700
C  -2.77700 27.78400 23.90900
N  -4.98100 25.42400 27.99900
C  -4.47300 26.25600 29.01000
C  -4.98200 25.86100 30.39400
C  -5.53700 24.41800 30.03900
C  -5.79000 24.50900 28.59200
C  -4.48000 23.21600 30.36800
C  -6.10100 26.77000 30.81500
C  -6.79800 26.52400 32.20100
H  -6.13200 25.52700 33.16200
N  -5.93100 24.04200 25.59800
C  -6.66100 23.34400 26.55300
C  -7.51100 22.37400 25.91200
C  -7.17600 22.39400 24.54400
C  -6.15100 23.47300 24.40400
C  -8.43300 21.42600 26.74500
C  -7.78700 21.59700 23.35800
O  -7.34400 21.76800 22.22000
C  -9.02300 20.69000 23.51600
N  -4.32400 25.94600 23.75200
C  -4.71500 25.01900 22.91300
C  -4.28500 25.32900 21.45400
C  -3.30300 26.63700 21.71700
C  -3.51600 26.87000 23.19800
C  -3.52000 24.18200 20.79500
C  -3.59800 27.95500 20.94100
C  -2.59800 28.29800 19.86700
N  -3.48800 27.21100 26.24200
C  -2.76700 27.96000 25.28700
C  -1.91900 28.86100 25.99600
C  -2.21900 28.68100 27.39600
C  -3.20300 27.63900 27.46100
C  -1.00400 29.97900 25.49800
C  -1.96500 29.12100 28.75700
O  -1.12300 29.88700 29.20800
C  -2.95600 28.23900 29.63300
C  -2.14200 27.46500 30.62900
O  -1.17600 26.75400 30.40800
O  -2.56700 27.77200 31.83000
C  -1.91100 27.08600 32.96600
H  -6.96200 22.86900 28.69200
H  -5.73700 23.42100 22.26300
H  -2.12800 28.43000 23.31200
H  -4.20400 25.83200 31.15700
H  -6.53200 24.32700 30.47500
H  -3.58800 23.66300 30.80600
H  -4.32000 22.72000 29.41100
H  -4.83800 22.43300 31.03700
H  -6.87400 26.73300 30.04800
H  -5.79400 27.81600 30.83600
H  -7.83100 26.20400 32.06800
H  -6.85200 27.51400 32.65300
H  -8.34800 21.54000 27.82500
H  -8.29400 20.36500 26.53500
H  -9.46400 21.74200 26.58300
H  -9.19400 20.18900 22.56400
H  -9.81700 21.32700 23.90700
H  -8.71300 19.98700 24.28900
H  -5.10600 25.57500 20.78000
H  -2.28500 26.28400 21.55500
H  -3.94200 23.89400 19.83200
H  -3.38200 23.20100 21.24900
H  -2.48200 24.46300 20.62300
H  -3.57400 28.78300 21.64900
H  -4.63000 27.97400 20.59300
H  -1.74800 27.61700 19.81600
H  -2.09500 29.21200 20.18300
H  -3.03900 28.61700 18.92300
H  -0.66000 29.69400 24.50400
H  -0.08100 29.95400 26.07600
H  -1.48700 30.94100 25.66800
H  -3.66900 28.80700 30.23200
H  -2.32600 27.47300 33.89600
H  -0.82100 27.11400 32.95800
H  -2.25400 26.05600 32.87600

