158

Mg -0.40100 7.87700 26.39400
C  0.51500 10.17900 28.87600
C  -0.20400 5.43200 28.85300
C  -1.20000 5.78300 24.04700
C  -0.22900 10.63500 24.08100
N  -0.02100 7.93600 28.62000
C  0.17100 8.93600 29.47200
C  0.28600 8.50200 30.91600
C  0.30300 6.97000 30.80700
C  0.03100 6.74000 29.29300
C  1.59200 6.23600 31.29200
C  -0.79000 9.09900 31.94000
C  -0.18700 9.33200 33.39000
H  0.74400 8.36900 34.09600
N  -0.70300 5.83900 26.46600
C  -0.57900 5.01100 27.54700
C  -0.75300 3.65200 27.11500
C  -0.96100 3.63600 25.69300
C  -1.03700 5.10600 25.29700
C  -0.58500 2.35300 28.00900
C  -1.18100 2.49900 24.72900
O  -1.60200 2.83000 23.61600
C  -0.97100 1.06300 25.06500
N  -0.48300 8.08000 24.29600
C  -0.96600 7.10100 23.58000
C  -1.36800 7.60800 22.14000
C  -1.10400 9.14900 22.13400
C  -0.62800 9.31600 23.60800
C  -0.74100 6.83300 20.94900
C  -2.28800 10.01800 21.63700
C  -3.38300 10.45400 22.58400
N  0.23000 9.92800 26.37700
C  0.10800 10.92200 25.46200
C  0.54600 12.19700 26.02100
C  0.81600 11.90200 27.34000
C  0.58800 10.53200 27.48500
C  0.65500 13.53300 25.34800
C  1.30700 12.44000 28.56400
O  1.80600 13.53100 28.74500
C  1.02800 11.42900 29.65500
C  2.33500 11.15700 30.32700
O  3.22600 10.56800 29.77100
O  2.36100 11.58000 31.66700
C  3.55300 11.31500 32.50200
H  -0.21900 4.70800 29.67000
H  -1.58300 5.21700 23.19500
H  -0.16500 11.47600 23.38700
H  1.24000 8.93500 31.21500
H  -0.47800 6.50500 31.40800
H  1.31600 5.55700 32.09900
H  2.28600 7.01700 31.60100
H  2.01100 5.55000 30.55600
H  -1.66400 8.45100 31.99700
H  -1.14600 10.03000 31.49800
H  -1.06200 9.34900 34.04000
H  0.35800 10.27300 33.47000
H  -1.47500 1.91800 28.46400
H  0.01300 2.63200 28.87600
H  0.05500 1.69900 27.41700
H  -1.71400 0.75800 25.80200
H  0.05700 1.00000 25.42000
H  -1.23700 0.50600 24.16600
H  -2.40000 7.38100 21.87100
H  -0.19800 9.38600 21.57600
H  -0.45600 7.31100 20.01200
H  -1.46700 6.11400 20.57100
H  0.09100 6.22000 21.29600
H  -2.81300 9.40400 20.90500
H  -1.96100 10.95000 21.17500
H  -4.36000 10.24500 22.14900
H  -3.27600 11.47900 22.93900
H  -3.25300 9.84400 23.47700
H  -0.35700 13.92600 25.25600
H  1.12800 13.43500 24.37000
H  1.25800 14.20500 25.95800
H  0.35700 11.90400 30.37200
H  4.18000 10.45100 32.28300
H  3.29400 11.30000 33.56100
H  4.13700 12.22100 32.33900
Mg 26.99500 49.35000 26.38800
C  24.67700 50.44500 28.72800
C  29.15000 48.71600 29.09000
C  29.26800 48.35500 24.29000
C  24.91000 50.46500 23.85300
N  26.93600 49.69100 28.67800
C  25.80600 49.93600 29.35200
C  25.98100 49.71600 30.93700
C  27.50400 49.28300 30.96200
C  27.87200 49.18800 29.49700
C  28.38100 50.41000 31.61500
C  24.98800 48.66100 31.52300
C  24.12300 48.93600 32.73200
H  24.76700 49.67800 33.96600
N  28.90900 48.70100 26.66200
C  29.61600 48.46900 27.82500
C  30.87800 47.90700 27.54900
C  31.02800 47.93400 26.19200
C  29.69700 48.31300 25.62800
C  31.94500 47.51800 28.58300
C  32.26400 47.55200 25.28900
O  32.34300 47.66900 24.06300
C  33.60200 47.12800 25.88700
N  27.14400 49.53800 24.33900
C  28.14400 48.87900 23.69000
C  27.86300 48.80000 22.22600
C  26.39100 49.35400 22.02100
C  26.17400 49.87800 23.49500
C  28.90800 49.50400 21.33000
C  25.39100 48.20900 21.54900
C  24.62400 47.36500 22.58800
N  25.13900 50.24700 26.26100
C  24.41300 50.67000 25.10800
C  23.18500 51.29400 25.57500
C  23.19400 51.16000 26.92600
C  24.43100 50.56800 27.37100
C  22.16400 51.99500 24.69300
C  22.40800 51.34800 28.16400
O  21.27400 51.80500 28.30800
C  23.28500 50.83300 29.39700
C  23.41600 51.96700 30.40900
O  24.36500 52.73600 30.46700
O  22.47200 51.80100 31.37900
C  22.49400 52.76300 32.39300
H  29.77900 48.34800 29.90300
H  29.97500 47.89700 23.59600
H  24.20600 50.69800 23.05200
H  25.75900 50.62300 31.49900
H  27.69300 48.35600 31.50300
H  29.32500 50.49900 31.07700
H  28.57000 50.13700 32.65300
H  27.89400 51.38300 31.54300
H  25.65000 47.84100 31.80000
H  24.42000 48.23100 30.69800
H  23.81700 47.92900 33.01500
H  23.28200 49.56500 32.44000
H  32.17600 46.46600 28.41300
H  31.57200 47.53700 29.60700
H  32.90700 48.02700 28.63100
H  34.12300 46.67100 25.04600
H  33.32400 46.38700 26.63700
H  34.11200 47.98400 26.32700
H  27.97500 47.74700 21.96500
H  26.29600 50.27200 21.44200
H  29.45300 48.75800 20.75200
H  29.50500 50.15600 21.96700
H  28.44300 50.21400 20.64500
H  26.01000 47.60400 20.88600
H  24.64300 48.74600 20.96600
H  24.92700 46.39500 22.19400
H  23.53800 47.44100 22.62300
H  25.06600 47.43400 23.58200
H  22.01000 51.49000 23.74000
H  22.50200 53.01200 24.49600
H  21.26000 52.05500 25.29900
H  22.74900 50.01300 29.87600
H  22.58700 53.79000 32.04200
H  23.23900 52.50500 33.14600
H  21.47900 52.70400 32.78500

