158

Mg 8.96300 3.18700 27.20500
C  10.17700 1.65300 30.08300
C  7.29800 5.42900 29.22600
C  7.77700 4.52600 24.43900
C  10.56300 0.69600 25.34500
N  8.67200 3.40200 29.51300
C  9.31800 2.73000 30.49700
C  9.05000 3.34600 31.90300
C  8.02700 4.49300 31.54800
C  7.98700 4.43300 30.01300
C  6.69500 4.51100 32.20300
C  10.44600 3.79900 32.50300
C  10.54700 4.58800 33.81800
H  11.22100 4.00200 35.03600
N  7.80800 4.82100 26.82700
C  7.14900 5.58300 27.80200
C  6.42500 6.56200 27.11600
C  6.62200 6.32500 25.73600
C  7.45900 5.20000 25.59000
C  5.80000 7.72600 27.77000
C  6.02700 7.20200 24.61400
O  6.20500 7.00400 23.42200
C  4.86600 8.16300 24.93700
N  9.21100 2.69400 25.15100
C  8.58300 3.41200 24.15000
C  8.74000 2.79800 22.74000
C  9.72700 1.63000 23.10100
C  9.84400 1.63900 24.62800
C  7.44000 2.22200 22.05600
C  11.11500 1.93100 22.51500
C  11.37100 1.70700 20.95400
N  10.00200 1.39300 27.59700
C  10.66500 0.53600 26.74800
C  11.40100 -0.40400 27.50700
C  11.12100 -0.08600 28.85800
C  10.31900 1.09300 28.85600
C  12.24200 -1.58400 27.03900
C  11.37100 -0.50200 30.16500
O  12.08700 -1.41800 30.59100
C  10.86700 0.68100 31.07100
C  10.03400 0.08500 32.12500
O  8.96600 -0.38900 32.08200
O  10.82300 0.06900 33.20600
C  10.07000 0.17500 34.44500
H  6.75300 6.20000 29.77500
H  7.29400 5.06100 23.61800
H  11.10000 -0.02000 24.71900
H  8.58500 2.51300 32.43000
H  8.49800 5.44600 31.79000
H  5.99000 5.03700 31.55900
H  6.79400 5.10400 33.11200
H  6.33400 3.56400 32.60400
H  10.86500 4.31200 31.63800
H  10.96300 2.84800 32.63700
H  9.52300 4.70800 34.17000
H  10.95000 5.58000 33.61600
H  6.26200 7.86700 28.74700
H  4.75900 7.45200 27.93900
H  5.93300 8.67200 27.24400
H  4.40200 8.32600 23.96500
H  5.50400 9.01700 25.16400
H  4.21500 7.87200 25.76200
H  9.17700 3.59100 22.13300
H  9.42200 0.65300 22.72500
H  7.25500 2.75600 21.12400
H  6.62300 2.29000 22.77400
H  7.51100 1.15200 21.86400
H  11.83200 1.37600 23.12100
H  11.35100 2.97200 22.73800
H  11.61300 2.62300 20.41500
H  10.51000 1.43000 20.34400
H  12.15300 0.97900 20.73800
H  13.04900 -1.86600 27.71600
H  12.56100 -1.25200 26.05100
H  11.53700 -2.41400 27.02400
H  11.75100 1.16000 31.49200
H  9.70100 1.20100 34.46300
H  10.62500 0.09400 35.38000
H  9.17800 -0.44700 34.52400
Mg 34.64400 49.36200 25.93900
C  34.44400 47.29500 28.66500
C  33.39600 51.92700 27.61300
C  34.58200 51.06600 23.00900
C  35.67300 46.46500 24.01700
N  33.81500 49.51400 27.86900
C  34.08000 48.63600 28.86500
C  33.87100 49.36900 30.21200
C  33.16200 50.69700 29.81300
C  33.47300 50.73000 28.32200
C  31.69400 50.84000 30.24500
C  35.17000 49.64000 31.08100
C  35.04000 50.26300 32.44700
H  33.61300 50.32100 33.08000
N  34.20400 51.29900 25.42900
C  33.79800 52.21800 26.30600
C  33.74600 53.48700 25.59100
C  34.03000 53.26100 24.24900
C  34.28600 51.82600 24.15000
C  33.21300 54.79300 26.26400
C  34.04600 54.24300 23.04000
O  34.19100 53.87900 21.88300
C  33.94800 55.69700 23.29200
N  34.93000 48.79800 23.77400
C  34.82700 49.74400 22.77500
C  35.23800 49.11500 21.47500
C  35.79900 47.71900 21.87000
C  35.48200 47.63700 23.29500
C  34.03300 49.08900 20.43200
C  37.23700 47.48700 21.41900
C  38.41500 47.78300 22.39200
N  34.92400 47.26900 26.21600
C  35.32900 46.26900 25.36300
C  35.30400 45.00200 26.10500
C  35.09400 45.37900 27.45000
C  34.76200 46.76400 27.42400
C  35.79600 43.76000 25.51400
C  35.06400 44.99800 28.89100
O  35.31400 43.95400 29.38900
C  34.66400 46.25500 29.69200
C  33.43200 45.90800 30.46400
O  32.38400 45.64300 29.90900
O  33.64600 45.87900 31.81900
C  32.63300 45.28600 32.64300
H  33.26500 52.83200 28.20900
H  34.74300 51.69000 22.12800
H  36.16400 45.65700 23.47100
H  33.24000 48.74600 30.84600
H  33.51700 51.53000 30.42000
H  31.40900 50.01900 30.90200
H  31.12400 50.59300 29.34900
H  31.41800 51.64100 30.93100
H  35.78600 50.19900 30.37700
H  35.62200 48.65900 31.22100
H  35.26500 51.31400 32.27200
H  35.72900 49.75200 33.12000
H  33.84700 55.66300 26.09500
H  33.12700 54.57800 27.33000
H  32.22900 55.07900 25.89300
H  33.12600 56.01800 23.93200
H  33.93100 56.12800 22.29100
H  34.86500 56.00900 23.79300
H  36.00600 49.78400 21.08700
H  35.25600 46.91100 21.37900
H  33.95000 49.88300 19.69000
H  33.17200 48.86200 21.06000
H  34.29100 48.20300 19.85100
H  37.39000 48.15600 20.57300
H  37.31800 46.43200 21.15700
H  38.89300 46.85900 22.71800
H  38.16200 48.30900 23.31200
H  39.18500 48.39100 21.91800
H  36.30600 44.08600 24.60800
H  34.89400 43.15100 25.44900
H  36.47000 43.31900 26.24800
H  35.49000 46.55500 30.33700
H  31.71100 45.74700 32.28900
H  32.79400 45.50900 33.69800
H  32.77500 44.20700 32.59900

