158

Mg 0.96600 8.07600 26.32400
C  1.71700 10.28400 29.05000
C  1.24500 5.40000 28.68900
C  0.69400 5.99500 23.80600
C  1.02600 10.76200 24.26100
N  1.45100 7.88200 28.60300
C  1.62600 8.95800 29.48700
C  1.76700 8.47500 30.92100
C  1.87200 6.91100 30.75500
C  1.47900 6.70400 29.27100
C  3.30300 6.35900 30.98400
C  0.53400 8.91700 31.74900
C  0.85000 9.27900 33.24100
H  1.96100 8.60900 34.11900
N  0.90300 5.99600 26.24300
C  0.99400 5.07100 27.28800
C  0.82700 3.78400 26.77600
C  0.70700 3.88400 25.38000
C  0.82100 5.34600 25.06500
C  0.73500 2.53000 27.68500
C  0.67900 2.81700 24.31600
O  0.64500 2.99700 23.07000
C  0.74900 1.43300 24.74100
N  0.95700 8.36300 24.31100
C  0.77900 7.32800 23.47200
C  0.82300 7.81700 22.04400
C  0.53200 9.32000 22.22100
C  0.86200 9.51700 23.70400
C  2.22400 7.51400 21.38400
C  -0.91000 9.75200 22.05700
C  -1.21800 10.38600 20.75000
N  1.34400 10.17800 26.53500
C  1.33300 11.13500 25.64000
C  1.65100 12.51800 26.21800
C  1.80100 12.18200 27.58000
C  1.57200 10.77700 27.73700
C  1.64600 13.77000 25.45300
C  2.07500 12.72600 28.83600
O  2.40400 13.87500 29.10000
C  2.00000 11.53300 29.86400
C  3.30900 11.50500 30.61400
O  4.41100 11.29700 30.14400
O  3.00900 11.72500 31.90200
C  4.10800 11.99900 32.83200
H  1.39100 4.60400 29.42100
H  0.67600 5.38900 22.89800
H  0.91000 11.56700 23.53100
H  2.66100 8.97200 31.29800
H  1.05800 6.52200 31.36700
H  3.99300 7.12200 31.34700
H  3.65000 5.83100 30.09600
H  3.15500 5.61600 31.76800
H  -0.24800 8.16200 31.67400
H  0.07700 9.72400 31.17600
H  -0.03600 9.41200 33.86100
H  1.20800 10.30400 33.13800
H  -0.04100 1.79100 27.49000
H  0.59100 2.75900 28.74100
H  1.68000 1.99500 27.78200
H  1.63200 1.31500 25.36900
H  0.91100 0.81200 23.85900
H  -0.15600 1.04600 25.21000
H  -0.08500 7.38900 21.61800
H  1.16100 9.90100 21.54700
H  2.99100 7.59900 22.15400
H  2.41000 8.12600 20.50200
H  2.03000 6.47700 21.10800
H  -1.24500 10.47700 22.79800
H  -1.62300 8.93200 22.14000
H  -0.36200 10.15600 20.11600
H  -1.44600 11.43900 20.91200
H  -2.02600 9.96400 20.15300
H  0.59800 13.90200 25.18300
H  2.32900 13.75200 24.60400
H  1.97400 14.60400 26.07400
H  1.20000 11.82300 30.54400
H  4.86900 12.50100 32.23400
H  4.70000 11.18900 33.25800
H  3.81600 12.70800 33.60700
Mg -9.52500 40.32300 42.42100
C  -8.24400 37.25900 41.41200
C  -6.67300 41.74900 41.02400
C  -10.80700 43.30900 43.14800
C  -12.55000 38.75900 43.26400
N  -7.87800 39.64000 41.01100
C  -7.49600 38.30100 40.87600
C  -6.18800 38.06300 40.11500
C  -5.53500 39.48200 40.35200
C  -6.75200 40.35900 40.85800
C  -4.42000 39.62400 41.41700
C  -6.38000 37.78400 38.64400
C  -5.69800 36.42900 38.16800
H  -4.68800 36.34300 37.03800
N  -8.80100 42.30500 42.14200
C  -7.58300 42.70300 41.57600
C  -7.59200 44.15200 41.62500
C  -8.71300 44.61700 42.35400
C  -9.53000 43.42300 42.51500
C  -6.60900 44.94900 40.79900
C  -8.91800 46.05500 42.81400
O  -8.27100 47.02900 42.40800
C  -9.93800 46.39000 43.85900
N  -11.34000 40.91000 43.28100
C  -11.71400 42.23600 43.39900
C  -13.17200 42.43300 43.92300
C  -13.66700 40.94700 43.90500
C  -12.46400 40.11500 43.49500
C  -13.33900 43.26200 45.21400
C  -14.99600 40.74600 43.05200
C  -16.23000 39.86700 43.56400
N  -10.24300 38.46000 42.51000
C  -11.45900 37.97900 42.90900
C  -11.41500 36.51700 42.80700
C  -10.14400 36.23300 42.29700
C  -9.49100 37.44000 42.04600
C  -12.42700 35.61800 43.25800
C  -9.26300 35.11400 41.86500
O  -9.39800 33.90100 41.80600
C  -7.90200 35.81400 41.37800
C  -6.85300 35.40800 42.38300
O  -6.52700 36.02600 43.42300
O  -6.22600 34.21900 41.99800
C  -5.45100 33.62900 43.03800
H  -5.73400 42.19100 40.68300
H  -11.21000 44.23200 43.56800
H  -13.44200 38.21000 43.57200
H  -5.55700 37.32600 40.61000
H  -5.18000 39.91400 39.41600
H  -3.53800 40.04900 40.93900
H  -4.19400 38.65000 41.85100
H  -4.69200 40.29000 42.23600
H  -6.15100 38.60200 37.96100
H  -7.44600 37.58700 38.52700
H  -6.51900 35.73300 37.99200
H  -5.32800 35.90900 39.05100
H  -5.75200 44.45100 40.34500
H  -6.21700 45.79100 41.37100
H  -7.19500 45.45200 40.03000
H  -10.89900 46.36900 43.34600
H  -9.88700 47.39800 44.27200
H  -9.85100 45.70200 44.70100
H  -13.60800 42.96700 43.07900
H  -13.84500 40.68500 44.94800
H  -14.32200 43.18800 45.67800
H  -13.06700 44.29100 44.97900
H  -12.62000 42.93500 45.96500
H  -14.66400 40.31000 42.11000
H  -15.42700 41.73700 42.91100
H  -17.10100 40.52000 43.62600
H  -16.03200 39.48500 44.56500
H  -16.33800 38.94800 42.98800
H  -13.20700 35.58100 42.49800
H  -12.85800 36.11600 44.12700
H  -12.06600 34.59800 43.39100
H  -7.54000 35.54000 40.38700
H  -6.18500 33.24800 43.74700
H  -4.70900 34.22900 43.56600
H  -4.80000 32.91200 42.53800

