158

Mg -2.09500 17.36200 26.51200
C  -2.61700 14.96400 29.00600
C  -2.50500 19.84900 28.90800
C  -1.96300 19.58700 24.07900
C  -2.13200 14.65100 24.11700
N  -2.71800 17.32900 28.70300
C  -2.81500 16.22400 29.52300
C  -3.08400 16.78900 30.98700
C  -2.98600 18.30600 30.86200
C  -2.84300 18.52200 29.40400
C  -4.28500 19.09700 31.37700
C  -2.00300 16.25900 32.04300
C  -1.75800 16.83000 33.51100
H  -1.28300 15.94200 34.61500
N  -2.03000 19.40000 26.49000
C  -2.24500 20.26600 27.58500
C  -2.16200 21.65400 27.13300
C  -1.79900 21.57900 25.72600
C  -1.96000 20.14200 25.36700
C  -2.28600 22.86300 28.05000
C  -1.36400 22.61000 24.70600
O  -1.36800 22.42600 23.46400
C  -1.02800 23.93600 25.21000
N  -2.10500 17.12700 24.40100
C  -1.91900 18.22400 23.63900
C  -1.91900 17.84900 22.13100
C  -1.76400 16.33300 22.19900
C  -1.97600 16.01200 23.65200
C  -3.17100 18.37900 21.42500
C  -0.40600 15.76400 21.78200
C  0.77300 15.85500 22.84700
N  -2.45300 15.22600 26.45600
C  -2.35100 14.27300 25.43500
C  -2.56700 13.00000 26.00700
C  -2.62500 13.24000 27.37500
C  -2.54900 14.59500 27.59700
C  -2.75100 11.73500 25.28700
C  -2.75800 12.52400 28.65600
O  -3.03200 11.35000 28.90700
C  -2.58700 13.59500 29.78200
C  -1.31500 13.31400 30.58000
O  -0.24800 13.85200 30.36900
O  -1.54200 12.42400 31.53100
C  -0.42800 12.23000 32.52600
H  -2.57900 20.69900 29.59000
H  -2.00300 20.32000 23.27000
H  -2.12000 14.00800 23.23500
H  -4.12900 16.53300 31.16600
H  -2.15300 18.64600 31.47600
H  -4.96800 18.52300 32.00200
H  -4.75900 19.65100 30.56700
H  -3.96300 19.82600 32.12200
H  -1.06700 16.21700 31.48500
H  -2.19400 15.19200 32.16500
H  -2.67200 17.37400 33.74700
H  -0.92300 17.48700 33.26500
H  -2.64400 22.66000 29.05900
H  -2.89400 23.55700 27.47000
H  -1.28500 23.29000 28.11600
H  -0.90400 24.65300 24.39800
H  -0.13900 23.77500 25.81900
H  -1.77100 24.29000 25.92500
H  -1.07600 18.34200 21.64700
H  -2.51900 15.94800 21.51400
H  -3.84000 17.52900 21.29300
H  -3.08200 18.83500 20.43900
H  -3.73100 19.16000 21.94000
H  -0.01600 16.09500 20.82000
H  -0.61600 14.69800 21.69300
H  0.85000 14.87300 23.31400
H  0.65300 16.46300 23.74300
H  1.67200 16.24300 22.36900
H  -1.73300 11.42300 25.05200
H  -3.27700 12.01700 24.37500
H  -3.39000 11.06000 25.85600
H  -3.33200 13.56300 30.57700
H  -0.96300 11.89600 33.41500
H  0.09700 13.14800 32.79200
H  0.21900 11.39300 32.26600
Mg 49.51400 46.86500 43.18000
C  46.21000 47.30600 42.18900
C  49.47400 43.78200 41.51100
C  52.82500 46.75700 43.29700
C  49.47300 49.98600 44.62000
N  47.95100 45.62800 42.06000
C  46.70300 46.02800 41.68000
C  45.97100 44.88600 40.89400
C  46.97500 43.71200 41.07600
C  48.24900 44.41500 41.64300
C  46.51900 42.47400 41.95600
C  45.61300 45.35000 39.41900
C  44.20400 45.01700 39.03200
H  43.87100 44.09700 37.82200
N  50.99700 45.49100 42.47100
C  50.81500 44.30100 41.80700
C  52.06700 43.67400 41.56600
C  53.08300 44.48400 42.06800
C  52.33400 45.65200 42.65500
C  52.26800 42.25900 40.83100
C  54.58600 44.16900 42.09600
O  55.05000 43.21500 41.46500
C  55.57100 44.99300 42.82100
N  50.94700 48.10500 44.03000
C  52.28600 47.91300 43.88200
C  53.04900 49.00600 44.67300
C  51.89100 49.87000 45.23300
C  50.70200 49.29500 44.60300
C  54.07000 48.40400 45.76500
C  52.01400 51.45100 45.24100
C  53.30700 52.16100 45.72800
N  48.18500 48.33500 43.39100
C  48.25700 49.58400 43.97800
C  47.00600 50.28500 43.86400
C  46.18900 49.41000 43.15300
C  46.89900 48.22700 42.97200
C  46.77900 51.76100 44.30400
C  44.86600 49.26400 42.63500
O  43.90700 50.00700 42.70000
C  44.83200 47.87300 41.98000
C  43.75600 47.05300 42.67400
O  43.88800 46.38200 43.70500
O  42.53600 47.02300 41.97300
C  41.45100 46.18400 42.48800
H  49.54400 42.76300 41.12500
H  53.91000 46.86700 43.35500
H  49.33400 50.92600 45.15700
H  45.13500 44.70000 41.56900
H  47.27300 43.29700 40.11300
H  46.71900 41.59200 41.34700
H  45.47800 42.65200 42.22600
H  47.07700 42.30000 42.87600
H  46.23700 44.87900 38.66000
H  45.69800 46.43500 39.48500
H  43.52600 45.86700 38.96000
H  43.84700 44.37000 39.83200
H  52.70700 42.30900 39.83400
H  51.32800 41.71100 40.89200
H  53.01500 41.75100 41.44200
H  56.48500 44.40900 42.92800
H  55.21300 45.19000 43.83100
H  55.84600 45.90800 42.29600
H  53.69300 49.50400 43.94800
H  51.72900 49.56100 46.26600
H  53.57900 47.50600 46.14000
H  54.18600 49.05600 46.63100
H  55.04800 48.16800 45.34600
H  51.20300 51.88500 45.82700
H  51.81900 51.70100 44.19800
H  54.12100 51.49600 46.01400
H  53.11200 52.93900 46.46600
H  53.57000 52.65300 44.79100
H  47.68400 52.08400 44.81900
H  45.93000 52.06200 44.91900
H  46.68400 52.36400 43.40100
H  44.60600 48.03100 40.92600
H  41.65600 45.11900 42.38000
H  40.57100 46.50500 41.93000
H  41.28100 46.35600 43.55000

