158

Mg 6.31500 54.15500 41.17800
C  5.42200 50.65900 40.58800
C  9.39600 53.53500 40.08500
C  6.76500 57.41800 41.39400
C  2.80400 54.60500 41.72100
N  7.20500 52.21300 40.32400
C  6.74400 50.88900 40.28100
C  7.88000 49.95300 40.00800
C  9.18400 50.92600 39.90300
C  8.61400 52.31100 40.10500
C  10.29300 50.60200 40.87300
C  7.67500 49.13300 38.67300
C  7.09200 49.87500 37.49100
H  6.25400 49.11100 36.40300
N  7.94300 55.39500 40.88200
C  9.15600 54.90600 40.38200
C  10.02300 56.05000 40.29500
C  9.30500 57.19700 40.78000
C  7.94500 56.73400 41.03100
C  11.43000 56.02000 39.78700
C  9.81600 58.59700 40.92700
O  11.02400 58.85400 40.77800
C  9.00400 59.74800 41.28000
N  4.97000 55.72700 41.52700
C  5.42400 57.02200 41.58400
C  4.32700 57.97700 42.01300
C  3.05300 57.05800 42.05500
C  3.59600 55.68300 41.78400
C  4.59400 58.64200 43.35100
C  1.82700 57.44500 41.25300
C  1.89000 57.33700 39.75000
N  4.50600 52.95200 41.23800
C  3.17100 53.25400 41.52700
C  2.37300 52.13700 41.62500
C  3.20700 51.03600 41.41300
C  4.49900 51.57800 41.07000
C  0.85000 52.10400 41.82000
C  3.29700 49.58400 41.29900
O  2.49300 48.72400 41.56000
C  4.83200 49.30000 40.87200
C  4.66500 48.38600 39.74100
O  4.12400 48.68400 38.68600
O  5.08400 47.06000 40.03300
C  4.68400 46.09500 39.05200
H  10.42800 53.34100 39.78300
H  6.85200 58.49600 41.54700
H  1.71800 54.69800 41.78200
H  7.99900 49.21400 40.80000
H  9.77100 50.88900 38.98600
H  10.15400 49.63600 41.35600
H  10.07800 51.31200 41.67200
H  11.30300 50.83600 40.53400
H  7.16200 48.18200 38.81300
H  8.64700 48.89900 38.23900
H  7.90500 50.36200 36.95200
H  6.47900 50.67500 37.90600
H  11.37900 56.22000 38.71700
H  11.89000 55.04000 39.91000
H  12.03200 56.77600 40.29200
H  9.64500 60.59500 41.52400
H  8.48800 59.45900 42.19500
H  8.34500 60.02500 40.45600
H  4.27300 58.69500 41.19500
H  2.73700 56.93400 43.09100
H  3.99800 58.47200 44.24800
H  4.31100 59.64100 43.01900
H  5.67100 58.59900 43.51500
H  1.68900 58.50200 41.48300
H  0.96300 56.98100 41.72800
H  1.62700 58.28000 39.27000
H  1.23500 56.54300 39.39200
H  2.91900 57.18900 39.42200
H  0.67800 51.94200 42.88500
H  0.49400 51.20900 41.31000
H  0.30400 52.94800 41.40000
H  5.30000 48.76900 41.70000
H  5.11200 45.12300 39.29900
H  5.08800 46.30000 38.06000
H  3.59400 46.09000 39.07700
Mg 16.83000 51.80100 25.79500
C  18.64400 50.11100 28.30200
C  14.77500 53.10700 28.17700
C  14.73600 52.78100 23.23700
C  18.76100 50.15500 23.44500
N  16.67700 51.57500 27.98400
C  17.53400 50.84800 28.79600
C  16.98300 50.78800 30.22200
C  15.74100 51.79500 30.23400
C  15.69000 52.19400 28.72700
C  14.44100 51.17100 30.82800
C  18.01700 51.31200 31.32100
C  17.74300 50.76300 32.72100
H  16.94400 51.60300 33.66500
N  15.12500 52.98200 25.73300
C  14.46100 53.51700 26.82900
C  13.32300 54.22300 26.39200
C  13.30000 54.20300 24.95500
C  14.41100 53.27000 24.55200
C  12.23800 54.71600 27.34800
C  12.54700 55.01200 23.92000
O  12.86600 54.98600 22.75200
C  11.40300 55.83100 24.44800
N  16.74600 51.56400 23.61100
C  15.80600 52.08900 22.84700
C  16.05300 51.63900 21.34200
C  17.51500 51.05300 21.37400
C  17.71400 50.90000 22.88600
C  15.04500 50.60300 20.77700
C  18.66500 51.80600 20.67300
C  19.90400 52.33300 21.36000
N  18.36200 50.41100 25.84500
C  19.05600 49.86700 24.78200
C  20.15900 49.03700 25.26300
C  20.04000 49.09000 26.63300
C  18.94300 49.96000 26.94000
C  21.17500 48.29800 24.39600
C  20.62500 48.65400 27.90300
O  21.62300 47.99000 28.12200
C  19.76300 49.30600 29.06500
C  19.36300 48.23300 30.06700
O  18.64100 47.33000 29.85400
O  19.97200 48.48200 31.28600
C  19.54500 47.56200 32.36000
H  14.17400 53.46400 29.01600
H  13.98400 52.87100 22.45000
H  19.51000 49.86000 22.70700
H  16.81300 49.72300 30.38500
H  15.90800 52.69100 30.83100
H  14.73400 50.32600 31.45200
H  13.74500 50.90000 30.03400
H  14.04200 51.87000 31.56300
H  18.10800 52.39700 31.36900
H  19.02500 50.89900 31.27300
H  18.70300 50.67400 33.23000
H  17.19300 49.82500 32.65900
H  11.39200 54.02800 27.36200
H  12.01200 55.77100 27.19500
H  12.56700 54.73400 28.38600
H  10.59600 56.11300 23.77200
H  11.67000 56.71300 25.03100
H  10.91700 55.26600 25.24400
H  16.02800 52.49200 20.66400
H  17.61200 50.03500 20.99800
H  14.08000 50.54000 21.28000
H  15.41900 49.59200 20.61800
H  14.85900 50.85200 19.73200
H  18.26200 52.65800 20.12600
H  19.12300 51.12500 19.95600
H  19.91400 52.24700 22.44600
H  20.00300 53.36700 21.03100
H  20.80100 51.81200 21.02500
H  20.68900 47.95800 23.48200
H  21.54200 47.40400 24.90100
H  22.06700 48.88300 24.16900
H  20.29500 50.10000 29.59100
H  18.73200 47.98100 32.95200
H  20.35900 47.51100 33.08300
H  19.33500 46.56500 31.97100

