158

Mg -10.86100 40.07000 42.15900
C  -9.56700 36.83400 41.44700
C  -8.10600 41.39200 40.60500
C  -12.32700 43.02600 42.32700
C  -13.88100 38.52400 43.02500
N  -9.10300 39.15600 40.98600
C  -8.72800 37.86300 40.98600
C  -7.45600 37.71300 40.12900
C  -6.90000 39.19700 40.07900
C  -8.11100 39.97900 40.54700
C  -5.62300 39.49800 40.80700
C  -7.77300 36.98300 38.78400
C  -6.78600 35.90100 38.36100
H  -5.76200 36.34900 37.26000
N  -10.26700 41.99100 41.61400
C  -9.09000 42.30500 41.00900
C  -8.96000 43.67400 40.90100
C  -10.12600 44.23100 41.52500
C  -11.01800 43.09400 41.79700
C  -7.77000 44.36800 40.30300
C  -10.40300 45.68500 41.87600
O  -9.58500 46.55500 41.58500
C  -11.63600 46.22900 42.63500
N  -12.85100 40.65500 42.47000
C  -13.19000 41.94500 42.56400
C  -14.61500 42.23700 43.02800
C  -15.14300 40.74400 43.16800
C  -13.92200 39.92600 42.88800
C  -14.65200 43.00300 44.38000
C  -16.24000 40.40600 42.13700
C  -17.57800 39.88300 42.77900
N  -11.63500 38.10400 42.29600
C  -12.82000 37.64800 42.77300
C  -12.81400 36.16200 42.81700
C  -11.51900 35.83900 42.28100
C  -10.87700 37.05800 41.92700
C  -13.92600 35.14600 43.23200
C  -10.61700 34.78700 41.93300
O  -10.82200 33.55700 42.07500
C  -9.32000 35.34600 41.31800
C  -8.23800 34.86200 42.14900
O  -7.87100 35.30800 43.18100
O  -7.68400 33.76800 41.48000
C  -6.37100 33.36400 41.93700
H  -7.24300 41.86700 40.13300
H  -12.82900 43.99200 42.41200
H  -14.84800 38.16100 43.37800
H  -6.73200 37.19900 40.76000
H  -6.78300 39.37900 39.01100
H  -4.97800 38.62300 40.89400
H  -5.75000 39.84500 41.83300
H  -5.00300 40.23800 40.30100
H  -7.70400 37.77600 38.03900
H  -8.82200 36.68800 38.75900
H  -7.40400 35.04400 38.09600
H  -6.20900 35.56200 39.22100
H  -8.01900 44.88100 39.37400
H  -6.88300 43.75100 40.15800
H  -7.35900 45.01800 41.07600
H  -12.56300 46.27900 42.06400
H  -11.31800 47.22100 42.95800
H  -11.70000 45.58200 43.51000
H  -15.09400 42.87700 42.28800
H  -15.42400 40.48500 44.18900
H  -13.66900 43.29700 44.74900
H  -15.25300 42.44200 45.09500
H  -15.14600 43.97300 44.32400
H  -15.95100 39.69300 41.36600
H  -16.45300 41.29900 41.54900
H  -18.30300 39.67100 41.99300
H  -18.18500 40.60200 43.32800
H  -17.50700 38.92100 43.28500
H  -13.44200 34.39700 43.85800
H  -14.54500 34.91000 42.36700
H  -14.52700 35.68600 43.96400
H  -9.36700 34.81200 40.36900
H  -5.88400 32.61700 41.31000
H  -6.35200 33.09800 42.99400
H  -5.66700 34.19500 41.94500
Mg -2.04900 34.70000 26.99500
C  -3.70600 32.79300 29.45000
C  -1.00200 36.84500 29.27500
C  -1.16900 36.62000 24.38100
C  -3.22300 32.33800 24.62100
N  -2.36900 34.85400 29.06600
C  -2.93800 33.89900 29.91300
C  -2.56300 34.14300 31.34300
C  -1.63900 35.39600 31.25900
C  -1.74400 35.79300 29.78400
C  -1.94700 36.48600 32.28200
C  -1.75500 32.96600 31.98500
C  -2.17200 32.47000 33.35500
H  -1.18300 32.61200 34.57900
N  -1.13400 36.54500 26.85100
C  -0.75600 37.26400 27.95500
C  -0.08400 38.49100 27.55100
C  -0.27600 38.49100 26.10900
C  -0.91500 37.19700 25.66900
C  0.55000 39.50900 28.54700
C  0.20100 39.52400 25.10800
O  0.14200 39.34300 23.88800
C  0.86200 40.81100 25.62900
N  -2.27100 34.51700 24.76000
C  -1.68000 35.44400 23.93600
C  -1.62200 34.94800 22.49600
C  -2.14100 33.53100 22.67800
C  -2.51900 33.37600 24.11600
C  -2.55400 35.80200 21.64800
C  -1.09800 32.50400 22.18400
C  -0.02000 32.11300 23.18400
N  -3.24200 32.93900 26.99500
C  -3.67800 32.10100 25.93300
C  -4.53200 31.05300 26.39600
C  -4.52800 31.27800 27.80400
C  -3.69700 32.42100 28.05400
C  -5.30400 30.04100 25.61200
C  -5.05400 30.79300 29.11400
O  -5.79400 29.86800 29.42200
C  -4.40300 31.71500 30.25900
C  -5.45800 32.24300 31.16000
O  -6.16900 33.17300 30.87900
O  -5.53500 31.46700 32.34200
C  -6.49600 31.97200 33.33700
H  -0.54400 37.48300 30.03500
H  -0.75000 37.12600 23.50900
H  -3.45700 31.57600 23.87400
H  -3.51000 34.28500 31.86300
H  -0.60000 35.09700 31.39700
H  -2.36100 37.35800 31.77600
H  -1.05100 36.63800 32.88400
H  -2.69700 36.04500 32.93900
H  -0.71000 33.25300 32.10700
H  -1.70600 32.08600 31.34400
H  -2.35500 31.40100 33.24000
H  -3.14700 32.94300 33.47200
H  1.42100 39.96200 28.07300
H  0.90500 39.06000 29.47500
H  -0.15900 40.29500 28.80800
H  0.90600 41.50600 24.79000
H  1.83700 40.56500 26.05000
H  0.19700 41.23100 26.38300
H  -0.59700 35.03300 22.13500
H  -3.04200 33.44600 22.07100
H  -3.25500 36.33600 22.28800
H  -3.14700 35.25000 20.91900
H  -1.99400 36.59800 21.15700
H  -0.63100 32.87600 21.27200
H  -1.68800 31.70000 21.74500
H  0.10900 32.94000 23.88300
H  0.93100 31.95400 22.67600
H  -0.19200 31.11100 23.57700
H  -5.04400 30.05900 24.55400
H  -6.36400 30.23200 25.77900
H  -5.12400 29.05100 26.03100
H  -3.65500 31.06800 30.71600
H  -7.38600 32.42100 32.89500
H  -6.13600 32.69500 34.06900
H  -6.73800 31.20300 34.07000

