158

Mg 17.27500 -3.12000 27.75500
C  16.55300 -1.02100 30.60700
C  19.22700 -5.01600 29.75900
C  18.46000 -4.50600 24.96800
C  15.39200 -0.82100 25.68200
N  17.88700 -2.89000 29.88400
C  17.38900 -2.10800 30.87600
C  17.81400 -2.57600 32.25000
C  18.92800 -3.64000 31.89100
C  18.66300 -3.89800 30.42400
C  20.44700 -3.37200 32.26900
C  16.69000 -3.11500 33.22900
C  16.62600 -2.51700 34.63400
H  17.91700 -1.96800 35.31300
N  18.52100 -4.64500 27.41600
C  19.19500 -5.34500 28.37800
C  19.88600 -6.49600 27.77400
C  19.61100 -6.30200 26.35800
C  18.75200 -5.13100 26.19800
C  20.62500 -7.49400 28.56100
C  20.02000 -7.17200 25.19700
O  19.73800 -6.99400 24.03500
C  20.77100 -8.44300 25.56900
N  16.82700 -2.83500 25.63500
C  17.56300 -3.49400 24.70100
C  17.47300 -2.81100 23.32700
C  16.23500 -1.84900 23.59800
C  16.12300 -1.79100 25.07600
C  18.67000 -2.08100 22.77800
C  14.90400 -2.38800 22.96300
C  13.91300 -1.31900 22.46600
N  16.22300 -1.32600 28.02800
C  15.40700 -0.56700 27.12400
C  14.77300 0.47500 27.85100
C  15.21000 0.31200 29.15800
C  16.10900 -0.76500 29.26100
C  13.78500 1.38600 27.23900
C  15.13600 0.87800 30.42300
O  14.47300 1.82400 30.74600
C  15.94700 0.03100 31.47900
C  16.85800 0.95100 32.27100
O  18.07800 1.08500 32.23700
O  15.98500 1.57400 33.13100
C  16.60800 2.54400 34.02500
H  19.66800 -5.78300 30.39900
H  18.97800 -4.78300 24.04700
H  14.88400 -0.16200 24.97500
H  18.38100 -1.72200 32.62200
H  18.75000 -4.63000 32.31100
H  20.93500 -4.29900 32.57200
H  20.69200 -2.70300 33.09400
H  21.10100 -3.17600 31.41900
H  16.76000 -4.20000 33.30900
H  15.75200 -2.90300 32.71500
H  16.29900 -3.26800 35.35300
H  15.87500 -1.74200 34.48000
H  21.51400 -7.85500 28.04400
H  19.84400 -8.21700 28.79600
H  21.02400 -7.05000 29.47400
H  20.40900 -9.05000 26.40000
H  21.80800 -8.14900 25.73500
H  20.72300 -9.09600 24.69800
H  17.28100 -3.46600 22.47800
H  16.48800 -0.89500 23.13500
H  18.65200 -1.02600 23.05200
H  18.74100 -2.08500 21.69100
H  19.52700 -2.62200 23.18000
H  14.32800 -2.95400 23.69500
H  15.13800 -3.01300 22.10100
H  13.50200 -1.51300 21.47500
H  14.28600 -0.29500 22.46200
H  13.14500 -1.29500 23.23900
H  12.94500 0.77600 26.90600
H  14.17100 1.83900 26.32500
H  13.54900 2.23100 27.88600
H  15.22500 -0.45800 32.13300
H  16.95300 3.40000 33.44500
H  17.51300 2.16000 34.49700
H  15.93400 2.72600 34.86300
Mg -4.82400 24.85700 26.56700
C  -3.12400 26.41700 29.20400
C  -6.36500 22.79600 28.97900
C  -6.79700 23.50200 24.13400
C  -3.15200 26.64000 24.31200
N  -4.77600 24.67600 28.79900
C  -4.11100 25.52000 29.66100
C  -4.35200 25.15000 31.18300
C  -5.22300 23.82400 31.01700
C  -5.50000 23.75700 29.51800
C  -4.49400 22.56700 31.55200
C  -5.08300 26.45200 31.78700
C  -5.98000 26.17000 33.00500
H  -5.47000 25.08100 33.98700
N  -6.29400 23.24200 26.53600
C  -6.72800 22.48700 27.60500
C  -7.71200 21.51400 27.07300
C  -7.96500 21.89200 25.75700
C  -6.98500 22.85300 25.43300
C  -8.37000 20.43100 27.96500
C  -9.08800 21.36200 24.80400
O  -9.17500 21.73900 23.62400
C  -10.06900 20.31000 25.25700
N  -4.89300 24.91700 24.43200
C  -5.89600 24.40100 23.63000
C  -5.75100 24.77300 22.13000
C  -4.67600 25.86500 22.28000
C  -4.21100 25.82300 23.81100
C  -5.45200 23.57500 21.19600
C  -5.03500 27.26600 21.69200
C  -5.26200 27.41700 20.15200
N  -3.39400 26.21600 26.68400
C  -2.75700 26.81000 25.66100
C  -1.67300 27.61800 26.14000
C  -1.78300 27.50900 27.52900
C  -2.89800 26.71900 27.82500
C  -0.75500 28.38000 25.34700
C  -1.26300 27.94800 28.76800
O  -0.27400 28.69500 28.81300
C  -2.17000 27.30400 29.96300
C  -1.28900 26.53600 30.89900
O  -0.55300 25.60400 30.56300
O  -1.33700 26.94300 32.14600
C  -0.36200 26.47100 33.13900
H  -6.87200 22.25300 29.77900
H  -7.35200 23.15000 23.26200
H  -2.54600 27.19900 23.59600
H  -3.42600 24.90700 31.70300
H  -6.17600 23.79100 31.54300
H  -3.45800 22.48600 31.22400
H  -4.98300 21.62300 31.31400
H  -4.47400 22.64300 32.63900
H  -5.77700 26.89700 31.07500
H  -4.40800 27.27900 32.00800
H  -7.01000 25.97500 32.70600
H  -5.94400 27.03800 33.66300
H  -8.36800 19.50700 27.38700
H  -9.32700 20.79200 28.34100
H  -7.70700 20.23900 28.80800
H  -10.83100 20.11800 24.50300
H  -10.69700 20.50600 26.12600
H  -9.57900 19.35900 25.46900
H  -6.68300 25.27000 21.86100
H  -3.85100 25.55500 21.63900
H  -4.90300 22.79800 21.72800
H  -4.86300 23.93700 20.35300
H  -6.37400 23.17000 20.77800
H  -4.23700 27.97200 21.92200
H  -5.96700 27.57200 22.16800
H  -6.29200 27.71100 19.95000
H  -5.10100 26.44600 19.68500
H  -4.56000 28.20000 19.86700
H  -1.22300 29.09500 24.67100
H  -0.09900 27.87500 24.63800
H  -0.24800 29.00700 26.08100
H  -2.73300 28.01900 30.56200
H  0.59300 26.26500 32.65500
H  -0.72200 25.59100 33.67200
H  -0.18100 27.40000 33.67900

