158

Mg -1.81900 17.55500 26.39300
C  -2.08000 15.00300 28.87100
C  -2.23800 19.84800 28.92400
C  -2.20400 19.90500 24.09000
C  -2.16900 15.07900 24.05600
N  -1.97500 17.42200 28.67700
C  -1.96900 16.27800 29.42500
C  -2.00800 16.55500 30.95200
C  -2.48700 18.03600 30.95300
C  -2.14400 18.50400 29.48000
C  -3.97700 18.46600 31.41200
C  -0.67600 16.17300 31.75200
C  -0.29000 17.00900 33.04800
H  -0.34800 16.32600 34.41300
N  -2.10600 19.59900 26.52300
C  -2.24100 20.38100 27.62400
C  -2.56300 21.68600 27.24900
C  -2.40600 21.77700 25.82200
C  -2.19400 20.37500 25.40900
C  -2.82600 22.89000 28.19700
C  -2.55400 22.98600 24.87300
O  -2.31600 22.94300 23.67000
C  -2.85000 24.43800 25.39500
N  -2.37500 17.45600 24.44900
C  -2.27900 18.55800 23.59300
C  -2.31900 18.19500 22.11600
C  -2.09200 16.68400 22.15700
C  -2.13800 16.38000 23.65500
C  -3.54000 18.71300 21.31800
C  -0.71700 16.23400 21.58600
C  0.64600 16.68700 22.23100
N  -1.99300 15.42100 26.40200
C  -2.18400 14.53100 25.32400
C  -2.32500 13.17100 25.84000
C  -2.30000 13.32700 27.23300
C  -2.08400 14.69300 27.51400
C  -2.48200 11.86800 25.13100
C  -2.29300 12.64500 28.48900
O  -2.26500 11.44500 28.77900
C  -2.40900 13.75700 29.52500
C  -1.57600 13.36700 30.67500
O  -0.37200 13.29800 30.71100
O  -2.37000 12.96500 31.68300
C  -1.73100 12.24100 32.78500
H  -2.51000 20.62000 29.64600
H  -2.21400 20.60700 23.25300
H  -2.14100 14.38500 23.21300
H  -2.77400 15.96900 31.46000
H  -1.76500 18.68400 31.45000
H  -4.55600 18.83900 30.56700
H  -3.76900 19.30200 32.08100
H  -4.40400 17.64000 31.98000
H  0.18100 16.08100 31.08500
H  -0.77500 15.16900 32.16300
H  -0.74000 18.00200 33.04500
H  0.75700 17.29300 32.93900
H  -1.93100 23.49600 28.05400
H  -2.91800 22.46500 29.19700
H  -3.76200 23.37300 27.91500
H  -3.79900 24.45900 25.93100
H  -2.96500 25.12000 24.55300
H  -2.02000 24.79600 26.00400
H  -1.46800 18.66100 21.61800
H  -2.90300 16.13600 21.67800
H  -4.15900 19.21200 22.06300
H  -4.03600 17.91300 20.76800
H  -3.31500 19.47000 20.56700
H  -0.69800 16.51100 20.53200
H  -0.66800 15.14500 21.56000
H  1.16600 17.33900 21.52800
H  1.31200 15.87400 22.51900
H  0.46000 17.35500 23.07200
H  -1.51000 11.38700 25.02100
H  -2.87700 12.13100 24.15000
H  -3.23600 11.29900 25.67600
H  -3.45300 13.87800 29.81700
H  -1.19900 13.02900 33.31700
H  -0.99100 11.50200 32.47800
H  -2.50800 11.85500 33.44600
Mg 30.26200 57.52300 40.21200
C  27.44000 55.73000 39.26400
C  32.14000 54.67000 39.41900
C  33.05300 59.26300 40.35600
C  28.36900 60.39800 40.27100
N  29.82700 55.34900 39.53300
C  28.57800 54.89100 39.26900
C  28.62100 53.38500 38.83500
C  30.14800 53.00100 38.93100
C  30.78000 54.36700 39.34200
C  30.50300 51.88200 39.91800
C  28.05300 52.99800 37.44900
C  28.57900 53.80200 36.29900
H  27.64300 54.11800 35.12200
N  32.33300 57.01300 40.03900
C  32.91400 55.75900 39.75500
C  34.40000 55.88800 39.80000
C  34.64700 57.27600 40.09800
C  33.30600 57.93400 40.24700
C  35.29300 54.75100 39.56900
C  36.03700 57.96500 40.27800
O  36.97500 57.17400 40.05800
C  36.29700 59.41800 40.59200
N  30.59900 59.55400 40.25600
C  31.93700 60.04500 40.33700
C  31.88400 61.61000 40.35900
C  30.35300 62.00300 40.38700
C  29.72500 60.61600 40.33800
C  32.75700 62.18400 41.47000
C  29.94900 62.96800 39.28600
C  29.75400 64.39600 39.68600
N  28.31300 58.02200 39.82000
C  27.64300 59.24900 40.08900
C  26.21200 59.02300 39.84600
C  26.12100 57.63500 39.54500
C  27.44400 57.08500 39.53700
C  25.09900 60.02700 39.94200
C  25.14900 56.62700 39.16500
O  23.96200 56.77500 39.01800
C  25.96600 55.34000 38.85000
C  25.36200 54.32300 39.76100
O  25.48200 54.29200 40.99500
O  24.62400 53.45000 38.94700
C  23.84900 52.35700 39.57300
H  32.66700 53.74400 39.17600
H  33.90400 59.93800 40.46800
H  27.72100 61.27200 40.36700
H  27.96600 52.87300 39.54100
H  30.50200 52.73700 37.93400
H  31.06600 52.25300 40.77500
H  31.17000 51.19200 39.40100
H  29.55900 51.43900 40.23400
H  26.97300 53.11900 37.53000
H  28.14500 51.96000 37.13000
H  29.40000 53.18300 35.93600
H  29.01200 54.73200 36.66700
H  35.73300 54.76100 38.57200
H  34.63700 53.88100 39.59300
H  35.97800 54.57000 40.39700
H  35.92400 60.05000 39.78600
H  37.37400 59.52700 40.46400
H  35.99800 59.67600 41.60800
H  32.34700 61.90200 39.41700
H  30.06300 62.45300 41.33700
H  33.42600 62.96400 41.10500
H  33.37800 61.46200 42.00000
H  32.21700 62.63500 42.30300
H  29.01800 62.58600 38.86600
H  30.68700 63.08600 38.49300
H  29.77400 64.47300 40.77300
H  28.78300 64.77600 39.36600
H  30.42400 65.05700 39.13600
H  25.10700 60.53600 40.90600
H  24.16000 59.50600 39.75900
H  25.14800 60.72000 39.10200
H  25.81400 55.01800 37.82000
H  23.03800 52.68400 40.22500
H  24.44400 51.66900 40.17300
H  23.47800 51.69800 38.78800

