158

Mg 2.49200 -1.04800 43.28200
C  5.89000 -0.30100 42.80100
C  1.68500 1.77600 41.52000
C  -0.63700 -2.31900 42.73000
C  3.54000 -4.23400 44.45300
N  3.65500 0.49300 42.22900
C  5.00400 0.59400 42.18700
C  5.37100 1.87200 41.38200
C  4.06400 2.76200 41.45100
C  3.00600 1.62300 41.86100
C  4.05500 4.04300 42.29900
C  5.95700 1.48200 39.96600
C  5.10200 1.02900 38.87200
H  4.97300 1.87200 37.53900
N  0.76300 -0.32000 42.46700
C  0.65900 0.89200 41.75400
C  -0.74600 1.14600 41.38400
C  -1.46400 -0.00700 41.80100
C  -0.48300 -0.95300 42.40700
C  -1.05900 2.44900 40.57300
C  -2.88100 -0.14900 41.52700
O  -3.43500 0.82600 40.96900
C  -3.68900 -1.26200 41.92400
N  1.57800 -2.97300 43.63800
C  0.32600 -3.27400 43.23900
C  0.03300 -4.79600 43.25900
C  1.31200 -5.31300 44.01500
C  2.22200 -4.11900 44.09900
C  -1.28600 -5.08700 44.05800
C  1.87500 -6.62000 43.47200
C  2.07000 -7.69500 44.58500
N  4.32500 -2.06100 43.70600
C  4.55300 -3.34500 44.20100
C  5.96500 -3.53100 44.22900
C  6.56800 -2.36800 43.70200
C  5.53600 -1.49100 43.38400
C  6.58500 -4.72700 44.89900
C  7.82300 -1.67900 43.38800
O  8.99700 -2.02500 43.43600
C  7.38100 -0.33700 42.74200
C  7.99500 0.85900 43.33700
O  8.78100 1.59300 42.73800
O  7.76900 0.95900 44.65400
C  8.61800 2.02400 45.32800
H  1.43600 2.63300 40.89100
H  -1.56400 -2.75100 42.34600
H  3.82000 -5.23000 44.80200
H  6.16500 2.36100 41.94600
H  3.96600 3.08900 40.41600
H  3.22400 3.92700 42.99500
H  3.85700 4.86500 41.61100
H  5.04200 4.21600 42.72800
H  6.74000 0.73600 40.10200
H  6.44700 2.37500 39.57700
H  4.06600 0.98700 39.20800
H  5.40000 0.01900 38.59100
H  -0.26100 2.66800 39.86300
H  -1.20900 3.35300 41.16400
H  -2.01800 2.46400 40.05600
H  -3.59600 -1.28400 43.01000
H  -3.36600 -2.20500 41.48300
H  -4.67500 -1.29300 41.46000
H  -0.10600 -5.21000 42.26100
H  0.96700 -5.50300 45.03100
H  -1.24600 -5.65200 44.98900
H  -1.78400 -5.76100 43.36100
H  -1.96600 -4.24700 44.20300
H  2.83300 -6.34900 43.02800
H  1.38200 -7.07000 42.61000
H  2.79200 -8.41900 44.20700
H  1.12300 -8.10100 44.94000
H  2.42200 -7.05000 45.39100
H  6.76200 -5.54400 44.20100
H  6.09200 -4.99700 45.83300
H  7.56000 -4.43700 45.29000
H  7.82300 -0.30000 41.74600
H  8.27400 3.04500 45.16200
H  9.63700 2.00400 44.94300
H  8.60700 1.84600 46.40300
Mg 29.43800 58.52400 41.14800
C  26.25200 57.02100 40.42100
C  30.93300 55.83800 39.74500
C  32.25800 60.28300 41.08900
C  27.60600 61.53200 41.88500
N  28.72000 56.73600 40.06500
C  27.36700 56.24900 39.97000
C  27.34300 55.03000 39.11000
C  28.76200 54.49300 39.25500
C  29.54400 55.74100 39.69800
C  28.92100 53.35400 40.27900
C  26.88400 55.45700 37.63300
C  25.85500 54.47300 36.95900
H  26.09200 54.00500 35.49300
N  31.34200 58.04500 40.69900
C  31.79500 56.86400 40.12600
C  33.22400 56.93400 40.07200
C  33.71700 58.16800 40.58200
C  32.43600 58.87900 40.81600
C  34.00800 55.72000 39.56200
C  35.18700 58.72400 40.72700
O  36.17800 58.00900 40.56300
C  35.42500 60.21700 41.16400
N  29.86300 60.61400 41.45500
C  31.14700 61.04900 41.42700
C  31.20300 62.47000 41.81400
C  29.73600 62.91100 42.18500
C  28.98400 61.65100 41.73700
C  32.37100 63.00300 42.65400
C  29.17700 64.29800 41.65000
C  28.50600 65.28800 42.68900
N  27.40000 59.12900 41.22300
C  26.83800 60.36500 41.51100
C  25.39300 60.25100 41.51500
C  25.14600 58.94700 41.04700
C  26.39700 58.32700 40.85300
C  24.36700 61.38800 41.84100
C  24.09100 58.00800 40.73700
O  22.88300 58.14800 40.71100
C  24.78500 56.72400 40.31500
C  24.49800 55.66900 41.27700
O  24.94600 55.70600 42.39500
O  23.89900 54.61000 40.66200
C  23.58100 53.49000 41.53300
H  31.35000 54.89600 39.38000
H  33.20400 60.82900 41.10900
H  26.91000 62.35300 42.06900
H  26.65100 54.32700 39.57400
H  29.02500 54.03400 38.30200
H  28.00700 53.11100 40.82100
H  29.58400 53.54900 41.12200
H  29.25700 52.44600 39.77900
H  27.77800 55.44500 37.01000
H  26.42900 56.44700 37.59400
H  24.82200 54.82100 36.93400
H  25.92200 53.53300 37.50800
H  34.28200 55.95700 38.53400
H  33.43400 54.79400 39.56300
H  34.86800 55.57800 40.21600
H  35.22700 60.85600 40.30300
H  36.49000 60.30800 41.38100
H  35.04600 60.46100 42.15600
H  31.36000 62.99200 40.87100
H  29.68800 62.96600 43.27200
H  32.88700 62.12300 43.03800
H  32.20600 63.56000 43.57600
H  33.01500 63.59000 42.00000
H  28.41900 64.11200 40.88800
H  29.92400 64.85900 41.08900
H  27.54300 65.72000 42.41700
H  29.19700 66.08700 42.95600
H  28.20400 64.83000 43.63100
H  24.80900 61.98900 42.63600
H  23.35900 61.15300 42.18300
H  24.05600 62.01500 41.00500
H  24.37300 56.36100 39.37400
H  22.60700 53.58100 42.01400
H  24.47700 53.23700 42.10000
H  23.39500 52.64200 40.87400

