158

Mg 10.08400 47.36900 25.94800
C  8.21600 47.14200 28.76300
C  12.68900 48.86300 27.62100
C  11.85800 47.28600 23.10600
C  7.16600 46.56200 24.10300
N  10.35100 47.95100 27.99200
C  9.51700 47.66700 29.01800
C  10.12100 48.13000 30.34700
C  11.39500 48.96700 29.84900
C  11.48100 48.62200 28.36500
C  11.23300 50.49800 30.13300
C  10.50100 47.09100 31.42300
C  9.84100 47.14200 32.86600
H  9.93100 45.95100 33.75700
N  12.16100 47.97700 25.40500
C  13.03800 48.39700 26.32700
C  14.32800 48.56700 25.62900
C  14.12500 48.15000 24.26100
C  12.66200 47.78200 24.18700
C  15.55000 49.11100 26.37200
C  15.08900 47.95900 23.13800
O  14.70600 47.47100 22.07000
C  16.55400 48.24900 23.39800
N  9.58900 47.00900 23.82500
C  10.51900 46.93300 22.82400
C  9.90700 46.62700 21.43000
C  8.41300 46.50600 21.79200
C  8.34500 46.79900 23.32600
C  10.15800 47.62100 20.34200
C  7.75400 45.20200 21.34200
C  7.23200 45.19400 19.92200
N  8.09700 46.81800 26.30900
C  7.08200 46.53500 25.47400
C  5.89200 46.32900 26.20100
C  6.31000 46.47500 27.55200
C  7.65300 46.89900 27.52300
C  4.45000 46.26400 25.68300
C  5.85400 46.55000 28.92200
O  4.77200 46.34900 29.41800
C  7.11400 46.97700 29.83400
C  7.40700 45.77900 30.70400
O  8.08300 44.81200 30.39000
O  6.62700 45.79000 31.85100
C  6.69600 44.70500 32.77500
H  13.54100 49.17100 28.23100
H  12.37400 47.02800 22.17900
H  6.24200 46.42800 23.53800
H  9.52300 48.84500 30.91300
H  12.22500 48.46700 30.34900
H  10.67400 51.09300 29.41100
H  12.22700 50.91900 30.28100
H  10.78100 50.58400 31.12100
H  11.57300 47.12400 31.62100
H  10.33400 46.07100 31.07800
H  8.84900 47.59000 32.80300
H  10.51800 47.86300 33.32300
H  16.18900 48.23900 26.51300
H  15.29500 49.51300 27.35300
H  16.10400 49.88000 25.83500
H  16.75900 47.76900 24.35400
H  16.65900 49.28800 23.71100
H  17.23900 48.01100 22.58300
H  10.20100 45.69100 20.95600
H  8.00900 47.36700 21.25900
H  10.02900 48.64500 20.69400
H  9.42700 47.32000 19.59200
H  11.15900 47.34700 20.00900
H  6.95500 44.84600 21.99300
H  8.47300 44.38900 21.43300
H  7.96700 44.79900 19.22000
H  7.06300 46.20200 19.54200
H  6.30900 44.62000 19.99800
H  4.37200 45.55900 24.85500
H  4.17500 47.25900 25.33200
H  3.75800 45.99600 26.48200
H  6.99800 47.89700 30.40600
H  7.17400 45.19400 33.62400
H  7.26000 43.83500 32.44100
H  5.69200 44.47100 33.13100
Mg -12.01400 37.69300 41.92500
C  -10.23900 34.70000 41.29600
C  -9.39800 39.44500 40.55800
C  -14.09700 40.31900 41.68300
C  -14.64100 35.77600 42.95900
N  -9.99100 37.12600 41.11600
C  -9.50500 35.84700 40.90900
C  -8.09700 35.98700 40.21600
C  -7.71300 37.48500 40.39800
C  -9.12500 38.09200 40.79200
C  -6.53700 37.81100 41.41700
C  -8.12800 35.44200 38.72000
C  -6.97200 34.49900 38.52200
H  -5.79200 35.10500 37.79700
N  -11.76400 39.59600 41.25500
C  -10.60800 40.15600 40.73800
C  -10.81500 41.58600 40.50400
C  -12.23000 41.74600 40.56300
C  -12.78500 40.52300 41.14100
C  -9.67800 42.55400 40.00300
C  -12.94000 43.00500 40.20100
O  -12.21500 43.92600 39.78700
C  -14.36100 43.29200 40.36600
N  -14.14800 38.04600 42.38700
C  -14.74700 39.24600 42.26800
C  -16.29400 39.22400 42.48500
C  -16.38300 37.69800 43.09300
C  -15.00500 37.12400 42.75100
C  -16.90900 40.20500 43.46600
C  -17.53900 36.80500 42.45400
C  -17.84400 36.95300 40.96000
N  -12.39500 35.71900 42.14600
C  -13.46200 35.06800 42.71200
C  -13.18900 33.64700 42.79700
C  -11.92800 33.44700 42.22600
C  -11.48500 34.73000 41.81800
C  -14.11300 32.67200 43.46400
C  -10.87000 32.42300 41.83500
O  -10.79600 31.21200 41.90500
C  -9.71200 33.29500 41.14900
C  -8.35200 33.01100 41.71100
O  -7.49800 32.35700 41.15500
O  -8.23600 33.52000 43.02200
C  -7.25600 32.90300 43.86800
H  -8.58900 40.00400 40.08300
H  -14.72300 41.21300 41.63900
H  -15.51200 35.17900 43.24000
H  -7.48400 35.40700 40.90600
H  -7.30600 37.81500 39.44300
H  -6.94200 37.85200 42.42800
H  -6.02600 38.76700 41.30300
H  -5.73900 37.09400 41.22400
H  -8.11200 36.23100 37.96900
H  -9.04900 34.86100 38.66900
H  -7.31300 33.60500 37.99800
H  -6.48200 34.16200 39.43500
H  -9.71300 42.69100 38.92200
H  -8.66600 42.15500 40.07700
H  -9.79700 43.53800 40.45800
H  -14.91700 42.42900 40.00000
H  -14.75600 44.09700 39.74700
H  -14.53300 43.52300 41.41800
H  -16.80000 39.28800 41.52200
H  -16.55400 37.66900 44.16900
H  -17.66200 40.82500 42.97900
H  -16.17500 40.72200 44.08300
H  -17.42400 39.64900 44.25000
H  -18.44400 37.01800 43.02400
H  -17.34800 35.73800 42.56700
H  -17.01600 37.51200 40.52400
H  -18.79000 37.48200 40.84200
H  -18.01400 35.98200 40.49500
H  -15.02300 32.38100 42.93800
H  -14.31700 33.17300 44.41000
H  -13.56600 31.77100 43.74100
H  -9.75700 32.99800 40.10100
H  -7.30200 31.82400 43.72100
H  -7.45300 33.21600 44.89400
H  -6.25000 33.23600 43.61200

