158

Mg -2.42900 17.02000 26.14100
C  -2.84200 14.72900 28.74100
C  -2.94700 19.61800 28.31400
C  -2.23000 19.15900 23.53200
C  -2.55300 14.37900 23.80600
N  -2.69400 17.12100 28.31900
C  -2.79400 16.07900 29.19600
C  -2.78500 16.56900 30.69900
C  -2.90400 18.16000 30.49900
C  -2.92600 18.34300 28.95500
C  -4.13400 18.82200 31.12200
C  -1.46700 16.13000 31.48500
C  -0.99400 16.81500 32.77200
H  -0.53200 15.96100 33.97200
N  -2.63100 19.04800 25.98600
C  -2.73600 19.99200 27.00700
C  -2.78200 21.33800 26.47400
C  -2.57200 21.13100 25.13300
C  -2.39400 19.73300 24.80100
C  -3.03800 22.63500 27.24000
C  -2.44500 22.17400 24.02200
O  -2.31700 22.02100 22.79200
C  -2.43700 23.57800 24.43300
N  -2.36800 16.76400 23.97400
C  -2.32900 17.82500 23.11600
C  -2.28300 17.37600 21.66400
C  -2.67100 15.86500 21.78400
C  -2.46000 15.66700 23.27100
C  -3.15500 18.05900 20.67800
C  -2.04500 14.87900 20.72300
C  -2.96500 14.26100 19.65800
N  -2.58100 14.99300 26.18800
C  -2.59300 13.99100 25.17700
C  -2.93600 12.69200 25.72500
C  -3.00300 12.89200 27.14500
C  -2.78200 14.29400 27.35100
C  -3.19100 11.49100 24.95600
C  -3.25900 12.28500 28.39800
O  -3.57700 11.14300 28.64400
C  -3.07600 13.42300 29.44500
C  -1.93600 13.09000 30.26300
O  -0.75400 13.36600 29.95300
O  -2.32900 12.46500 31.38800
C  -1.27300 12.08500 32.35700
H  -3.03200 20.38100 29.09100
H  -2.17000 19.76700 22.62800
H  -2.86100 13.59800 23.10700
H  -3.62800 16.13700 31.24000
H  -1.99900 18.60900 30.90900
H  -5.05300 18.82800 30.53700
H  -3.85100 19.82700 31.43500
H  -4.42200 18.39800 32.08400
H  -0.59400 16.19000 30.83500
H  -1.53300 15.08200 31.77600
H  -1.84600 17.42400 33.07500
H  -0.21200 17.45700 32.36800
H  -3.28400 22.39300 28.27400
H  -3.85900 23.20500 26.80400
H  -2.11700 23.21700 27.26200
H  -3.46100 23.75500 24.76100
H  -2.15500 24.25700 23.62800
H  -1.81300 23.79700 25.29900
H  -1.29100 17.44600 21.21700
H  -3.75000 15.83100 21.63300
H  -3.56900 17.41000 19.90600
H  -2.65800 18.82500 20.08300
H  -3.96500 18.55200 21.21700
H  -1.49300 14.02100 21.10800
H  -1.33900 15.47900 20.14800
H  -3.98100 14.58200 19.89000
H  -2.77400 13.18800 19.63700
H  -2.84900 14.73100 18.68100
H  -3.81300 10.75300 25.46400
H  -2.20100 11.08500 24.74800
H  -3.73100 11.80700 24.06300
H  -3.93400 13.47000 30.11400
H  -1.21500 10.99900 32.42900
H  -1.52300 12.63900 33.26200
H  -0.29400 12.49800 32.11300
Mg -11.63200 38.07700 42.34900
C  -9.35300 35.48700 41.37500
C  -9.54200 40.28400 40.60000
C  -13.92100 40.40400 42.57000
C  -13.90200 35.58300 43.14700
N  -9.75200 37.83500 41.15900
C  -8.96600 36.71700 40.91000
C  -7.70900 37.04700 40.11100
C  -7.66100 38.60900 40.20700
C  -9.07200 38.93800 40.67100
C  -6.56200 39.19000 41.10300
C  -7.67900 36.39200 38.68000
C  -6.50400 35.49300 38.36300
H  -5.51000 36.00100 37.24900
N  -11.74800 40.10100 41.71500
C  -10.79000 40.85800 41.04000
C  -11.14500 42.24800 41.00800
C  -12.43000 42.26300 41.53200
C  -12.76000 40.91800 41.99600
C  -10.34400 43.31700 40.32200
C  -13.30500 43.55000 41.62900
O  -12.85200 44.56500 41.34400
C  -14.79500 43.46300 41.93600
N  -13.66300 37.91800 42.63500
C  -14.33300 39.08400 42.92000
C  -15.72100 38.73800 43.47300
C  -15.83300 37.20100 43.61400
C  -14.41600 36.85300 43.01800
C  -16.15700 39.57200 44.70400
C  -16.94300 36.61800 42.76100
C  -17.50500 35.27800 43.17100
N  -11.55500 35.98300 42.50600
C  -12.51500 35.09900 42.89000
C  -12.03900 33.69300 42.82100
C  -10.71900 33.84300 42.35900
C  -10.51700 35.23700 42.04700
C  -12.80200 32.50000 43.20400
C  -9.54500 33.16000 42.00300
O  -9.28100 31.94200 42.00300
C  -8.56100 34.21500 41.45800
C  -7.39300 34.17200 42.30300
O  -7.31900 34.63900 43.38900
O  -6.42100 33.47600 41.65500
C  -5.35500 33.19800 42.61800
H  -8.73100 40.91700 40.23200
H  -14.56000 41.23800 42.86700
H  -14.59300 34.82200 43.51500
H  -6.86600 36.67500 40.69400
H  -7.47000 39.07100 39.23800
H  -6.02600 38.38200 41.60100
H  -7.06600 39.90000 41.75800
H  -5.80100 39.83400 40.66200
H  -7.76100 37.25200 38.01500
H  -8.69600 36.01100 38.58700
H  -6.87800 34.53800 37.99300
H  -5.97800 35.30200 39.29800
H  -9.29300 43.02700 40.30700
H  -10.50000 44.22700 40.90300
H  -10.81900 43.45100 39.35100
H  -15.10500 42.60800 41.33500
H  -15.31800 44.37500 41.64600
H  -14.93900 43.27900 43.00000
H  -16.38100 39.13000 42.69900
H  -15.84100 36.89400 44.65900
H  -16.55500 38.99300 45.53700
H  -16.84100 40.37800 44.43900
H  -15.24900 40.07100 45.04400
H  -16.66200 36.44700 41.72100
H  -17.78400 37.31000 42.80500
H  -18.58800 35.38500 43.24200
H  -17.25600 35.01300 44.19900
H  -17.24000 34.55800 42.39800
H  -12.64800 31.74400 42.43300
H  -13.84300 32.62800 43.50000
H  -12.18600 32.10600 44.01200
H  -8.26400 33.84700 40.47500
H  -4.83400 34.11800 42.88400
H  -4.62000 32.49800 42.22100
H  -5.79200 32.79100 43.53000

