158

Mg 7.65100 3.95100 27.73400
C  8.96600 2.58700 30.68200
C  6.08200 6.38200 29.65700
C  5.90000 4.93600 25.02000
C  8.91600 1.18500 25.87400
N  7.62500 4.48100 29.96800
C  8.20700 3.74700 30.98100
C  7.91700 4.38500 32.34500
C  7.04000 5.59100 31.97300
C  6.95500 5.54200 30.42000
C  5.68500 5.67600 32.61800
C  9.16700 4.77000 33.20000
C  9.08900 4.43700 34.66700
H  10.39200 4.55600 35.44300
N  6.31100 5.51700 27.39900
C  5.80300 6.39700 28.32500
C  5.04800 7.43700 27.61300
C  5.03000 7.10600 26.23200
C  5.73900 5.80700 26.14800
C  4.38200 8.63100 28.19700
C  4.30600 7.77700 25.06300
O  4.28900 7.26200 23.95300
C  3.59400 9.09600 25.17400
N  7.48200 3.22600 25.80700
C  6.56500 3.72400 24.92100
C  6.56800 2.99000 23.58500
C  7.53700 1.72800 23.84100
C  8.04900 2.08300 25.25700
C  5.14500 2.65200 23.06900
C  8.70400 1.56700 22.91400
C  8.84900 0.08400 22.28600
N  8.82200 2.34100 28.12800
C  9.22900 1.31800 27.31000
C  10.07800 0.47700 28.14200
C  10.00600 0.86800 29.43700
C  9.21000 2.04400 29.40300
C  10.80400 -0.75200 27.71100
C  10.38600 0.57600 30.81700
O  11.13400 -0.20300 31.35000
C  9.59500 1.64800 31.65000
C  8.72000 0.89300 32.51400
O  7.80000 0.21200 32.10100
O  9.07000 1.10300 33.83800
C  8.22300 0.32000 34.76400
H  5.55500 7.21800 30.12200
H  5.24600 5.36300 24.25700
H  9.26600 0.33400 25.28600
H  7.28900 3.72600 32.94500
H  7.63900 6.50100 32.00000
H  5.23900 6.65500 32.79700
H  5.82500 5.37200 33.65500
H  4.96300 5.13700 32.00500
H  9.29700 5.84500 33.07300
H  10.12100 4.30300 32.95300
H  8.68800 3.44000 34.84900
H  8.25900 5.00700 35.08500
H  4.89600 9.59100 28.15000
H  4.21900 8.47000 29.26300
H  3.39300 8.73800 27.75300
H  2.67900 8.98900 25.75600
H  3.35900 9.42400 24.16100
H  4.28300 9.80700 25.63000
H  6.96900 3.69300 22.85500
H  7.04600 0.75700 23.89200
H  4.99400 3.12500 22.09800
H  4.43600 2.98600 23.82600
H  5.11900 1.56200 23.05400
H  9.59200 1.81300 23.49700
H  8.75300 2.29800 22.10700
H  8.86500 0.04200 21.19700
H  8.09900 -0.60900 22.66700
H  9.81700 -0.34300 22.54500
H  10.40600 -1.24600 26.82400
H  10.73100 -1.63800 28.34100
H  11.86200 -0.52800 27.57400
H  10.34300 2.15400 32.26100
H  7.45600 0.92300 35.24900
H  8.85300 -0.09200 35.55200
H  7.61000 -0.44100 34.28100
Mg -5.13000 25.03600 25.53900
C  -3.89700 26.71700 28.19800
C  -6.87100 22.71300 27.65200
C  -5.87500 22.95900 22.82000
C  -3.03600 26.78400 23.45100
N  -5.19100 24.67800 27.59600
C  -4.81400 25.62000 28.49700
C  -5.23400 25.25300 29.97600
C  -5.92100 23.85200 29.70100
C  -6.06500 23.77700 28.20500
C  -5.16600 22.62100 30.30900
C  -6.11500 26.34800 30.53100
C  -6.31700 26.39400 32.08600
H  -5.53700 25.39500 32.99300
N  -6.37500 23.23100 25.23600
C  -6.96200 22.45800 26.23600
C  -7.93600 21.47700 25.59500
C  -7.61000 21.50700 24.15900
C  -6.53100 22.57300 24.02300
C  -8.88900 20.59000 26.40200
C  -8.23400 20.78900 23.03800
O  -7.84500 20.97200 21.87700
C  -9.33200 19.82900 23.29800
N  -4.39800 24.77200 23.48300
C  -4.93500 23.91400 22.58000
C  -4.21900 24.03300 21.25100
C  -3.25500 25.21200 21.40900
C  -3.58800 25.67800 22.81600
C  -3.61700 22.77900 20.61100
C  -3.38400 26.32700 20.29900
C  -2.14800 27.03200 19.94300
N  -3.82700 26.56700 25.70100
C  -3.04600 27.23400 24.81000
C  -2.30000 28.27600 25.46700
C  -2.67100 28.15700 26.78800
C  -3.54000 27.06100 26.91100
C  -1.27800 29.20200 24.67900
C  -2.35000 28.57200 28.13700
O  -1.53800 29.38900 28.59500
C  -3.19100 27.68300 29.12400
C  -2.23400 27.03500 30.08000
O  -1.44000 26.12800 29.84700
O  -2.36700 27.78700 31.24500
C  -1.62500 27.32500 32.30600
H  -7.31400 22.04600 28.39400
H  -6.08900 22.34200 21.94500
H  -2.20200 27.16500 22.85900
H  -4.40100 25.19300 30.67600
H  -6.95700 23.88500 30.03800
H  -5.03200 21.82800 29.57300
H  -5.79900 22.32100 31.14400
H  -4.24700 22.95200 30.79300
H  -7.10900 26.20900 30.10700
H  -5.90500 27.34400 30.14100
H  -7.35900 26.24100 32.36700
H  -5.92700 27.36000 32.40500
H  -9.31200 19.85300 25.71900
H  -9.67400 21.25100 26.76900
H  -8.45900 20.13300 27.29300
H  -10.20200 20.34600 23.70400
H  -8.89200 19.02900 23.89400
H  -9.51900 19.30000 22.36300
H  -4.99200 24.38800 20.57100
H  -2.26100 24.78800 21.54800
H  -2.60800 22.94900 20.23400
H  -4.26100 22.33500 19.85200
H  -3.64100 21.99900 21.37200
H  -4.09300 27.05000 20.70300
H  -3.78200 25.81900 19.42000
H  -2.17900 27.11100 18.85600
H  -1.25800 26.49400 20.26900
H  -2.07200 28.07900 20.23700
H  -1.81000 29.71000 23.87400
H  -0.50500 28.60700 24.19400
H  -1.00300 30.06300 25.28800
H  -3.78900 28.39200 29.69700
H  -1.11800 28.18300 32.74800
H  -0.80500 26.60900 32.24400
H  -2.30100 26.93400 33.06600

