158

Mg 35.30000 2.89700 28.85000
C  33.59500 4.22000 31.65800
C  38.07600 2.68000 30.74900
C  37.12700 2.30600 26.07100
C  32.60600 3.75200 26.96700
N  35.70500 3.44100 30.98900
C  34.92700 3.78400 32.00300
C  35.62400 3.74300 33.41700
C  37.08700 3.45500 33.00800
C  36.95800 3.14000 31.43200
C  38.09700 4.59800 33.15100
C  34.93400 2.69900 34.38500
C  34.41900 3.22800 35.77500
H  34.92300 4.61600 36.37000
N  37.32600 2.49800 28.46800
C  38.26700 2.31600 29.40900
C  39.46200 1.87400 28.81600
C  39.27900 1.86600 27.41600
C  37.88800 2.17800 27.26500
C  40.67600 1.42100 29.60600
C  40.24800 1.50100 26.34900
O  39.90900 1.58100 25.13700
C  41.70000 1.15500 26.54700
N  34.82900 2.88500 26.83600
C  35.77800 2.46300 25.91600
C  35.20200 2.55200 24.54100
C  33.67300 2.93500 24.70000
C  33.69500 3.30100 26.21300
C  35.96700 3.28000 23.44400
C  32.68600 1.74200 24.28900
C  31.50200 2.19500 23.32700
N  33.51100 3.72100 29.22200
C  32.45900 3.88300 28.31700
C  31.24700 4.18300 28.98500
C  31.57100 4.32200 30.34900
C  33.01800 4.10300 30.41900
C  29.83300 4.38100 28.35300
C  31.05200 4.60500 31.70000
O  29.93800 4.85700 32.16500
C  32.38300 4.54100 32.58200
C  32.48800 5.81900 33.41400
O  33.09300 6.84300 33.12200
O  31.78900 5.59600 34.59900
C  31.49200 6.81900 35.27400
H  38.94900 2.67700 31.40500
H  37.67300 2.08000 25.15200
H  31.73700 4.00600 26.35600
H  35.47500 4.73200 33.85000
H  37.53000 2.61300 33.54100
H  38.99400 4.16600 33.59300
H  37.66600 5.37000 33.78800
H  38.24900 5.10200 32.19600
H  35.76300 2.00200 34.50400
H  34.15500 2.23800 33.77800
H  34.80000 2.44300 36.42800
H  33.33000 3.23400 35.72400
H  40.51800 1.44600 30.68400
H  41.58600 1.98700 29.40500
H  40.92400 0.40400 29.30300
H  41.73500 0.27900 27.19400
H  42.16300 1.99800 27.06000
H  42.21100 0.86800 25.62800
H  35.16800 1.49600 24.27300
H  33.43300 3.76900 24.04000
H  37.01500 3.52600 23.61000
H  35.55500 4.28500 23.34700
H  35.83200 2.71500 22.52100
H  32.26600 1.35600 25.21800
H  33.10300 0.88000 23.76800
H  30.62800 2.36200 23.95600
H  31.24200 1.50900 22.52100
H  31.61900 3.18200 22.87900
H  29.23200 3.55800 28.74100
H  29.68800 4.39900 27.27300
H  29.35800 5.32200 28.63000
H  32.22800 3.70900 33.26800
H  32.40200 7.40300 35.41000
H  31.04900 6.59700 36.24500
H  30.74900 7.37200 34.70000
Mg 47.43000 25.72700 28.79200
C  48.52300 27.97000 31.20800
C  46.96200 23.38100 31.30700
C  46.94700 23.38800 26.37800
C  48.75900 27.94500 26.34600
N  47.64800 25.71900 31.00700
C  47.92600 26.81500 31.80100
C  47.53000 26.53700 33.23000
C  47.10400 24.97700 33.23500
C  47.20500 24.67500 31.73900
C  47.96800 23.97000 34.13300
C  46.41100 27.59800 33.71400
C  45.64800 27.33700 35.01000
H  45.85400 28.08900 36.31700
N  46.85300 23.70900 28.86300
C  46.73800 22.89100 30.00800
C  46.44400 21.53300 29.59900
C  46.23900 21.54900 28.17300
C  46.73500 22.91800 27.73500
C  46.17500 20.46400 30.52700
C  45.85600 20.44100 27.25000
O  45.67600 20.61300 26.00800
C  45.44300 19.13800 27.73100
N  47.87400 25.67000 26.67700
C  47.41700 24.66300 25.90500
C  47.27700 25.08600 24.40700
C  47.71500 26.57700 24.44100
C  48.15800 26.75000 25.92800
C  48.23300 24.23400 23.51800
C  46.59900 27.58400 24.01000
C  47.02200 28.67500 23.05800
N  48.50100 27.55500 28.71100
C  48.90700 28.32200 27.63900
C  49.50700 29.55600 28.13900
C  49.35600 29.42800 29.55900
C  48.75900 28.20000 29.89500
C  50.20800 30.57500 27.37400
C  49.57300 30.14400 30.81200
O  50.06900 31.29400 30.98000
C  48.92500 29.30600 31.87800
C  49.69800 29.17600 33.19700
O  50.75100 28.51700 33.30800
O  49.20800 30.01200 34.22000
C  49.95200 29.90100 35.47400
H  46.56000 22.77300 32.12100
H  46.56200 22.74700 25.58300
H  49.02400 28.69100 25.59400
H  48.37400 26.66000 33.90800
H  46.05600 24.88300 33.52100
H  48.58300 23.34200 33.48800
H  47.36600 23.23100 34.66200
H  48.65300 24.55000 34.75100
H  45.70800 27.54800 32.88200
H  46.83000 28.60100 33.64500
H  46.12600 26.42900 35.37700
H  44.59700 27.11500 34.82400
H  46.23900 20.73200 31.58100
H  46.77200 19.59800 30.24100
H  45.14300 20.21800 30.27800
H  46.18700 18.74000 28.42200
H  45.48300 18.48300 26.86100
H  44.59700 19.19700 28.41500
H  46.31400 24.95700 23.91300
H  48.54300 26.69000 23.74100
H  48.44200 23.26800 23.97800
H  49.23600 24.59100 23.28500
H  47.64700 23.93000 22.65100
H  46.13900 28.01800 24.89800
H  45.76200 27.09700 23.51100
H  46.36600 29.45100 23.45400
H  46.78200 28.47100 22.01500
H  48.05800 28.98300 23.20400
H  50.48000 31.48500 27.90900
H  49.46900 30.94500 26.66400
H  51.11900 30.21800 26.89400
H  48.01000 29.77600 32.23900
H  49.98100 28.85600 35.78300
H  49.44800 30.36500 36.32300
H  50.97400 30.28000 35.47200

