158

Mg -2.62100 17.96100 25.84600
C  -3.11100 16.01800 28.64300
C  -3.04900 20.80800 27.80500
C  -2.85300 19.67700 23.00600
C  -2.26800 14.89300 23.84000
N  -3.14700 18.30500 27.90600
C  -3.09400 17.35800 28.86500
C  -3.28000 18.01400 30.24700
C  -3.25900 19.52400 29.96300
C  -3.06800 19.58900 28.43900
C  -4.54200 20.32200 30.47000
C  -2.39600 17.66100 31.43500
C  -2.81100 18.27800 32.78600
H  -2.83600 17.31700 33.97100
N  -2.87400 19.99100 25.47700
C  -3.05000 21.04200 26.37900
C  -3.15700 22.29200 25.71900
C  -3.14900 21.97300 24.34200
C  -2.99800 20.49900 24.18100
C  -3.27700 23.64700 26.36600
C  -3.24300 22.88000 23.20300
O  -3.25400 22.45000 22.06000
C  -3.47500 24.29400 23.47800
N  -2.51100 17.36400 23.70200
C  -2.55600 18.31200 22.77100
C  -2.38700 17.67100 21.34800
C  -2.03100 16.21300 21.68300
C  -2.24900 16.11000 23.17400
C  -3.64100 17.86100 20.42400
C  -0.57100 15.82900 21.20300
C  0.64500 16.05700 22.08100
N  -2.71000 15.90900 26.14100
C  -2.70700 14.79700 25.23400
C  -3.01700 13.65300 26.01400
C  -3.05900 14.05500 27.39400
C  -2.89900 15.44900 27.36400
C  -3.12900 12.21700 25.51200
C  -3.17400 13.58800 28.71800
O  -3.33500 12.43700 29.05800
C  -3.14200 14.84300 29.64300
C  -1.84000 14.64500 30.35000
O  -0.66700 14.80900 29.90700
O  -2.19000 14.11400 31.57500
C  -1.02700 13.64800 32.36200
H  -2.90100 21.63700 28.50000
H  -3.01600 20.27900 22.11000
H  -1.97200 13.97000 23.33600
H  -4.28900 17.71000 30.52500
H  -2.45400 20.06800 30.45500
H  -4.21900 21.19400 31.03900
H  -5.07200 19.78200 31.25500
H  -5.27900 20.52100 29.69200
H  -1.40400 17.84200 31.02200
H  -2.56700 16.58700 31.50400
H  -3.82000 18.68700 32.73100
H  -2.09800 19.08000 32.97600
H  -2.44500 24.24500 25.99300
H  -3.19500 23.55300 27.44900
H  -4.23200 24.13800 26.17600
H  -3.46800 24.84200 22.53600
H  -2.53400 24.52800 23.97500
H  -4.27200 24.61400 24.15000
H  -1.55500 18.17100 20.85300
H  -2.64600 15.39900 21.30000
H  -3.25600 18.33300 19.52000
H  -4.29300 18.60600 20.88000
H  -4.14400 16.90100 20.30800
H  -0.43400 16.43900 20.31000
H  -0.60400 14.77000 20.94400
H  0.37400 16.72500 22.89900
H  1.43200 16.46100 21.44400
H  1.02800 15.14200 22.53100
H  -3.37900 11.43900 26.23200
H  -2.27400 11.79600 24.98300
H  -3.99600 12.15300 24.85400
H  -4.00400 14.93900 30.30400
H  -0.56000 14.59900 32.61700
H  -0.25900 13.10800 31.80800
H  -1.39700 13.30500 33.32800
Mg -6.49900 25.91100 24.63700
C  -4.68900 27.18900 27.42100
C  -8.26100 24.03600 26.83200
C  -7.76900 24.34400 21.99900
C  -4.36800 27.77000 22.65600
N  -6.40300 25.60500 26.84000
C  -5.60600 26.24800 27.79100
C  -6.03700 25.78300 29.20200
C  -7.01200 24.58700 28.91000
C  -7.30200 24.81200 27.45900
C  -6.42600 23.15200 29.24000
C  -6.70300 26.86300 30.10000
C  -6.13900 26.74000 31.54800
H  -6.07300 25.39300 32.27900
N  -7.76100 24.35000 24.46000
C  -8.52800 23.82100 25.45200
C  -9.64100 23.03100 24.86400
C  -9.43900 23.06200 23.47500
C  -8.26700 23.96000 23.30100
C  -10.63200 22.17600 25.78200
C  -10.20400 22.42700 22.40600
O  -9.96300 22.50700 21.17300
C  -11.40200 21.72300 22.87600
N  -6.27800 26.16700 22.57100
C  -6.79200 25.26900 21.61000
C  -6.24400 25.53200 20.20600
C  -5.24400 26.77300 20.44600
C  -5.30800 26.96100 22.04100
C  -5.61800 24.30600 19.50600
C  -5.64600 28.08500 19.70700
C  -4.53700 28.73500 18.99200
N  -4.87500 27.23800 24.86800
C  -4.15300 27.96600 24.00300
C  -3.19000 28.67900 24.67100
C  -3.34500 28.45000 26.04900
C  -4.40700 27.54200 26.14100
C  -2.24300 29.65400 24.06500
C  -2.85900 28.76300 27.39900
O  -1.90500 29.48600 27.75200
C  -3.76700 27.93400 28.37800
C  -2.85600 27.13400 29.25500
O  -2.38100 26.01500 28.99500
O  -2.71400 27.76200 30.40900
C  -1.87800 27.10700 31.44900
H  -8.95300 23.57000 27.53700
H  -8.26300 23.88200 21.14200
H  -3.73400 28.35400 21.98500
H  -5.14300 25.41900 29.71000
H  -7.89600 24.65600 29.54500
H  -6.25500 22.60700 28.31100
H  -6.86500 22.71100 30.13500
H  -5.39300 23.36000 29.51700
H  -7.77200 26.73700 30.27300
H  -6.35700 27.82200 29.71600
H  -6.97300 27.19000 32.08800
H  -5.19900 27.26700 31.71000
H  -11.62400 22.61400 25.67200
H  -10.44600 22.26000 26.85300
H  -10.58800 21.11400 25.54100
H  -11.15400 20.82600 23.44300
H  -11.96200 21.38900 22.00300
H  -11.90300 22.56900 23.34700
H  -7.07700 25.95200 19.64100
H  -4.21400 26.47700 20.24500
H  -4.57400 24.53700 19.29500
H  -6.24700 24.03600 18.65700
H  -5.55500 23.47900 20.21200
H  -6.20700 28.71100 20.40200
H  -6.44900 27.92100 18.98800
H  -4.47600 29.75700 19.36700
H  -4.74000 28.72200 17.92100
H  -3.59100 28.21800 19.14900
H  -2.37900 29.62400 22.98400
H  -1.23000 29.42600 24.39700
H  -2.62300 30.60100 24.44900
H  -4.31200 28.53300 29.10800
H  -0.85800 27.46300 31.29900
H  -1.99900 26.02400 31.47800
H  -2.15100 27.35600 32.47500

