158

Mg 1.45100 8.60200 27.23700
C  2.15400 10.60400 30.11500
C  1.40200 5.81700 29.17000
C  1.09600 6.94500 24.39800
C  1.96700 11.51400 25.36800
N  1.82600 8.21000 29.46700
C  1.90600 9.22500 30.46800
C  1.76700 8.53600 31.82400
C  1.78200 6.95600 31.45900
C  1.71400 6.94700 29.92600
C  2.92400 6.08500 32.05900
C  0.43600 9.00100 32.57700
C  0.34600 8.98000 34.06900
H  1.45200 8.31800 34.94400
N  1.11900 6.63700 26.84500
C  1.09900 5.60600 27.77200
C  0.68900 4.42800 27.10100
C  0.58900 4.71600 25.70600
C  0.99800 6.14000 25.57200
C  0.51900 3.09300 27.85200
C  0.07300 3.82400 24.61100
O  0.08300 4.30300 23.46000
C  -0.70100 2.47700 24.80000
N  1.60800 9.15100 25.23200
C  1.44200 8.25800 24.18500
C  1.74900 8.95000 22.85200
C  1.41100 10.44600 23.19400
C  1.67900 10.37400 24.67700
C  3.15000 8.82300 22.25800
C  -0.08400 10.71100 23.08800
C  -0.61900 12.02200 22.54100
N  2.09400 10.60800 27.62800
C  2.25200 11.62700 26.74600
C  2.63500 12.87800 27.42100
C  2.57800 12.49100 28.77700
C  2.24200 11.15100 28.82100
C  2.72800 14.27400 26.81200
C  2.74500 12.99900 30.08800
O  2.91700 14.16400 30.45300
C  2.42000 11.76000 31.01500
C  3.63200 11.57500 31.87400
O  4.67400 11.04500 31.61200
O  3.29000 12.03100 33.14300
C  4.13900 11.80200 34.30600
H  1.39200 4.86800 29.71100
H  0.78800 6.46500 23.46700
H  1.94000 12.41200 24.74700
H  2.49500 8.88200 32.55900
H  0.83900 6.54500 31.82000
H  2.46400 5.19900 32.49700
H  3.55300 6.51200 32.83900
H  3.66100 5.77100 31.32100
H  -0.30900 8.34100 32.13500
H  0.02700 9.89000 32.09900
H  -0.54900 8.46300 34.41600
H  0.17800 10.01500 34.36700
H  1.13400 3.08600 28.75200
H  0.83600 2.30100 27.17300
H  -0.55600 2.95600 27.96800
H  -0.03100 1.75800 25.27200
H  -0.92500 2.15800 23.78200
H  -1.58100 2.82200 25.34400
H  1.04100 8.61000 22.09700
H  1.97000 11.25300 22.72200
H  3.37500 9.73100 21.69800
H  3.17300 8.02600 21.51500
H  3.86800 8.73000 23.07300
H  -0.52600 10.44300 24.04800
H  -0.53700 9.94400 22.46100
H  -0.28000 12.88400 23.11700
H  -1.70700 11.97800 22.58100
H  -0.41400 12.12400 21.47500
H  1.74300 14.68600 26.59400
H  3.31600 14.12200 25.90700
H  3.09300 15.08000 27.44800
H  1.52100 12.05700 31.55500
H  3.43500 11.40700 35.03900
H  4.54400 12.68800 34.79400
H  4.94000 11.09500 34.09100
Mg 29.72000 57.26400 40.57000
C  27.15600 55.29500 39.47000
C  32.10400 54.97500 39.24200
C  32.43200 59.28300 41.41400
C  27.45700 59.83200 41.37000
N  29.58900 55.31000 39.53500
C  28.39500 54.81700 39.03700
C  28.71800 53.81900 37.92000
C  30.26200 53.57800 38.11100
C  30.71700 54.69800 39.04900
C  30.67700 52.25400 38.69200
C  28.28000 54.24300 36.45900
C  27.06600 53.54100 35.82200
H  26.28700 54.25400 34.78700
N  32.01300 57.08700 40.52700
C  32.73700 56.03300 39.91800
C  34.06900 56.37000 40.10000
C  34.21400 57.61900 40.67900
C  32.89700 58.05300 40.90600
C  35.19800 55.49000 39.63200
C  35.56700 58.33200 41.01900
O  36.62000 57.72000 40.90200
C  35.68400 59.85700 41.48900
N  29.90900 59.29800 41.25400
C  31.15300 59.88700 41.53200
C  30.99000 61.32100 42.02300
C  29.42600 61.46600 42.17500
C  28.84400 60.17100 41.54400
C  31.79400 61.63900 43.28400
C  28.85100 62.77500 41.58000
C  28.30400 63.95000 42.55500
N  27.72800 57.58100 40.51100
C  26.89100 58.57100 40.94500
C  25.50700 58.14000 40.91500
C  25.57100 56.90000 40.25400
C  26.88500 56.54700 40.03300
C  24.32300 59.00300 41.33500
C  24.80600 55.76800 39.71100
O  23.58000 55.61000 39.64900
C  25.79700 54.74200 39.13100
C  25.36300 53.51200 39.78300
O  25.80800 53.09000 40.84800
O  24.43700 52.86300 38.96900
C  23.88900 51.62300 39.52400
H  32.78500 54.21500 38.85200
H  33.23100 59.99400 41.63500
H  26.71800 60.54700 41.73800
H  28.11900 52.91600 38.04100
H  30.62300 53.56200 37.08300
H  30.81900 52.30700 39.77100
H  31.62800 51.96300 38.24500
H  29.88300 51.53700 38.48500
H  29.13600 54.08500 35.80300
H  28.01000 55.29400 36.35600
H  26.49100 53.18000 36.67500
H  27.38500 52.63300 35.31100
H  34.84100 54.47400 39.80100
H  36.13900 55.53000 40.18000
H  35.33600 55.70000 38.57100
H  35.27500 60.69100 40.91900
H  36.71700 60.11600 41.72000
H  35.25900 59.90700 42.49100
H  31.36600 61.91300 41.18900
H  29.24100 61.29100 43.23500
H  32.47900 60.82100 43.50800
H  31.17100 61.96600 44.11700
H  32.46100 62.47300 43.06800
H  27.99000 62.51700 40.96300
H  29.60100 63.16500 40.89200
H  27.22500 63.88400 42.69900
H  28.52000 64.91500 42.09700
H  28.87000 63.94500 43.48700
H  24.24900 59.93200 40.77000
H  24.29200 59.13900 42.41600
H  23.38700 58.51700 41.05900
H  25.65000 54.63600 38.05600
H  23.13100 51.93800 40.24100
H  24.58800 51.04600 40.12900
H  23.54200 50.93300 38.75500

