158

Mg 24.31500 -5.19300 46.08800
C  26.24100 -2.77900 44.10200
C  21.60000 -4.41500 44.07200
C  22.84600 -7.84500 47.20400
C  27.43200 -6.06100 47.47400
N  24.02400 -3.81800 44.27800
C  24.91700 -2.89800 43.67700
C  24.19900 -1.99400 42.71600
C  22.69300 -2.39300 42.84900
C  22.75200 -3.65300 43.79000
C  21.71900 -1.35900 43.35500
C  24.71300 -2.10800 41.21800
C  24.82300 -0.87500 40.35000
H  24.61400 -1.04900 38.79000
N  22.40100 -5.99500 45.71300
C  21.44900 -5.54100 44.89800
C  20.35100 -6.41100 44.98200
C  20.75700 -7.50500 45.75900
C  22.05800 -7.17400 46.28000
C  19.00700 -6.12100 44.35200
C  19.80000 -8.70300 45.99500
O  18.68300 -8.71900 45.53100
C  20.31600 -9.78600 46.82900
N  25.08900 -6.78100 47.11100
C  24.21900 -7.65100 47.62000
C  25.01700 -8.58700 48.61300
C  26.39500 -7.89900 48.82300
C  26.34800 -6.90800 47.69000
C  24.28400 -9.02000 49.87600
C  27.71100 -8.86900 48.94900
C  28.40700 -9.27400 47.63100
N  26.34700 -4.44200 45.94300
C  27.47400 -4.96100 46.58900
C  28.63400 -4.14400 46.18500
C  28.20800 -3.28900 45.23300
C  26.83400 -3.54600 45.10600
C  30.03100 -4.22600 46.80800
C  28.61800 -2.15100 44.40200
O  29.66900 -1.46500 44.33400
C  27.27400 -1.75400 43.65300
C  26.88600 -0.34100 44.08400
O  26.30900 -0.01600 45.08800
O  27.42000 0.53800 43.19700
C  27.31700 2.02100 43.22500
H  20.83800 -4.11400 43.35000
H  22.39700 -8.64500 47.79700
H  28.33900 -6.30400 48.03000
H  24.30100 -1.04500 43.24100
H  22.29300 -2.76000 41.90400
H  21.11700 -0.83700 42.61000
H  22.19200 -0.53100 43.88300
H  21.04200 -1.75900 44.10900
H  24.08300 -2.81500 40.67800
H  25.66200 -2.64200 41.25000
H  25.89000 -0.65500 40.40100
H  24.16000 -0.11100 40.75500
H  18.93700 -6.72700 43.44800
H  18.82300 -5.12300 43.95400
H  18.10700 -6.40900 44.89500
H  20.29800 -9.21300 47.75600
H  21.31500 -10.14700 46.58300
H  19.66500 -10.65100 46.95400
H  25.24200 -9.48200 48.03200
H  26.27400 -7.19400 49.64500
H  24.46400 -10.08700 50.00800
H  23.24400 -8.71100 49.77300
H  24.77000 -8.51200 50.70900
H  27.51800 -9.81700 49.45100
H  28.41700 -8.17400 49.40400
H  28.05500 -10.29000 47.45200
H  29.48300 -9.10400 47.66900
H  28.04500 -8.72500 46.76200
H  30.59600 -3.33500 46.53500
H  30.62300 -5.05600 46.42200
H  30.15900 -4.27700 47.89000
H  27.36000 -1.82400 42.56800
H  26.55000 2.30500 42.50400
H  28.24500 2.49200 42.90200
H  27.13100 2.39200 44.23300
Mg 34.88300 3.36300 30.22700
C  32.49300 4.46300 32.56900
C  37.20500 3.71400 32.79400
C  37.18600 2.63200 28.00000
C  32.55100 3.72300 27.71700
N  34.76900 4.01200 32.42800
C  33.66400 4.34700 33.15700
C  33.95900 4.45000 34.66600
C  35.56300 4.64500 34.63700
C  35.91100 4.04800 33.25700
C  36.19700 6.06400 35.02600
C  33.45400 3.14800 35.38600
C  33.05300 3.38800 36.86300
H  33.70800 4.43500 37.61300
N  36.82100 3.10100 30.32100
C  37.59900 3.26900 31.46000
C  38.83400 2.44100 31.25400
C  38.94400 2.13900 29.86100
C  37.61600 2.65900 29.33200
C  39.65700 1.97400 32.44400
C  39.95300 1.32100 29.09200
O  39.94800 1.33900 27.85400
C  40.96700 0.53000 29.75800
N  34.87100 3.36000 28.09800
C  35.95000 3.11300 27.35900
C  35.71100 3.12700 25.83000
C  34.15000 3.38300 25.80200
C  33.82400 3.47900 27.28600
C  36.57400 4.11600 24.99900
C  33.17100 2.51900 25.00000
C  32.68900 1.17200 25.53900
N  32.86800 3.80100 30.12500
C  32.07400 3.93200 29.05200
C  30.70500 4.28100 29.48800
C  30.79500 4.38900 30.86900
C  32.15500 4.19800 31.23400
C  29.53700 4.42900 28.54400
C  30.06100 4.58900 32.10600
O  28.85600 4.77900 32.28700
C  31.16000 4.77200 33.25300
C  31.01000 6.14600 33.81800
O  31.18700 7.13900 33.07300
O  30.71800 6.10100 35.16600
C  30.87100 7.33900 35.90100
H  38.01000 3.73500 33.53100
H  37.97300 2.26100 27.34100
H  31.72000 3.97900 27.05600
H  33.64700 5.36400 35.17200
H  35.94300 3.96600 35.40000
H  37.08400 6.15400 34.39900
H  36.42400 6.04300 36.09200
H  35.45500 6.82600 34.78700
H  34.24800 2.40200 35.37800
H  32.55700 2.85900 34.83800
H  33.11300 2.35300 37.20200
H  31.99500 3.63600 36.77500
H  40.08500 2.80300 33.00700
H  40.46800 1.32300 32.11600
H  39.04700 1.30500 33.05100
H  41.78300 1.13700 30.15200
H  41.41800 -0.07200 28.96800
H  40.49100 -0.12700 30.48600
H  35.87400 2.15000 25.37500
H  34.04900 4.40300 25.43000
H  37.36400 4.62200 25.55400
H  35.90700 4.77500 24.44400
H  37.07600 3.56600 24.20300
H  33.62300 2.32800 24.02600
H  32.32300 3.17400 24.80400
H  32.74300 0.98900 26.61200
H  33.19200 0.41900 24.93200
H  31.60800 1.22000 25.40600
H  29.38500 3.49200 28.00700
H  29.76500 5.24600 27.85900
H  28.68400 4.68800 29.17000
H  30.84100 4.04600 34.00100
H  29.87300 7.47600 36.31700
H  31.27000 8.18800 35.34600
H  31.56800 7.20000 36.72700

