158

Mg 35.95800 49.26600 26.07400
C  36.19100 47.30500 29.12900
C  34.92500 51.94500 27.98800
C  35.62300 50.93800 23.34500
C  37.27400 46.42600 24.34500
N  35.56200 49.53000 28.25200
C  35.71200 48.62400 29.28200
C  35.49200 49.34500 30.60200
C  34.94700 50.75000 30.19100
C  35.11200 50.74800 28.68200
C  33.44700 51.22200 30.70300
C  36.87700 49.36600 31.34000
C  36.80700 49.27200 32.91200
H  35.48700 49.10500 33.63200
N  35.28700 51.17000 25.71700
C  34.95700 52.15200 26.61400
C  34.78600 53.41900 25.88700
C  34.94100 53.12900 24.53300
C  35.24500 51.68800 24.44900
C  34.61800 54.79700 26.60100
C  35.01500 54.04500 23.29400
O  35.41900 53.68200 22.16300
C  34.62600 55.50600 23.49500
N  36.31500 48.65700 24.15700
C  36.17600 49.64000 23.18300
C  36.80400 49.15800 21.83800
C  37.34100 47.70000 22.21800
C  36.99100 47.59800 23.64900
C  35.79800 49.27800 20.69800
C  38.83400 47.46500 21.95300
C  39.39100 47.92500 20.60400
N  36.58900 47.29300 26.62100
C  37.00900 46.28600 25.76900
C  37.45100 45.14100 26.54800
C  37.13300 45.48600 27.89400
C  36.62900 46.80200 27.87300
C  38.07000 43.86600 26.08000
C  37.14100 45.03100 29.31500
O  37.49400 43.96100 29.83600
C  36.50700 46.20200 30.19900
C  35.30700 45.52100 30.88500
O  34.19300 45.35800 30.48300
O  35.77600 45.02800 32.09900
C  34.93100 44.27900 32.99400
H  34.66800 52.85400 28.53600
H  35.59900 51.50500 22.41200
H  37.75100 45.67100 23.71600
H  34.72400 48.84900 31.19500
H  35.64700 51.47600 30.60600
H  33.07000 50.55500 31.47800
H  32.72200 51.10900 29.89700
H  33.52200 52.22200 31.13000
H  37.30600 50.35300 31.16600
H  37.61600 48.67800 30.93100
H  37.19300 50.24700 33.21200
H  37.43700 48.45700 33.26900
H  34.87200 54.88300 27.65700
H  33.54800 54.99100 26.51800
H  35.03700 55.68800 26.13200
H  35.48000 56.03900 23.91100
H  33.74400 55.59700 24.12900
H  34.33500 55.92100 22.53000
H  37.66800 49.76300 21.56200
H  36.86500 46.95400 21.58100
H  35.16400 48.39200 20.71100
H  36.36100 49.34000 19.76700
H  35.22600 50.19600 20.84000
H  39.12200 46.41900 22.04900
H  39.31100 48.00000 22.77400
H  38.58300 48.04400 19.88200
H  40.01000 47.22300 20.04400
H  40.02400 48.81200 20.62500
H  37.35600 43.04300 26.06200
H  38.82600 43.43500 26.73800
H  38.50100 43.98100 25.08600
H  37.15500 46.65900 30.94700
H  34.30300 44.97400 33.55200
H  35.35600 43.56200 33.69600
H  34.22400 43.66800 32.43200
Mg 16.33600 51.28800 27.08200
C  18.42400 50.32100 29.70000
C  13.99900 52.25600 29.40500
C  14.49200 52.49800 24.62300
C  18.85200 50.27000 24.78600
N  16.32200 51.42600 29.33800
C  17.23200 50.89000 30.16000
C  16.80400 51.14400 31.60400
C  15.25100 51.18900 31.55100
C  15.14100 51.60000 29.98500
C  14.62200 49.80200 31.89000
C  17.55100 52.37900 32.24400
C  17.77500 52.46600 33.70400
H  16.93000 51.60400 34.61800
N  14.45900 52.26800 27.00900
C  13.71300 52.66500 28.07700
C  12.65200 53.50200 27.57300
C  12.68800 53.50500 26.10900
C  13.86700 52.69400 25.88900
C  11.63400 54.14100 28.43900
C  11.77900 54.02400 25.03500
O  11.99200 53.93300 23.83900
C  10.53100 54.87800 25.38100
N  16.56100 51.14800 24.93100
C  15.68500 51.79000 24.15600
C  16.13100 51.76300 22.65300
C  17.67600 51.49000 22.88000
C  17.72100 50.89700 24.26900
C  15.39800 50.67900 21.70400
C  18.71800 52.66700 22.81700
C  19.93900 52.36400 21.92400
N  18.26000 50.41000 27.14600
C  19.18900 50.06800 26.14400
C  20.34800 49.38300 26.82000
C  20.12400 49.58300 28.21300
C  18.83300 50.15500 28.33300
C  21.57800 48.73200 26.25100
C  20.72000 49.37000 29.53000
O  21.79000 48.79900 29.78400
C  19.62600 49.77400 30.55300
C  19.29000 48.65100 31.41500
O  18.87600 47.53100 30.95600
O  19.33400 48.90600 32.69500
C  18.94600 47.80700 33.55200
H  13.13800 52.47100 30.04100
H  13.94300 52.75700 23.71500
H  19.70900 49.97800 24.17500
H  17.12400 50.22400 32.09300
H  14.83100 51.97300 32.18000
H  15.37300 49.02400 32.02800
H  14.13800 49.47900 30.96800
H  13.99400 49.82800 32.78000
H  16.90800 53.21500 31.97200
H  18.49100 52.56500 31.72500
H  17.73500 53.49800 34.05300
H  18.80800 52.12900 33.79700
H  12.02200 55.13400 28.66600
H  11.65700 53.72400 29.44600
H  10.61600 54.11000 28.05100
H  10.75100 55.52500 26.22900
H  9.81000 54.10200 25.64200
H  10.15200 55.54900 24.61000
H  16.08100 52.75500 22.20300
H  18.07400 50.61000 22.37500
H  15.85100 49.68800 21.69900
H  15.31600 51.20100 20.75100
H  14.37700 50.39200 21.95600
H  19.10800 52.82000 23.82300
H  18.28200 53.57400 22.39900
H  19.89600 51.36500 21.49100
H  20.84000 52.34300 22.53700
H  20.04400 53.15600 21.18200
H  21.34500 48.55300 25.20200
H  21.83200 47.87600 26.87600
H  22.24900 49.58800 26.31900
H  20.00800 50.58500 31.17300
H  17.86000 47.78700 33.64300
H  19.32400 48.19800 34.49800
H  19.46100 46.89100 33.26500

