158

Mg 29.97500 57.68000 38.77100
C  27.15300 55.68800 38.35200
C  31.88900 54.80100 38.26600
C  32.76300 59.73900 38.83600
C  27.92800 60.61400 39.01800
N  29.59800 55.44000 38.35500
C  28.33800 54.93200 38.09900
C  28.42100 53.38700 37.80000
C  29.90600 53.15300 37.86200
C  30.52700 54.51300 38.31000
C  30.40000 51.99100 38.72600
C  27.71300 52.86000 36.57600
C  28.31900 53.36100 35.20300
H  27.49000 53.85600 34.08000
N  32.02100 57.35400 38.54400
C  32.63500 56.08100 38.32900
C  34.04400 56.22800 38.21100
C  34.34100 57.60300 38.37000
C  33.00600 58.29200 38.64600
C  34.99700 55.10700 37.99200
C  35.77200 58.24700 38.26800
O  36.78600 57.53000 38.10700
C  36.01900 59.69900 38.28200
N  30.30900 59.90900 38.76500
C  31.51500 60.41400 38.93600
C  31.41500 61.89000 39.28800
C  29.86200 62.16600 39.29900
C  29.31500 60.78500 39.07800
C  32.12500 62.58900 40.56300
C  29.47400 63.28000 38.16400
C  29.55800 64.77400 38.54400
N  28.00300 58.14100 38.67100
C  27.35200 59.36800 38.70100
C  25.95700 59.03300 38.58300
C  25.84600 57.63500 38.48900
C  27.10800 57.09100 38.46600
C  24.83400 60.04000 38.63000
C  24.86100 56.55000 38.52800
O  23.62100 56.44100 38.69400
C  25.63500 55.24400 38.28900
C  25.12700 54.12900 39.18200
O  25.28900 54.03900 40.39900
O  24.29700 53.22400 38.49000
C  23.55100 52.25300 39.31700
H  32.45900 53.91900 37.96600
H  33.62100 60.39800 38.98500
H  27.21000 61.42000 39.18200
H  27.89000 52.99900 38.66900
H  30.44800 52.99800 36.92900
H  29.56800 51.48200 39.21400
H  31.14200 52.32700 39.45000
H  30.81700 51.17000 38.14300
H  26.67900 53.19200 36.66800
H  27.73300 51.77000 36.58300
H  28.90600 52.53200 34.80600
H  29.00200 54.17200 35.45500
H  35.85500 55.44400 37.41000
H  34.57900 54.24900 37.46400
H  35.31300 54.74000 38.96800
H  35.76400 60.07700 39.27300
H  35.48300 60.19700 37.47400
H  37.05100 59.97400 38.06400
H  31.86000 62.47500 38.48300
H  29.57000 62.62700 40.24300
H  31.45700 62.71200 41.41500
H  32.25500 63.57600 40.11900
H  33.07500 62.11000 40.79900
H  28.48400 63.11200 37.74000
H  30.18600 63.02600 37.37800
H  29.62500 64.97400 39.61300
H  28.72900 65.38300 38.18400
H  30.54700 65.18000 38.33000
H  24.92800 60.70900 39.48500
H  23.93700 59.43300 38.75200
H  24.77100 60.71500 37.77700
H  25.35800 54.98200 37.26800
H  24.32900 51.61200 39.73300
H  22.86300 51.65200 38.72200
H  22.95400 52.73800 40.09000
Mg 6.14200 53.66900 41.76700
C  5.40800 50.19900 41.54700
C  9.10900 53.11100 40.34500
C  6.53200 57.03900 41.44800
C  2.85400 54.17600 42.92900
N  7.03100 51.88700 40.91100
C  6.64000 50.57000 41.00300
C  7.77400 49.62900 40.56400
C  8.97100 50.53600 40.81600
C  8.38300 51.98000 40.63000
C  9.78800 50.39100 42.14100
C  7.64500 49.12300 39.09300
C  7.34700 50.26400 38.06900
H  6.15600 50.25800 37.29700
N  7.65100 54.93800 41.12900
C  8.86700 54.49100 40.50700
C  9.78500 55.65000 40.30700
C  8.98800 56.80900 40.57700
C  7.61900 56.27600 41.07200
C  11.21900 55.44500 39.79500
C  9.48200 58.18500 40.43600
O  10.55800 58.33500 39.93500
C  8.71200 59.43300 40.90200
N  4.82300 55.33800 42.11000
C  5.29400 56.67900 42.01100
C  4.16900 57.67400 42.40000
C  2.99200 56.78100 42.89300
C  3.53000 55.35400 42.62000
C  4.60800 58.78700 43.41000
C  1.55200 56.99000 42.17200
C  0.25000 56.92400 42.95900
N  4.47400 52.46400 42.30000
C  3.22300 52.79700 42.81500
C  2.52700 51.63700 43.20600
C  3.33100 50.57200 42.62200
C  4.50400 51.17700 42.09800
C  1.26800 51.41400 43.90200
C  3.40900 49.09700 42.47000
O  2.66800 48.15800 42.80500
C  4.69700 48.79900 41.61200
C  4.24800 48.32000 40.39800
O  3.39700 48.78800 39.69400
O  4.88200 47.13400 40.07200
C  4.64400 46.45300 38.76800
H  10.15700 53.00700 40.05500
H  6.53900 58.12800 41.36500
H  1.85500 54.30700 43.35000
H  7.71400 48.77900 41.24400
H  9.67300 50.40100 39.99300
H  9.55100 49.50200 42.72500
H  9.64900 51.17300 42.88800
H  10.83400 50.28500 41.85600
H  6.91600 48.31400 39.12200
H  8.56700 48.59800 38.84300
H  8.26500 50.33300 37.48500
H  7.22600 51.21300 38.59000
H  11.77400 56.37400 39.93400
H  11.35200 55.14400 38.75600
H  11.78200 54.87500 40.53400
H  7.75600 59.47600 40.38000
H  9.22800 60.38500 41.02300
H  8.54300 59.17000 41.94600
H  3.76600 58.09500 41.47900
H  2.89200 56.91900 43.97000
H  5.64900 58.66200 43.70700
H  4.12100 58.63100 44.37300
H  4.19300 59.74800 43.10500
H  1.43500 56.25900 41.37100
H  1.50900 57.96200 41.68000
H  0.45900 57.14600 44.00600
H  -0.15900 55.91400 42.93700
H  -0.56000 57.59700 42.68000
H  1.22800 51.70100 44.95200
H  0.97200 50.37300 43.76900
H  0.49000 52.00800 43.42300
H  5.24300 48.09400 42.23900
H  5.55000 46.21900 38.20900
H  3.89500 46.96600 38.16500
H  4.11900 45.55700 39.09900

