158

Mg 45.01900 4.59800 47.83600
C  42.58000 6.96000 47.21800
C  42.80800 2.13600 47.25900
C  47.54900 2.34200 47.66100
C  47.39100 7.18500 48.05000
N  42.93700 4.61400 47.26800
C  42.13200 5.63100 47.01200
C  40.84100 5.17300 46.31300
C  40.84200 3.65000 46.59100
C  42.29400 3.43900 47.08700
C  39.83400 3.04300 47.54000
C  40.62600 5.50500 44.81900
C  39.43900 6.43400 44.53300
H  39.79500 7.49400 43.50000
N  45.14100 2.45700 47.74700
C  44.09700 1.68200 47.53600
C  44.60300 0.30800 47.44000
C  46.03700 0.34100 47.47600
C  46.30200 1.76500 47.67900
C  43.78700 -0.94800 47.26300
C  46.99900 -0.79300 47.52700
O  46.66600 -1.94200 47.31200
C  48.51900 -0.58600 47.90100
N  47.17300 4.70000 47.82300
C  47.99100 3.70400 47.65700
C  49.51000 4.18200 47.57100
C  49.39500 5.67500 47.86100
C  47.91100 5.88800 47.84300
C  50.36500 3.41800 48.66800
C  50.16900 6.67700 46.88300
C  50.90700 7.79100 47.64000
N  44.99900 6.70300 47.78400
C  46.02300 7.57300 47.95800
C  45.47400 8.89600 47.72000
C  44.09500 8.70400 47.47200
C  43.89200 7.40400 47.52900
C  46.23000 10.18800 47.51800
C  42.87000 9.36600 47.11200
O  42.61100 10.54100 46.93500
C  41.71900 8.28200 47.02300
C  40.90100 8.52000 48.29000
O  41.04200 7.97700 49.40100
O  40.02700 9.51600 48.02000
C  39.08700 9.81400 49.03800
H  42.17200 1.30000 46.96300
H  48.50700 1.83500 47.52600
H  48.16700 7.94400 48.17300
H  39.98100 5.64300 46.79000
H  40.85500 3.03400 45.69200
H  39.62200 2.06700 47.10200
H  39.00000 3.70900 47.76100
H  40.33400 2.97100 48.50600
H  40.51300 4.58700 44.24200
H  41.52300 6.03200 44.49500
H  39.16700 7.10600 45.34700
H  38.58100 5.84700 44.20700
H  43.91800 -1.39000 46.27600
H  42.73000 -0.75200 47.44200
H  44.21300 -1.59000 48.03400
H  49.00600 -1.56100 47.91700
H  48.48500 -0.05900 48.85500
H  48.98600 0.00400 47.11300
H  49.95200 4.04900 46.58400
H  49.64900 5.79800 48.91300
H  51.42300 3.52600 48.43200
H  50.06700 2.37100 48.73100
H  50.10200 3.73500 49.67700
H  49.39800 7.22800 46.34400
H  50.87900 6.24100 46.18000
H  50.77500 8.82300 47.31600
H  51.94300 7.58700 47.36800
H  50.87600 7.62500 48.71700
H  46.56500 10.66900 48.43600
H  45.48700 10.88300 47.12600
H  47.13300 10.18000 46.90800
H  41.13500 8.50900 46.13100
H  38.37500 10.41200 48.46900
H  39.55900 10.33600 49.87100
H  38.68200 8.85100 49.34800
Mg 0.99600 42.93600 26.22400
C  2.65700 42.63500 29.41100
C  -2.07200 42.38600 27.80700
C  -0.29700 42.45400 23.22100
C  4.10900 43.39300 24.81800
N  0.37400 42.57000 28.32100
C  1.24100 42.56300 29.53100
C  0.36800 42.61200 30.78400
C  -1.02300 42.05100 30.13600
C  -0.92600 42.36500 28.63700
C  -1.44600 40.53200 30.20900
C  0.27300 44.07500 31.40200
C  0.73200 44.42300 32.79100
H  0.60000 43.31900 33.89100
N  -0.96500 42.70400 25.56700
C  -2.03500 42.53800 26.42400
C  -3.18400 42.33000 25.57200
C  -2.74100 42.26600 24.18300
C  -1.25100 42.40700 24.27200
C  -4.62200 42.30900 26.17200
C  -3.46500 41.96900 22.89100
O  -2.95200 41.93800 21.80500
C  -5.00000 41.76400 22.87600
N  1.77200 42.81600 24.31700
C  1.01200 42.82500 23.19400
C  1.91800 42.97000 21.88200
C  3.24900 43.56900 22.51500
C  3.00300 43.28900 23.99400
C  1.94000 41.62800 20.97600
C  3.24600 45.15400 22.32100
C  3.38700 45.71900 20.90200
N  3.01100 42.99400 26.90200
C  4.19500 43.23600 26.21700
C  5.30100 43.41600 27.17800
C  4.70600 43.14700 28.38400
C  3.34300 42.84900 28.23100
C  6.72800 43.65700 26.93000
C  5.04600 42.95000 29.82800
O  6.11400 42.96600 30.40300
C  3.66800 42.81400 30.51600
C  3.76600 41.64600 31.41200
O  3.46500 40.50400 31.04400
O  4.12800 42.05400 32.66500
C  4.27700 40.97600 33.61500
H  -3.06500 42.29300 28.25200
H  -0.70000 42.39700 22.20700
H  5.06600 43.60700 24.33800
H  0.68100 41.91500 31.56100
H  -1.91500 42.56700 30.49200
H  -2.46600 40.55100 30.59500
H  -0.86600 40.13600 31.04200
H  -1.22000 40.03800 29.26300
H  -0.70000 44.53400 31.23200
H  0.92000 44.67300 30.75900
H  -0.05100 45.09900 33.13600
H  1.75400 44.79800 32.84200
H  -5.50600 42.27900 25.53600
H  -4.67700 43.24500 26.72700
H  -4.78600 41.48600 26.86800
H  -5.26100 41.65000 21.82400
H  -5.32500 42.70200 23.32500
H  -5.35400 40.86400 23.37800
H  1.60300 43.80600 21.25800
H  4.14600 43.13700 22.07100
H  1.06900 41.04200 21.26900
H  2.76500 40.91600 20.95100
H  1.78800 41.94800 19.94500
H  4.03200 45.63900 22.90100
H  2.28400 45.51400 22.68600
H  3.49100 44.86400 20.23300
H  4.25400 46.37900 20.89000
H  2.52100 46.27600 20.54600
H  7.28600 43.14400 27.71300
H  6.99300 44.71000 27.03300
H  7.05000 43.30700 25.94900
H  3.46700 43.77500 30.98900
H  5.14500 40.36100 33.37700
H  3.41600 40.30800 33.63900
H  4.49300 41.42000 34.58700

