158

Mg 47.21300 35.55700 26.69900
C  45.61900 33.94000 29.37100
C  47.78000 38.25500 28.72400
C  48.11500 37.27100 23.93500
C  46.10000 32.89100 24.62700
N  46.72400 36.01100 28.73000
C  46.21100 35.18300 29.65100
C  46.53000 35.75900 31.05100
C  46.73800 37.24200 30.81400
C  47.15600 37.15600 29.36000
C  45.49400 38.14500 31.11300
C  47.69200 34.99800 31.68500
C  48.01600 35.00200 33.24300
H  47.05600 35.89100 34.06300
N  47.97100 37.48800 26.31900
C  48.10800 38.50000 27.29500
C  48.60800 39.67000 26.71000
C  48.85000 39.37100 25.29400
C  48.30100 37.99800 25.10100
C  48.84400 40.90800 27.48000
C  49.37500 40.24500 24.22000
O  49.41000 39.87100 23.04000
C  49.91500 41.64800 24.51400
N  47.11000 35.07300 24.57300
C  47.52400 35.97000 23.64300
C  47.48700 35.47300 22.25200
C  47.23700 33.94800 22.50600
C  46.78300 33.93700 23.97900
C  46.54600 36.18100 21.24800
C  48.50200 33.11400 22.33900
C  48.61600 32.08800 21.15200
N  46.13000 33.80200 26.86200
C  45.81600 32.79500 25.99100
C  45.17000 31.70100 26.63300
C  45.00600 32.09900 28.03000
C  45.63800 33.38400 28.06800
C  44.53600 30.46600 26.04300
C  44.42200 31.78900 29.28600
O  43.81200 30.80100 29.66400
C  44.69700 32.99000 30.20400
C  45.09700 32.53800 31.53200
O  46.09700 31.86600 31.84600
O  44.20000 33.02300 32.42500
C  44.59400 32.83200 33.82500
H  47.96800 39.18400 29.26800
H  48.44700 37.71600 22.99400
H  45.83900 32.03200 24.00600
H  45.67400 35.61800 31.71000
H  47.54100 37.64100 31.43400
H  45.73900 38.97200 31.77900
H  44.65000 37.56300 31.48200
H  45.19500 38.59300 30.16500
H  48.58900 35.23900 31.11500
H  47.60900 33.94800 31.40500
H  49.02300 35.38900 33.40300
H  47.90500 33.96700 33.56800
H  49.72900 41.38300 27.05800
H  48.96200 40.72800 28.54800
H  48.04600 41.59700 27.20000
H  50.19600 42.12400 23.57500
H  50.73300 41.90600 25.18700
H  49.09000 42.25700 24.88300
H  48.45500 35.57200 21.76100
H  46.46400 33.51200 21.87300
H  45.84000 35.48500 20.79600
H  47.19100 36.66500 20.51500
H  45.95200 36.95500 21.73500
H  48.51600 32.49900 23.23900
H  49.40500 33.72400 22.35300
H  48.53400 31.07500 21.54600
H  49.54500 32.07600 20.58200
H  47.83000 32.25300 20.41600
H  45.25200 29.65600 26.18000
H  44.39900 30.65500 24.97800
H  43.52600 30.23900 26.38300
H  43.74400 33.49800 30.34900
H  43.86000 33.44400 34.35000
H  45.59700 33.23300 33.96900
H  44.40300 31.81500 34.16700
Mg 6.58000 54.97300 40.65000
C  5.76900 51.55000 40.88900
C  9.82300 54.04700 39.64600
C  7.15700 58.22800 40.04700
C  3.34000 55.83100 41.77100
N  7.61900 53.09600 40.15200
C  7.03400 51.79300 40.31400
C  7.99500 50.68400 39.83500
C  9.39500 51.49300 39.81900
C  8.90600 52.98000 39.84400
C  10.32000 51.15000 41.05000
C  7.66900 50.01000 38.43000
C  6.86800 50.85300 37.40400
H  6.16700 50.04600 36.21300
N  8.27700 56.03600 39.95900
C  9.53100 55.46400 39.65500
C  10.42900 56.50300 39.24400
C  9.70100 57.76200 39.28300
C  8.30900 57.42700 39.78000
C  11.89300 56.31200 38.88700
C  10.30300 59.06100 38.98900
O  11.40700 59.06600 38.52000
C  9.65500 60.33100 39.45500
N  5.41400 56.70200 40.71800
C  5.89100 57.88600 40.49500
C  4.91100 59.06600 40.71000
C  3.67400 58.33900 41.34500
C  4.19100 56.85900 41.32800
C  5.46300 60.16200 41.65700
C  2.23400 58.61100 40.72000
C  1.73500 60.01900 41.08100
N  4.82800 53.89500 41.17300
C  3.58900 54.42100 41.60500
C  2.68300 53.24400 41.90700
C  3.48700 52.11400 41.65900
C  4.77600 52.56700 41.17500
C  1.26500 53.29200 42.51600
C  3.49100 50.71100 41.76000
O  2.64300 49.98300 42.20500
C  4.94700 50.21700 41.24800
C  4.62000 49.29400 40.05700
O  4.12300 49.58100 38.93000
O  4.98800 48.01000 40.42800
C  4.98000 47.09200 39.28200
H  10.71800 53.57300 39.23700
H  7.39000 59.22600 39.66800
H  2.33000 56.10200 42.08500
H  7.90500 50.03800 40.70800
H  10.03400 51.26800 38.96500
H  10.29900 52.03600 41.68600
H  11.36600 51.02900 40.77000
H  9.92100 50.34100 41.66100
H  7.22000 49.05100 38.68800
H  8.56100 49.80800 37.83700
H  7.58200 51.58300 37.02200
H  6.12900 51.39300 37.99500
H  12.05100 55.29300 38.53200
H  12.61400 56.64500 39.63400
H  12.10900 56.90300 37.99700
H  8.97300 60.79300 38.74100
H  10.43300 61.07500 39.62500
H  9.11600 60.20500 40.39400
H  4.66100 59.54900 39.76600
H  3.62700 58.64100 42.39100
H  6.54800 60.17800 41.76700
H  4.86200 60.38400 42.53900
H  5.30900 61.05500 41.05200
H  1.46500 57.99100 41.18100
H  2.23600 58.43800 39.64300
H  0.86600 59.90100 41.72800
H  1.61500 60.72200 40.25700
H  2.50100 60.32600 41.79200
H  1.31500 53.93200 43.39700
H  0.74000 52.40100 42.85800
H  0.76400 53.74800 41.66200
H  5.34600 49.58000 42.03700
H  4.98500 46.10100 39.73500
H  5.85000 47.30000 38.66000
H  4.08900 47.15100 38.65600

