158

Mg 47.87100 24.83200 29.32300
C  48.38000 27.46000 31.80500
C  46.64500 22.89100 31.96300
C  47.46500 22.51600 27.13100
C  49.45400 26.93300 27.01000
N  47.69500 25.09700 31.67400
C  47.82600 26.29800 32.43000
C  47.29800 26.25200 33.87900
C  46.87500 24.70500 33.90000
C  47.00200 24.17400 32.42700
C  47.48500 23.77900 34.98700
C  46.10000 27.23400 34.23500
C  46.19700 27.83100 35.65700
H  47.05900 27.27500 36.75400
N  47.16400 22.91200 29.53400
C  46.61100 22.29800 30.63000
C  46.10900 21.04000 30.20100
C  46.26300 20.94500 28.79800
C  46.98900 22.14800 28.42900
C  45.61400 20.02100 31.16800
C  45.78900 19.85100 27.84800
O  45.84100 19.90900 26.64100
C  45.06600 18.57700 28.29200
N  48.69100 24.51500 27.43600
C  48.32500 23.48300 26.67200
C  48.78200 23.58400 25.20300
C  49.13900 25.12100 25.22200
C  49.12000 25.59600 26.66000
C  49.92900 22.65400 24.77900
C  48.29200 25.94900 24.17000
C  46.81200 26.01400 24.52400
N  48.79500 26.78000 29.32100
C  49.36900 27.46300 28.32500
C  49.79600 28.74400 28.74300
C  49.36100 28.84600 30.06300
C  48.80500 27.59200 30.42200
C  50.52500 29.79200 27.91700
C  49.23300 29.71400 31.20800
O  49.47900 30.87800 31.29000
C  48.59200 28.85500 32.35000
C  49.61800 28.90600 33.46700
O  50.74800 28.45800 33.35200
O  49.17600 29.47800 34.58700
C  50.24600 29.70400 35.61100
H  46.24800 22.33200 32.81400
H  47.34800 21.75500 26.35600
H  49.84400 27.43100 26.12000
H  48.10300 26.33700 34.60800
H  45.82800 24.58100 34.17600
H  48.45600 23.33400 34.76700
H  46.68100 23.06500 35.16500
H  47.49700 24.41700 35.87000
H  45.09500 26.81300 34.28100
H  46.13500 28.11100 33.59000
H  45.16300 27.97100 35.97200
H  46.52500 28.86500 35.55200
H  45.38100 20.56600 32.08300
H  46.30400 19.18200 31.25600
H  44.64400 19.56400 30.97400
H  45.82900 18.13900 28.93500
H  44.78100 17.95100 27.44700
H  44.24300 19.05800 28.82000
H  47.95900 23.45500 24.50000
H  50.15400 25.29900 24.86400
H  49.62700 22.12000 23.87800
H  50.12700 21.91900 25.55900
H  50.84300 23.17600 24.49800
H  48.44400 25.32700 23.28800
H  48.62700 26.97700 24.03300
H  46.72400 26.10700 25.60600
H  46.23700 25.22900 24.03100
H  46.44800 26.95900 24.12100
H  51.17400 30.33200 28.60600
H  49.88000 30.54900 27.47100
H  51.18500 29.30300 27.20100
H  47.72000 29.36500 32.75900
H  50.57000 28.80300 36.13200
H  50.04700 30.46700 36.36300
H  51.10200 30.16400 35.11700
Mg 0.86800 43.53800 25.38000
C  3.11300 43.43600 28.22900
C  -1.78900 43.18000 27.39100
C  -0.91700 42.79800 22.61400
C  3.83300 43.50600 23.40600
N  0.66100 43.46600 27.55600
C  1.70200 43.34900 28.50300
C  1.04200 43.30900 29.85000
C  -0.52300 43.09600 29.60000
C  -0.57200 43.25200 28.09400
C  -1.09000 41.81600 30.10800
C  1.38100 44.54800 30.75900
C  0.78300 44.65400 32.21300
H  0.32500 43.36500 32.76900
N  -1.08300 43.09500 25.07000
C  -2.05000 43.07300 26.00400
C  -3.32500 42.84600 25.34900
C  -3.09500 42.55600 24.03700
C  -1.59200 42.90300 23.85400
C  -4.63700 42.74500 26.09200
C  -4.02900 41.88300 22.98700
O  -3.71200 41.77400 21.79700
C  -5.35300 41.36700 23.42800
N  1.47400 43.02100 23.32900
C  0.47600 42.90700 22.39900
C  1.04200 42.74800 21.04000
C  2.54000 43.25600 21.18300
C  2.65000 43.30800 22.74200
C  0.94400 41.29300 20.57100
C  2.87400 44.57000 20.39800
C  2.36200 45.87300 20.91300
N  3.07400 43.59900 25.70600
C  4.13700 43.56700 24.80000
C  5.35100 43.57500 25.47500
C  5.06600 43.46800 26.77600
C  3.66600 43.55100 26.92800
C  6.75100 43.68300 24.82200
C  5.55700 43.33500 28.15200
O  6.72100 43.26200 28.53300
C  4.30700 43.35600 29.19500
C  4.31300 42.03000 29.97400
O  3.92700 40.93700 29.51000
O  4.84600 42.25700 31.24200
C  4.66000 41.22800 32.34100
H  -2.64000 42.94800 28.03400
H  -1.46400 42.66000 21.67900
H  4.72100 43.49800 22.77100
H  1.54900 42.51300 30.39600
H  -1.02800 43.97300 30.00500
H  -1.69700 42.08100 30.97300
H  -0.37600 41.10100 30.51700
H  -1.67700 41.36300 29.30900
H  1.22300 45.45300 30.17300
H  2.45100 44.43800 30.93400
H  -0.06000 45.34200 32.14900
H  1.55800 45.15100 32.79600
H  -4.83600 41.69200 26.29100
H  -5.48300 43.26800 25.64600
H  -4.41100 43.24700 27.03300
H  -5.33100 40.62700 24.22800
H  -5.79800 40.84800 22.57900
H  -5.94500 42.24300 23.69400
H  0.40500 43.35200 20.39300
H  3.20500 42.45200 20.86900
H  0.42800 40.68900 21.31700
H  1.89100 40.76100 20.48300
H  0.38400 41.24600 19.63700
H  2.39400 44.48200 19.42300
H  3.95300 44.59100 20.24200
H  1.65100 46.36000 20.24600
H  3.27100 46.41500 21.17100
H  1.92600 45.70600 21.89700
H  7.54700 43.48700 25.53900
H  6.77200 44.73400 24.53400
H  6.71600 43.04800 23.93600
H  4.45200 44.22500 29.83600
H  3.74400 41.43700 32.89400
H  5.49700 41.33200 33.03200
H  4.55700 40.28900 31.79800

