158

Mg 44.55800 4.92600 46.25700
C  42.61600 7.85500 46.05100
C  41.52700 3.18100 45.72900
C  46.32400 2.24900 45.45300
C  47.45100 6.94800 45.80500
N  42.36400 5.43700 45.85500
C  41.86800 6.70600 45.85300
C  40.37000 6.69400 45.84900
C  39.96600 5.20500 45.83000
C  41.35900 4.52800 45.81700
C  39.09900 4.71700 47.01100
C  39.69100 7.58700 44.77500
C  40.43100 7.97400 43.48700
H  39.79400 7.71700 42.07100
N  43.93100 2.96900 45.87900
C  42.66900 2.41700 45.79400
C  42.77100 0.96600 45.72600
C  44.19900 0.65500 45.69800
C  44.93000 1.97000 45.64800
C  41.52300 0.04900 45.68900
C  44.74600 -0.77900 45.64700
O  43.99900 -1.73600 45.77600
C  46.18000 -1.13300 45.39800
N  46.62800 4.59100 45.67500
C  47.14700 3.37900 45.47100
C  48.66300 3.41200 45.22900
C  48.98200 4.87000 45.37600
C  47.63000 5.50900 45.65000
C  49.54800 2.35900 45.97200
C  49.75300 5.57200 44.27300
C  51.14200 5.99300 44.65700
N  45.00700 6.99600 46.17800
C  46.27900 7.62200 46.02000
C  46.04100 9.01000 46.12200
C  44.65400 9.11000 46.23800
C  44.03500 7.86800 46.12700
C  47.00600 10.17600 46.13900
C  43.50700 10.11800 46.32500
O  43.53800 11.36200 46.45700
C  42.19100 9.26500 46.23500
C  41.38300 9.37000 47.51500
O  41.49400 8.55600 48.42700
O  40.59500 10.51800 47.55600
C  39.81600 10.74600 48.73600
H  40.65300 2.58200 45.46400
H  47.05000 1.45100 45.28200
H  48.34300 7.57700 45.77600
H  40.10000 7.19600 46.77800
H  39.38800 4.88800 44.96200
H  39.54000 3.82900 47.46400
H  38.07200 4.61900 46.65700
H  38.97100 5.48500 47.77500
H  39.34800 8.50500 45.25000
H  38.73000 7.16300 44.48500
H  41.33900 7.37000 43.49100
H  40.58500 9.05400 43.49600
H  41.70400 -0.80100 45.03200
H  40.60000 0.53800 45.37700
H  41.36900 -0.44400 46.64900
H  46.27100 -2.21800 45.44700
H  46.63000 -0.75100 46.31500
H  46.56000 -0.77600 44.44100
H  48.71600 3.14700 44.17300
H  49.52200 5.02700 46.30900
H  48.95100 1.50400 46.29200
H  50.12400 2.84100 46.76200
H  50.28600 1.91200 45.30700
H  49.24800 6.37900 43.74100
H  49.92700 4.86500 43.46200
H  51.15200 6.38300 45.67600
H  51.52500 6.76600 43.99200
H  51.91300 5.22400 44.64300
H  47.79500 10.03500 46.87800
H  46.46200 11.11000 46.27900
H  47.47200 10.18200 45.15400
H  41.48600 9.54800 45.45300
H  39.22800 11.65800 48.64000
H  40.47300 10.87000 49.59700
H  39.08200 9.95500 48.88800
Mg 47.00200 17.52400 28.50800
C  45.33800 16.81600 31.55100
C  49.59800 18.83900 30.31600
C  48.29400 18.32500 25.64800
C  44.25800 16.06600 26.82900
N  47.37900 17.91100 30.74200
C  46.56100 17.60000 31.76400
C  47.22300 17.96600 33.05700
C  48.42700 18.86000 32.56300
C  48.44800 18.54600 31.12000
C  48.35400 20.42200 32.78100
C  47.58100 16.77900 34.01400
C  47.27600 16.85000 35.52700
H  46.96700 18.13900 36.18300
N  48.82900 18.43800 28.06300
C  49.84200 18.75700 28.92100
C  50.99600 18.95300 28.14700
C  50.58700 19.02800 26.78700
C  49.17400 18.60200 26.75500
C  52.32600 19.24300 28.77300
C  51.44000 19.37300 25.54900
O  51.02700 19.28300 24.36100
C  52.83200 19.86400 25.73100
N  46.40500 17.20600 26.48000
C  47.10800 17.69500 25.45100
C  46.44600 17.38000 24.09000
C  45.18500 16.54700 24.46600
C  45.28100 16.53700 25.98800
C  46.17200 18.47300 23.06300
C  45.16400 15.09200 23.83100
C  44.69600 14.98400 22.37200
N  45.14600 16.72200 29.01500
C  44.18200 16.02900 28.21700
C  43.12600 15.48000 29.00400
C  43.54700 15.81700 30.31100
C  44.81300 16.48600 30.27200
C  42.02800 14.58100 28.60900
C  43.25800 15.59200 31.77000
O  42.29800 14.95300 32.32300
C  44.37100 16.35400 32.57200
C  43.66900 17.45400 33.33800
O  43.68100 18.64700 33.06600
O  43.16300 16.94600 34.50000
C  42.66400 17.99600 35.45300
H  50.43300 19.25100 30.88600
H  48.76400 18.63600 24.71300
H  43.45800 15.74400 26.15900
H  46.48900 18.58900 33.56800
H  49.29800 18.42000 33.04800
H  47.92300 20.87300 31.88700
H  49.33400 20.75100 33.12700
H  47.63900 20.49900 33.60000
H  48.64500 16.58400 33.87800
H  47.01200 15.93600 33.62200
H  48.14900 16.37100 35.97000
H  46.45100 16.20200 35.82100
H  52.20700 19.11300 29.84900
H  52.58600 20.29200 28.62900
H  53.07400 18.52400 28.43900
H  52.86000 20.77500 26.32800
H  53.13800 20.28700 24.77400
H  53.57200 19.10100 25.97500
H  47.12800 16.71800 23.55900
H  44.24100 16.97000 24.12300
H  46.40100 17.95600 22.13100
H  46.74900 19.38000 23.24400
H  45.09800 18.65700 23.07500
H  44.63100 14.37500 24.45600
H  46.13400 14.64100 24.03800
H  45.45900 14.43400 21.82000
H  44.59900 15.98900 21.96200
H  43.70900 14.55700 22.19500
H  41.92300 13.82200 29.38400
H  42.32300 14.22700 27.62100
H  41.11700 15.17500 28.54100
H  44.83100 15.78700 33.38100
H  42.54200 17.48500 36.40800
H  41.80100 18.58900 35.15200
H  43.45100 18.73200 35.61900

