158

Mg -2.27400 17.52500 27.40600
C  -2.67100 15.29300 30.04900
C  -2.86600 20.14900 29.59200
C  -2.08500 19.73900 24.77200
C  -1.99800 14.82000 25.26000
N  -2.76900 17.62900 29.49900
C  -2.83800 16.63700 30.42000
C  -2.95200 17.17000 31.86900
C  -3.04900 18.69300 31.66700
C  -2.85700 18.86800 30.11900
C  -4.34200 19.38100 32.31900
C  -1.76500 16.67500 32.85000
C  -1.33600 17.51800 34.03200
H  -0.75800 16.78500 35.23600
N  -2.31600 19.69900 27.22600
C  -2.68300 20.56100 28.23100
C  -2.68100 21.93700 27.66000
C  -2.45700 21.77900 26.28600
C  -2.32200 20.32400 26.02300
C  -2.84400 23.11800 28.52100
C  -2.33000 22.92200 25.24900
O  -1.98400 22.69800 24.12000
C  -2.64300 24.29600 25.51500
N  -2.11500 17.36100 25.33400
C  -2.05100 18.36200 24.46600
C  -1.89100 17.90300 22.96700
C  -1.66300 16.39400 23.19500
C  -1.91100 16.16200 24.72600
C  -3.11500 18.19600 22.00900
C  -0.32600 15.73500 22.63000
C  0.92400 15.89000 23.49400
N  -2.36200 15.50600 27.52000
C  -2.23700 14.51300 26.56200
C  -2.49300 13.22300 27.12700
C  -2.66200 13.48600 28.48800
C  -2.50200 14.87200 28.73400
C  -2.50300 11.81700 26.49800
C  -2.76900 12.81600 29.78300
O  -2.86100 11.67300 30.24300
C  -2.87300 13.98400 30.89600
C  -1.84000 13.57000 31.83200
O  -0.64000 13.73800 31.69900
O  -2.42500 12.90300 32.89600
C  -1.56700 12.34500 33.96500
H  -3.01600 20.92100 30.35000
H  -2.05700 20.38600 23.89300
H  -1.84500 13.98200 24.57700
H  -3.90100 16.83000 32.28400
H  -2.11700 19.06200 32.09600
H  -4.84100 18.74900 33.05400
H  -5.04900 19.66200 31.53800
H  -3.96800 20.31300 32.74200
H  -0.96400 16.40300 32.16200
H  -2.15800 15.77300 33.31900
H  -2.26700 17.95400 34.39500
H  -0.72500 18.37400 33.74500
H  -2.53700 23.03600 29.56400
H  -3.89600 23.40500 28.51500
H  -2.18900 23.87700 28.09200
H  -3.50400 24.24000 26.18100
H  -2.75500 24.87400 24.59800
H  -1.94200 24.81400 26.17100
H  -0.94300 18.23900 22.54700
H  -2.40000 15.82100 22.63100
H  -2.53300 18.50700 21.14100
H  -3.58200 19.08800 22.42700
H  -3.86300 17.41900 21.85300
H  -0.15500 16.12700 21.62700
H  -0.57200 14.67400 22.61100
H  1.59600 16.45300 22.84700
H  1.43100 14.97400 23.79800
H  0.77700 16.40400 24.44400
H  -2.94900 11.07200 27.15800
H  -1.46400 11.59100 26.25900
H  -3.10800 11.80300 25.59100
H  -3.74300 13.98700 31.55200
H  -2.17300 12.10700 34.83900
H  -0.76900 12.99700 34.32200
H  -1.06200 11.40700 33.73300
Mg 48.98700 25.12800 28.22100
C  49.96400 27.30100 30.78700
C  48.05500 22.80800 30.59200
C  48.19300 22.93100 25.71200
C  50.54700 27.17200 25.94500
N  48.86900 25.13500 30.38800
C  49.22900 26.16900 31.27600
C  48.74600 25.85900 32.72200
C  48.56500 24.38300 32.59900
C  48.49000 24.02300 31.07500
C  49.40600 23.47000 33.56800
C  47.45300 26.73400 33.00700
C  47.70000 27.89000 33.96100
H  46.78200 27.92200 35.13000
N  48.21200 23.07800 28.20500
C  47.91600 22.33400 29.29200
C  47.41800 21.04700 28.88100
C  47.30700 21.08300 27.42300
C  47.92600 22.35800 27.05700
C  46.97100 19.85900 29.80300
C  46.61700 20.07600 26.49700
O  46.63000 20.17000 25.27300
C  45.70300 18.86400 27.01600
N  49.40600 25.03900 26.15200
C  48.80000 24.15100 25.32900
C  49.13600 24.50100 23.85800
C  49.82700 25.92700 23.93200
C  49.92800 26.10300 25.37400
C  50.10400 23.50300 23.03600
C  49.10400 27.00100 23.19900
C  49.82800 28.28400 22.65600
N  50.02000 26.86500 28.26800
C  50.59300 27.61800 27.27000
C  51.21800 28.81800 27.73700
C  51.04100 28.75900 29.13000
C  50.29500 27.54800 29.42000
C  52.05500 29.77300 26.95500
C  51.21800 29.45300 30.45600
O  51.71400 30.57500 30.71100
C  50.44000 28.53100 31.52600
C  51.38600 28.16700 32.61400
O  52.13900 27.22500 32.63400
O  51.36800 29.08000 33.61000
C  51.89800 28.75800 35.00000
H  47.84700 22.02800 31.32600
H  48.03600 22.30300 24.83300
H  51.09300 27.67700 25.14600
H  49.54300 26.17500 33.39600
H  47.57400 24.14000 32.98300
H  50.13400 24.10000 34.08000
H  49.95800 22.78700 32.92200
H  48.72500 23.08300 34.32600
H  46.62400 26.07700 33.27200
H  47.22700 27.12600 32.01500
H  47.81100 28.88800 33.53700
H  48.64400 27.78000 34.49500
H  45.92500 19.58100 29.67300
H  47.12000 20.18200 30.83300
H  47.68600 19.04000 29.73200
H  46.19700 18.17600 27.70200
H  45.31700 18.28100 26.18000
H  44.85600 19.20600 27.61100
H  48.24800 24.45200 23.22600
H  50.88000 25.78400 23.68700
H  49.51100 22.73500 22.53900
H  50.79700 22.94600 23.66600
H  50.73700 23.97900 22.28700
H  48.32400 27.36100 23.87000
H  48.53900 26.57000 22.37300
H  49.40100 29.06700 23.28200
H  49.48300 28.39800 21.62800
H  50.91700 28.31200 22.71100
H  52.58000 29.10900 26.26800
H  52.62100 30.32700 27.70400
H  51.40300 30.43100 26.38100
H  49.55500 29.07700 31.85400
H  52.96000 28.99200 34.92500
H  51.65800 27.70900 35.17500
H  51.40500 29.38700 35.74100

