158

Mg 47.70600 16.29000 29.12500
C  45.75900 15.72500 31.96900
C  49.83700 18.06700 31.26900
C  49.41900 17.50900 26.39300
C  45.31000 14.96300 27.11600
N  47.68500 16.93500 31.33400
C  46.92500 16.45000 32.30600
C  47.29200 16.88100 33.79200
C  48.38800 17.90900 33.44000
C  48.69500 17.59000 31.90700
C  47.77200 19.38100 33.52100
C  47.87100 15.70300 34.64500
C  47.98500 15.84900 36.20600
H  47.65000 17.21600 36.98800
N  49.37900 17.50600 28.90000
C  50.14900 18.10100 29.90400
C  51.36000 18.69600 29.33500
C  51.24600 18.53900 27.88600
C  49.95000 17.85200 27.67600
C  52.50800 19.37600 30.20200
C  52.30000 19.08300 26.87000
O  52.06500 19.11400 25.68000
C  53.48900 19.79100 27.32100
N  47.42000 16.25000 27.07700
C  48.21200 16.83500 26.11700
C  47.73300 16.67300 24.64700
C  46.55100 15.69100 24.89000
C  46.43200 15.53200 26.46400
C  47.38800 18.07200 23.97500
C  46.54300 14.31700 24.12500
C  45.58000 14.00800 22.92500
N  45.87500 15.52700 29.37700
C  44.96400 14.92800 28.55800
C  43.82900 14.35200 29.28600
C  44.16100 14.60400 30.60500
C  45.35800 15.32200 30.62600
C  42.61100 13.67000 28.68900
C  43.60300 14.52100 31.94800
O  42.61100 13.99900 32.43700
C  44.63800 15.21800 32.92400
C  43.93500 16.36400 33.48200
O  43.37700 17.19500 32.82200
O  43.98300 16.32700 34.88900
C  43.49000 17.57800 35.48100
H  50.58800 18.55300 31.89500
H  49.92800 17.85600 25.49200
H  44.60900 14.52000 26.40600
H  46.48300 17.27200 34.41000
H  49.20100 17.85000 34.16400
H  48.63200 20.05100 33.50900
H  47.34500 19.54200 34.51000
H  47.07400 19.58700 32.70900
H  48.85800 15.59400 34.19400
H  47.26300 14.85200 34.33800
H  49.05500 15.69900 36.35100
H  47.42700 15.18400 36.86500
H  52.51000 18.98700 31.22000
H  52.51900 20.46100 30.09600
H  53.47500 19.02300 29.84400
H  53.23900 20.68000 27.90000
H  54.07200 20.26400 26.53200
H  54.13700 19.05800 27.80100
H  48.40600 16.04400 24.06400
H  45.66000 16.26700 24.64100
H  47.97400 18.81300 24.51800
H  46.34800 18.37600 24.09100
H  47.70100 18.22500 22.94200
H  46.39200 13.55000 24.88500
H  47.48100 14.30900 23.57000
H  46.13300 13.71200 22.03300
H  44.88400 14.83600 22.79000
H  44.98100 13.16100 23.25800
H  42.26200 13.11200 29.55800
H  42.97500 12.96400 27.94300
H  41.88800 14.37800 28.28300
H  44.79900 14.49900 33.72800
H  42.40200 17.52900 35.52200
H  43.81300 18.48300 34.96800
H  43.79900 17.65100 36.52400
Mg -1.45000 35.11100 26.48800
C  -3.16500 33.32700 28.98800
C  -0.21700 37.31100 28.82600
C  0.19400 36.57100 23.95100
C  -2.65400 32.70100 24.22400
N  -1.81100 35.37300 28.67900
C  -2.46000 34.47300 29.49600
C  -2.38300 34.91600 30.96300
C  -1.66000 36.31000 30.80100
C  -1.18500 36.39300 29.36500
C  -2.45400 37.50300 31.22400
C  -1.68200 33.86900 31.87100
C  -2.53800 33.35600 33.06800
H  -1.85100 33.20800 34.41300
N  -0.31300 36.78700 26.36200
C  0.15900 37.50700 27.41900
C  0.92800 38.61800 26.86300
C  1.07500 38.46400 25.43600
C  0.28100 37.24400 25.21700
C  1.46500 39.75000 27.69000
C  1.79500 39.34300 24.43700
O  1.98900 38.96600 23.31200
C  2.37700 40.70400 24.86500
N  -1.33300 34.76400 24.33900
C  -0.56900 35.47000 23.52300
C  -0.43800 34.91900 22.13800
C  -1.23200 33.60600 22.22000
C  -1.83900 33.73400 23.66100
C  -0.93700 35.84900 20.99000
C  -0.55100 32.23500 21.90500
C  0.70400 31.96100 22.80300
N  -2.81000 33.46200 26.45100
C  -3.19000 32.64300 25.51000
C  -4.09100 31.63800 26.00700
C  -4.10600 31.88000 27.39300
C  -3.35300 33.01600 27.61500
C  -4.75100 30.52700 25.17800
C  -4.65400 31.43100 28.67400
O  -5.35000 30.49600 29.01300
C  -3.91000 32.31800 29.77200
C  -5.02100 32.92800 30.57800
O  -5.71000 33.82100 30.21800
O  -5.29700 32.14100 31.70400
C  -6.27100 32.59600 32.70400
H  0.16900 37.97000 29.60700
H  0.77200 37.00000 23.13000
H  -3.16300 32.13000 23.44400
H  -3.43200 35.01400 31.24200
H  -0.79800 36.31300 31.46800
H  -3.51800 37.33100 31.38300
H  -2.44100 38.21900 30.40200
H  -2.03900 37.91200 32.14500
H  -0.78700 34.32700 32.29200
H  -1.44600 32.98200 31.28300
H  -2.95400 32.39800 32.75600
H  -3.36600 33.99800 33.36800
H  2.54500 39.79300 27.55000
H  1.40300 39.48600 28.74500
H  0.98300 40.71800 27.55500
H  2.56500 41.25400 23.94200
H  3.28500 40.48100 25.42400
H  1.52800 41.24400 25.28600
H  0.63700 34.74100 22.10800
H  -2.00100 33.60100 21.44700
H  -1.30100 36.75500 21.47500
H  -1.68500 35.28800 20.43000
H  -0.17700 36.11900 20.25700
H  -0.13100 32.30100 20.90100
H  -1.34000 31.48500 21.86000
H  0.69800 32.46500 23.77000
H  1.65700 32.18100 22.32200
H  0.73600 30.90200 23.05600
H  -5.53100 30.96100 24.55200
H  -5.11000 29.80500 25.91200
H  -3.93300 30.07600 24.61600
H  -3.28400 31.66200 30.37500
H  -6.38800 31.87000 33.50900
H  -7.18400 32.88000 32.18000
H  -5.87000 33.52900 33.10000

