158

Mg 8.50500 3.55800 27.03700
C  9.83000 1.69100 29.85700
C  6.72600 5.39600 29.07800
C  7.10800 4.80100 24.28600
C  9.90100 0.90700 24.90000
N  8.32400 3.45500 29.23900
C  8.98000 2.75300 30.23200
C  8.63300 3.33000 31.64100
C  7.60200 4.44900 31.26800
C  7.46600 4.40200 29.76400
C  6.26100 4.42300 31.98700
C  9.86100 3.92500 32.38700
C  9.54800 4.40800 33.77000
H  10.65700 5.09500 34.60700
N  7.07400 4.94300 26.70200
C  6.55400 5.67000 27.68700
C  5.81400 6.70500 27.06000
C  5.91200 6.57300 25.67600
C  6.73800 5.39100 25.50300
C  4.94400 7.76800 27.84500
C  5.40500 7.45700 24.57000
O  5.71800 7.27700 23.38700
C  4.41300 8.55800 24.92600
N  8.43900 2.88600 24.91100
C  7.79700 3.65900 23.98500
C  8.11900 3.28000 22.55800
C  9.08900 2.08600 22.76000
C  9.23100 1.95900 24.21900
C  6.90600 2.97000 21.69300
C  10.37000 2.09500 21.92200
C  10.60700 0.80200 21.18900
N  9.65200 1.74600 27.24300
C  10.16800 0.80600 26.26900
C  10.78900 -0.32300 26.95500
C  10.83300 0.13800 28.34500
C  10.09100 1.27300 28.45200
C  11.61800 -1.41100 26.32800
C  11.33700 -0.21800 29.72600
O  12.04000 -1.14700 30.02700
C  10.70200 0.84200 30.71900
C  9.97800 0.15300 31.81900
O  8.88000 -0.42300 31.76400
O  10.64300 0.39000 33.00500
C  10.01600 -0.04500 34.27200
H  6.21300 6.10900 29.72600
H  6.63400 5.21900 23.39500
H  10.25600 0.12300 24.22800
H  8.10700 2.62800 32.28700
H  7.90600 5.47500 31.47500
H  5.52800 3.87500 31.39500
H  5.91500 5.45400 32.07200
H  6.36500 4.03700 33.00100
H  10.40400 4.62000 31.74600
H  10.45400 3.01400 32.46800
H  9.29000 3.46100 34.24400
H  8.78600 5.18800 33.75000
H  5.54900 8.67200 27.78600
H  4.78700 7.47600 28.88400
H  3.93800 7.81500 27.42700
H  3.61600 8.07400 25.49000
H  4.08800 9.05800 24.01400
H  4.92000 9.29600 25.54700
H  8.63700 4.15600 22.16800
H  8.44800 1.21500 22.62600
H  6.05700 2.64300 22.29300
H  7.20500 2.21300 20.96800
H  6.61200 3.87400 21.15900
H  11.20800 2.28900 22.59200
H  10.32000 2.99800 21.31400
H  9.83200 0.04700 21.31600
H  11.47900 0.27600 21.57700
H  10.88800 1.02800 20.16000
H  11.08400 -1.95700 25.55000
H  11.77200 -2.27000 26.98100
H  12.54600 -1.00800 25.92400
H  11.50900 1.42100 31.16800
H  9.79200 0.87200 34.81700
H  10.76000 -0.44300 34.96200
H  9.13300 -0.68300 34.24600
Mg 30.64600 58.06200 40.74700
C  27.89600 55.80100 39.89200
C  32.71200 55.59700 39.67700
C  32.92500 60.36200 40.84700
C  28.05400 60.43100 41.38900
N  30.34900 55.96100 39.80600
C  29.15800 55.26300 39.56000
C  29.50300 54.07900 38.66900
C  30.97500 53.88200 38.95700
C  31.37900 55.22600 39.51600
C  31.43400 52.65100 39.86000
C  29.11200 54.32600 37.17700
C  28.13500 53.33100 36.56100
H  27.01800 53.81600 35.61900
N  32.67500 57.92500 40.43500
C  33.35900 56.80000 40.08600
C  34.75500 57.11000 40.10900
C  34.89400 58.52300 40.32100
C  33.47000 59.05400 40.46900
C  35.88100 56.14200 39.68600
C  36.13000 59.36800 40.27300
O  37.24000 58.90800 40.17800
C  35.97400 60.85700 40.39600
N  30.48000 60.16300 41.01000
C  31.64100 60.84000 41.09600
C  31.27400 62.37800 41.42900
C  29.72600 62.30300 41.73200
C  29.37800 60.87600 41.32300
C  32.09600 63.07000 42.55600
C  28.90800 63.46500 40.99700
C  27.73300 64.05100 41.78100
N  28.43600 58.18900 40.61400
C  27.59800 59.16300 40.94200
C  26.22500 58.72100 40.85500
C  26.28700 57.39700 40.44600
C  27.63600 57.08300 40.36600
C  25.03800 59.64500 41.06100
C  25.53700 56.20100 40.11800
O  24.31900 55.94300 40.14900
C  26.54300 55.11400 39.61700
C  26.34400 53.91400 40.40400
O  26.39300 53.74800 41.62200
O  26.23100 52.82100 39.56700
C  25.67100 51.61600 40.27400
H  33.41500 54.88800 39.23500
H  33.62900 61.18800 40.96600
H  27.31800 61.22600 41.52700
H  28.94900 53.24400 39.09900
H  31.50400 53.83100 38.00500
H  30.61100 52.07100 40.27800
H  32.00000 53.02800 40.71200
H  32.02300 51.94600 39.27400
H  30.03100 54.25500 36.59300
H  28.73400 55.34700 37.13300
H  27.66300 52.81000 37.39500
H  28.64000 52.46700 36.13000
H  36.66400 56.67300 39.14400
H  35.52800 55.35300 39.02200
H  36.28800 55.65100 40.56900
H  35.51100 61.12800 41.34500
H  35.45800 61.16400 39.48600
H  36.94400 61.32700 40.23200
H  31.33000 62.91800 40.48400
H  29.44600 62.43400 42.77700
H  32.65900 63.91200 42.15200
H  32.86500 62.41500 42.96500
H  31.41500 63.50100 43.29000
H  28.56500 63.13400 40.01600
H  29.52900 64.32600 40.74600
H  28.09600 65.00800 42.15700
H  27.39300 63.48600 42.64900
H  26.91100 64.17300 41.07600
H  25.25900 60.71200 41.09500
H  24.69100 59.50900 42.08500
H  24.22000 59.55400 40.34700
H  26.45600 54.78800 38.58000
H  26.59500 51.09300 40.52300
H  25.06400 51.04700 39.57000
H  25.11600 51.78500 41.19700

