158

Mg 36.53700 49.31900 24.96000
C  37.08200 47.60500 27.99100
C  35.42400 52.10900 26.75800
C  36.36500 50.93700 22.04900
C  37.84400 46.49100 23.31200
N  36.25900 49.73000 27.11800
C  36.52400 48.88800 28.19800
C  36.11700 49.60300 29.50200
C  35.49300 50.91400 29.00200
C  35.74400 50.94800 27.51500
C  33.97900 51.04200 29.33000
C  37.35700 49.87400 30.46200
C  37.17900 49.92600 31.94900
H  35.85200 49.76600 32.54800
N  35.97300 51.18800 24.52200
C  35.51400 52.18700 25.36700
C  35.15400 53.38000 24.54200
C  35.42500 53.07900 23.20400
C  35.97100 51.67600 23.19400
C  34.84500 54.78300 25.14800
C  35.20300 53.85900 21.91900
O  35.33900 53.40600 20.81900
C  34.76400 55.30000 21.98300
N  37.03300 48.73600 22.93800
C  36.86300 49.63400 21.93300
C  37.40900 49.02600 20.51400
C  38.00900 47.59800 21.01500
C  37.63600 47.58400 22.48800
C  36.37000 48.81900 19.42600
C  39.52900 47.47000 20.77200
C  40.41900 48.63500 21.41800
N  37.37700 47.36700 25.50400
C  37.81800 46.38000 24.69400
C  38.19500 45.23600 25.52400
C  37.96300 45.72700 26.81600
C  37.42000 47.01900 26.75600
C  38.80300 43.87200 25.07800
C  38.02200 45.30300 28.18000
O  38.34000 44.32200 28.77900
C  37.50400 46.52000 29.07000
C  36.33500 46.15000 29.86000
O  35.28000 45.83700 29.41700
O  36.68600 46.14800 31.18400
C  35.82600 45.41300 32.14500
H  35.20100 52.96300 27.40100
H  36.50700 51.31700 21.03500
H  38.28600 45.65600 22.76500
H  35.48000 48.91100 30.05300
H  35.98600 51.75300 29.49200
H  33.75800 50.13100 29.88600
H  33.35000 51.06300 28.44100
H  33.80900 52.01500 29.79100
H  38.02100 50.64800 30.07700
H  37.84400 48.90000 30.40100
H  37.70000 50.81300 32.31000
H  37.65900 49.06300 32.41000
H  34.95200 55.60900 24.44500
H  35.62300 55.01400 25.87600
H  33.84500 54.69700 25.57300
H  33.82600 55.38300 22.53100
H  34.61200 55.64500 20.96000
H  35.42900 55.98700 22.50600
H  38.20000 49.62300 20.06100
H  37.46500 46.73300 20.63400
H  35.51500 49.27400 19.92500
H  36.19800 47.80000 19.07900
H  36.77100 49.46800 18.64800
H  39.85800 47.32400 19.74300
H  39.75500 46.49400 21.20200
H  41.31300 48.73900 20.80400
H  40.70700 48.29700 22.41400
H  39.88400 49.58400 21.37800
H  39.56100 43.64000 25.82600
H  39.29900 44.00300 24.11600
H  37.95600 43.18800 25.12000
H  38.34100 46.79900 29.71000
H  35.14700 44.71200 31.65900
H  35.17000 46.02000 32.77000
H  36.46000 44.79300 32.77800
Mg -1.81300 34.04500 26.58500
C  -3.56600 32.07100 28.70700
C  -0.24300 35.64200 29.17800
C  -0.32900 36.24800 24.30400
C  -3.44200 32.49700 23.85800
N  -1.98600 33.86300 28.69700
C  -2.67000 32.91600 29.34600
C  -2.30700 32.93900 30.85300
C  -1.35300 34.16700 30.93900
C  -1.15800 34.56900 29.54900
C  -1.87100 35.29900 31.90300
C  -1.76600 31.63600 31.47400
C  -2.42500 31.20400 32.83300
H  -1.54800 30.84200 34.07500
N  -0.49200 35.72400 26.72200
C  0.12700 36.17400 27.89200
C  1.03000 37.17500 27.62100
C  1.11400 37.21200 26.16500
C  0.03400 36.35400 25.64000
C  1.80500 38.03900 28.76400
C  2.14100 38.06800 25.31300
O  2.08900 38.09700 24.08400
C  3.14100 38.91000 25.93100
N  -2.00700 34.49200 24.38200
C  -1.27800 35.42500 23.68300
C  -1.33200 35.13200 22.13900
C  -2.28300 33.96000 22.08700
C  -2.58300 33.58200 23.56500
C  -1.87400 36.36900 21.36100
C  -1.67900 32.87000 21.19400
C  -0.78900 31.75300 21.93200
N  -3.24800 32.57500 26.25200
C  -3.84600 31.99700 25.09900
C  -4.75100 30.94600 25.47700
C  -4.63400 30.92900 26.90000
C  -3.80700 31.94200 27.29500
C  -5.53600 30.05100 24.52700
C  -5.18200 30.25100 28.12000
O  -6.02200 29.27900 28.25200
C  -4.44800 30.97400 29.35300
C  -5.49900 31.43300 30.32700
O  -6.14500 32.47700 30.28300
O  -5.52600 30.53500 31.32600
C  -6.31700 30.90900 32.54900
H  0.39800 36.09300 29.93800
H  0.24800 36.84900 23.59700
H  -3.97900 32.10900 22.99000
H  -3.26600 33.15900 31.32200
H  -0.39500 33.71400 31.19600
H  -2.91300 35.10300 32.15900
H  -1.79200 36.23600 31.35200
H  -1.21500 35.29400 32.77300
H  -0.71800 31.85100 31.68400
H  -1.80400 30.87000 30.70000
H  -2.96900 30.27800 32.65300
H  -3.13900 31.99900 33.05000
H  2.81100 37.64900 28.91500
H  1.25800 38.05400 29.70700
H  1.85300 39.05400 28.37000
H  2.57300 39.71100 26.40400
H  3.65900 39.44600 25.13500
H  3.77500 38.33100 26.60300
H  -0.27000 34.92500 22.01100
H  -3.23400 34.15200 21.59000
H  -2.86100 36.15400 20.95200
H  -1.15100 36.69200 20.61300
H  -1.97800 37.26800 21.96800
H  -1.11200 33.24900 20.34400
H  -2.54400 32.34600 20.78800
H  -0.41200 32.28400 22.80600
H  0.15800 31.62200 21.40900
H  -1.33200 30.80900 21.97400
H  -6.24200 29.43000 25.07900
H  -4.86700 29.43500 23.92500
H  -6.11300 30.66800 23.83800
H  -3.80600 30.22000 29.80700
H  -5.69600 31.44300 33.26900
H  -6.85700 30.02600 32.88900
H  -7.17900 31.49700 32.23400

