158

Mg -0.52900 7.17800 27.54200
C  0.17400 9.33500 30.20800
C  -0.76100 4.59300 29.86500
C  -1.12300 5.02000 25.03500
C  -0.45200 9.81400 25.36500
N  -0.27000 6.96300 29.74800
C  -0.06800 7.99900 30.63800
C  -0.26900 7.56000 32.11200
C  -0.43700 6.03300 32.01300
C  -0.50000 5.81000 30.46800
C  0.60400 5.23400 32.70800
C  -1.36700 8.31500 32.87000
C  -1.15100 8.57500 34.41400
H  -0.06100 7.93100 35.23500
N  -0.73600 5.07800 27.41900
C  -0.79700 4.19800 28.49600
C  -1.03400 2.84800 27.96700
C  -0.98300 2.93200 26.55500
C  -0.90300 4.39800 26.23400
C  -0.98700 1.67700 28.91600
C  -0.98700 1.91000 25.57500
O  -0.79300 2.16500 24.41400
C  -1.13400 0.43700 25.96200
N  -0.86900 7.31600 25.56700
C  -0.96800 6.33800 24.66600
C  -0.90200 6.78900 23.17900
C  -0.97600 8.33700 23.41300
C  -0.68600 8.46100 24.92400
C  0.34900 6.35600 22.42000
C  -2.39300 9.00800 23.10400
C  -2.48600 10.50500 22.69900
N  -0.23700 9.11900 27.69600
C  -0.24600 10.15500 26.78100
C  0.09500 11.39500 27.36200
C  0.27800 11.15900 28.70400
C  0.07300 9.75600 28.87100
C  0.25100 12.68600 26.58000
C  0.73000 11.77800 29.99400
O  1.18200 12.89600 30.15200
C  0.38600 10.63400 31.05800
C  1.44200 10.58800 32.04100
O  2.42100 9.88200 31.98400
O  1.13600 11.42800 33.12200
C  2.03100 11.33800 34.30700
H  -0.92700 3.77700 30.57200
H  -1.15900 4.34600 24.17600
H  -0.36500 10.63900 24.65500
H  0.64300 7.83700 32.64100
H  -1.42200 5.72700 32.36600
H  1.03300 4.47900 32.05000
H  0.02900 4.55900 33.34200
H  1.39900 5.85500 33.12100
H  -2.31300 7.77700 32.81700
H  -1.46300 9.28800 32.38800
H  -2.12400 8.31400 34.83000
H  -1.00400 9.65200 34.50400
H  -1.77600 0.94500 28.74400
H  -1.20000 1.88200 29.96500
H  -0.00500 1.20500 28.89300
H  -0.47600 0.30100 26.82100
H  -0.97900 -0.27100 25.14800
H  -2.16400 0.30700 26.29400
H  -1.82300 6.38000 22.76400
H  -0.25200 9.02200 22.97300
H  0.86900 7.20200 21.97000
H  0.10000 5.79400 21.52000
H  1.13800 6.03600 23.10200
H  -3.04900 8.78400 23.94500
H  -2.90600 8.43700 22.33000
H  -3.16200 11.00300 23.39400
H  -2.82500 10.43300 21.66500
H  -1.55800 11.06900 22.79600
H  1.07000 13.18700 27.09700
H  -0.65800 13.24600 26.79900
H  0.45700 12.72500 25.51000
H  -0.59600 10.93300 31.42300
H  2.57600 12.27400 34.42800
H  2.78300 10.55200 34.23200
H  1.53500 11.28200 35.27500
Mg 47.79400 16.80500 28.66500
C  45.93900 16.37500 31.71700
C  50.18200 18.57700 30.48000
C  48.96500 18.06600 25.79000
C  44.91200 15.67600 26.94300
N  48.01200 17.26100 30.91500
C  47.19200 16.99400 31.95800
C  47.81500 17.38700 33.25600
C  48.99500 18.39100 32.80900
C  49.10900 18.04400 31.27900
C  48.91100 19.84300 33.19700
C  48.20700 16.02100 33.97500
C  48.26600 16.02500 35.56200
H  47.94100 17.30300 36.42000
N  49.51100 17.85900 28.21500
C  50.43500 18.36600 29.14000
C  51.60000 18.89100 28.32900
C  51.23700 18.87900 26.92200
C  49.86100 18.24900 26.90600
C  52.88800 19.39500 29.02500
C  52.01100 19.38900 25.71000
O  51.53100 19.45000 24.57100
C  53.42700 19.58700 25.85600
N  46.94500 16.82700 26.64800
C  47.74900 17.33900 25.65500
C  47.09500 17.17100 24.32700
C  45.99600 16.08200 24.64600
C  45.88700 16.22200 26.17400
C  46.45200 18.51300 23.76000
C  46.47400 14.66900 24.29000
C  45.44900 13.90600 23.42600
N  45.89800 16.04800 29.24700
C  44.80300 15.73600 28.38100
C  43.65900 15.39600 29.13400
C  44.06600 15.57200 30.45000
C  45.47300 16.02500 30.49200
C  42.31200 14.83500 28.58900
C  43.60900 15.51600 31.79400
O  42.51700 15.21700 32.30400
C  44.79600 16.01300 32.69200
C  44.18600 17.11300 33.40800
O  44.06200 18.31500 33.06100
O  43.71700 16.55600 34.63200
C  42.92800 17.54300 35.36500
H  51.00500 19.10700 30.96300
H  49.35400 18.47900 24.85700
H  44.06800 15.14700 26.49500
H  47.17500 17.90200 33.97300
H  49.96100 18.10300 33.22300
H  49.74100 19.83600 33.90400
H  47.96400 20.03700 33.70000
H  49.21900 20.56900 32.44500
H  49.25900 15.77300 33.83300
H  47.60000 15.20000 33.59400
H  49.26600 15.69300 35.83800
H  47.71100 15.14600 35.88900
H  52.91000 20.48400 29.06300
H  53.77300 19.05500 28.48700
H  52.95300 18.99000 30.03500
H  53.49100 20.35400 26.62800
H  53.80500 19.90900 24.88600
H  53.91000 18.70100 26.27000
H  47.73900 16.82900 23.51600
H  45.03300 16.27500 24.17400
H  46.63700 19.24800 24.54300
H  45.39500 18.31600 23.58200
H  46.79300 18.81300 22.76900
H  46.59900 14.07300 25.19400
H  47.39500 14.66100 23.70700
H  44.99300 14.64200 22.76300
H  44.65200 13.53600 24.07000
H  45.81400 13.04900 22.86000
H  42.46800 13.78100 28.35700
H  41.92200 15.50400 27.82200
H  41.67700 14.75700 29.47100
H  45.12000 15.18200 33.31900
H  42.38500 17.13600 36.21800
H  42.08600 18.06400 34.90800
H  43.60100 18.36400 35.61000

