158

Mg 1.64400 -2.39400 43.32200
C  4.90100 -1.77600 42.90700
C  0.57900 0.31800 41.65600
C  -1.75100 -3.54700 43.47300
C  2.54400 -5.53600 44.80900
N  2.66700 -0.91500 42.37200
C  4.04700 -0.81900 42.25200
C  4.40400 0.39100 41.42700
C  2.91300 1.13300 41.31200
C  1.94100 0.13200 41.85500
C  2.93600 2.43300 42.18800
C  5.07000 0.07400 40.03000
C  6.39200 0.76800 39.77100
H  6.39000 1.81000 38.69400
N  -0.32600 -1.63500 42.78500
C  -0.53400 -0.46100 42.06500
C  -1.96200 -0.26900 41.92300
C  -2.62500 -1.28300 42.63000
C  -1.58400 -2.27700 42.96900
C  -2.48700 1.05100 41.30800
C  -4.16700 -1.35500 42.83000
O  -4.90800 -0.45600 42.47300
C  -4.91200 -2.52100 43.45200
N  0.46700 -4.26900 44.17000
C  -0.83600 -4.43700 44.10100
C  -1.23500 -5.78200 44.75800
C  0.20900 -6.45000 45.06200
C  1.17000 -5.35300 44.64400
C  -2.27100 -5.85800 45.91300
C  0.47000 -7.83600 44.43100
C  0.75100 -8.97100 45.43700
N  3.34500 -3.50300 43.86000
C  3.58600 -4.65800 44.49700
C  5.07900 -4.85300 44.66700
C  5.67000 -3.68700 44.06700
C  4.54900 -2.95400 43.56300
C  5.88800 -5.96200 45.32200
C  6.92200 -2.94000 43.76600
O  8.08800 -3.12700 44.06000
C  6.42900 -1.67300 42.88900
C  6.96000 -0.62000 43.70300
O  6.70300 -0.40700 44.86300
O  7.93200 -0.02900 42.98200
C  8.50900 1.20400 43.66100
H  0.44500 1.26600 41.13000
H  -2.76800 -3.94600 43.46500
H  2.97100 -6.46500 45.19100
H  5.09200 0.98900 42.02400
H  2.89900 1.43600 40.26500
H  3.02900 3.27900 41.50700
H  3.73000 2.45900 42.93500
H  1.96600 2.51600 42.67900
H  4.40600 0.40000 39.23000
H  5.26800 -0.99800 40.03800
H  7.08200 -0.00700 39.43700
H  6.91000 1.25800 40.59600
H  -3.01300 0.77000 40.39500
H  -1.70900 1.81300 41.26000
H  -3.29300 1.45300 41.92200
H  -5.96500 -2.25200 43.52600
H  -4.48900 -2.83200 44.40700
H  -4.92700 -3.33900 42.73100
H  -1.66800 -6.29300 43.89700
H  0.09400 -6.67300 46.12300
H  -3.13800 -5.26900 45.61500
H  -1.82500 -5.51900 46.84800
H  -2.58700 -6.89200 46.05700
H  1.41000 -7.78900 43.88000
H  -0.36500 -8.14000 43.80000
H  1.79100 -9.27700 45.31900
H  0.07600 -9.82700 45.45500
H  0.82800 -8.54100 46.43600
H  5.30000 -6.57300 46.00700
H  6.73400 -5.53200 45.85900
H  6.30000 -6.62800 44.56400
H  6.94900 -1.71300 41.93200
H  8.84900 1.89800 42.89300
H  9.27200 0.97900 44.40700
H  7.75100 1.79800 44.17200
Mg -1.07100 34.91400 26.99700
C  -2.91000 33.33600 29.59700
C  0.30200 37.03400 29.40700
C  0.55100 36.35800 24.49400
C  -2.69700 32.74600 24.78900
N  -1.28700 35.12500 29.27100
C  -2.00900 34.29400 30.08300
C  -1.71800 34.66600 31.51800
C  -0.88900 36.00000 31.49800
C  -0.60500 36.09100 29.99500
C  -1.57500 37.30900 32.04700
C  -1.11700 33.53000 32.42700
C  -0.92900 33.98000 33.90600
H  -1.49400 33.11500 35.08900
N  0.18000 36.49500 26.93300
C  0.69000 37.19200 28.01500
C  1.64700 38.22400 27.55000
C  1.62300 38.12500 26.17900
C  0.72100 36.95900 25.77100
C  2.35800 39.10900 28.52700
C  2.30100 39.07400 25.16000
O  2.15700 38.98700 23.94800
C  3.16500 40.14700 25.67600
N  -1.27000 34.73500 24.94500
C  -0.30500 35.35500 24.16700
C  -0.41000 34.87700 22.68300
C  -1.52600 33.74800 22.74000
C  -1.87000 33.72500 24.28000
C  -0.62800 35.89000 21.60300
C  -1.05400 32.34900 22.14500
C  -0.56000 31.28800 23.16600
N  -2.53100 33.39000 27.06000
C  -3.02700 32.59200 26.10400
C  -3.96000 31.66900 26.62600
C  -3.91300 31.85100 28.06600
C  -3.06800 32.95900 28.24300
C  -4.71100 30.51500 25.86800
C  -4.47400 31.43200 29.38700
O  -5.22400 30.48000 29.68700
C  -3.81200 32.41100 30.42400
C  -4.92300 33.10700 31.06500
O  -5.45600 34.10900 30.64400
O  -5.26900 32.43700 32.19400
C  -6.31800 33.04900 33.00700
H  0.58000 37.83000 30.10000
H  1.19800 36.57900 23.64200
H  -3.15500 32.01300 24.12200
H  -2.67400 34.74300 32.03500
H  0.04500 35.75500 32.00400
H  -1.85000 37.97100 31.22600
H  -0.76400 37.74100 32.63400
H  -2.51800 37.18800 32.57900
H  -0.11600 33.30700 32.05800
H  -1.77500 32.67000 32.55500
H  -1.26600 35.00900 34.02400
H  0.14300 33.98700 34.09900
H  2.33600 38.67900 29.52800
H  1.91800 40.10200 28.43100
H  3.42000 39.09200 28.28200
H  3.90100 39.55400 26.21900
H  2.69700 40.93200 26.27000
H  3.66100 40.61900 24.82800
H  0.54400 34.37100 22.53400
H  -2.42200 34.07300 22.21200
H  -0.82300 36.84900 22.08300
H  -1.51000 35.74700 20.97800
H  0.31700 35.90800 21.06000
H  -0.27600 32.51400 21.40000
H  -1.95800 32.05400 21.61300
H  -0.11800 31.76400 24.04200
H  0.30600 30.82900 22.69000
H  -1.34700 30.54900 23.31500
H  -4.18300 30.32000 24.93400
H  -5.76000 30.78000 25.73100
H  -4.78000 29.56000 26.38700
H  -3.21200 31.78300 31.08400
H  -6.00500 33.74400 33.78700
H  -6.85300 32.28300 33.56600
H  -7.10200 33.48600 32.38900

