158

Mg 46.28100 45.26100 42.93300
C  43.09200 43.98900 42.94400
C  47.35500 41.98600 42.27800
C  49.53300 46.40800 42.67800
C  45.12200 48.43300 43.24700
N  45.33200 43.22600 42.69600
C  43.97800 42.96700 42.72300
C  43.64000 41.44400 42.53800
C  45.04700 40.86200 42.70500
C  45.99800 42.06500 42.53200
C  45.31300 40.08200 44.06100
C  43.01900 41.18000 41.13800
C  43.82900 41.70900 39.89800
H  43.99300 40.80200 38.71400
N  48.11100 44.35200 42.40100
C  48.35000 43.01700 42.24300
C  49.75800 42.88500 41.88300
C  50.36200 44.17600 41.72200
C  49.34200 45.06500 42.28500
C  50.45800 41.54500 41.61200
C  51.67500 44.56200 41.11200
O  52.46600 43.75100 40.65000
C  52.13600 45.93500 40.99200
N  47.16600 47.13500 42.82400
C  48.50700 47.29900 42.98600
C  48.84900 48.71400 43.49700
C  47.48600 49.45800 43.21700
C  46.50500 48.27000 43.10400
C  49.25600 48.63000 45.02100
C  47.39300 50.49100 42.02400
C  46.88900 51.90600 42.48300
N  44.48700 46.11200 43.22900
C  44.15600 47.43100 43.38900
C  42.68900 47.57100 43.56500
C  42.22000 46.25700 43.41300
C  43.34500 45.38900 43.23400
C  41.90300 48.81900 43.75600
C  41.12600 45.34700 43.41500
O  39.91700 45.51200 43.64100
C  41.59200 43.85100 43.19700
C  41.35800 43.16700 44.50900
O  41.99300 43.26900 45.56100
O  40.14400 42.43500 44.46400
C  39.61200 42.02200 45.79700
H  47.74200 40.96900 42.17600
H  50.53400 46.65000 43.03900
H  44.84000 49.47700 43.39400
H  42.93400 41.18700 43.32700
H  45.21900 40.10700 41.93700
H  44.66100 40.27800 44.91200
H  46.22800 40.48200 44.50000
H  45.46600 39.02800 43.82800
H  42.03800 41.65600 41.14800
H  42.93100 40.09900 41.02500
H  44.87400 41.95100 40.09000
H  43.29900 42.63400 39.67100
H  50.24200 41.23000 40.59200
H  50.18100 40.83600 42.39300
H  51.53600 41.68700 41.67900
H  51.35900 46.55000 40.53800
H  53.14800 46.02300 40.59700
H  52.18400 46.35200 41.99800
H  49.69600 49.10100 42.93200
H  47.15700 49.99000 44.11000
H  48.94900 47.71000 45.51800
H  48.85500 49.51600 45.51300
H  50.33700 48.75200 45.09300
H  46.66300 50.11100 41.30900
H  48.41800 50.49900 41.65500
H  47.83300 52.44700 42.54800
H  46.29500 51.81500 43.39200
H  46.35800 52.43300 41.69000
H  42.19400 49.22800 44.72400
H  40.83200 48.63000 43.81900
H  42.02500 49.49200 42.90600
H  41.13300 43.37100 42.33300
H  39.04100 41.14600 45.48800
H  39.17200 42.83100 46.38100
H  40.40300 41.57400 46.39900
Mg 7.30900 53.94800 40.11600
C  7.09700 50.34800 40.03300
C  10.54900 53.77400 39.43500
C  7.22700 57.22500 39.66900
C  3.79200 54.01000 40.58300
N  8.67500 52.19200 39.68300
C  8.39100 50.85500 39.65300
C  9.70400 50.11300 39.46700
C  10.83200 51.13200 39.55700
C  10.00100 52.43600 39.59000
C  11.76700 51.11400 40.79200
C  9.90200 49.45000 38.15900
C  9.89400 50.15700 36.84200
H  8.41500 50.43100 36.27400
N  8.71500 55.28700 39.56500
C  10.02500 55.02700 39.31900
C  10.69100 56.27600 39.05700
C  9.74000 57.28900 39.14500
C  8.48000 56.61700 39.48300
C  12.04200 56.32100 38.68500
C  10.04700 58.76500 38.91300
O  11.17200 59.20800 38.67300
C  8.90600 59.83500 39.05800
N  5.68800 55.41100 40.11900
C  5.94800 56.72000 40.05000
C  4.77900 57.63300 40.18500
C  3.61700 56.55400 40.41000
C  4.34000 55.21400 40.34300
C  4.93900 58.72700 41.23500
C  2.47600 56.62700 39.35800
C  1.05900 56.97300 39.82400
N  5.81200 52.55100 40.46800
C  4.42200 52.71700 40.62700
C  3.80600 51.39900 40.85100
C  4.88800 50.52100 40.77600
C  6.02700 51.18100 40.39300
C  2.35300 51.09300 41.14900
C  5.25900 49.10900 40.80500
O  4.62100 48.11200 41.11000
C  6.67400 48.93100 40.21200
C  6.50200 48.25400 38.94900
O  5.84200 48.65600 38.03500
O  6.96800 46.96900 39.12200
C  6.73800 46.03300 37.97800
H  11.63000 53.68900 39.30700
H  7.15100 58.31400 39.71100
H  2.70600 53.96700 40.69200
H  9.80400 49.39700 40.28200
H  11.49200 51.00200 38.69800
H  11.49700 50.23100 41.37100
H  11.60300 52.05100 41.32600
H  12.82600 51.13100 40.53500
H  9.10400 48.70800 38.14800
H  10.74900 48.78100 38.30800
H  10.31600 49.59200 36.01000
H  10.50100 51.05100 36.98200
H  12.62000 56.35900 39.60800
H  12.22500 57.14000 37.99000
H  12.26300 55.41500 38.12100
H  8.08400 59.68400 38.35800
H  9.22300 60.82700 38.73700
H  8.68500 59.91200 40.12200
H  4.68800 58.13500 39.22100
H  3.21300 56.57700 41.42200
H  5.96600 58.68300 41.59700
H  4.16100 58.68100 41.99700
H  4.84900 59.60500 40.59600
H  2.32900 55.59900 39.02700
H  2.79500 57.31200 38.57300
H  1.18100 57.77700 40.55000
H  0.65800 56.09500 40.33100
H  0.48800 57.24900 38.93800
H  1.78600 51.99400 41.38000
H  2.35800 50.52700 42.08100
H  2.00400 50.58100 40.25200
H  7.43900 48.49000 40.85000
H  5.72100 46.16200 37.60800
H  6.69700 44.98800 38.28400
H  7.51900 46.06600 37.21800

