158

Mg 24.71900 -6.02700 47.19500
C  26.40900 -3.24100 45.92500
C  22.28400 -5.45100 44.94400
C  23.30900 -8.97900 48.20300
C  27.75500 -7.08400 48.70000
N  24.45100 -4.57500 45.47400
C  25.24500 -3.52200 45.14400
C  24.71600 -2.76900 43.96300
C  23.32900 -3.41400 43.74600
C  23.32300 -4.56500 44.71200
C  22.11000 -2.44500 43.97500
C  25.76100 -2.81000 42.79600
C  25.32000 -3.12700 41.38000
H  26.27300 -2.99600 40.19100
N  22.96100 -7.06500 46.74800
C  22.12400 -6.61100 45.75200
C  20.95100 -7.45500 45.74400
C  21.22700 -8.56500 46.63100
C  22.60500 -8.24900 47.21800
C  19.75100 -7.32000 44.98700
C  20.22600 -9.65000 47.03800
O  19.15600 -9.73400 46.49100
C  20.68000 -10.81000 47.94100
N  25.41700 -7.82900 48.12800
C  24.57100 -8.74600 48.58600
C  25.29300 -9.65400 49.56200
C  26.77300 -9.28000 49.41700
C  26.63900 -7.98500 48.70900
C  24.70800 -9.52100 51.01100
C  27.68200 -10.22100 48.60600
C  29.07600 -10.58700 49.28800
N  26.56400 -5.20800 47.59800
C  27.72000 -5.76300 48.21500
C  28.86000 -4.84300 48.03000
C  28.30000 -3.79400 47.23300
C  26.96800 -4.09900 46.90400
C  30.33100 -5.00200 48.67500
C  28.73500 -2.55800 46.51100
O  29.75000 -1.95000 46.45200
C  27.44700 -2.16100 45.61400
C  27.05000 -0.77800 46.03500
O  26.76300 -0.43900 47.19700
O  27.04000 0.04900 44.95500
C  26.82400 1.48900 45.19200
H  21.38200 -5.30600 44.34500
H  23.05400 -10.01500 48.43500
H  28.71300 -7.46300 49.06400
H  24.67400 -1.73500 44.30700
H  23.20900 -3.73000 42.71000
H  22.43300 -1.49100 44.39200
H  21.33700 -2.82700 44.64200
H  21.66200 -2.22800 43.00600
H  26.44000 -3.59500 43.12900
H  26.36600 -1.92100 42.61700
H  24.48200 -2.43100 41.34200
H  24.97000 -4.15900 41.41400
H  19.69600 -6.42600 44.36600
H  18.89800 -7.38400 45.66200
H  19.77200 -8.22800 44.38500
H  21.52500 -11.22400 47.39000
H  19.84500 -11.50900 47.88900
H  20.88500 -10.44400 48.94700
H  25.14100 -10.69700 49.28300
H  27.19100 -9.15300 50.41500
H  23.91800 -10.25200 51.18300
H  24.22100 -8.56700 51.20900
H  25.46600 -9.81100 51.73800
H  27.90000 -9.81700 47.61800
H  27.11400 -11.13000 48.40500
H  29.21400 -11.66400 49.38200
H  29.12100 -10.20800 50.30900
H  29.85600 -10.16800 48.65200
H  30.34000 -4.43400 49.60500
H  31.00000 -4.65700 47.88700
H  30.67100 -6.03000 48.80100
H  27.69800 -2.17400 44.55400
H  25.99700 1.81400 44.56100
H  27.69400 2.07800 44.90100
H  26.47300 1.76500 46.18600
Mg 26.43300 51.37300 25.99800
C  24.00500 52.56800 28.26500
C  28.56300 50.67000 28.43300
C  28.63800 51.08700 23.61900
C  24.14700 52.83800 23.40000
N  26.36600 51.69900 28.09000
C  25.27200 52.03000 28.85800
C  25.38700 51.60300 30.33100
C  26.83600 50.96600 30.34000
C  27.35400 51.19400 28.89400
C  27.71600 51.59800 31.50300
C  24.25800 50.60700 30.74000
C  23.40100 51.02900 31.86500
H  23.36600 50.19500 33.13400
N  28.34300 50.74200 26.07800
C  29.10500 50.52600 27.15700
C  30.44400 50.16600 26.74600
C  30.47400 50.34000 25.32300
C  29.10500 50.76700 24.92500
C  31.53100 49.76800 27.69500
C  31.65900 50.22900 24.39700
O  31.60200 50.74000 23.26700
C  32.95900 49.70300 24.93800
N  26.30700 51.74000 23.81100
C  27.38800 51.42800 23.11900
C  27.14600 51.43300 21.59800
C  25.65000 51.88600 21.52600
C  25.38400 52.20400 22.94200
C  28.13600 52.40300 20.74200
C  24.67200 50.83200 20.95700
C  24.09100 51.18300 19.61200
N  24.48700 52.42000 25.82500
C  23.71500 52.93000 24.72600
C  22.43300 53.39200 25.21700
C  22.48100 53.27800 26.59300
C  23.78600 52.76200 26.90500
C  21.34900 53.97900 24.35600
C  21.77500 53.56700 27.78100
O  20.71000 54.03600 28.04700
C  22.75700 53.07600 28.88600
C  22.97600 54.16000 29.87100
O  23.70600 55.13200 29.74100
O  22.03200 54.10500 30.92900
C  22.32600 55.05300 32.01100
H  29.19700 50.25900 29.22100
H  29.33900 50.97600 22.78900
H  23.42100 53.15300 22.64800
H  25.44500 52.47900 30.97600
H  26.76500 49.89200 30.51500
H  27.21600 51.69100 32.46700
H  27.92200 52.65800 31.36000
H  28.62100 51.00900 31.65200
H  24.67700 49.64400 31.03100
H  23.65600 50.55100 29.83300
H  22.36300 50.99300 31.53300
H  23.67100 52.02400 32.21900
H  32.35800 50.47600 27.63100
H  31.87800 48.74400 27.56100
H  31.13200 49.86300 28.70400
H  32.84000 48.70900 25.36800
H  33.38000 50.40700 25.65600
H  33.48800 49.71000 23.98500
H  27.22500 50.43300 21.17000
H  25.55800 52.80400 20.94600
H  28.71600 52.98500 21.45800
H  27.71100 53.15100 20.07300
H  28.83500 51.76700 20.19700
H  23.89100 50.74600 21.71200
H  25.26400 49.92900 20.80900
H  24.47200 52.13000 19.23100
H  23.00200 51.16200 19.55900
H  24.36700 50.44300 18.86100
H  20.84700 53.37800 23.59700
H  21.68800 54.86300 23.81600
H  20.54000 54.21400 25.04800
H  22.23800 52.28700 29.43000
H  22.46500 54.42600 32.89100
H  21.48800 55.68400 32.30700
H  23.14000 55.76600 31.87900

