158

Mg 36.57500 49.54500 25.19000
C  36.54000 47.49400 27.99600
C  35.03100 51.94600 26.98100
C  36.11300 50.99400 22.27700
C  37.61300 46.50800 23.31900
N  35.73600 49.60300 27.20400
C  36.01300 48.76900 28.25000
C  35.77800 49.47300 29.52700
C  35.04100 50.85300 29.21200
C  35.28800 50.82400 27.70600
C  33.52800 50.81900 29.60500
C  37.05600 49.50300 30.45200
C  36.87100 49.09500 31.87900
H  35.48500 49.27300 32.50200
N  35.86100 51.29600 24.67800
C  35.31400 52.18200 25.56800
C  34.98800 53.38700 24.85400
C  35.28300 53.13100 23.43800
C  35.80900 51.74500 23.40800
C  34.34200 54.60500 25.52200
C  34.95500 54.02700 22.22700
O  35.27200 53.80900 21.03200
C  34.03600 55.25600 22.48900
N  37.10400 48.89600 23.12300
C  36.75400 49.74100 22.14000
C  36.90400 49.10400 20.73200
C  37.69500 47.80900 21.13200
C  37.46600 47.73400 22.63500
C  35.67200 48.81200 19.96200
C  39.17600 47.84300 20.66800
C  40.27800 48.31800 21.74000
N  36.91700 47.39500 25.48800
C  37.44800 46.36000 24.72900
C  37.69100 45.17000 25.52400
C  37.33500 45.59400 26.85200
C  36.88400 46.93800 26.73500
C  38.21700 43.92700 25.00400
C  37.42500 45.23700 28.17300
O  37.84200 44.18700 28.59900
C  36.94100 46.45600 29.05500
C  35.78100 45.99200 29.85800
O  34.61300 45.89300 29.40300
O  36.14500 45.53800 31.06200
C  35.02100 45.00300 31.77800
H  34.69700 52.86300 27.47200
H  35.88400 51.45300 21.31300
H  37.88500 45.65300 22.69800
H  35.07400 48.77000 29.97300
H  35.54300 51.64400 29.77000
H  33.43400 50.17100 30.47600
H  32.89400 50.42500 28.81000
H  33.23300 51.84100 29.84200
H  37.50900 50.49500 30.46700
H  37.85300 48.89000 30.03000
H  37.71000 49.49100 32.45200
H  37.04600 48.02600 32.00200
H  34.70300 55.51700 25.04600
H  34.49800 54.62800 26.60100
H  33.25800 54.71500 25.48900
H  33.06900 55.13000 22.97500
H  33.81600 55.55600 21.46500
H  34.52300 56.10200 22.97400
H  37.55700 49.80000 20.20400
H  37.26300 46.93500 20.64500
H  35.70800 49.51900 19.13400
H  34.77700 49.04500 20.53900
H  35.56900 47.78400 19.61300
H  39.23800 48.41900 19.74400
H  39.47500 46.86600 20.28800
H  40.67100 47.56300 22.42000
H  39.98600 49.24000 22.24300
H  41.14000 48.59400 21.13300
H  37.94600 43.83800 23.95200
H  37.79000 43.08800 25.55300
H  39.29800 44.06100 25.04300
H  37.67300 46.78900 29.79000
H  35.41900 44.72900 32.75500
H  34.65400 44.11600 31.26200
H  34.21700 45.69400 32.03300
Mg -5.52700 24.91200 25.64300
C  -4.21800 25.99400 28.69300
C  -7.43700 22.64500 27.44900
C  -6.55600 23.65000 22.70700
C  -3.32100 27.07200 23.97400
N  -5.64100 24.32600 27.73300
C  -5.17200 24.97200 28.85400
C  -5.64600 24.43000 30.17800
C  -6.49800 23.23000 29.70100
C  -6.56000 23.42800 28.16500
C  -5.86700 21.81100 30.13600
C  -6.44900 25.58800 30.96300
C  -6.47100 25.47200 32.47500
H  -5.62500 24.33900 33.10000
N  -6.84200 23.37100 25.17000
C  -7.59400 22.60200 26.02500
C  -8.53500 21.78900 25.32500
C  -8.27400 21.97800 23.92300
C  -7.13300 23.02700 23.86200
C  -9.54600 20.87600 25.97100
C  -8.87800 21.25100 22.74000
O  -8.52000 21.56600 21.64100
C  -9.94000 20.14500 22.82000
N  -4.99000 25.19700 23.63200
C  -5.53400 24.54700 22.56300
C  -4.88300 24.93000 21.18700
C  -4.02300 26.20300 21.62000
C  -4.09000 26.17100 23.16100
C  -4.12100 23.77500 20.40800
C  -4.54300 27.66700 21.20500
C  -4.14000 28.12800 19.78200
N  -4.16700 26.33000 26.16400
C  -3.36200 27.14700 25.38500
C  -2.59400 27.91900 26.30500
C  -2.87000 27.41500 27.54700
C  -3.81200 26.54900 27.46300
C  -1.51800 28.91600 25.99100
C  -2.40900 27.63100 28.91300
O  -1.55800 28.40900 29.44400
C  -3.37200 26.69500 29.75400
C  -2.62000 25.88000 30.70300
O  -2.03900 24.83500 30.40200
O  -2.52500 26.53200 31.92000
C  -1.73900 25.83700 32.88900
H  -8.07500 22.07400 28.12700
H  -6.97000 23.18200 21.81100
H  -2.60000 27.76000 23.52800
H  -4.72500 24.10100 30.66000
H  -7.47100 23.21100 30.19100
H  -5.68500 21.19700 29.25400
H  -6.56800 21.22000 30.72600
H  -4.95400 21.89600 30.72600
H  -7.50000 25.52100 30.67900
H  -6.29000 26.65200 30.78800
H  -7.54100 25.32800 32.62200
H  -6.19900 26.44100 32.89200
H  -10.47100 21.01300 25.41100
H  -9.63400 21.01100 27.04900
H  -9.17500 19.86500 25.80500
H  -9.97900 19.61800 21.86700
H  -10.94300 20.48400 23.07500
H  -9.56600 19.48900 23.60600
H  -5.62400 25.25500 20.45600
H  -2.97400 26.26600 21.33000
H  -4.92500 23.29100 19.85300
H  -3.80300 22.94900 21.04400
H  -3.32100 24.22200 19.81800
H  -4.09700 28.39900 21.87800
H  -5.59600 27.63000 21.48500
H  -3.91500 27.26600 19.15300
H  -3.16600 28.60800 19.87500
H  -4.93000 28.78500 19.41800
H  -1.39100 29.02500 24.91400
H  -0.60100 28.58000 26.47700
H  -1.77800 29.86600 26.46000
H  -4.17600 27.27000 30.21400
H  -1.72600 24.74900 32.83300
H  -2.30700 25.98500 33.80800
H  -0.68600 26.11600 32.93400

