158

Mg -2.21400 16.36900 26.80400
C  -2.67500 14.02400 29.30200
C  -2.59400 18.84400 29.35300
C  -2.21500 18.76700 24.38100
C  -2.19900 13.79300 24.43700
N  -2.67100 16.42800 29.05300
C  -2.60300 15.35200 29.84400
C  -2.75700 15.80000 31.30700
C  -2.99300 17.31000 31.22600
C  -2.73800 17.55200 29.80700
C  -4.48000 17.74200 31.66800
C  -1.65500 15.28900 32.37700
C  -1.29900 16.13100 33.64900
H  -0.93900 15.33300 34.97200
N  -2.15300 18.44700 26.90400
C  -2.31300 19.26200 27.99600
C  -2.09900 20.57500 27.55700
C  -2.07900 20.60500 26.13900
C  -2.13600 19.20700 25.76900
C  -2.20600 21.76600 28.51000
C  -2.04800 21.74800 25.25900
O  -2.02300 21.67800 24.05100
C  -2.17400 23.06800 25.81000
N  -2.22000 16.23800 24.71900
C  -2.16700 17.35900 23.89200
C  -2.07900 17.07200 22.36800
C  -1.94300 15.48500 22.44300
C  -2.14800 15.11100 23.96100
C  -3.38300 17.48300 21.60300
C  -0.64700 14.91900 21.70800
C  0.64300 14.82600 22.59300
N  -2.54100 14.39300 26.81100
C  -2.42100 13.45100 25.76800
C  -2.60900 12.02700 26.18300
C  -2.65100 12.24400 27.61300
C  -2.58000 13.68200 27.93600
C  -2.85800 10.85300 25.35000
C  -2.74200 11.58700 28.89600
O  -2.95100 10.39200 29.11100
C  -2.76500 12.67700 30.02400
C  -1.68200 12.41100 30.90900
O  -0.49100 12.65700 30.61800
O  -2.09100 11.61600 31.92200
C  -1.11200 11.42300 32.95000
H  -2.62400 19.59100 30.14800
H  -2.29200 19.47900 23.55600
H  -2.11200 12.95500 23.74200
H  -3.68900 15.34100 31.63600
H  -2.29800 17.85800 31.86200
H  -4.91100 16.87900 32.17500
H  -5.13100 18.08400 30.86300
H  -4.40200 18.63900 32.28200
H  -0.70800 15.04600 31.89500
H  -2.12500 14.36700 32.71800
H  -2.10200 16.83500 33.86500
H  -0.34500 16.60600 33.41700
H  -1.27300 22.32800 28.49700
H  -2.32700 21.53600 29.56900
H  -3.06300 22.38500 28.24500
H  -3.05800 23.20700 26.43300
H  -2.12100 23.80100 25.00500
H  -1.29000 23.14200 26.44400
H  -1.21200 17.56600 21.92700
H  -2.84400 15.05300 22.00500
H  -3.11500 18.41100 21.09800
H  -4.10300 17.68800 22.39500
H  -3.78500 16.81500 20.84200
H  -0.35400 15.66900 20.97400
H  -0.90600 14.07500 21.06800
H  0.58300 14.33400 23.56400
H  1.16900 15.77100 22.73300
H  1.34500 14.22100 22.02000
H  -2.30000 11.04800 24.43400
H  -3.90800 10.80200 25.06200
H  -2.55700 9.95600 25.89100
H  -3.73700 12.53400 30.49500
H  -1.64200 10.68400 33.55200
H  -0.91000 12.33800 33.50600
H  -0.17600 10.96200 32.63600
Mg 27.12500 50.33100 27.29300
C  25.11100 51.58400 29.91300
C  29.60100 49.64300 29.61300
C  29.13000 49.73700 24.77800
C  24.63200 51.95000 25.02600
N  27.30200 50.65400 29.44200
C  26.28200 50.96200 30.29600
C  26.65400 50.68100 31.79000
C  28.16800 50.46400 31.58500
C  28.39800 50.13400 30.15400
C  29.00500 51.62900 32.09000
C  25.84700 49.48900 32.47500
C  25.15300 49.83100 33.80400
H  25.87200 50.41400 35.02800
N  28.94400 49.52800 27.19500
C  29.82800 49.33100 28.26900
C  31.04400 48.76900 27.65800
C  30.95000 48.84600 26.26600
C  29.59400 49.42900 25.98600
C  32.28400 48.33500 28.48300
C  32.03700 48.34500 25.25500
O  31.90100 48.45900 23.99300
C  33.29800 47.81600 25.70100
N  26.85200 50.82400 25.18100
C  27.86900 50.32100 24.33800
C  27.46200 50.50900 22.85200
C  26.01000 51.04600 22.94700
C  25.76600 51.26900 24.46700
C  28.38800 51.49300 22.04400
C  24.88300 50.14700 22.36800
C  24.69300 48.73000 22.94000
N  25.29200 51.56900 27.34300
C  24.48700 52.08500 26.39100
C  23.27400 52.65600 27.03200
C  23.49200 52.51200 28.42100
C  24.69000 51.83600 28.55600
C  22.04400 53.23600 26.41100
C  22.97300 52.76400 29.72400
O  21.94400 53.31700 29.99700
C  23.92600 52.18400 30.77000
C  24.41200 53.28900 31.63500
O  25.24000 54.16900 31.31600
O  23.79200 53.28400 32.87100
C  24.22600 54.29700 33.85300
H  30.36700 49.34100 30.33000
H  29.87100 49.55600 23.99700
H  23.86700 52.38100 24.37700
H  26.34700 51.58600 32.31600
H  28.51900 49.63200 32.19500
H  29.97100 51.75500 31.60100
H  29.21500 51.52800 33.15500
H  28.43800 52.55900 32.12900
H  26.57300 48.71700 32.73200
H  25.08100 49.01300 31.86300
H  24.58200 48.97600 34.16700
H  24.51200 50.68700 33.59600
H  32.49800 47.26700 28.43800
H  32.17800 48.72100 29.49600
H  33.24300 48.74600 28.16700
H  33.77200 47.45700 24.78800
H  33.30800 47.03100 26.45700
H  33.85100 48.71600 25.96800
H  27.43800 49.61100 22.23400
H  25.88900 52.01900 22.47000
H  29.26200 51.58500 22.68800
H  27.95300 52.49200 22.00500
H  28.68000 51.08200 21.07800
H  24.86400 50.10900 21.27800
H  23.93000 50.65600 22.51700
H  23.67200 48.50400 23.24600
H  25.45700 48.56400 23.70000
H  25.03900 48.04400 22.16700
H  21.78400 52.67300 25.51500
H  22.22300 54.24900 26.05000
H  21.20200 53.09700 27.08900
H  23.32700 51.54500 31.41800
H  24.22900 53.75700 34.80000
H  23.51900 55.12600 33.90400
H  25.17800 54.81600 33.73200

