158

Mg 26.11600 52.03800 25.59900
C  23.91500 52.95400 28.21000
C  28.41600 51.43100 28.20600
C  28.37300 51.77200 23.32200
C  23.72800 53.19700 23.34000
N  26.19400 52.23600 27.89800
C  25.11400 52.45800 28.69600
C  25.44700 52.15200 30.21100
C  26.93500 51.85900 30.20300
C  27.26200 51.91400 28.69900
C  27.83600 52.73000 31.11300
C  24.52200 51.02800 30.79900
C  24.07300 51.39800 32.26000
H  24.41900 50.62600 33.52700
N  28.06300 51.49200 25.79300
C  28.88200 51.27800 26.86900
C  30.18600 50.92700 26.46000
C  30.17500 50.86900 25.04100
C  28.83700 51.35100 24.63100
C  31.22600 50.73000 27.49200
C  31.36500 50.56700 24.12100
O  31.25900 50.59000 22.88700
C  32.70100 50.21900 24.61900
N  26.05200 52.52400 23.66300
C  27.13600 52.21200 22.88100
C  26.94300 52.57000 21.37800
C  25.40200 52.85200 21.40600
C  25.00700 52.80500 22.89900
C  27.76500 53.91200 21.01000
C  24.51500 51.83900 20.50900
C  23.68300 52.44200 19.34800
N  24.21500 52.92300 25.68800
C  23.31600 53.25200 24.69800
C  22.08500 53.69600 25.26800
C  22.23800 53.54800 26.67700
C  23.54900 53.04300 26.84000
C  20.79700 54.12100 24.68700
C  21.60000 53.69200 27.95800
O  20.45400 54.02400 28.26900
C  22.68300 53.30800 29.03400
C  22.75000 54.25100 30.18100
O  23.27900 55.35700 30.08200
O  21.99200 53.82600 31.20500
C  21.85400 54.79200 32.29800
H  29.07800 51.07700 28.99900
H  29.05500 51.60000 22.48600
H  23.03900 53.40200 22.51700
H  25.31900 53.03600 30.83500
H  27.08700 50.85600 30.60200
H  27.18800 53.17400 31.86900
H  28.32600 53.49000 30.50500
H  28.60600 52.20000 31.67300
H  25.18400 50.18700 31.00500
H  23.67600 50.81300 30.14600
H  22.99700 51.55300 32.34400
H  24.41100 52.39000 32.56000
H  30.94700 51.23100 28.41900
H  32.20600 51.09000 27.18100
H  31.39200 49.65800 27.59400
H  32.64900 49.64100 25.54200
H  33.23400 51.16900 24.61600
H  33.26700 49.63300 23.89500
H  27.31600 51.79800 20.70500
H  25.18400 53.85100 21.02800
H  28.62700 53.61200 20.41300
H  28.19200 54.46200 21.84800
H  27.13700 54.62400 20.47500
H  23.86900 51.26900 21.17700
H  25.14500 51.02300 20.15600
H  23.02700 53.25900 19.64900
H  23.03500 51.66800 18.93700
H  24.37400 52.70700 18.54800
H  20.92100 54.27400 23.61400
H  20.58500 55.04200 25.22900
H  19.99700 53.38700 24.77900
H  22.25100 52.39600 29.44600
H  22.67100 54.56600 32.98300
H  20.93700 54.75500 32.88500
H  22.07500 55.82700 32.03600
Mg 8.88100 47.87200 26.68200
C  6.95200 47.27700 29.52700
C  11.61100 48.29400 28.76800
C  10.58500 48.53400 24.08600
C  5.97100 47.48100 24.70800
N  9.22100 47.88400 28.87000
C  8.26200 47.60100 29.87100
C  8.86400 47.76600 31.24400
C  10.26900 48.43100 30.97300
C  10.37300 48.21000 29.42500
C  10.43200 49.99800 31.17900
C  8.77000 46.60600 32.22900
C  9.70000 46.57300 33.47300
H  9.25900 45.77200 34.70500
N  10.88400 48.15500 26.48200
C  11.85000 48.30100 27.42700
C  13.10600 48.51800 26.75200
C  12.83100 48.48700 25.31500
C  11.37100 48.33400 25.25100
C  14.38300 48.48600 27.47500
C  13.83700 48.66800 24.25400
O  13.46500 48.59600 23.10100
C  15.33300 48.94400 24.57800
N  8.28100 47.99300 24.70300
C  9.23000 48.35000 23.80400
C  8.65600 48.49600 22.36300
C  7.16300 48.06400 22.58100
C  7.08800 47.83500 24.01600
C  8.82700 49.92200 21.80200
C  6.81400 46.85100 21.73300
C  6.16700 47.09700 20.42100
N  6.90800 47.50700 26.99200
C  5.85600 47.36700 26.17100
C  4.67500 47.02400 26.82400
C  5.04600 46.98200 28.14100
C  6.37200 47.28000 28.20300
C  3.35100 46.74400 26.24300
C  4.60600 46.81500 29.49700
O  3.47400 46.53000 29.83300
C  5.77700 46.92000 30.44600
C  5.99900 45.63900 31.19200
O  6.68500 44.70500 30.85300
O  5.30700 45.67100 32.41000
C  5.43000 44.52800 33.26000
H  12.41700 48.54700 29.46000
H  11.12100 48.73800 23.15700
H  5.11400 47.37400 24.04000
H  8.16600 48.50600 31.63700
H  11.14900 47.94900 31.40100
H  10.18100 50.56600 30.28300
H  11.45500 50.22300 31.48200
H  9.79800 50.33500 31.99900
H  8.87600 45.66700 31.68500
H  7.76300 46.75100 32.62000
H  9.96500 47.58700 33.77300
H  10.65000 46.12400 33.18300
H  14.92900 47.66900 27.00400
H  14.31800 48.22200 28.53100
H  14.95100 49.40500 27.32400
H  15.78800 49.23800 23.63100
H  15.80100 47.99000 24.82000
H  15.41500 49.76100 25.29500
H  9.24200 47.86700 21.69300
H  6.52100 48.89600 22.29200
H  9.87800 50.20200 21.73900
H  8.32200 50.65100 22.43600
H  8.40300 50.01400 20.80200
H  6.19900 46.14300 22.28800
H  7.75700 46.34700 21.51900
H  6.07200 48.15000 20.15400
H  5.11900 46.80100 20.46800
H  6.75500 46.53400 19.69600
H  2.90400 45.92700 26.80900
H  3.52500 46.41000 25.22000
H  2.71900 47.61700 26.07800
H  5.59100 47.62200 31.25900
H  4.52100 43.95400 33.08400
H  5.43800 44.94400 34.26700
H  6.33600 43.92900 33.16600

