158

Mg 0.08100 8.11600 26.20900
C  1.21100 9.65500 29.16300
C  -0.23000 5.16900 27.92100
C  -0.52400 6.60700 23.30500
C  0.70900 11.20100 24.48300
N  0.41800 7.43400 28.38900
C  0.74600 8.25500 29.38900
C  0.92700 7.47700 30.65500
C  0.52000 5.97200 30.22000
C  0.13800 6.15900 28.78600
C  1.65200 4.98600 30.59900
C  0.20500 8.06600 31.86700
C  0.86200 7.99000 33.28800
H  2.00200 6.97100 33.52900
N  -0.35000 6.23600 25.70300
C  -0.46900 5.11800 26.53500
C  -0.72600 3.91300 25.78700
C  -0.93000 4.31100 24.44300
C  -0.62000 5.74600 24.42200
C  -0.99800 2.48400 26.38700
C  -1.40100 3.45000 23.25900
O  -1.68800 3.98900 22.20200
C  -1.73700 2.01300 23.47100
N  0.15000 8.83300 24.18700
C  -0.00700 7.93300 23.18500
C  0.26700 8.62700 21.81500
C  0.27100 10.13200 22.16500
C  0.43900 10.07100 23.73800
C  1.56500 8.15000 21.08800
C  -0.94500 10.95300 21.65600
C  -0.57900 12.36700 21.32100
N  0.74100 10.07200 26.64700
C  1.00700 11.17000 25.88700
C  1.48700 12.30200 26.69700
C  1.51200 11.76300 27.99600
C  1.09100 10.42300 27.92100
C  1.90700 13.61500 26.25500
C  1.85800 12.08500 29.38100
O  2.28800 13.10800 29.90300
C  1.58400 10.77100 30.21600
C  2.63300 10.56400 31.26900
O  3.69000 9.95500 31.17100
O  2.34500 11.22000 32.45100
C  3.40300 11.07200 33.44100
H  -0.39700 4.21800 28.43200
H  -0.75800 6.13600 22.34800
H  0.85600 12.11300 23.90200
H  2.00200 7.51200 30.83400
H  -0.22500 5.54000 30.88800
H  2.02500 4.63300 29.63700
H  1.34000 4.07100 31.10200
H  2.52800 5.43600 31.06500
H  -0.73400 7.52400 31.98000
H  0.03000 9.12300 31.66300
H  0.05900 7.63200 33.93200
H  1.15300 8.95900 33.69300
H  -2.06500 2.37800 26.58400
H  -0.59100 2.48600 27.39800
H  -0.55900 1.74900 25.71100
H  -0.76600 1.52700 23.57000
H  -2.08000 1.68300 22.49000
H  -2.48000 1.78600 24.23500
H  -0.57100 8.42600 21.14800
H  1.20300 10.51400 21.74800
H  1.29300 7.43900 20.30800
H  2.07500 7.59200 21.87400
H  2.17500 8.91800 20.61300
H  -1.69100 10.91600 22.44900
H  -1.18800 10.43600 20.72700
H  -0.61000 12.56500 20.25000
H  0.36800 12.74300 21.70900
H  -1.28200 13.09800 21.72000
H  1.17500 14.26300 25.77300
H  2.64600 13.46700 25.46800
H  2.32800 14.22300 27.05600
H  0.62200 11.10000 30.60700
H  3.50200 10.02400 33.72300
H  3.07300 11.48900 34.39200
H  4.31700 11.45400 32.98400
Mg 44.78400 4.00100 47.58200
C  42.30600 6.64600 47.15300
C  42.13800 1.76800 47.29300
C  46.93700 1.73500 47.43100
C  47.32400 6.50800 47.20500
N  42.54200 4.23300 47.23400
C  41.73300 5.35400 47.13400
C  40.25200 5.02000 46.97400
C  40.26300 3.53500 47.33400
C  41.71200 3.10500 47.27700
C  39.50300 3.26700 48.66900
C  39.54600 5.28100 45.58900
C  38.55800 6.46200 45.42400
H  38.42500 7.16100 43.99200
N  44.59500 2.02900 47.52600
C  43.44100 1.19800 47.38300
C  43.84600 -0.12900 47.58500
C  45.27600 -0.17000 47.61100
C  45.66700 1.24500 47.52000
C  42.87100 -1.23900 47.66000
C  46.17500 -1.44700 47.88600
O  45.72200 -2.53100 48.07100
C  47.66900 -1.39100 47.88300
N  46.87200 4.15700 47.29200
C  47.49800 2.98100 47.33800
C  49.05100 3.18700 47.37100
C  49.17300 4.71600 47.24000
C  47.70200 5.17200 47.25300
C  49.94600 2.62200 48.44000
C  49.93900 5.22000 45.94400
C  51.19800 6.00700 46.28300
N  44.89000 6.16900 47.30600
C  45.96200 7.05400 47.18200
C  45.49900 8.40800 46.98200
C  44.07000 8.26000 47.04000
C  43.75800 6.91500 47.27500
C  46.27200 9.73100 46.72000
C  42.85600 9.02800 46.86600
O  42.71600 10.23000 46.66500
C  41.65900 7.97800 46.91200
C  40.63500 8.46700 47.95300
O  40.54400 7.97600 49.09000
O  39.78200 9.42800 47.41800
C  38.65500 9.93800 48.20300
H  41.22600 1.18800 47.14100
H  47.79100 1.06400 47.53700
H  48.17000 7.19500 47.27200
H  39.64400 5.60400 47.66600
H  39.87100 2.91600 46.52700
H  40.23300 2.77600 49.31200
H  38.58200 2.68400 48.65200
H  39.19200 4.16000 49.21100
H  39.03200 4.37700 45.26300
H  40.24000 5.51500 44.78200
H  38.93000 7.17700 46.15800
H  37.52900 6.15300 45.60700
H  41.87100 -0.85200 47.46300
H  43.01200 -1.69300 48.64100
H  42.96800 -1.94800 46.83700
H  48.03300 -1.00100 46.93200
H  48.01500 -2.41600 48.01600
H  48.00700 -0.76800 48.71200
H  49.44300 2.81500 46.42400
H  49.59100 5.02600 48.19800
H  49.33300 1.96900 49.06000
H  50.39800 3.37300 49.08800
H  50.81100 2.10000 48.03100
H  49.31000 5.91800 45.39100
H  50.17900 4.43000 45.23200
H  51.24000 6.36000 47.31300
H  51.42000 6.83500 45.61000
H  52.00300 5.27400 46.33500
H  46.79100 9.65800 45.76500
H  47.08200 9.80600 47.44600
H  45.66600 10.63700 46.73400
H  41.31800 7.92100 45.87800
H  38.39700 10.96800 47.95700
H  38.91800 9.90300 49.26100
H  37.75600 9.33600 48.07400

