158

Mg 16.72500 52.60800 25.30700
C  18.49300 51.47100 28.10600
C  14.20800 53.72400 27.32100
C  15.25000 53.87500 22.58300
C  19.27300 51.27900 23.31300
N  16.45300 52.57500 27.43000
C  17.28800 52.15300 28.39400
C  16.87800 52.58500 29.78400
C  15.30900 52.82700 29.45800
C  15.29500 53.09800 27.98300
C  14.38200 51.65400 29.79200
C  17.71100 53.79400 30.25200
C  17.71400 53.97300 31.73900
H  16.75900 53.15300 32.56500
N  14.98300 53.63800 24.93900
C  14.05300 53.98900 25.91200
C  12.95900 54.68600 25.22200
C  13.32000 54.77600 23.88600
C  14.56100 54.14200 23.79300
C  11.74100 55.17700 25.94800
C  12.59100 55.40200 22.65200
O  13.06900 55.51100 21.53800
C  11.27500 56.01100 22.82100
N  17.19200 52.44500 23.20400
C  16.44700 53.18600 22.29500
C  17.24000 53.33900 20.97200
C  18.63700 52.73600 21.27500
C  18.33100 52.00100 22.62700
C  16.53200 52.52800 19.87600
C  19.82800 53.70800 21.46100
C  21.14800 53.33300 20.69500
N  18.50200 51.42300 25.57900
C  19.43000 50.96100 24.67600
C  20.53500 50.28200 25.41400
C  20.12600 50.44900 26.76600
C  18.88300 51.10000 26.77100
C  21.85800 49.67200 24.80500
C  20.58500 50.15600 28.10900
O  21.68100 49.69300 28.42000
C  19.61800 50.94300 28.98100
C  19.14300 50.00600 30.02200
O  18.38800 49.04200 29.90300
O  19.72300 50.33900 31.22000
C  19.39300 49.41700 32.32900
H  13.42000 54.05800 28.00000
H  14.79500 54.33100 21.70100
H  20.12800 50.93000 22.73100
H  16.96400 51.75800 30.48900
H  14.92500 53.68100 30.01600
H  13.70900 51.44200 28.96100
H  13.82800 51.91300 30.69400
H  14.88500 50.72400 30.05700
H  17.20100 54.64200 29.79500
H  18.70100 53.63600 29.82600
H  17.36900 54.99600 31.89100
H  18.75400 53.84200 32.03700
H  10.87400 54.63200 25.57600
H  11.61200 56.25800 25.88700
H  11.59500 54.96300 27.00600
H  11.36000 56.73100 23.63400
H  10.54700 55.29300 23.19700
H  10.86800 56.55700 21.97000
H  17.35400 54.40100 20.75400
H  18.98600 51.98800 20.56400
H  15.50800 52.20900 20.07200
H  17.03000 51.56800 19.74200
H  16.61400 53.05500 18.92600
H  20.00300 53.89500 22.52100
H  19.62700 54.67700 21.00400
H  21.41700 54.22300 20.12600
H  21.10600 52.64900 19.84800
H  22.02300 53.03700 21.27300
H  22.61400 49.59000 25.58600
H  22.27000 50.20300 23.94700
H  21.60100 48.66400 24.47800
H  20.18900 51.69800 29.52200
H  20.13400 48.73000 32.73700
H  18.45700 48.87300 32.20200
H  19.23800 50.00000 33.23700
Mg -4.71900 26.44500 25.94100
C  -2.94800 27.43500 28.84800
C  -6.00900 23.87400 27.90000
C  -6.09800 25.21000 23.18700
C  -2.76300 28.64600 24.11200
N  -4.44000 25.75900 28.08900
C  -3.76200 26.36300 29.08700
C  -4.27800 25.87700 30.42300
C  -5.04900 24.53700 30.09300
C  -5.17100 24.71800 28.59900
C  -4.23100 23.26200 30.59400
C  -5.16900 26.92100 31.19100
C  -4.76100 27.07300 32.66000
H  -4.23400 25.88200 33.54000
N  -5.86800 24.76500 25.54400
C  -6.32100 23.87900 26.54100
C  -7.33300 22.97300 25.91800
C  -7.46500 23.41000 24.61200
C  -6.37400 24.44800 24.34800
C  -8.01500 21.90300 26.66100
C  -8.31600 22.81300 23.51700
O  -8.14500 23.16400 22.35600
C  -9.34800 21.77000 23.79800
N  -4.45700 26.84400 23.93600
C  -5.22300 26.26200 23.03200
C  -4.94600 26.89600 21.63500
C  -3.88000 27.94900 21.89300
C  -3.67400 27.84400 23.39200
C  -4.38400 25.94300 20.53700
C  -4.28900 29.40300 21.51000
C  -4.19300 29.65600 19.98300
N  -3.20300 27.76800 26.33400
C  -2.53100 28.63300 25.54400
C  -1.54800 29.35300 26.26000
C  -1.81500 28.99100 27.60000
C  -2.69100 27.92200 27.55600
C  -0.55700 30.33900 25.71300
C  -1.43400 29.23700 28.90100
O  -0.62900 30.07200 29.30900
C  -2.12500 28.24700 29.78400
C  -1.26700 27.53300 30.75900
O  -0.52500 26.53800 30.52900
O  -1.48600 28.10500 31.94900
C  -0.61600 27.43400 32.98500
H  -6.50700 23.09600 28.48300
H  -6.63200 24.94000 22.27300
H  -2.15800 29.34200 23.52700
H  -3.42500 25.60300 31.04400
H  -6.08600 24.44600 30.41800
H  -4.14800 22.49700 29.82200
H  -4.96200 22.79000 31.25100
H  -3.29000 23.55900 31.05700
H  -6.19900 26.57100 31.26600
H  -5.12500 27.91000 30.73600
H  -5.63500 27.43300 33.20300
H  -3.98000 27.83400 32.67000
H  -9.09800 22.01800 26.69100
H  -7.69900 21.75300 27.69300
H  -7.78000 21.01500 26.07400
H  -8.82000 20.82500 23.67400
H  -10.04800 21.89900 22.97300
H  -10.03700 21.81400 24.64200
H  -5.86000 27.32500 21.22600
H  -2.93400 27.69000 21.41800
H  -5.16200 25.29700 20.12900
H  -3.69300 25.23000 20.98500
H  -3.90600 26.30600 19.62700
H  -3.69200 30.21100 21.93300
H  -5.33700 29.59400 21.73900
H  -3.73100 30.64100 19.91600
H  -5.20800 29.75900 19.59900
H  -3.69000 28.90400 19.37400
H  -0.97800 30.95500 24.91900
H  0.34400 29.86300 25.32500
H  -0.26400 30.97000 26.55200
H  -2.87000 28.77600 30.37900
H  0.43800 27.39500 32.71200
H  -1.05000 26.47300 33.26100
H  -0.71600 28.11200 33.83400

