158

Mg 27.21900 51.02700 26.26000
C  25.23500 52.00600 29.12400
C  29.60800 50.04800 28.50300
C  29.16500 50.17200 23.50100
C  24.96700 52.56600 24.29000
N  27.36600 51.00800 28.49000
C  26.44800 51.33700 29.45600
C  26.88900 51.09700 30.89400
C  28.40700 50.72300 30.65800
C  28.50600 50.67800 29.09500
C  29.43400 51.65000 31.38100
C  26.00900 50.00900 31.60400
C  25.46700 50.36700 32.99600
H  26.45500 50.71600 34.15300
N  29.14800 50.22900 26.04800
C  29.93100 49.82100 27.18900
C  31.09100 49.10300 26.66900
C  31.04600 49.34500 25.23400
C  29.75400 49.99300 24.83300
C  32.04400 48.29200 27.51800
C  32.06900 48.96400 24.12200
O  31.97900 49.32700 22.94400
C  33.22000 48.19900 24.46600
N  27.16300 51.40200 24.11400
C  27.91900 50.84100 23.19500
C  27.34200 50.95000 21.83600
C  25.95500 51.65900 22.09700
C  26.02600 51.96700 23.59600
C  28.24900 51.61900 20.80400
C  24.77600 50.70800 21.72100
C  23.45700 51.39900 21.30800
N  25.48500 52.03100 26.61200
C  24.70000 52.59500 25.64700
C  23.50600 53.18700 26.24000
C  23.73800 52.96600 27.60000
C  24.93900 52.28900 27.77400
C  22.26600 53.86200 25.63200
C  23.14200 53.20800 28.95600
O  22.18100 53.85300 29.27600
C  24.16400 52.61500 29.96600
C  24.70900 53.67000 30.82300
O  25.73500 54.28600 30.66000
O  23.85400 53.81100 31.88800
C  24.23000 54.89700 32.78500
H  30.31300 49.64000 29.23000
H  29.74900 49.66000 22.73300
H  24.13200 52.83100 23.63800
H  26.84800 52.01600 31.47800
H  28.62100 49.73700 31.06900
H  29.05100 52.59600 31.76400
H  29.96100 52.01200 30.49700
H  30.09300 51.11100 32.06100
H  26.63900 49.12600 31.71500
H  25.23200 49.58500 30.96800
H  24.77700 49.55700 33.23700
H  24.76600 51.18600 32.83400
H  31.96800 47.24800 27.21600
H  31.70100 48.30400 28.55200
H  33.09800 48.55600 27.42700
H  32.88500 47.35900 25.07500
H  33.79900 48.88000 25.08900
H  33.69000 47.82800 23.55500
H  27.27800 49.95100 21.40500
H  25.84700 52.63500 21.62400
H  28.59500 50.88200 20.07900
H  28.99400 52.22200 21.32400
H  27.71200 52.27600 20.12000
H  24.56400 49.92000 22.44400
H  25.17000 50.26100 20.80800
H  23.11700 51.13700 20.30600
H  23.55800 52.48400 21.35700
H  22.78300 51.11400 22.11600
H  22.34400 54.94800 25.59400
H  21.48900 53.68000 26.37500
H  22.06200 53.41500 24.65900
H  23.75900 51.83500 30.61000
H  24.98900 54.48700 33.45100
H  23.39800 55.13900 33.44700
H  24.46500 55.81200 32.24200
Mg 10.07500 48.17000 26.21900
C  7.91200 47.78700 29.10400
C  12.35500 49.62600 28.13100
C  12.08600 48.05800 23.56200
C  7.38100 47.06400 24.30300
N  10.08800 48.70500 28.32800
C  9.17600 48.44200 29.36400
C  9.78400 48.88500 30.68200
C  10.95800 49.76300 30.28000
C  11.21400 49.31200 28.87400
C  10.80500 51.26500 30.54200
C  10.15400 47.69600 31.62000
C  9.55300 47.63300 32.98000
H  9.81900 46.37800 33.86600
N  11.94000 48.93100 25.86900
C  12.77300 49.37400 26.82100
C  14.09200 49.56600 26.22700
C  13.95200 49.15200 24.87500
C  12.59300 48.74200 24.67200
C  15.22800 50.03400 27.02900
C  14.98700 49.13500 23.89900
O  14.80800 48.92800 22.67800
C  16.39300 49.34800 24.29900
N  9.68200 48.00400 24.14700
C  10.75700 47.84700 23.27800
C  10.42100 47.02500 22.03100
C  8.96900 46.48400 22.30800
C  8.60300 47.29300 23.67600
C  10.75500 47.74900 20.69700
C  8.90200 44.91600 22.46300
C  8.77800 43.88800 21.26100
N  8.00800 47.58500 26.56100
C  7.07000 47.10100 25.67200
C  5.83300 46.85100 26.40200
C  6.15500 47.08300 27.79100
C  7.49200 47.44300 27.76900
C  4.56800 46.41300 25.82000
C  5.56600 47.22400 29.11200
O  4.39700 47.14900 29.47200
C  6.79500 47.32900 30.02800
C  6.99600 46.05800 30.81200
O  7.92500 45.22800 30.74300
O  6.00200 45.97500 31.82300
C  6.21500 44.85800 32.74400
H  13.03200 50.28800 28.67500
H  12.84100 47.63800 22.89400
H  6.69100 46.63600 23.57300
H  9.11100 49.49000 31.29100
H  11.85900 49.60500 30.87200
H  11.73400 51.67800 30.93600
H  10.00000 51.51100 31.23400
H  10.50700 51.73300 29.60400
H  11.23700 47.75700 31.72000
H  9.81300 46.79600 31.10800
H  8.49200 47.56700 32.74000
H  9.80400 48.55600 33.50300
H  14.86000 50.41300 27.98200
H  15.80400 50.82200 26.54300
H  15.81400 49.15900 27.31300
H  16.56700 50.33200 24.73300
H  17.03100 49.28400 23.41800
H  16.65800 48.62200 25.06800
H  11.09000 46.16500 22.05300
H  8.29100 46.89000 21.55700
H  11.65500 47.37200 20.21200
H  11.05400 48.75900 20.97900
H  10.11500 47.80000 19.81600
H  8.07300 44.79700 23.16000
H  9.84200 44.64800 22.94500
H  9.68600 43.36500 20.96200
H  8.37600 44.57900 20.52000
H  8.03800 43.11000 21.44800
H  4.33700 47.04200 24.96000
H  3.94300 46.54400 26.70400
H  4.58500 45.36600 25.51800
H  6.56300 48.11000 30.75300
H  7.13300 45.04200 33.30200
H  6.23400 43.88000 32.26300
H  5.37200 44.74600 33.42600

