158

Mg 26.11300 -0.09700 29.40100
C  27.71200 -0.46900 32.38400
C  23.10900 0.38200 31.16800
C  24.29800 -0.46100 26.54500
C  28.94000 -0.87400 27.72500
N  25.43300 -0.18700 31.55100
C  26.36000 -0.20100 32.58400
C  25.66900 0.09600 33.89000
C  24.12800 0.09600 33.44400
C  24.22300 0.16600 31.93800
C  23.30400 -1.13500 33.89100
C  26.15400 1.38900 34.51100
C  26.87400 1.30700 35.91000
H  26.26500 2.11700 37.08300
N  23.96300 -0.01300 28.91600
C  22.98200 0.13100 29.79200
C  21.69600 0.26500 29.08700
C  21.98700 0.04000 27.74800
C  23.47000 -0.11300 27.67500
C  20.43300 0.45600 29.88600
C  21.01500 -0.23500 26.55200
O  21.42400 -0.40300 25.41800
C  19.54400 -0.11700 26.82900
N  26.60900 -0.45200 27.37300
C  25.71100 -0.53100 26.39000
C  26.26400 -0.81700 25.04000
C  27.77800 -0.79900 25.34400
C  27.82900 -0.64700 26.90300
C  25.79900 -2.02900 24.20500
C  28.72200 0.28500 24.72700
C  29.03500 0.17800 23.20400
N  27.99800 -0.60200 29.87000
C  29.10200 -0.80000 29.12300
C  30.21500 -0.93100 29.91400
C  29.78900 -0.81400 31.22900
C  28.37700 -0.59800 31.11000
C  31.66300 -0.93400 29.40300
C  30.20800 -0.67300 32.63100
O  31.28600 -0.71500 33.10600
C  28.86100 -0.45700 33.44900
C  28.74900 -1.54200 34.42400
O  28.01300 -2.54200 34.22100
O  29.39900 -1.27500 35.60600
C  29.01100 -2.11600 36.72000
H  22.24500 0.70700 31.75200
H  23.75600 -0.60700 25.60900
H  29.79700 -1.14300 27.10400
H  25.93100 -0.76000 34.51300
H  23.62400 1.03000 33.69300
H  22.73800 -1.54900 33.05700
H  22.60100 -0.87300 34.68200
H  23.99500 -1.83000 34.37000
H  25.28400 2.02000 34.69700
H  26.85000 1.85500 33.81400
H  27.90600 1.63000 35.77600
H  26.97200 0.25100 36.16200
H  20.08700 1.46700 30.09700
H  20.43900 -0.20100 30.75500
H  19.58000 0.05900 29.33600
H  19.13200 -0.94700 27.40300
H  18.94900 -0.09000 25.91600
H  19.26700 0.77000 27.39800
H  26.03000 0.13700 24.56700
H  28.24600 -1.74000 25.05500
H  24.94200 -2.55800 24.62400
H  26.50400 -2.81200 23.92700
H  25.37600 -1.62800 23.28400
H  29.64400 0.15900 25.29600
H  28.20300 1.20600 24.99300
H  28.66900 1.05300 22.66600
H  28.57700 -0.72400 22.79700
H  30.09500 0.07900 22.96900
H  32.25300 -0.24200 30.00500
H  31.67800 -0.64200 28.35300
H  32.08500 -1.93300 29.51500
H  28.97700 0.47800 33.99700
H  29.80500 -2.22800 37.45900
H  28.78500 -3.13200 36.39600
H  28.23200 -1.52900 37.20500
Mg 50.18700 46.70700 42.86500
C  46.94500 47.26300 41.53900
C  50.25200 43.78200 41.21000
C  53.23500 46.45900 43.83700
C  50.18200 50.18300 43.75800
N  48.81800 45.69600 41.43100
C  47.50600 45.98800 41.20600
C  46.75500 44.98700 40.40200
C  47.67500 43.77500 40.60800
C  48.99700 44.41500 41.11000
C  47.16600 42.63100 41.55200
C  46.61800 45.45100 38.89000
C  45.27100 45.74400 38.34100
H  44.70500 44.63300 37.39200
N  51.58700 45.30200 42.51100
C  51.46000 44.12200 41.81800
C  52.64700 43.27700 42.07400
C  53.53400 44.04300 42.87200
C  52.83400 45.32200 43.08800
C  52.88900 41.89400 41.51900
C  54.92800 43.59700 43.41200
O  55.32900 42.46700 43.21100
C  55.73000 44.48200 44.36400
N  51.54800 48.21400 43.48300
C  52.76300 47.75700 43.90100
C  53.72700 48.84500 44.42300
C  52.64900 50.05600 44.47200
C  51.35800 49.47100 43.88800
C  54.52400 48.43200 45.71200
C  53.15900 51.30400 43.60500
C  53.43100 52.59100 44.33500
N  48.84900 48.42200 42.67500
C  49.00400 49.76200 43.06300
C  47.83200 50.52200 42.76300
C  46.92600 49.59400 42.22500
C  47.64800 48.33600 42.11700
C  47.63900 51.92800 43.03800
C  45.65300 49.42100 41.57900
O  44.66200 50.11800 41.36800
C  45.58200 47.85600 41.20600
C  44.42500 47.23200 41.80500
O  44.25400 46.93300 42.99500
O  43.39600 47.15600 40.86100
C  42.10100 46.77400 41.32500
H  50.30800 42.77400 40.79400
H  54.30300 46.44600 44.06300
H  50.19000 51.20800 44.13400
H  45.81800 44.70200 40.88100
H  47.91500 43.35200 39.63300
H  46.17800 42.85400 41.95300
H  47.87100 42.52100 42.37700
H  46.96200 41.80100 40.87600
H  47.22900 44.70100 38.38700
H  47.18600 46.37500 38.77900
H  45.35700 46.71900 37.86100
H  44.44800 45.84600 39.04800
H  53.95100 41.78200 41.29700
H  52.36800 41.61300 40.60400
H  52.64200 41.16000 42.28600
H  55.20800 44.79300 45.26900
H  55.89500 45.37800 43.76600
H  56.69900 44.08200 44.66300
H  54.49200 48.97500 43.65800
H  52.51200 50.34600 45.51400
H  54.39600 49.25500 46.41500
H  55.58900 48.37900 45.48500
H  54.19800 47.51800 46.20800
H  52.44900 51.58100 42.82500
H  54.14500 51.11300 43.18100
H  54.48600 52.85500 44.26400
H  53.13200 52.44400 45.37300
H  52.80300 53.40700 43.97800
H  48.46400 52.30600 43.64000
H  46.78800 52.04900 43.70800
H  47.52400 52.44300 42.08400
H  45.51300 47.86200 40.11800
H  42.24400 45.87100 41.91800
H  41.50500 46.62700 40.42400
H  41.48600 47.44700 41.92300

