158

Mg 48.29000 34.48500 26.41700
C  46.80600 33.07600 29.37300
C  48.51700 37.49600 27.98300
C  49.30800 35.73300 23.53200
C  47.45100 31.33900 24.73000
N  47.83200 35.16800 28.48700
C  47.39500 34.36700 29.49600
C  47.43500 35.18900 30.81500
C  47.65400 36.69500 30.25400
C  48.01400 36.46300 28.83900
C  46.50600 37.71900 30.54200
C  48.62500 34.72800 31.71000
C  48.33700 34.60800 33.24900
H  47.08800 35.36700 33.77700
N  48.88100 36.28800 25.89900
C  48.90800 37.43100 26.66300
C  49.59200 38.48100 25.96400
C  49.91900 38.02700 24.65100
C  49.31600 36.67400 24.65300
C  49.85800 39.83100 26.59300
C  50.70300 38.69800 23.54200
O  50.85300 38.29700 22.40500
C  51.39600 40.03600 23.76300
N  48.27200 33.63200 24.42200
C  48.81000 34.43800 23.41500
C  48.81800 33.64700 22.07300
C  48.58600 32.20600 22.57700
C  48.07200 32.37500 23.99600
C  47.80500 34.15600 21.04000
C  49.81000 31.17600 22.44000
C  50.62500 30.76600 23.65700
N  47.33100 32.64000 26.88400
C  47.12600 31.47200 26.09000
C  46.46100 30.48300 26.93300
C  46.22800 31.07400 28.18200
C  46.82500 32.42000 28.14400
C  46.23600 29.07000 26.45100
C  45.69100 30.90700 29.51700
O  45.23300 29.86000 29.97700
C  46.04200 32.21700 30.36300
C  46.80500 31.69100 31.55100
O  48.04000 31.45700 31.45300
O  46.01900 31.57800 32.67800
C  46.64400 30.98500 33.87400
H  48.63300 38.48000 28.44300
H  49.59000 36.19800 22.58500
H  47.26300 30.37700 24.24900
H  46.53200 35.02500 31.40300
H  48.53400 37.17400 30.68200
H  46.14300 38.36200 29.74000
H  47.02600 38.26600 31.32800
H  45.71000 37.20000 31.07600
H  49.42400 35.46400 31.62800
H  48.94100 33.79800 31.23700
H  49.16600 35.04100 33.80900
H  48.25300 33.54000 33.44900
H  48.83100 40.16900 26.73100
H  50.25200 40.62200 25.95500
H  50.55800 39.86000 27.42800
H  51.81200 40.24100 22.77700
H  52.09400 39.83900 24.57600
H  50.71600 40.86300 23.97000
H  49.78600 33.82300 21.60600
H  47.81300 31.68300 22.01300
H  47.07200 33.38800 20.79600
H  48.26100 34.36600 20.07300
H  47.14100 34.90700 21.46600
H  50.52300 31.75600 21.85500
H  49.52500 30.31100 21.84100
H  50.24700 31.37800 24.47600
H  51.66800 31.08200 23.61200
H  50.53100 29.69700 23.84600
H  46.06200 28.50000 27.36300
H  47.18000 28.73500 26.02200
H  45.35800 28.83500 25.84800
H  45.14700 32.72900 30.71700
H  46.66200 29.93200 33.59500
H  45.96400 31.11600 34.71600
H  47.63800 31.38000 34.08200
Mg 16.79400 51.97700 26.66800
C  18.56400 50.54000 29.23600
C  14.30000 52.94200 28.94900
C  15.19100 53.51900 24.15000
C  19.17500 50.69200 24.41000
N  16.49000 51.74600 28.74100
C  17.38200 51.19500 29.60600
C  16.88600 51.37900 31.02600
C  15.35200 51.82100 30.93500
C  15.35200 52.18700 29.47400
C  14.29400 50.75800 31.37600
C  17.74800 52.33400 31.84500
C  17.76200 52.16900 33.36900
H  16.61600 51.32100 33.97600
N  15.04800 53.11000 26.59400
C  14.20100 53.37700 27.62700
C  13.18100 54.34000 27.13500
C  13.42700 54.57900 25.77000
C  14.56400 53.69600 25.45800
C  12.02300 54.79200 27.98300
C  12.73800 55.48300 24.70600
O  13.11200 55.56900 23.55300
C  11.56200 56.34100 25.13700
N  17.08900 52.00300 24.63800
C  16.24500 52.72700 23.75500
C  16.70400 52.50900 22.27800
C  18.15700 51.99100 22.45700
C  18.13500 51.48000 23.90400
C  15.77900 51.54800 21.47200
C  19.33400 52.98400 22.25600
C  20.18400 52.71800 21.04400
N  18.49700 50.78600 26.76000
C  19.46700 50.40900 25.78000
C  20.61700 49.71900 26.41400
C  20.30700 49.78000 27.74800
C  19.02400 50.36100 27.94000
C  21.86200 49.18700 25.72000
C  20.81000 49.43700 29.07100
O  21.86900 48.94100 29.37600
C  19.71300 49.99400 30.09500
C  19.33800 48.84900 31.02600
O  18.70000 47.83700 30.80700
O  19.85900 49.13900 32.27500
C  19.40700 48.18700 33.25800
H  13.52900 53.27800 29.64600
H  14.55900 53.79800 23.30500
H  20.05900 50.38600 23.84800
H  16.90000 50.36600 31.42800
H  15.19400 52.70800 31.55000
H  13.47300 50.69800 30.66100
H  13.87100 51.17300 32.29100
H  14.80100 49.80600 31.53300
H  17.41400 53.33500 31.57500
H  18.78300 52.25300 31.51100
H  17.69000 53.17300 33.78600
H  18.71400 51.80900 33.76000
H  12.25800 55.83600 28.19300
H  11.82400 54.28500 28.92700
H  11.11400 54.85300 27.38500
H  10.72500 55.64800 25.21700
H  11.31500 57.10500 24.40000
H  11.69300 56.82800 26.10400
H  16.69900 53.46200 21.74900
H  18.25600 51.20700 21.70600
H  15.53600 52.10000 20.56400
H  14.84000 51.36300 21.99400
H  16.30000 50.62800 21.20700
H  19.97600 52.93600 23.13600
H  18.94500 53.98700 22.08500
H  21.18800 52.37300 21.29100
H  20.21700 53.58900 20.38900
H  19.77000 51.86400 20.50800
H  21.52800 48.64100 24.83800
H  22.24400 48.47500 26.45200
H  22.51700 50.03200 25.50500
H  20.06500 50.79800 30.74100
H  19.65700 47.13100 33.15200
H  18.32000 48.24100 33.21000
H  19.76400 48.48300 34.24400

