158

Mg 26.41100 50.38400 26.41600
C  24.15400 51.70300 28.91400
C  28.40200 49.44500 29.01100
C  28.43500 49.48900 24.12100
C  24.21200 51.80700 24.02600
N  26.36800 50.79900 28.63600
C  25.36300 51.16800 29.43200
C  25.61900 50.89200 30.93400
C  26.99100 50.12400 30.96400
C  27.28400 50.04800 29.42000
C  28.19300 50.69200 31.67500
C  24.53000 50.01000 31.67900
C  24.37300 50.45300 33.14800
H  23.70800 49.44700 34.11600
N  28.23500 49.58800 26.52400
C  28.90800 49.22100 27.65500
C  30.10100 48.43500 27.29800
C  30.18000 48.53800 25.82800
C  28.99700 49.26400 25.41800
C  31.09400 47.84100 28.29000
C  31.25200 48.09000 24.82900
O  31.19900 48.32200 23.60900
C  32.43700 47.21000 25.30800
N  26.37200 50.60000 24.37900
C  27.31800 50.08800 23.58100
C  26.92300 50.06300 22.11900
C  25.47600 50.68400 22.09600
C  25.32600 51.10700 23.60400
C  27.94600 50.72200 21.18000
C  24.30800 49.71500 21.55600
C  24.31200 48.26900 21.93200
N  24.56200 51.56700 26.43700
C  23.80600 52.06600 25.40100
C  22.61500 52.71700 25.87100
C  22.66500 52.60100 27.26500
C  23.85700 51.89400 27.55600
C  21.58300 53.38700 24.94900
C  22.04800 52.86200 28.45900
O  20.94400 53.34600 28.62100
C  22.96100 52.29300 29.63900
C  23.37100 53.44200 30.60900
O  24.45700 53.99800 30.54900
O  22.37600 53.71700 31.50800
C  22.85200 54.58700 32.60100
H  29.06200 48.97400 29.74200
H  29.02400 49.00200 23.34100
H  23.59700 52.19200 23.20900
H  25.64800 51.87900 31.39600
H  26.80900 49.10400 31.30000
H  28.67400 51.36300 30.96400
H  28.92500 49.97000 32.03500
H  27.85700 51.22400 32.56600
H  24.83300 48.96400 31.72200
H  23.58200 50.07700 31.14400
H  23.71100 51.31700 33.07900
H  25.29200 50.87700 33.55400
H  31.00400 48.29000 29.27900
H  32.13500 48.01500 28.01800
H  30.96700 46.76100 28.35300
H  32.05100 46.33400 25.82800
H  33.14300 47.80600 25.88600
H  32.99400 46.89300 24.42600
H  26.96700 48.98800 21.94400
H  25.49000 51.64400 21.57900
H  28.86300 51.08400 21.64400
H  27.64700 51.57600 20.57200
H  28.33100 49.90200 20.57300
H  24.33800 49.77500 20.46800
H  23.45500 50.25400 21.96700
H  23.40800 48.03700 22.49600
H  25.19200 47.91000 22.46600
H  24.29300 47.71800 20.99100
H  20.83300 52.61400 24.78400
H  21.95400 53.58200 23.94300
H  21.17200 54.32400 25.32600
H  22.46800 51.55500 30.27300
H  23.34400 55.47100 32.19500
H  23.50000 53.99100 33.24400
H  22.15200 55.02700 33.31200
Mg 16.55700 52.35000 26.53900
C  18.45700 50.93300 28.99200
C  14.18800 53.15900 28.80400
C  14.37500 53.30600 23.91600
C  18.71900 51.07700 24.19900
N  16.29400 51.89100 28.61700
C  17.23200 51.43600 29.46400
C  16.90600 51.76300 31.04000
C  15.34100 52.09200 30.88600
C  15.22600 52.40500 29.28500
C  14.38900 51.01300 31.46100
C  17.70700 52.97000 31.57800
C  17.89400 53.11700 33.14500
H  16.98500 52.18000 33.99100
N  14.70200 53.33400 26.40600
C  13.88900 53.58300 27.48400
C  12.82900 54.39300 27.03700
C  12.91000 54.59000 25.65100
C  14.04500 53.73000 25.21100
C  11.94200 54.99700 28.10200
C  12.07500 55.43000 24.68900
O  12.31200 55.49100 23.52400
C  11.03700 56.42500 25.21000
N  16.47200 51.87200 24.32400
C  15.51200 52.45700 23.51700
C  15.84600 52.25800 22.03800
C  17.29000 51.65800 22.13100
C  17.58000 51.60500 23.61900
C  14.80200 51.48700 21.36600
C  18.37900 52.43000 21.34000
C  19.44000 51.71700 20.59600
N  18.23900 51.16500 26.51800
C  19.03400 50.72800 25.49000
C  20.17800 49.91100 26.00800
C  19.94400 49.98400 27.42500
C  18.81600 50.79900 27.66000
C  21.27900 49.08100 25.35600
C  20.42700 49.56800 28.62000
O  21.35200 48.80100 28.89500
C  19.52900 50.29600 29.77100
C  19.03500 49.18400 30.64600
O  18.57500 48.11900 30.16300
O  19.23200 49.44600 31.92300
C  19.07000 48.41300 32.91700
H  13.51500 53.40800 29.62700
H  13.93300 53.70100 23.00000
H  19.53000 50.80300 23.52100
H  17.05500 50.85100 31.61800
H  15.07800 52.93800 31.52100
H  13.71800 51.54100 32.13900
H  14.98400 50.19100 31.85900
H  13.81800 50.51300 30.67900
H  17.27800 53.90300 31.21300
H  18.72500 52.90200 31.19500
H  17.66700 54.12100 33.50200
H  18.94000 53.01100 33.43300
H  11.23600 55.72000 27.69400
H  12.45200 55.54100 28.89700
H  11.45000 54.16500 28.60700
H  11.56600 57.07900 25.90300
H  10.34000 55.89500 25.85900
H  10.55500 57.00100 24.41900
H  15.84800 53.16200 21.42900
H  17.31700 50.64200 21.73700
H  15.23000 50.62700 20.85100
H  14.28000 52.08600 20.61900
H  14.02100 51.17300 22.05900
H  18.94200 53.09400 21.99700
H  17.94900 53.16600 20.66100
H  20.45600 51.86000 20.96500
H  19.33900 51.94800 19.53600
H  19.36800 50.63900 20.74300
H  21.44100 49.43600 24.33800
H  21.16900 47.99700 25.36300
H  22.23700 49.23000 25.85400
H  20.13700 50.97000 30.37300
H  17.99400 48.46300 33.08500
H  19.59800 48.67600 33.83400
H  19.17500 47.37600 32.59800

