158

Mg 46.79800 25.30200 28.45800
C  47.86100 27.69600 31.05500
C  46.27500 23.16200 31.15500
C  45.93200 23.16500 26.24000
C  48.23300 27.56000 26.18100
N  46.91200 25.49200 30.78800
C  47.23600 26.57300 31.58500
C  47.03000 26.34400 33.02500
C  46.63700 24.83200 33.09800
C  46.63300 24.43100 31.55900
C  47.61700 23.93600 33.94800
C  46.02000 27.31000 33.72500
C  46.49600 27.79000 35.04600
H  45.48600 27.91300 36.10000
N  46.08400 23.54900 28.65100
C  45.93900 22.75600 29.81200
C  45.14500 21.62600 29.45700
C  44.86800 21.72900 28.01200
C  45.62400 22.85900 27.58400
C  44.75200 20.56600 30.40600
C  44.03200 20.85300 27.14100
O  43.82900 21.10800 25.94800
C  43.19600 19.74200 27.76000
N  47.02600 25.41100 26.42900
C  46.56600 24.41200 25.72900
C  46.89300 24.61400 24.23000
C  47.40000 26.09600 24.20100
C  47.65200 26.37500 25.68100
C  47.93800 23.50400 23.71900
C  46.37800 27.15500 23.58200
C  46.95600 28.07000 22.48500
N  47.77400 27.19800 28.48600
C  48.35500 27.97100 27.44400
C  48.83500 29.23000 27.99400
C  48.64700 29.11600 29.41100
C  48.05500 27.90200 29.66300
C  49.46700 30.35100 27.19100
C  48.89400 29.81900 30.68300
O  49.28800 30.99200 30.85800
C  48.43600 28.81700 31.77100
C  49.42200 28.49800 32.77600
O  50.18500 27.55100 32.67100
O  49.33900 29.31900 33.90400
C  50.08000 28.94000 35.11600
H  46.07000 22.50300 32.00200
H  45.55700 22.44800 25.50700
H  48.70000 28.17800 25.41200
H  48.01300 26.39000 33.49400
H  45.61600 24.57400 33.37900
H  48.03800 23.21000 33.25300
H  47.11800 23.35100 34.72200
H  48.39300 24.49000 34.47600
H  45.10800 26.73500 33.88500
H  45.76700 28.13000 33.05400
H  47.02200 28.74300 34.99200
H  47.27700 27.09800 35.36100
H  43.66900 20.60500 30.52500
H  44.99400 20.69500 31.46100
H  45.11600 19.62600 29.99100
H  43.90000 18.97100 28.07500
H  42.65200 19.22400 26.97000
H  42.58800 20.02200 28.62000
H  45.92100 24.53600 23.74300
H  48.30700 26.18900 23.60400
H  47.91100 22.73100 24.48800
H  48.93800 23.90400 23.55300
H  47.51600 22.98400 22.85900
H  45.99000 27.82800 24.34700
H  45.55000 26.62000 23.11700
H  47.89100 27.63800 22.12900
H  47.10100 29.05300 22.93300
H  46.25000 28.09600 21.65500
H  49.31400 31.23300 27.81300
H  49.04900 30.47400 26.19100
H  50.55000 30.24600 27.13800
H  47.71400 29.44700 32.29000
H  51.12000 29.26200 35.06200
H  49.96300 27.87700 35.32600
H  49.63000 29.45300 35.96600
Mg 36.01100 49.90900 24.72400
C  36.18100 48.11200 27.74500
C  34.63000 52.52500 26.40700
C  35.39700 51.44200 21.67500
C  36.71900 46.89400 23.06800
N  35.68800 50.37400 26.87800
C  35.70900 49.47400 27.88400
C  35.40700 50.19500 29.23700
C  34.73800 51.57700 28.77400
C  35.01500 51.49500 27.24200
C  33.25100 51.77000 29.22700
C  36.60200 50.33800 30.13500
C  36.50900 49.90700 31.62200
H  35.07600 49.63100 32.17200
N  35.20200 51.76500 24.15500
C  34.75400 52.69500 24.98500
C  34.43400 53.96600 24.31300
C  34.73800 53.69900 22.96000
C  35.07500 52.25900 22.85300
C  33.82500 55.21300 24.96700
C  34.68300 54.70300 21.84100
O  34.94700 54.42800 20.65600
C  34.40800 56.16200 21.95100
N  36.03900 49.26100 22.74000
C  35.85600 50.11900 21.68500
C  36.19400 49.36900 20.36400
C  36.66700 48.01100 20.84100
C  36.45000 48.00000 22.33500
C  34.96200 49.24400 19.43700
C  38.11000 47.78500 20.46200
C  39.19000 48.76800 20.96200
N  36.43000 47.96100 25.23600
C  36.68800 46.84500 24.50000
C  37.11400 45.70200 25.32900
C  36.94300 46.20700 26.56400
C  36.41600 47.48500 26.45700
C  37.61400 44.29200 25.01000
C  37.04600 45.86800 27.97400
O  37.42200 44.85300 28.52600
C  36.46500 47.09200 28.83200
C  35.36600 46.63400 29.66300
O  34.18800 46.87600 29.42700
O  35.84800 45.84500 30.72800
C  34.92800 45.16100 31.63200
H  34.32900 53.43100 26.93600
H  35.39000 51.99800 20.73600
H  37.00500 45.97800 22.54700
H  34.64200 49.57300 29.70000
H  35.35200 52.39500 29.15100
H  32.74800 51.00900 29.82400
H  32.73700 51.95300 28.28300
H  33.20400 52.70900 29.77800
H  37.00600 51.35100 30.14300
H  37.31800 49.65500 29.67700
H  36.94800 50.62900 32.31000
H  37.11300 49.00100 31.67700
H  34.61700 55.71700 25.52100
H  33.09000 54.88900 25.70400
H  33.28200 55.83700 24.25700
H  34.83400 56.77600 21.15800
H  34.92000 56.56900 22.82300
H  33.35100 56.42500 21.99800
H  36.87900 50.07200 19.88900
H  36.13900 47.14900 20.43100
H  34.32900 50.13100 19.40400
H  34.32000 48.39900 19.68800
H  35.35100 49.13900 18.42400
H  38.04800 47.93700 19.38500
H  38.53200 46.80300 20.67600
H  39.89300 48.25500 21.61900
H  38.78600 49.64400 21.46900
H  39.69900 49.19600 20.09900
H  36.97400 43.61100 25.57100
H  38.65700 44.00700 25.15300
H  37.53100 44.11900 23.93700
H  37.32000 47.43600 29.41400
H  33.99200 44.88100 31.15000
H  34.74900 45.79600 32.49900
H  35.41500 44.24000 31.95400

