158

Mg 2.46600 -1.59100 44.05400
C  5.73000 -0.26100 43.27600
C  1.24700 1.24700 42.49600
C  -0.48300 -2.87600 44.35900
C  4.05100 -4.54900 45.09100
N  3.42800 0.22100 42.85500
C  4.77500 0.59900 42.75100
C  4.92600 1.95700 42.11800
C  3.48300 2.47700 42.03000
C  2.64400 1.29500 42.47400
C  3.30900 3.68500 42.95500
C  5.70400 1.68100 40.75600
C  6.83600 2.63400 40.17300
H  6.53300 2.93600 38.73600
N  0.60900 -0.96100 43.47700
C  0.32900 0.24900 42.90700
C  -1.10700 0.37400 42.85600
C  -1.69800 -0.85600 43.46000
C  -0.50400 -1.60600 43.81100
C  -1.79200 1.74500 42.44300
C  -3.18100 -1.10200 43.74100
O  -3.96500 -0.33700 43.22500
C  -3.68800 -2.34700 44.48700
N  1.95500 -3.46200 44.56400
C  0.61600 -3.77600 44.64200
C  0.42500 -5.28900 44.96300
C  1.79200 -5.73900 45.37700
C  2.67000 -4.51800 44.93900
C  -0.79100 -5.56900 45.92100
C  2.27200 -7.09100 44.69500
C  2.93500 -8.14200 45.53300
N  4.45400 -2.19600 44.33000
C  4.95800 -3.41600 44.81100
C  6.38000 -3.37800 44.98700
C  6.70800 -2.07600 44.40000
C  5.51000 -1.46900 43.98800
C  7.27400 -4.37400 45.62500
C  7.79500 -1.20900 44.05300
O  8.99200 -1.35700 44.18700
C  7.20700 -0.01100 43.31500
C  7.44800 1.14700 44.14100
O  6.81400 1.38500 45.17500
O  8.48500 1.89300 43.64000
C  9.10600 2.84400 44.58400
H  0.80900 2.16700 42.10300
H  -1.50600 -3.25000 44.44500
H  4.59400 -5.37500 45.55400
H  5.52500 2.65200 42.70700
H  3.13700 2.65800 41.01200
H  2.33200 3.63400 43.43600
H  3.30100 4.53100 42.26800
H  4.14900 3.88100 43.62000
H  4.87500 1.63600 40.04900
H  6.08600 0.66100 40.71400
H  7.80300 2.15200 40.31900
H  6.95900 3.59700 40.66700
H  -2.86800 1.81600 42.59900
H  -1.61100 1.87800 41.37600
H  -1.27700 2.54500 42.97600
H  -3.11700 -2.37700 45.41600
H  -3.53100 -3.22700 43.86400
H  -4.71500 -2.01000 44.62800
H  0.14100 -5.70200 43.99500
H  1.77600 -5.83800 46.46200
H  -1.24700 -4.65200 46.29400
H  -0.42900 -6.11700 46.79100
H  -1.57100 -6.09300 45.36800
H  2.99400 -6.83700 43.91900
H  1.41600 -7.63600 44.29600
H  3.51700 -7.72000 46.35300
H  3.70000 -8.60100 44.90700
H  2.26500 -8.89400 45.94700
H  8.27500 -4.06900 45.32100
H  7.05200 -5.36100 45.21700
H  7.14700 -4.30600 46.70500
H  7.66700 0.02200 42.32800
H  8.87400 2.77100 45.64600
H  9.13800 3.89200 44.28600
H  10.08900 2.37400 44.60000
Mg 35.54100 1.88600 29.73600
C  33.31400 2.71000 32.23800
C  38.06300 1.80700 32.18500
C  37.87500 1.52900 27.34200
C  32.99700 1.83500 27.41300
N  35.69400 2.16400 31.98900
C  34.60900 2.45900 32.80800
C  34.99300 2.35200 34.30700
C  36.62700 2.36700 34.24300
C  36.84400 2.06900 32.71700
C  37.33100 3.74800 34.52800
C  34.26300 1.21100 35.03700
C  33.84000 1.57000 36.48500
H  34.19700 2.94900 37.07300
N  37.65500 1.69000 29.71200
C  38.50200 1.57500 30.84000
C  39.86400 1.49000 30.38600
C  39.89600 1.49700 28.96900
C  38.43200 1.60400 28.62300
C  41.05400 1.48900 31.38900
C  41.06600 1.40900 27.95200
O  40.90700 1.56000 26.77700
C  42.46000 1.05500 28.43800
N  35.45300 1.80300 27.69600
C  36.56500 1.75500 26.90700
C  36.15100 1.63300 25.40400
C  34.60000 1.48200 25.44900
C  34.29400 1.63700 26.94300
C  36.76500 2.70800 24.44000
C  34.13700 0.13300 24.80700
C  32.70200 0.10800 24.15800
N  33.57300 2.37400 29.74300
C  32.61400 2.22700 28.71700
C  31.33600 2.58200 29.17800
C  31.54500 2.76800 30.58400
C  32.92500 2.65900 30.87600
C  30.07000 2.72800 28.44400
C  30.93400 3.01100 31.83000
O  29.73400 3.17600 32.16300
C  32.01700 3.12500 32.95300
C  32.10700 4.46700 33.52200
O  32.97600 5.29600 33.20300
O  31.21000 4.64200 34.56200
C  31.31400 5.89200 35.32300
H  38.86800 1.87500 32.92000
H  38.49200 1.30500 26.46900
H  32.15700 1.67100 26.73500
H  34.49900 3.24400 34.69300
H  36.98100 1.54700 34.86800
H  36.61200 4.26600 35.16200
H  37.35900 4.26100 33.56700
H  38.28300 3.83500 35.05200
H  35.00300 0.41500 35.10800
H  33.50400 0.84100 34.34800
H  34.29400 0.81100 37.12200
H  32.77200 1.38700 36.60300
H  41.74700 0.75900 30.97000
H  40.77000 1.16800 32.39100
H  41.43300 2.51000 31.43300
H  43.12200 0.99200 27.57300
H  42.33400 0.07100 28.88900
H  42.82200 1.82900 29.11400
H  36.55200 0.66900 25.09400
H  34.09800 2.28600 24.91100
H  37.39500 3.39400 25.00700
H  36.17600 3.19900 23.66500
H  37.40700 2.05200 23.85200
H  34.39000 -0.62600 25.54700
H  34.75900 -0.12500 23.95000
H  31.99100 -0.38500 24.82100
H  32.79600 -0.32400 23.16200
H  32.35400 1.10900 23.90200
H  29.66900 3.71900 28.22800
H  29.20100 2.40400 29.01700
H  30.11600 2.21100 27.48600
H  31.76500 2.43900 33.76200
H  31.18800 6.71800 34.62300
H  32.33800 5.87500 35.69800
H  30.57700 5.77900 36.11700

