158

Mg 8.83700 3.12400 27.05100
C  10.30400 1.67700 30.00700
C  7.02200 5.18500 29.26000
C  7.22200 4.27400 24.32000
C  10.34400 0.66100 25.15800
N  8.49800 3.26000 29.45300
C  9.37700 2.64300 30.38000
C  9.03300 3.29000 31.78300
C  7.90000 4.33600 31.46200
C  7.83100 4.26800 29.96400
C  6.51500 4.39000 32.20500
C  10.39700 3.87000 32.44100
C  10.24600 4.92400 33.49400
H  11.19200 4.78900 34.66300
N  7.33100 4.54100 26.76500
C  6.76600 5.29200 27.81000
C  5.84900 6.18900 27.16800
C  5.93700 6.02300 25.76300
C  6.82300 4.88900 25.53600
C  4.99500 7.22000 27.91400
C  5.43000 6.86200 24.53900
O  5.75900 6.68000 23.35600
C  4.51000 8.03000 24.87000
N  8.89300 2.66900 24.91900
C  8.15600 3.25700 24.05100
C  8.31200 2.60700 22.63500
C  9.38300 1.43400 22.93300
C  9.52500 1.56900 24.42200
C  7.00300 2.02800 22.04500
C  10.79300 1.60400 22.29300
C  11.53200 0.32400 21.85900
N  10.19900 1.63100 27.37800
C  10.74200 0.73700 26.50500
C  11.82700 0.03000 27.16000
C  11.64500 0.32800 28.53800
C  10.63000 1.27000 28.63300
C  12.67300 -1.10400 26.57300
C  12.14600 0.09400 29.92700
O  12.93500 -0.71400 30.22600
C  11.35800 1.00000 30.94600
C  10.89600 0.17100 32.07800
O  10.00400 -0.66400 32.08200
O  11.66300 0.45400 33.19100
C  11.53100 -0.26400 34.40700
H  6.60300 5.99700 29.85800
H  6.75400 4.60600 23.39100
H  10.77800 -0.15900 24.58200
H  8.64500 2.42400 32.31900
H  8.28500 5.33100 31.68200
H  6.25600 3.49300 32.76800
H  5.65900 4.64700 31.58200
H  6.56000 5.13100 33.00300
H  10.81700 4.32000 31.54200
H  10.92000 2.99400 32.82600
H  9.22400 4.88900 33.87000
H  10.32200 5.93300 33.08800
H  5.16900 8.23200 27.54600
H  5.09400 7.25900 28.99900
H  3.99400 6.93800 27.58900
H  5.18700 8.79600 25.24700
H  3.77200 7.78300 25.63400
H  3.91200 8.37500 24.02700
H  8.74200 3.32800 21.94000
H  8.88300 0.50000 22.67700
H  7.00600 0.94600 22.17500
H  6.89000 2.35000 21.01000
H  6.18300 2.50800 22.58000
H  11.44700 2.13100 22.98900
H  10.70700 2.20600 21.38800
H  12.00200 0.66500 20.93600
H  10.76700 -0.44500 21.74600
H  12.28600 0.08500 22.60800
H  12.99000 -0.87100 25.55600
H  12.13200 -2.05000 26.58200
H  13.57300 -1.15500 27.18600
H  12.12100 1.70100 31.28500
H  11.06700 -1.24000 34.26300
H  11.08500 0.19600 35.28900
H  12.56100 -0.43200 34.72200
Mg 25.07400 -7.46100 47.82400
C  26.79500 -4.95500 46.10900
C  22.49800 -7.18300 45.63800
C  23.70500 -10.10000 49.40800
C  28.14500 -8.15500 49.49900
N  24.75600 -6.04900 46.13000
C  25.60100 -5.17700 45.47900
C  24.93000 -4.45600 44.33200
C  23.59700 -5.29100 44.16800
C  23.51500 -6.18800 45.47200
C  22.30100 -4.43600 43.75200
C  25.89100 -4.21400 43.11400
C  26.12600 -2.72800 42.79800
H  25.54400 -2.39500 41.48100
N  23.29900 -8.47100 47.57500
C  22.39000 -8.21000 46.62200
C  21.30100 -9.12100 46.81100
C  21.59800 -9.91200 47.90900
C  22.88600 -9.47600 48.41600
C  20.05400 -9.17500 45.87600
C  20.69500 -10.93300 48.40700
O  19.59900 -11.10800 47.87200
C  21.00000 -11.61000 49.75400
N  25.79300 -8.89600 49.35100
C  25.01000 -9.84700 49.81800
C  25.79000 -10.87600 50.74500
C  27.27000 -10.36800 50.53200
C  27.03500 -9.06400 49.76900
C  25.47500 -10.60500 52.22500
C  28.21400 -11.29900 49.66500
C  29.64100 -11.48500 50.17100
N  27.05200 -6.73300 47.82000
C  28.13400 -7.05000 48.62700
C  29.26800 -6.13900 48.30500
C  28.77700 -5.26600 47.34300
C  27.43400 -5.68800 47.03800
C  30.55800 -6.12700 48.96500
C  29.10900 -4.07900 46.64400
O  30.12900 -3.35800 46.58400
C  27.86700 -3.86300 45.75300
C  27.46600 -2.49900 46.32200
O  26.66100 -2.45200 47.23700
O  28.08600 -1.49200 45.76600
C  27.55300 -0.11500 46.02900
H  21.75300 -7.11000 44.84200
H  23.40500 -10.97900 49.98100
H  29.07800 -8.25400 50.05700
H  24.56900 -3.50000 44.71000
H  23.85300 -5.93800 43.32900
H  21.47200 -4.96200 44.22400
H  22.26900 -4.36300 42.66500
H  22.38500 -3.46000 44.22800
H  25.46700 -4.70500 42.23800
H  26.86700 -4.68700 43.22300
H  27.17800 -2.47300 42.91900
H  25.65200 -2.04300 43.50200
H  19.29700 -8.82700 46.57900
H  19.87400 -10.20100 45.55500
H  20.07900 -8.41900 45.09200
H  21.68500 -12.43200 49.54800
H  20.06500 -12.02900 50.12800
H  21.36800 -10.89800 50.49300
H  25.50800 -11.89000 50.46300
H  27.73100 -10.14300 51.49400
H  26.12300 -9.84400 52.66000
H  25.47600 -11.55200 52.76400
H  24.50900 -10.13400 52.41100
H  28.30100 -10.86100 48.67100
H  27.73500 -12.27200 49.55000
H  29.95700 -12.49900 50.41600
H  29.77900 -11.05500 51.16300
H  30.38200 -11.10000 49.47000
H  30.45500 -5.96500 50.03800
H  31.28600 -5.48100 48.47500
H  31.01000 -7.08700 48.71800
H  28.15500 -3.62700 44.72900
H  26.47800 -0.15000 46.20700
H  27.67300 0.35100 45.05100
H  28.01600 0.40800 46.86500

