158

Mg 47.91400 25.63600 27.98000
C  48.82200 27.51600 30.64200
C  47.39700 22.93700 30.20900
C  47.56000 23.43200 25.31000
C  49.18100 27.90000 25.76600
N  48.05000 25.29400 30.17200
C  48.27500 26.32600 31.06200
C  48.01000 25.90500 32.52500
C  47.60900 24.40000 32.44000
C  47.70700 24.15300 30.89000
C  48.43700 23.45000 33.36400
C  47.14700 26.94200 33.29500
C  46.27700 26.40100 34.48600
H  46.11600 27.32200 35.73400
N  47.43400 23.50900 27.80400
C  47.24700 22.64500 28.81600
C  47.03900 21.32500 28.24500
C  46.97100 21.40900 26.90100
C  47.36200 22.80300 26.61100
C  46.80200 20.17000 29.10400
C  46.58900 20.40400 25.86100
O  46.84100 20.58500 24.68400
C  45.94700 19.12500 26.34500
N  48.47900 25.59400 25.86700
C  48.02400 24.66500 24.92100
C  47.99200 25.10800 23.51400
C  48.56900 26.52800 23.64100
C  48.77900 26.69500 25.23000
C  48.67400 24.22500 22.48700
C  47.77400 27.65400 22.96900
C  47.39200 27.47900 21.45100
N  48.82100 27.33200 28.13200
C  49.22700 28.27800 27.13500
C  49.70800 29.43000 27.76600
C  49.54000 29.23800 29.08100
C  49.04800 27.90600 29.32800
C  50.24800 30.66700 27.03200
C  49.70600 29.86900 30.36700
O  50.20800 30.92800 30.71900
C  49.16500 28.78800 31.44800
C  50.24900 28.46800 32.46200
O  50.97800 27.47700 32.61600
O  50.15200 29.47900 33.42300
C  50.99900 29.39300 34.57300
H  47.19400 22.15600 30.94400
H  47.31100 22.81700 24.44200
H  49.46000 28.64000 25.01300
H  48.94500 26.09100 33.05400
H  46.56800 24.22400 32.71200
H  47.81900 22.97200 34.12500
H  49.17000 24.06200 33.89000
H  48.97500 22.64000 32.87100
H  46.53200 27.50100 32.59000
H  47.90000 27.55800 33.78700
H  46.83000 25.55600 34.89600
H  45.27700 26.30300 34.06300
H  46.84100 20.46700 30.15200
H  47.50300 19.36000 28.89800
H  45.81600 19.75200 28.90200
H  45.02400 19.29900 26.89900
H  46.65300 18.56900 26.96200
H  45.62300 18.60200 25.44600
H  46.91800 25.03700 23.34300
H  49.55800 26.66200 23.20400
H  48.84700 23.25200 22.94700
H  49.59400 24.70600 22.15400
H  48.04600 24.05900 21.61200
H  48.36500 28.56500 23.05600
H  46.89100 27.68800 23.60700
H  46.38100 27.08500 21.34100
H  48.11900 26.83200 20.95900
H  47.27100 28.43000 20.93200
H  49.96300 30.58200 25.98300
H  51.31100 30.79300 27.23600
H  49.69400 31.49200 27.47900
H  48.41900 29.36100 31.99800
H  50.50400 28.69700 35.25000
H  51.17700 30.37500 35.01200
H  51.84100 28.82600 34.17600
Mg 41.87300 40.87800 26.66300
C  40.99400 43.34900 28.88900
C  42.84100 38.92600 29.27800
C  43.14700 38.68600 24.34700
C  41.62200 43.23800 24.02700
N  42.00600 41.16200 28.89200
C  41.47700 42.21900 29.57300
C  41.32600 41.86100 31.09000
C  42.20300 40.54400 31.18200
C  42.32800 40.14200 29.70500
C  43.52500 40.69300 31.87600
C  39.90100 41.72700 31.53300
C  39.68700 42.53800 32.84700
H  39.22600 41.80200 34.13100
N  42.88000 38.96900 26.76400
C  43.14300 38.34400 27.95300
C  43.74500 37.02600 27.64600
C  43.79600 36.95800 26.24600
C  43.31700 38.21100 25.68900
C  44.23000 36.12900 28.74600
C  44.20800 35.82400 25.42500
O  44.17900 35.79900 24.18500
C  44.66000 34.61300 26.12500
N  42.33900 41.01500 24.50500
C  42.78700 39.92100 23.76200
C  42.77500 40.18400 22.22900
C  42.35000 41.66700 22.18900
C  41.99800 41.96900 23.69400
C  44.16400 39.91900 21.48900
C  41.16600 41.95100 21.27800
C  41.47500 42.80300 20.03300
N  41.34400 42.82300 26.49700
C  41.22900 43.67000 25.34200
C  40.63600 44.94500 25.77800
C  40.52800 44.84300 27.19600
C  41.04700 43.60200 27.55400
C  40.39200 46.10600 24.84700
C  40.17400 45.58400 28.38900
O  39.68200 46.70700 28.44800
C  40.40900 44.60000 29.54500
C  41.41500 45.22200 30.49900
O  42.60900 45.49100 30.29500
O  40.88000 45.42600 31.67600
C  41.73000 45.90300 32.77500
H  42.99700 38.18800 30.06800
H  43.47200 37.89500 23.66700
H  41.40800 43.95000 23.22800
H  41.80900 42.67400 31.63100
H  41.73200 39.69800 31.68400
H  43.29700 41.15900 32.83400
H  44.26100 41.28100 31.32600
H  44.05000 39.74700 32.00700
H  39.52000 40.71500 31.66900
H  39.41500 42.16000 30.65900
H  38.74300 43.07000 32.72500
H  40.52400 43.14800 33.18600
H  43.83500 35.11500 28.68500
H  43.98600 36.44300 29.76100
H  45.30500 35.95300 28.71200
H  43.77800 34.24100 26.64700
H  45.52300 35.04500 26.63100
H  45.10800 33.91500 25.41800
H  42.04300 39.51300 21.77800
H  43.27700 42.17600 21.92600
H  43.98400 39.07700 20.82000
H  44.91400 39.52100 22.17100
H  44.48300 40.81800 20.96100
H  40.30700 42.42700 21.75200
H  40.75500 41.04500 20.83100
H  42.53000 43.06100 19.94200
H  40.87200 43.71000 19.99100
H  41.24200 42.19400 19.16000
H  39.33600 46.06600 24.58100
H  41.04200 46.02700 23.97500
H  40.66500 47.06500 25.28700
H  39.49500 44.36900 30.09200
H  41.26200 45.51900 33.68100
H  41.79600 46.98700 32.87400
H  42.73900 45.49800 32.69000

