158

Mg 1.35500 7.63200 25.95200
C  1.92700 9.55500 28.84900
C  1.32600 4.78100 27.96000
C  1.28300 5.79400 23.16600
C  1.53600 10.49000 24.11900
N  1.89100 7.18400 28.14900
C  1.87800 8.21500 29.11200
C  1.60200 7.53300 30.47700
C  1.70300 6.03400 30.19500
C  1.65100 5.97300 28.69500
C  3.01500 5.24200 30.72500
C  0.33000 8.00300 31.15700
C  0.32800 8.16800 32.75300
H  1.58100 7.74700 33.52000
N  1.41300 5.52600 25.61800
C  1.33600 4.53300 26.57700
C  0.91500 3.30000 25.93500
C  0.87300 3.55300 24.59900
C  1.19100 4.99500 24.35500
C  0.58700 2.03000 26.72000
C  0.52500 2.61800 23.45200
O  0.43500 3.06100 22.34000
C  0.10600 1.13500 23.71800
N  1.56600 8.03400 23.91200
C  1.44500 7.16400 22.92000
C  1.30100 7.85700 21.51500
C  1.28400 9.30100 21.89100
C  1.43700 9.31100 23.45900
C  2.42900 7.43200 20.47000
C  0.04900 10.09700 21.38000
C  0.52700 10.76100 20.13100
N  1.66700 9.61800 26.39400
C  1.79500 10.66000 25.47400
C  2.13400 11.92700 26.17200
C  2.17400 11.51500 27.48000
C  1.88600 10.16700 27.60100
C  2.29800 13.28600 25.55800
C  2.43400 12.06800 28.85000
O  2.82600 13.18600 29.29300
C  2.13500 10.81000 29.74200
C  3.14900 10.71400 30.83700
O  4.27600 10.19200 30.72900
O  2.65800 11.29400 31.99200
C  3.57300 11.82000 32.96100
H  1.22400 3.90100 28.59900
H  1.07400 5.25100 22.24200
H  1.38700 11.40900 23.54900
H  2.50800 7.81200 31.01500
H  0.80700 5.54900 30.58200
H  3.59500 5.76900 31.48200
H  3.69000 4.97700 29.91100
H  2.72500 4.23400 31.02100
H  -0.51300 7.32600 31.02300
H  0.19700 8.99700 30.72900
H  -0.54200 7.71900 33.23000
H  0.20200 9.22900 32.97100
H  -0.21900 1.47300 26.24300
H  0.28000 2.28600 27.73400
H  1.51400 1.46600 26.82500
H  0.69700 0.71200 24.53100
H  0.35800 0.60700 22.79800
H  -0.92600 1.10200 24.06700
H  0.31400 7.59800 21.13100
H  2.20300 9.78000 21.55700
H  3.03900 8.31400 20.27500
H  2.02700 7.22900 19.47700
H  3.03400 6.59900 20.82700
H  -0.35700 10.84800 22.05800
H  -0.76500 9.43000 21.09700
H  0.79700 10.06400 19.33800
H  1.34800 11.44600 20.34600
H  -0.28100 11.32900 19.67200
H  2.46100 14.08700 26.27900
H  1.33800 13.46000 25.07200
H  3.11100 13.37600 24.83700
H  1.23400 11.04300 30.31000
H  4.29200 12.27900 32.28200
H  4.03700 11.04800 33.57500
H  3.12800 12.57500 33.60900
Mg -5.74600 25.47000 25.39600
C  -3.97100 26.78200 28.13500
C  -7.01400 23.12500 27.54700
C  -7.00200 23.94100 22.70200
C  -3.90300 27.71900 23.35200
N  -5.52600 25.02200 27.63400
C  -4.83800 25.79800 28.51400
C  -5.23900 25.35500 29.92600
C  -6.10600 24.05700 29.75000
C  -6.21600 24.01400 28.21100
C  -5.44900 22.72600 30.33400
C  -6.04300 26.42000 30.84800
C  -6.95300 25.92000 32.02300
H  -6.34600 24.86200 32.91200
N  -6.83200 23.72600 25.16300
C  -7.31300 22.94800 26.16700
C  -8.14800 21.92000 25.54100
C  -8.17900 22.13800 24.11400
C  -7.33800 23.32600 23.93200
C  -8.72700 20.71700 26.28500
C  -8.89400 21.36100 23.02100
O  -8.85400 21.69300 21.83400
C  -9.72000 20.06000 23.33500
N  -5.60900 25.95100 23.29200
C  -6.21200 25.12600 22.36900
C  -5.81400 25.62100 21.01600
C  -4.94900 26.90200 21.24400
C  -4.84000 26.89000 22.72800
C  -5.04300 24.56900 20.17200
C  -5.45900 28.21600 20.50900
C  -5.94800 29.40600 21.31900
N  -4.30800 27.04300 25.57600
C  -3.67000 27.87400 24.66400
C  -2.80600 28.75100 25.34500
C  -2.87300 28.31400 26.68800
C  -3.81600 27.27600 26.80100
C  -1.91300 29.71900 24.77400
C  -2.32800 28.61500 27.99900
O  -1.59000 29.50200 28.38000
C  -3.10900 27.66200 28.99500
C  -2.06300 26.92400 29.78100
O  -1.15600 26.20200 29.35700
O  -2.20200 27.35700 31.10600
C  -1.15300 26.85900 32.05300
H  -7.59400 22.45500 28.18500
H  -7.15900 23.37900 21.77900
H  -3.34200 28.37400 22.68200
H  -4.23300 25.16800 30.30200
H  -7.13200 24.03600 30.11900
H  -4.57600 22.89600 30.96400
H  -5.23500 22.04600 29.50900
H  -6.14500 22.16300 30.95600
H  -6.44400 27.16400 30.16000
H  -5.25900 26.90300 31.43200
H  -7.86200 25.49600 31.59700
H  -7.23500 26.80800 32.59000
H  -9.75800 20.70700 25.92900
H  -8.80700 20.88300 27.35900
H  -8.18600 19.84300 25.92100
H  -8.88600 19.59900 23.86400
H  -10.00300 19.47300 22.46100
H  -10.55500 20.33600 23.97800
H  -6.73600 25.94100 20.53100
H  -3.94700 26.73500 20.84700
H  -4.51100 23.90000 20.84800
H  -4.38200 25.01100 19.42600
H  -5.81000 24.01100 19.63600
H  -6.20300 27.87100 19.79000
H  -4.66700 28.60300 19.86900
H  -6.62700 29.89700 20.62200
H  -5.09400 30.04400 21.54800
H  -6.48400 29.07800 22.21000
H  -1.59600 29.52500 23.74900
H  -1.01100 29.76200 25.38500
H  -2.40900 30.68200 24.89800
H  -3.71200 28.19700 29.72800
H  -1.60400 26.79900 33.04300
H  -0.33200 27.56700 32.16300
H  -0.81500 25.85400 31.80000

