158

Mg -1.70800 16.96500 26.28600
C  -2.23200 15.01800 29.08000
C  -1.95700 19.76100 28.16200
C  -1.87400 18.78500 23.31200
C  -1.89700 14.07300 24.23500
N  -2.21000 17.26700 28.35200
C  -2.34900 16.36100 29.33300
C  -2.70800 17.05200 30.74200
C  -2.50400 18.61600 30.36500
C  -2.16000 18.53100 28.85700
C  -3.71600 19.54400 30.69300
C  -1.75300 16.50700 31.87200
C  -1.49400 17.39100 33.11600
H  -1.25500 16.58100 34.42500
N  -1.73500 18.97600 25.80300
C  -1.97800 19.98500 26.70000
C  -2.18600 21.24600 25.99600
C  -2.19000 20.95300 24.60100
C  -1.86300 19.54500 24.51700
C  -2.41900 22.55800 26.66400
C  -2.54600 21.87600 23.47900
O  -2.52800 21.53200 22.30500
C  -3.17900 23.18300 23.75700
N  -1.75000 16.43600 24.02700
C  -1.85100 17.42500 23.05200
C  -1.84300 16.75700 21.64900
C  -1.69900 15.21600 21.90100
C  -1.81600 15.17800 23.44800
C  -3.02300 17.21600 20.74000
C  -0.53500 14.36700 21.28800
C  0.89800 14.74000 21.79700
N  -1.99300 15.00200 26.53600
C  -2.03200 14.00400 25.63600
C  -2.07100 12.74800 26.36600
C  -2.15000 13.06900 27.68600
C  -2.10700 14.49700 27.77100
C  -2.06700 11.34300 25.80000
C  -2.19600 12.52900 28.99900
O  -2.20800 11.36200 29.37600
C  -2.32000 13.76600 30.02900
C  -1.25100 13.56800 31.01300
O  -0.05000 13.70300 30.81100
O  -1.77000 13.02300 32.15600
C  -0.79600 12.73100 33.13300
H  -1.96800 20.62700 28.82700
H  -1.94300 19.34200 22.37600
H  -1.86800 13.17300 23.61800
H  -3.75500 16.86500 30.97900
H  -1.58600 19.02800 30.78500
H  -3.26600 20.38600 31.21900
H  -4.37500 19.08500 31.43100
H  -4.30800 19.88000 29.84200
H  -0.83600 16.23700 31.34700
H  -2.18900 15.61200 32.31600
H  -2.31500 18.08100 33.30900
H  -0.61100 18.00200 32.92300
H  -1.53300 23.17300 26.50600
H  -2.60000 22.37700 27.72400
H  -3.32100 23.06700 26.32400
H  -4.11500 22.99900 24.28500
H  -3.30300 23.65900 22.78500
H  -2.58900 23.86900 24.36500
H  -0.85300 16.92300 21.22500
H  -2.55400 14.69800 21.46800
H  -3.52100 17.84000 21.48200
H  -3.73000 16.45700 20.40400
H  -2.76400 17.89100 19.92500
H  -0.54100 14.81600 20.29400
H  -0.72300 13.29300 21.28500
H  1.52200 15.22600 21.04700
H  1.39000 13.93000 22.33500
H  0.95000 15.51600 22.56100
H  -1.61900 10.74700 26.59500
H  -1.56500 11.31100 24.83300
H  -3.09600 11.03600 25.61600
H  -3.21000 13.82600 30.65500
H  -0.33000 13.68700 33.37400
H  -0.00700 12.06400 32.78400
H  -1.19300 12.28300 34.04400
Mg 7.56500 53.70200 41.59600
C  7.02900 50.22500 41.51400
C  10.77400 53.18300 40.49900
C  7.79800 57.01900 41.04900
C  4.35000 53.98000 42.72700
N  8.65500 51.89700 40.99200
C  8.29400 50.58300 40.95700
C  9.48300 49.63900 40.73000
C  10.64500 50.64300 40.81100
C  10.00200 52.03600 40.80800
C  11.60400 50.43700 42.00100
C  9.46100 49.00300 39.32700
C  9.08900 49.88100 38.16100
H  7.84300 49.39700 37.36300
N  9.01400 54.93100 40.66900
C  10.33700 54.52000 40.40100
C  11.13400 55.64200 40.09600
C  10.36800 56.82300 40.42100
C  8.99300 56.31400 40.70000
C  12.51100 55.58200 39.63800
C  10.91700 58.26300 40.37700
O  12.06900 58.49200 40.06600
C  9.97900 59.36900 40.55500
N  6.19400 55.21600 41.63200
C  6.45800 56.56100 41.41500
C  5.35600 57.43600 41.93200
C  4.17900 56.44000 42.08400
C  4.97700 55.11800 42.23800
C  5.78100 58.06800 43.22600
C  3.24800 56.47700 40.84900
C  1.98900 57.19900 41.10000
N  6.04900 52.40800 42.23400
C  4.77400 52.66000 42.70900
C  4.08100 51.42200 43.01300
C  4.92600 50.43400 42.65400
C  6.07200 51.08700 42.03200
C  2.75300 51.35000 43.68200
C  5.15900 49.02100 42.59500
O  4.42500 48.07200 42.89900
C  6.41200 48.89900 41.64500
C  6.07300 48.24500 40.36100
O  5.51000 48.75700 39.43000
O  6.48600 46.97300 40.50100
C  6.28500 46.10300 39.39700
H  11.84500 53.16000 40.28700
H  7.72500 58.10800 41.06200
H  3.30800 54.04900 43.04800
H  9.39800 48.81000 41.43200
H  11.30300 50.66100 39.94200
H  11.75500 51.36500 42.55200
H  12.52600 50.20900 41.46400
H  11.23900 49.54300 42.50700
H  8.75700 48.17000 39.34500
H  10.44000 48.57700 39.10700
H  9.94900 49.74600 37.50500
H  8.88400 50.92900 38.38400
H  12.64100 55.85300 38.59100
H  12.92200 54.57200 39.64900
H  13.18000 56.10900 40.31800
H  9.08400 59.30500 39.93600
H  10.56000 60.25000 40.28500
H  9.65000 59.32400 41.59400
H  5.27500 58.22900 41.18900
H  3.58400 56.58700 42.98500
H  5.54700 59.13200 43.18400
H  6.83500 57.83600 43.37700
H  5.19800 57.67000 44.05700
H  3.08700 55.49800 40.39700
H  3.73600 57.01500 40.03700
H  1.99300 57.65900 42.08800
H  1.21200 56.45300 40.93500
H  1.95800 58.02500 40.38900
H  2.50900 52.10000 44.43500
H  2.66800 50.33700 44.07500
H  1.92600 51.47700 42.98300
H  7.09800 48.20800 42.13500
H  6.64500 46.52700 38.46000
H  5.26100 45.91500 39.07400
H  6.82500 45.18400 39.62600

