158

Mg 47.11600 24.72200 28.82600
C  47.86300 27.32600 31.00000
C  45.81900 22.98500 31.60100
C  46.60000 22.14700 26.77800
C  48.93600 26.37000 26.26800
N  46.82100 25.09000 31.01200
C  47.15900 26.29600 31.62600
C  46.66500 26.27500 33.07700
C  46.58900 24.73300 33.30700
C  46.44600 24.18300 31.91900
C  47.76700 24.02000 33.91400
C  45.30300 26.94900 33.34400
C  45.37400 27.97400 34.56900
H  45.82800 27.61900 36.03800
N  46.29200 22.82300 29.12100
C  45.73700 22.31100 30.26600
C  45.09100 21.02800 29.92700
C  45.25000 20.83900 28.52800
C  46.11200 21.95500 28.07200
C  44.43600 20.20000 30.94400
C  44.71700 19.72000 27.58000
O  45.05500 19.61200 26.42300
C  43.93100 18.69100 28.21100
N  47.85900 24.26700 26.81600
C  47.37100 23.12800 26.19500
C  47.93800 23.05100 24.73200
C  48.56900 24.44200 24.50100
C  48.48000 25.13800 25.92100
C  48.91500 21.90700 24.34200
C  47.84900 25.37500 23.40000
C  48.77900 26.04400 22.37500
N  48.16800 26.49100 28.64000
C  48.76300 27.02800 27.51100
C  49.31800 28.38800 27.89000
C  48.97500 28.49100 29.26500
C  48.25300 27.35100 29.65100
C  49.92300 29.40000 26.94400
C  49.16400 29.35500 30.43300
O  49.77700 30.38000 30.60700
C  48.43600 28.55700 31.60700
C  49.43000 28.29500 32.69900
O  50.39800 27.55300 32.80800
O  48.97600 29.04200 33.75700
C  49.64800 28.91000 35.09100
H  45.27200 22.52600 32.42700
H  46.55800 21.33200 26.05200
H  49.45300 26.95800 25.50600
H  47.45600 26.66300 33.71900
H  45.80200 24.38600 33.97700
H  47.80700 22.96100 33.65700
H  47.75400 24.08400 35.00200
H  48.72400 24.39600 33.55400
H  44.60800 26.16500 33.64600
H  44.98200 27.54700 32.49100
H  44.35300 28.33800 34.68900
H  46.03100 28.75400 34.18500
H  44.06900 20.77500 31.79400
H  45.18800 19.57700 31.42900
H  43.62800 19.62400 30.49200
H  43.00300 19.14200 28.56400
H  44.51300 18.29100 29.04100
H  43.75200 17.95800 27.42500
H  47.12200 22.88400 24.02900
H  49.60700 24.48300 24.17100
H  49.58100 22.27300 23.56100
H  48.31500 21.05200 24.03100
H  49.49500 21.62300 25.22000
H  47.37000 26.19500 23.93500
H  47.00100 24.85100 22.95900
H  48.98500 27.07700 22.65600
H  48.37700 25.97200 21.36400
H  49.76500 25.58200 22.33100
H  49.46900 30.35900 27.19300
H  49.67200 29.19100 25.90400
H  51.00500 29.46700 27.05400
H  47.65600 29.27200 31.86800
H  48.83000 28.60000 35.74100
H  49.99600 29.87400 35.46100
H  50.47000 28.19600 35.15100
Mg 16.63600 52.07400 26.71000
C  18.61500 50.55400 28.99800
C  14.46300 53.10600 29.23700
C  14.63300 53.61400 24.39200
C  18.70900 51.04600 24.13900
N  16.57300 51.79100 28.89200
C  17.55600 51.15400 29.57800
C  17.24100 51.27900 31.04500
C  15.74300 51.85000 31.09400
C  15.57700 52.28400 29.63400
C  14.64000 50.83100 31.44100
C  18.40200 51.99900 31.73400
C  18.11000 52.53400 33.13600
H  17.35100 51.61200 34.10500
N  14.77700 53.17600 26.83800
C  14.08900 53.44700 27.93100
C  12.94900 54.34700 27.54900
C  12.94700 54.43600 26.16500
C  14.16400 53.73000 25.72500
C  12.09900 54.93300 28.70800
C  11.89700 55.22200 25.28800
O  11.97100 55.35600 24.04900
C  10.82600 56.05700 25.90100
N  16.62000 52.25600 24.59200
C  15.80700 53.09900 23.86200
C  16.07600 53.10700 22.34200
C  17.48100 52.42400 22.28200
C  17.61900 51.81000 23.70900
C  15.11300 52.46900 21.36100
C  18.65300 53.45300 22.10900
C  19.59800 53.21400 20.95800
N  18.35400 50.93700 26.53900
C  19.07100 50.62300 25.41500
C  20.24900 49.87200 25.86300
C  20.07100 49.75200 27.26200
C  18.95200 50.52300 27.65200
C  21.36900 49.30100 24.90900
C  20.58500 49.14800 28.51100
O  21.52500 48.40000 28.74200
C  19.69500 49.74600 29.68300
C  19.17600 48.70200 30.68200
O  18.29200 47.93800 30.49100
O  20.09500 48.74700 31.70600
C  19.71500 47.84600 32.76600
H  13.95900 53.36200 30.17100
H  14.00600 54.12300 23.65700
H  19.52900 50.80600 23.45800
H  17.22900 50.24900 31.40200
H  15.59000 52.83700 31.53000
H  15.02900 50.02300 32.06000
H  14.22500 50.38800 30.53600
H  13.81200 51.33600 31.93900
H  18.80000 52.83900 31.16300
H  19.19800 51.27000 31.88700
H  17.60500 53.49100 33.00100
H  19.04600 52.66800 33.67700
H  11.16400 54.38100 28.80100
H  11.85600 55.97100 28.47900
H  12.64900 54.90800 29.64900
H  10.09600 56.48400 25.21300
H  11.39500 56.83800 26.40500
H  10.38300 55.37300 26.62500
H  16.09000 54.15500 22.04300
H  17.37400 51.59800 21.57900
H  14.43000 51.81500 21.90200
H  15.61800 51.85800 20.61300
H  14.70200 53.34100 20.85200
H  19.25000 53.34800 23.01500
H  18.41600 54.51000 21.98700
H  19.46800 53.98300 20.19700
H  19.34400 52.31900 20.39000
H  20.61900 53.18200 21.33900
H  22.18900 49.87900 25.33300
H  21.34200 49.65400 23.87800
H  21.55300 48.22700 24.94800
H  20.35900 50.46100 30.16800
H  18.65300 47.95800 32.98600
H  20.25000 48.20200 33.64700
H  19.77800 46.79100 32.49800

