158

Mg -1.52300 17.39000 25.99700
C  -1.88400 15.05400 28.68200
C  -2.74000 19.81300 28.24300
C  -2.06100 19.30400 23.41600
C  -1.34000 14.62800 23.71200
N  -2.34800 17.39300 28.19900
C  -2.27800 16.29600 29.09300
C  -2.65500 16.77200 30.53500
C  -3.10500 18.24100 30.22500
C  -2.71500 18.58300 28.80100
C  -4.63000 18.36600 30.46000
C  -1.41600 16.76500 31.59100
C  -1.61700 15.73800 32.79900
H  -2.22300 16.27600 34.10900
N  -2.01000 19.37500 25.92400
C  -2.50700 20.15600 26.89100
C  -2.50200 21.54800 26.22700
C  -2.22700 21.33100 24.85500
C  -2.08300 19.96900 24.68600
C  -2.94500 22.82400 26.96800
C  -2.14300 22.37200 23.69700
O  -1.88300 22.11000 22.51600
C  -2.38600 23.81100 24.02300
N  -1.85300 16.94900 23.75800
C  -1.99600 18.00100 22.94800
C  -2.19000 17.55900 21.51400
C  -1.71100 16.07300 21.60100
C  -1.64400 15.82800 23.13200
C  -3.65000 17.62600 21.00500
C  -0.21900 15.76900 21.10100
C  0.98300 16.31100 21.87300
N  -1.51200 15.22600 26.16100
C  -1.42400 14.27300 25.14100
C  -1.59500 12.97300 25.76500
C  -1.53600 13.25200 27.14300
C  -1.64800 14.64600 27.34200
C  -1.39700 11.71500 24.99400
C  -1.55100 12.60400 28.44600
O  -1.48200 11.44600 28.71400
C  -1.72600 13.77000 29.48700
C  -0.44800 13.86900 30.27800
O  0.51600 14.52900 29.97700
O  -0.49500 13.10000 31.41700
C  0.79900 12.99400 32.16900
H  -2.96900 20.60100 28.96300
H  -2.25800 19.89200 22.51800
H  -1.19400 13.86700 22.94200
H  -3.40000 15.99800 30.72300
H  -2.55200 18.97100 30.81600
H  -5.08000 17.37800 30.55900
H  -5.13400 18.96100 29.69800
H  -4.68000 18.81700 31.45100
H  -1.40000 17.69400 32.16100
H  -0.44800 16.67500 31.09900
H  -0.64300 15.31500 33.04400
H  -2.31800 14.98900 32.43000
H  -3.44700 22.47700 27.87200
H  -3.71000 23.46800 26.53400
H  -2.16700 23.51300 27.29800
H  -1.63200 24.03500 24.77800
H  -3.40400 23.95800 24.38300
H  -2.30600 24.42700 23.12700
H  -1.52900 18.17400 20.90500
H  -2.45900 15.37500 21.22500
H  -4.31300 17.84400 21.84200
H  -4.03700 16.68100 20.62300
H  -3.63100 18.36800 20.20800
H  -0.07900 16.29700 20.15800
H  -0.13200 14.68400 21.04800
H  0.72300 17.19900 22.44900
H  1.77900 16.56000 21.17100
H  1.36100 15.49100 22.48300
H  -1.13300 11.82100 23.94200
H  -2.37400 11.23400 25.04400
H  -0.76600 11.06600 25.60000
H  -2.54400 13.54900 30.17200
H  0.85300 11.94700 32.46600
H  0.79500 13.60100 33.07400
H  1.69300 13.19500 31.57800
Mg 41.39300 7.60300 29.16400
C  43.08600 9.08800 31.79700
C  39.22300 6.10900 31.39500
C  39.98700 5.94200 26.52300
C  44.06100 8.52700 27.06100
N  41.23700 7.59200 31.30100
C  41.86400 8.46900 32.19100
C  41.21600 8.53200 33.55200
C  40.18200 7.30300 33.40300
C  40.25200 6.90100 31.95800
C  40.60600 6.03400 34.30600
C  40.60100 9.93800 33.86300
C  40.18900 10.16300 35.32200
H  40.92400 11.04800 36.23500
N  39.67200 6.36600 28.98900
C  38.96000 5.90300 30.00900
C  37.84900 5.13000 29.48000
C  37.94900 5.14800 28.01100
C  39.24800 5.76100 27.74600
C  36.78900 4.53300 30.38400
C  37.00900 4.64900 26.91000
O  37.24200 4.70800 25.69400
C  35.68200 4.26300 27.29800
N  41.89400 7.29600 27.06300
C  41.16700 6.58200 26.19600
C  41.74700 6.71600 24.71600
C  42.93400 7.70500 24.92100
C  42.94100 7.91800 26.46000
C  42.08300 5.27100 24.24300
C  42.71500 9.03800 24.11900
C  41.68600 10.04300 24.60500
N  43.16700 8.57500 29.26500
C  44.19400 8.81000 28.34500
C  45.27700 9.61300 28.96200
C  44.90700 9.74700 30.30300
C  43.67900 9.04900 30.44700
C  46.51200 10.10800 28.33900
C  45.22700 10.34200 31.59300
O  46.14000 11.08000 31.86400
C  44.03400 9.87300 32.61200
C  44.64900 9.11800 33.71900
O  44.67000 7.89600 33.84500
O  45.04100 10.01900 34.71200
C  45.33800 9.39200 36.03400
H  38.69600 5.59800 32.20300
H  39.59700 5.51300 25.59700
H  44.75400 8.99500 26.35900
H  41.90600 8.24800 34.34700
H  39.16800 7.68900 33.50900
H  41.06900 6.26900 35.26500
H  41.27800 5.37700 33.75300
H  39.72800 5.46600 34.61300
H  39.70500 10.02800 33.24800
H  41.32200 10.74800 33.75000
H  40.22800 9.19000 35.81100
H  39.14300 10.46800 35.34600
H  37.03300 4.53900 31.44600
H  36.60000 3.47000 30.23500
H  35.91500 5.16300 30.22100
H  35.16300 5.12400 27.71900
H  35.58600 3.43000 27.99400
H  35.20900 3.96200 26.36300
H  40.90000 7.14400 24.18000
H  43.92900 7.27100 24.82200
H  41.60300 4.53300 24.88600
H  43.15600 5.14400 24.38700
H  41.96700 5.07100 23.17700
H  42.48000 8.78200 23.08600
H  43.69300 9.51200 24.03800
H  40.80300 9.94200 23.97400
H  42.09700 11.04400 24.47900
H  41.33400 10.00500 25.63700
H  46.17100 10.23000 27.31100
H  47.31900 9.37800 28.40600
H  46.64600 11.06900 28.83400
H  43.53700 10.74800 33.03200
H  46.15700 8.68800 35.89400
H  44.56300 8.80400 36.52700
H  45.70800 10.19300 36.67500

