158

Mg 0.36700 43.54100 25.89600
C  2.20900 43.43600 28.92700
C  -2.45900 42.78000 27.73800
C  -1.10100 42.80400 23.05500
C  3.36700 44.07100 24.29900
N  -0.10900 43.21200 28.13000
C  0.82000 43.31700 29.19000
C  0.06100 43.32900 30.54600
C  -1.44100 42.99200 30.10800
C  -1.40000 43.13000 28.53600
C  -1.76000 41.53800 30.45600
C  0.23500 44.71400 31.31700
C  0.93400 44.62700 32.66900
H  0.48800 43.45000 33.55200
N  -1.56200 42.98100 25.44900
C  -2.58500 42.70200 26.32900
C  -3.74400 42.51000 25.61000
C  -3.43100 42.44000 24.19100
C  -1.98800 42.75400 24.15300
C  -5.15800 42.37500 26.27700
C  -4.23500 42.05800 22.96800
O  -3.75800 41.94900 21.84000
C  -5.71000 41.83400 23.10900
N  1.12100 43.40700 23.93600
C  0.30900 43.07600 22.94100
C  1.03400 43.23600 21.61100
C  2.38400 43.95500 22.00600
C  2.31000 43.72300 23.48500
C  1.19500 41.99200 20.86500
C  2.39400 45.46100 21.70900
C  3.81000 46.11300 21.83100
N  2.38200 43.59100 26.40800
C  3.50000 43.92200 25.64100
C  4.68900 44.21100 26.49800
C  4.25600 43.88300 27.80600
C  2.82600 43.60600 27.68100
C  6.15400 44.62800 26.10900
C  4.71000 43.81500 29.15800
O  5.86100 43.93900 29.56800
C  3.36700 43.54100 30.00400
C  3.59300 42.39400 30.89200
O  3.31400 41.22900 30.63500
O  4.25500 42.81800 32.03200
C  4.53400 41.84800 33.14000
H  -3.42300 42.62700 28.22700
H  -1.44100 42.53800 22.05200
H  4.29100 44.34500 23.78400
H  0.50800 42.47200 31.05000
H  -2.15200 43.69600 30.54100
H  -0.86300 40.96400 30.68900
H  -2.35400 40.96900 29.74100
H  -2.24600 41.68600 31.42100
H  -0.75200 45.15400 31.45900
H  0.79000 45.42200 30.70200
H  0.53900 45.57800 33.02700
H  2.00500 44.70800 32.48300
H  -5.57200 43.33200 26.59600
H  -5.15400 41.75700 27.17400
H  -5.81900 41.95800 25.51700
H  -6.07000 42.79400 23.47900
H  -6.00500 40.98600 23.72700
H  -6.22700 41.70800 22.15700
H  0.51600 43.91000 20.92800
H  3.32900 43.48400 21.73400
H  2.06700 41.92400 20.21500
H  0.31500 41.99900 20.22200
H  1.19500 41.16000 21.56800
H  1.72700 46.03000 22.35700
H  2.05600 45.49400 20.67300
H  4.67100 45.47100 22.01600
H  3.75900 46.95100 22.52700
H  3.97400 46.54900 20.84500
H  6.09900 45.30200 25.25300
H  6.86300 43.83600 25.86800
H  6.51200 45.14900 26.99700
H  3.14000 44.43400 30.58600
H  5.57700 42.01600 33.40700
H  4.34200 40.80000 32.90800
H  3.90600 42.16800 33.97100
Mg -5.07000 25.30700 25.93000
C  -3.94100 26.79500 28.91500
C  -7.09800 23.22900 27.83800
C  -5.71000 23.70800 23.16100
C  -2.66000 27.24600 24.24600
N  -5.44000 25.00000 28.18600
C  -4.97300 25.83100 29.21000
C  -5.66000 25.39500 30.51800
C  -6.32900 24.02700 30.15900
C  -6.28800 24.04900 28.67500
C  -5.66100 22.79600 30.70400
C  -6.73600 26.38600 31.14000
C  -6.83300 26.40900 32.67700
H  -6.18800 25.32800 33.52500
N  -6.23600 23.62800 25.60600
C  -7.07600 22.98900 26.47100
C  -7.76400 21.96900 25.77700
C  -7.34000 22.01900 24.39100
C  -6.36100 23.11500 24.35500
C  -8.76800 21.11500 26.46200
C  -7.78000 21.13900 23.18200
O  -7.31700 21.42800 22.08900
C  -8.82200 20.06900 23.34600
N  -4.54300 25.70300 23.98100
C  -4.85500 24.79400 23.06000
C  -4.12100 25.00600 21.67800
C  -3.40300 26.29500 21.95900
C  -3.47700 26.40900 23.45000
C  -3.27900 23.78700 21.25100
C  -3.86300 27.59500 21.18100
C  -2.80200 28.09500 20.15700
N  -3.65100 26.82500 26.42900
C  -2.74800 27.49300 25.61000
C  -1.97100 28.47500 26.45300
C  -2.45700 28.24000 27.73400
C  -3.42000 27.24700 27.68200
C  -1.04200 29.56900 26.04800
C  -2.43300 28.64500 29.05400
O  -1.79000 29.65800 29.52000
C  -3.40500 27.75700 29.90600
C  -2.48800 27.06400 30.84900
O  -1.64900 26.21100 30.63900
O  -2.83300 27.50400 32.08200
C  -2.25600 26.83600 33.26000
H  -7.79400 22.55100 28.33700
H  -5.81700 23.13700 22.23600
H  -1.96600 27.87100 23.68000
H  -4.96000 25.29300 31.34600
H  -7.35000 23.94700 30.53100
H  -5.04300 22.24500 29.99500
H  -6.44700 22.11400 31.02700
H  -5.07000 22.99300 31.59900
H  -7.72600 26.17700 30.73400
H  -6.54900 27.37200 30.71400
H  -7.89600 26.37800 32.91600
H  -6.52000 27.41200 32.96600
H  -9.01200 21.28000 27.51200
H  -8.58000 20.04200 26.41700
H  -9.62300 21.23300 25.79700
H  -8.87900 19.34500 22.53200
H  -9.82700 20.46100 23.50100
H  -8.47900 19.45900 24.18200
H  -5.02500 25.02600 21.06900
H  -2.34700 26.13000 21.74400
H  -2.25500 23.98800 20.93700
H  -3.87400 23.21200 20.54200
H  -3.09200 23.13700 22.10600
H  -3.91400 28.37400 21.94100
H  -4.89900 27.46900 20.86600
H  -3.28400 28.30000 19.20100
H  -2.04400 27.35600 19.89700
H  -2.35300 29.03800 20.46800
H  -0.81500 29.46200 24.98800
H  -0.19200 29.60700 26.73000
H  -1.49600 30.56000 26.06800
H  -4.26500 28.25600 30.35300
H  -1.43800 27.51700 33.49700
H  -1.78000 25.85800 33.18900
H  -2.98000 26.82700 34.07400

