158

Mg 48.18500 34.55000 26.87500
C  45.92600 33.68500 29.45000
C  48.62900 37.58100 28.55100
C  49.38600 35.91700 23.97800
C  47.22400 31.75600 25.10500
N  47.48800 35.48500 28.93500
C  46.65100 34.87800 29.78500
C  46.64100 35.54000 31.17600
C  47.35300 36.93200 30.85100
C  47.83300 36.66400 29.38600
C  46.36000 38.11000 30.80300
C  47.58500 34.74600 32.14400
C  47.04600 34.62100 33.55200
H  47.74400 35.50900 34.59900
N  49.13600 36.42000 26.34300
C  49.15600 37.49300 27.24600
C  49.84300 38.52500 26.56000
C  50.08600 38.11100 25.24100
C  49.57700 36.77500 25.11600
C  50.09800 39.95700 27.15700
C  50.69100 38.93500 24.02600
O  50.72200 38.40900 22.87300
C  51.30100 40.34400 24.28900
N  48.28000 33.96000 24.87300
C  48.75200 34.66800 23.86600
C  48.60400 33.89900 22.50700
C  48.14800 32.44700 22.85400
C  47.85300 32.71200 24.37600
C  47.58300 34.57200 21.54200
C  49.15600 31.26100 22.67500
C  50.03700 30.83400 23.90300
N  46.93500 32.92900 27.21500
C  46.71800 31.83100 26.45700
C  45.73000 31.03300 27.08800
C  45.32200 31.78100 28.26000
C  46.13500 32.89400 28.29500
C  45.16300 29.82100 26.51600
C  44.38100 31.79500 29.42700
O  43.53200 31.01700 29.78500
C  44.74700 33.07300 30.23300
C  45.01900 32.64400 31.57100
O  45.94300 31.88000 31.77400
O  44.01900 33.02700 32.45300
C  44.02800 32.29300 33.77700
H  48.70500 38.52500 29.09400
H  49.74100 36.28600 23.01400
H  46.82000 30.94100 24.50000
H  45.69100 35.73200 31.67500
H  48.06100 37.23500 31.62200
H  46.66600 38.86900 31.52300
H  45.32900 37.79500 30.96000
H  46.39100 38.56800 29.81400
H  48.54000 35.26700 32.20500
H  47.81400 33.74200 31.78600
H  47.32400 33.61500 33.86600
H  45.96600 34.76400 33.51900
H  49.59300 40.18300 28.09700
H  49.79200 40.73200 26.45400
H  51.16500 40.13700 27.28900
H  50.50100 41.08200 24.35800
H  51.85200 40.52900 23.36800
H  51.89300 40.33800 25.20400
H  49.56400 33.85500 21.99200
H  47.18000 32.16500 22.44000
H  47.25500 35.54700 21.90400
H  46.68100 33.97600 21.40700
H  48.03900 34.58900 20.55200
H  49.72300 31.42800 21.75900
H  48.51500 30.38800 22.55000
H  49.57300 29.98000 24.39600
H  50.09500 31.54600 24.72600
H  51.02900 30.56000 23.54300
H  45.04100 29.88500 25.43500
H  44.21100 29.56800 26.98400
H  45.81200 28.96800 26.71500
H  43.88200 33.73200 30.16200
H  44.38600 31.26900 33.67500
H  42.99500 32.13500 34.08800
H  44.63300 32.88500 34.46300
Mg -9.99200 39.72500 41.59100
C  -9.20100 36.52000 40.39400
C  -7.00300 40.77200 39.92300
C  -10.93400 42.81700 42.09700
C  -13.39000 38.57000 42.15500
N  -8.35500 38.73400 40.26300
C  -8.22300 37.38600 39.98300
C  -6.94200 37.02900 39.13900
C  -6.20200 38.44700 39.10000
C  -7.24300 39.41200 39.77400
C  -4.67900 38.49000 39.61600
C  -7.33300 36.47500 37.70400
C  -6.65500 35.15500 37.31700
H  -5.79800 35.11500 36.01700
N  -9.02700 41.44500 41.27600
C  -7.82000 41.71800 40.51600
C  -7.59600 43.08000 40.52000
C  -8.65700 43.73400 41.24300
C  -9.58800 42.65400 41.62800
C  -6.25800 43.72500 39.96700
C  -8.66100 45.22800 41.56500
O  -7.72200 45.93400 41.21700
C  -9.76300 45.80700 42.46700
N  -11.94900 40.49900 42.02300
C  -12.02500 41.90600 42.26900
C  -13.42400 42.38600 42.72400
C  -14.20600 40.99700 42.71100
C  -13.12700 39.94100 42.30800
C  -13.43300 43.10700 44.11600
C  -15.55200 40.88400 41.81500
C  -16.73100 40.22700 42.59400
N  -11.06300 37.90000 41.55000
C  -12.38200 37.60200 41.75700
C  -12.49600 36.15200 41.75400
C  -11.30500 35.67300 41.19700
C  -10.46300 36.80700 40.98800
C  -13.63300 35.29900 42.21500
C  -10.50400 34.49900 40.82300
O  -10.81400 33.32600 40.85100
C  -9.14000 34.97100 40.29000
C  -8.12100 34.41900 41.25000
O  -7.89400 34.84500 42.39200
O  -7.67800 33.20000 40.81200
C  -6.67100 32.68600 41.67300
H  -6.05900 40.94600 39.40400
H  -11.16200 43.84300 42.39500
H  -14.39800 38.17200 42.29100
H  -6.39300 36.24700 39.66400
H  -6.22700 38.98800 38.15400
H  -4.55100 38.94300 40.60000
H  -4.13400 39.09300 38.89000
H  -4.23900 37.51500 39.40900
H  -7.10800 37.23400 36.95500
H  -8.42000 36.47600 37.62200
H  -7.39200 34.37600 37.12100
H  -5.99200 34.78200 38.09800
H  -6.48300 44.49400 39.22800
H  -5.64600 43.06600 39.35200
H  -5.71100 44.14900 40.80900
H  -9.67900 45.31800 43.43700
H  -10.77300 45.64200 42.09000
H  -9.72500 46.89400 42.54100
H  -13.80800 43.16200 42.06200
H  -14.52400 40.83900 43.74100
H  -12.46000 43.44600 44.47200
H  -13.97800 42.48800 44.82900
H  -14.00300 44.00500 43.88000
H  -15.22300 40.13000 41.10000
H  -15.91000 41.79000 41.32700
H  -16.49800 39.19000 42.83600
H  -17.71600 40.38300 42.15400
H  -16.68100 40.74400 43.55200
H  -14.03400 34.68700 41.40700
H  -14.30000 36.04700 42.64300
H  -13.26000 34.59000 42.95400
H  -9.10000 34.52500 39.29700
H  -6.07700 31.95000 41.13300
H  -7.08100 32.24500 42.58100
H  -5.89700 33.38200 41.99500

