158

Mg 2.63000 -1.50900 44.06200
C  5.98700 -0.77600 43.69100
C  1.91000 1.57400 42.54500
C  -0.65500 -2.42300 43.77100
C  3.39400 -4.65000 45.29200
N  3.77500 0.18500 43.24700
C  5.11100 0.25800 43.20500
C  5.72500 1.40900 42.41600
C  4.43800 2.33200 42.30400
C  3.28200 1.31800 42.72000
C  4.58900 3.55300 43.32000
C  6.45300 1.12500 41.08000
C  7.58900 2.13700 40.76700
H  7.33300 3.09400 39.59600
N  0.85700 -0.54000 43.37100
C  0.80000 0.73900 42.76300
C  -0.52400 1.07700 42.55700
C  -1.39000 -0.02800 42.92000
C  -0.42100 -1.09000 43.40000
C  -0.94400 2.47200 42.13500
C  -2.97900 -0.04100 42.82400
O  -3.56700 0.91100 42.32300
C  -3.73300 -1.22400 43.17700
N  1.45100 -3.28900 44.56400
C  0.19500 -3.48800 44.20600
C  -0.26900 -4.92100 44.39700
C  1.07100 -5.59600 44.91600
C  2.05500 -4.43800 44.98600
C  -1.49400 -5.18200 45.32000
C  1.46200 -6.70600 43.76100
C  0.60700 -7.95200 43.86300
N  4.37200 -2.57500 44.44400
C  4.52600 -3.82800 44.97700
C  5.99900 -4.07900 45.09600
C  6.60300 -2.89500 44.61800
C  5.59000 -2.03200 44.24200
C  6.62000 -5.22300 45.69700
C  7.87700 -2.25000 44.44400
O  9.02800 -2.60900 44.68200
C  7.48600 -0.83900 43.75700
C  8.05900 0.17100 44.68800
O  7.96600 0.21300 45.88700
O  8.66100 1.16000 43.94600
C  9.02400 2.45800 44.60600
H  1.60700 2.56300 42.19600
H  -1.66800 -2.75900 43.53800
H  3.66700 -5.64700 45.64500
H  6.42800 1.91400 43.07900
H  4.05100 2.67200 41.34300
H  3.62600 3.98000 43.60200
H  5.15000 4.39200 42.91100
H  5.05100 3.21300 44.24700
H  5.69600 1.17900 40.29800
H  6.89400 0.13600 40.95100
H  8.44900 1.52100 40.50500
H  7.80500 2.77300 41.62600
H  -1.97200 2.69700 42.41900
H  -0.80200 2.56700 41.05900
H  -0.38900 3.24100 42.67200
H  -4.81800 -1.15800 43.10200
H  -3.32600 -1.77100 44.02700
H  -3.49800 -1.92500 42.37500
H  -0.56900 -5.30400 43.42200
H  0.99800 -5.92200 45.95300
H  -2.13400 -5.98800 44.96200
H  -1.98400 -4.21000 45.25600
H  -1.22500 -5.43700 46.34500
H  2.38500 -7.16800 44.11000
H  1.46700 -6.32000 42.74100
H  0.41800 -8.19900 42.81800
H  -0.35000 -7.74500 44.34300
H  1.17800 -8.75700 44.32600
H  7.07800 -5.88600 44.96300
H  5.98800 -5.86000 46.31600
H  7.51100 -4.90200 46.23600
H  7.94000 -0.84500 42.76700
H  8.89300 2.50400 45.68700
H  8.39400 3.21000 44.13100
H  10.01100 2.59400 44.16300
Mg 46.12400 24.41600 28.58900
C  46.99800 26.71600 31.11600
C  45.83900 22.02400 30.99600
C  45.50500 22.18700 26.07800
C  47.21000 26.74300 26.24000
N  46.19800 24.46200 30.78200
C  46.53500 25.51200 31.56800
C  46.42900 25.12400 33.04300
C  46.52900 23.51700 33.03500
C  46.10600 23.30400 31.51400
C  47.92300 22.92900 33.44700
C  45.12800 25.69100 33.61500
C  45.37700 26.84000 34.64800
H  44.68700 26.75500 35.99000
N  45.58000 22.39800 28.59200
C  45.54300 21.57400 29.72800
C  45.29500 20.18600 29.27100
C  45.33300 20.23100 27.79000
C  45.46200 21.60300 27.40200
C  45.39300 19.00300 30.18500
C  45.38900 18.99600 26.82000
O  45.44600 19.07800 25.59400
C  45.48900 17.65500 27.41200
N  46.38600 24.42300 26.52800
C  45.96200 23.48200 25.69800
C  46.17600 23.80800 24.19300
C  46.49800 25.28700 24.30500
C  46.71100 25.50900 25.74900
C  47.30500 22.83000 23.67600
C  45.37400 26.14300 23.74500
C  45.72400 27.39000 23.00500
N  47.02300 26.25900 28.58900
C  47.34300 27.11300 27.56000
C  47.67600 28.42700 28.04900
C  47.57600 28.30400 29.45600
C  47.18800 26.98600 29.71100
C  48.17500 29.52500 27.25000
C  47.77400 28.96200 30.78700
O  48.30400 30.04500 30.95000
C  47.37400 27.98400 31.91500
C  48.66000 27.74000 32.75100
O  49.60500 27.29700 32.25000
O  48.56400 28.17900 34.05300
C  49.78000 28.07200 34.85500
H  45.82700 21.30100 31.81400
H  45.24600 21.54100 25.23700
H  47.47900 27.42100 25.42700
H  47.29400 25.52300 33.57200
H  45.77200 23.06100 33.67300
H  48.30000 22.34700 32.60600
H  47.69400 22.40500 34.37500
H  48.63300 23.75400 33.51500
H  44.48100 24.94800 34.08200
H  44.54600 26.01700 32.75300
H  44.83400 27.69600 34.24700
H  46.45600 26.94600 34.76900
H  45.49400 19.30600 31.22800
H  46.31500 18.42700 30.11000
H  44.49000 18.39400 30.16400
H  46.46800 17.56400 27.88200
H  45.46800 16.88100 26.64400
H  44.63800 17.43600 28.05700
H  45.17900 23.64800 23.78200
H  47.41800 25.50900 23.76400
H  48.22300 23.41000 23.58900
H  47.04100 22.60000 22.64400
H  47.31700 21.92100 24.27800
H  44.66000 26.34200 24.54400
H  44.90900 25.58500 22.93300
H  45.59500 27.30300 21.92600
H  46.80400 27.52400 23.07500
H  45.20200 28.24900 23.42600
H  47.71300 29.45900 26.26500
H  49.25900 29.50000 27.14200
H  47.82200 30.43100 27.74200
H  46.56800 28.22800 32.60700
H  49.57100 27.56200 35.79500
H  50.02900 29.11800 35.03200
H  50.59800 27.60600 34.30700

