158

Mg 8.98900 48.15800 28.46800
C  7.06800 47.79200 31.48400
C  11.76400 48.48900 30.38500
C  10.60600 49.42100 25.76600
C  5.89500 48.35400 26.80000
N  9.26200 48.45100 30.68000
C  8.38800 48.10300 31.65800
C  9.22300 48.03100 33.04900
C  10.66000 48.41000 32.62700
C  10.58600 48.48600 31.07800
C  11.30100 49.72200 33.26800
C  9.08500 46.72900 33.96000
C  10.15500 46.63300 35.06000
H  9.83200 45.64400 36.15600
N  10.94000 48.77500 28.12500
C  11.98000 48.59700 29.02400
C  13.22500 48.63700 28.28000
C  12.88100 49.05700 26.92300
C  11.43200 49.12400 26.88100
C  14.64400 48.55500 28.86200
C  13.78700 49.24900 25.68300
O  13.28200 49.53100 24.62500
C  15.26300 48.92100 25.80700
N  8.32700 48.95600 26.58200
C  9.21600 49.40300 25.58300
C  8.39600 49.75000 24.33700
C  6.99900 49.35500 24.69500
C  7.04600 48.78500 26.11300
C  8.65400 51.27400 23.86900
C  6.33000 48.46600 23.68300
C  5.98400 49.05400 22.28000
N  6.85900 47.97000 28.95600
C  5.75800 48.04200 28.20200
C  4.54700 47.82300 28.98900
C  5.01300 47.54000 30.29100
C  6.41300 47.76000 30.23400
C  3.20800 47.89800 28.40700
C  4.71400 47.15200 31.65400
O  3.60800 46.74500 32.08000
C  6.04100 47.25900 32.47700
C  6.35500 45.88800 32.93500
O  6.86400 45.00100 32.16200
O  5.84100 45.72100 34.23300
C  6.18200 44.37700 34.76600
H  12.61700 48.52700 31.06600
H  10.94400 49.66500 24.75700
H  4.93200 48.41200 26.28800
H  8.85400 48.86700 33.64400
H  11.36400 47.58900 32.76200
H  12.27300 50.08400 32.93400
H  11.41400 49.60500 34.34600
H  10.60400 50.54400 33.10500
H  9.10600 45.86400 33.29700
H  8.13000 46.84900 34.47100
H  10.39900 47.61700 35.46200
H  11.05500 46.23800 34.58900
H  15.17200 47.74100 28.36700
H  14.54300 48.31100 29.91900
H  15.11700 49.53000 28.74400
H  15.38700 47.91300 26.20100
H  15.69400 49.73700 26.38800
H  15.76900 48.95800 24.84200
H  8.76500 49.12700 23.52300
H  6.52400 50.33600 24.71600
H  7.75100 51.88400 23.85600
H  9.15500 51.33100 22.90300
H  9.30500 51.83200 24.54200
H  5.38700 48.13500 24.11700
H  6.90300 47.55600 23.50800
H  6.58800 48.55000 21.52500
H  6.16200 50.12900 22.32000
H  4.96800 48.89000 21.92100
H  3.07600 48.86700 27.92700
H  2.47000 47.95700 29.20600
H  2.99400 47.11700 27.67700
H  6.11500 47.96900 33.30100
H  5.32900 44.06400 35.36800
H  7.12200 44.49300 35.30500
H  6.16000 43.67400 33.93300
Mg -9.86600 40.29600 42.59200
C  -9.16000 36.89800 41.78600
C  -7.02400 41.18200 40.93600
C  -10.90800 43.39800 42.96000
C  -13.08900 39.11800 43.76500
N  -8.33700 39.14900 41.40500
C  -8.17800 37.78100 41.29100
C  -6.93100 37.46300 40.43600
C  -6.22700 38.84900 40.39800
C  -7.25200 39.81100 40.93300
C  -4.89500 38.89500 41.22900
C  -7.33600 36.82400 38.96800
C  -6.38500 35.76200 38.38300
H  -5.53700 36.08300 37.13300
N  -9.11700 42.05600 41.98400
C  -7.91200 42.25500 41.39700
C  -7.57400 43.64900 41.44900
C  -8.71000 44.30100 41.90300
C  -9.62800 43.18100 42.30500
C  -6.38600 44.17000 40.68700
C  -8.94000 45.84500 41.89800
O  -8.10500 46.59300 41.44400
C  -10.21900 46.50400 42.45500
N  -11.70100 41.11000 43.36000
C  -11.82600 42.48300 43.42800
C  -13.18600 42.83000 44.04400
C  -13.84100 41.48200 44.24000
C  -12.86700 40.52200 43.74300
C  -12.95600 43.65200 45.32100
C  -15.29900 41.53900 43.61800
C  -16.29600 42.14900 44.61600
N  -10.95600 38.42000 42.69600
C  -12.17900 38.14400 43.25600
C  -12.38200 36.69000 43.27400
C  -11.23500 36.13900 42.69000
C  -10.39600 37.26200 42.33000
C  -13.46600 35.90100 43.94200
C  -10.55000 34.92200 42.38300
O  -10.79200 33.74100 42.58900
C  -9.20600 35.35800 41.68700
C  -8.04200 34.64000 42.30600
O  -7.86000 34.39400 43.55100
O  -7.25200 34.08900 41.33900
C  -6.09100 33.34100 41.71600
H  -6.06000 41.55200 40.58100
H  -11.22000 44.42900 43.14000
H  -14.06300 38.79600 44.14000
H  -6.27400 36.77400 40.96700
H  -6.05100 39.08000 39.34700
H  -4.89000 39.80400 41.83000
H  -4.07200 38.90300 40.51400
H  -4.88300 38.11400 41.98800
H  -7.34600 37.58600 38.18800
H  -8.32600 36.37500 39.04000
H  -6.98000 34.87500 38.16800
H  -5.65200 35.51000 39.14900
H  -6.48300 45.18400 40.29800
H  -6.11500 43.63300 39.77800
H  -5.54600 44.10400 41.37700
H  -10.34100 46.26100 43.51000
H  -11.07500 46.11000 41.90700
H  -10.19300 47.58900 42.35900
H  -13.70700 43.43900 43.30400
H  -14.07300 41.50700 45.30500
H  -12.02500 44.19900 45.17400
H  -12.80400 43.01200 46.19100
H  -13.76600 44.32500 45.60100
H  -15.64100 40.53900 43.35000
H  -15.33300 42.14100 42.71000
H  -15.79800 42.49800 45.52000
H  -16.96800 41.35200 44.93400
H  -16.88000 42.99300 44.24700
H  -14.38200 36.08200 43.38000
H  -13.58400 36.36400 44.92100
H  -13.36200 34.81900 44.02400
H  -9.26000 35.23100 40.60600
H  -5.88700 33.36700 42.78700
H  -5.20600 33.72000 41.20400
H  -6.20600 32.31300 41.37300

