158

Mg 45.62700 44.49700 43.17000
C  42.19600 44.14800 42.95800
C  46.00700 41.23200 42.48200
C  48.84600 45.12000 42.81700
C  45.05400 48.00600 43.42500
N  44.22300 42.92700 42.83300
C  42.90400 42.93500 42.95800
C  42.33600 41.48800 42.79000
C  43.59500 40.59200 42.89600
C  44.69100 41.66600 42.83200
C  43.65000 39.81200 44.23700
C  41.47800 41.33900 41.58700
C  41.86700 42.07800 40.28500
H  41.75300 41.36200 38.97300
N  47.24300 43.30000 42.69000
C  47.18000 41.96800 42.52000
C  48.52300 41.46100 42.32200
C  49.43400 42.55100 42.39000
C  48.51900 43.73300 42.62600
C  48.89600 40.04400 42.04500
C  50.87600 42.51100 42.18000
O  51.52200 41.45900 42.11400
C  51.69300 43.75200 42.22500
N  46.82700 46.33100 43.19300
C  48.13400 46.31600 43.02300
C  48.68800 47.78700 42.95100
C  47.43700 48.58700 43.36800
C  46.37000 47.58000 43.37300
C  49.97700 47.99000 43.84000
C  47.28300 49.69200 42.30000
C  46.73900 50.97700 42.74400
N  43.99900 45.89600 43.23400
C  43.90400 47.24500 43.33500
C  42.52200 47.68600 43.35400
C  41.80300 46.46900 43.27500
C  42.70700 45.42400 43.20200
C  42.03700 49.10400 43.56100
C  40.39400 45.92500 43.18100
O  39.31500 46.47200 43.27400
C  40.65400 44.35300 42.90100
C  39.82100 43.56600 43.82800
O  38.92800 42.80100 43.53800
O  40.26300 43.83900 45.11600
C  39.90300 42.74200 45.95400
H  46.02600 40.16200 42.26300
H  49.87300 45.46800 42.69300
H  44.80700 49.04100 43.67000
H  41.69000 41.25400 43.63600
H  43.71400 39.88900 42.07200
H  42.89600 39.91700 45.01700
H  44.40100 40.29900 44.85800
H  43.90500 38.77900 44.00100
H  40.48200 41.70300 41.84000
H  41.44900 40.25600 41.47100
H  42.89900 42.40000 40.42200
H  41.26500 42.96900 40.10400
H  48.03400 39.43100 42.30600
H  49.70700 39.62500 42.64100
H  49.09400 39.98100 40.97500
H  51.69100 44.15100 43.23900
H  51.22700 44.46000 41.53900
H  52.72300 43.46600 42.01300
H  48.99000 47.81400 41.90400
H  47.63900 49.00800 44.35300
H  49.85900 48.85500 44.49100
H  50.80400 48.19000 43.15800
H  50.21300 47.13700 44.47700
H  46.65800 49.29500 41.50000
H  48.27000 49.93000 41.90300
H  47.56200 51.51300 43.21800
H  45.88900 50.87100 43.41700
H  46.43300 51.63300 41.92800
H  42.75900 49.82100 43.95000
H  41.22100 49.00900 44.27800
H  41.77900 49.48000 42.57100
H  40.29600 44.21500 41.88100
H  40.39600 42.70100 46.92600
H  40.24700 41.81500 45.49500
H  38.83100 42.79100 46.14400
Mg 39.88100 41.48200 26.86700
C  39.05300 43.69100 29.47900
C  40.36000 38.94900 29.17500
C  40.81600 39.45000 24.27000
C  39.20700 43.99100 24.56100
N  39.90100 41.42800 29.21200
C  39.40500 42.39700 30.03400
C  39.29800 41.86100 31.44900
C  39.76600 40.34600 31.26200
C  40.04400 40.24200 29.76300
C  41.00300 39.97900 32.23500
C  37.88900 42.05400 32.09000
C  37.58700 41.34900 33.44500
H  37.06400 42.37000 34.51600
N  40.59500 39.44300 26.79600
C  40.74500 38.60100 27.88600
C  41.14300 37.24500 27.37500
C  41.23800 37.39500 25.95100
C  40.88700 38.79900 25.60800
C  41.46100 36.02700 28.24100
C  41.68500 36.40300 24.87700
O  41.83600 36.65600 23.69600
C  41.83800 34.91300 25.21300
N  40.06800 41.71400 24.69900
C  40.47300 40.72000 23.90900
C  40.29500 41.05200 22.43900
C  39.52900 42.39700 22.54100
C  39.64500 42.76100 23.96700
C  41.51300 41.13000 21.52300
C  38.11000 42.41200 21.82100
C  37.15300 41.46900 22.31500
N  39.31700 43.41000 26.95600
C  39.10800 44.33700 25.92500
C  38.72900 45.60600 26.43300
C  38.67500 45.34900 27.84600
C  39.09200 44.04200 28.10000
C  38.45500 46.94100 25.63700
C  38.14600 45.97600 29.08600
O  37.54000 47.05200 29.27700
C  38.45200 44.90500 30.21900
C  39.34100 45.55500 31.22500
O  40.50000 45.91600 30.97500
O  38.73100 45.83500 32.42200
C  39.36300 46.72300 33.40100
H  40.48800 38.17800 29.93700
H  40.96300 38.74500 23.44900
H  38.97100 44.74900 23.81200
H  39.98700 42.43900 32.06500
H  38.95000 39.67800 31.53700
H  40.95000 38.94600 32.57900
H  41.13500 40.69100 33.05000
H  41.86800 39.93600 31.57300
H  37.07600 41.93300 31.37400
H  37.94200 43.12700 32.27000
H  38.45900 40.86700 33.88900
H  36.84300 40.62500 33.11500
H  42.54100 36.02400 28.38700
H  41.12200 35.12200 27.73700
H  40.90200 36.01200 29.17700
H  42.01500 34.27600 24.34600
H  40.91900 34.66200 25.74100
H  42.70100 34.71700 25.84900
H  39.63800 40.28900 22.02100
H  39.98900 43.23400 22.01700
H  42.42000 40.80600 22.03400
H  41.51800 42.17200 21.20200
H  41.33500 40.55600 20.61300
H  38.40800 42.04800 20.83800
H  37.59300 43.37200 21.82600
H  36.50600 42.01700 23.00000
H  37.72800 40.73600 22.88200
H  36.66300 41.02300 21.45000
H  37.41600 46.97500 25.30700
H  39.23700 47.03300 24.88400
H  38.55400 47.71200 26.40100
H  37.49700 44.63800 30.66900
H  40.22500 46.36600 33.96500
H  38.56700 47.15800 34.00500
H  39.69100 47.58000 32.81300

