158

Mg 16.85000 -1.04100 27.29100
C  16.04700 1.18400 29.91400
C  18.90500 -2.68200 29.47500
C  18.30100 -2.61800 24.68900
C  15.52800 1.49300 25.01200
N  17.57400 -0.68900 29.43600
C  16.91800 0.15400 30.33700
C  17.39600 -0.10900 31.80500
C  18.44200 -1.24700 31.61600
C  18.35400 -1.59700 30.09500
C  19.91300 -0.86900 31.99700
C  16.16200 -0.42000 32.73600
C  16.25600 0.01600 34.27000
H  17.62100 0.57000 34.77200
N  18.17600 -2.64400 27.10800
C  18.83000 -3.13600 28.13200
C  19.69300 -4.25800 27.61000
C  19.45900 -4.29000 26.25900
C  18.60900 -3.16000 25.92700
C  20.48600 -5.19700 28.42800
C  19.95400 -5.30800 25.22500
O  19.67300 -5.28200 24.00000
C  20.66800 -6.50800 25.69900
N  16.97800 -0.51200 25.22100
C  17.46600 -1.46200 24.30700
C  17.29700 -1.00800 22.89200
C  16.27400 0.13100 23.05000
C  16.26300 0.39600 24.51100
C  18.60400 -0.46200 22.23800
C  14.87100 -0.23900 22.43900
C  13.68400 -0.58300 23.42900
N  15.87100 0.91200 27.44000
C  15.32800 1.77100 26.42800
C  14.58100 2.86800 27.01400
C  14.80900 2.67900 28.43700
C  15.61400 1.50100 28.61900
C  13.87000 3.94300 26.19700
C  14.59300 3.17400 29.72900
O  13.90000 4.18000 30.09200
C  15.38300 2.29100 30.74500
C  16.42200 3.13600 31.38100
O  17.62600 3.09200 31.28200
O  15.79100 3.80400 32.35000
C  16.62000 4.61000 33.29300
H  19.61500 -3.15200 30.15900
H  18.74500 -3.06900 23.79900
H  15.13300 2.35100 24.46500
H  17.85400 0.75500 32.28700
H  18.04100 -2.14600 32.08300
H  19.82800 0.03300 32.60300
H  20.52600 -0.65500 31.12200
H  20.32500 -1.62800 32.66300
H  15.90000 -1.47700 32.75000
H  15.32400 0.11600 32.29100
H  15.98900 -0.79200 34.95100
H  15.41900 0.68800 34.45500
H  20.20800 -6.23500 28.24500
H  20.46200 -4.87200 29.46800
H  21.50600 -4.90800 28.17300
H  21.58100 -6.15400 26.17800
H  21.01100 -7.18700 24.91700
H  20.15900 -7.25000 26.31400
H  16.84000 -1.77400 22.26600
H  16.66700 1.03800 22.59200
H  18.34000 0.28800 21.49200
H  19.05500 -1.32200 21.74400
H  19.37200 -0.07700 22.90900
H  14.96500 -0.87400 21.55700
H  14.42600 0.69700 22.10100
H  14.06600 -1.17900 24.25800
H  12.98200 -1.26000 22.94300
H  13.15900 0.33400 23.69600
H  13.74200 3.60500 25.16900
H  14.42800 4.87800 26.24000
H  12.94900 4.23600 26.70000
H  14.65600 1.93800 31.47600
H  15.84400 5.30900 33.60400
H  17.41500 5.12500 32.75500
H  17.00100 4.04100 34.14200
Mg 34.87500 1.29200 29.38700
C  32.67400 3.02900 31.47800
C  37.32300 1.28700 31.87500
C  37.08900 0.18800 27.13700
C  32.57100 2.07100 26.82400
N  34.94100 2.04600 31.34100
C  33.90200 2.59800 32.05800
C  34.20300 2.58100 33.55500
C  35.66300 2.22900 33.61900
C  36.05800 1.82400 32.19300
C  36.61600 3.29300 34.13400
C  33.25200 1.52500 34.30400
C  32.77200 1.90400 35.74600
H  33.54400 2.92500 36.51600
N  37.00100 0.85900 29.45600
C  37.80600 0.85300 30.61200
C  39.05100 0.23100 30.25000
C  38.97500 -0.16900 28.88000
C  37.65200 0.31200 28.41800
C  40.14900 -0.02800 31.21500
C  39.85600 -0.95800 28.00100
O  39.49000 -1.43800 26.93300
C  41.24700 -1.33000 28.47200
N  34.83200 1.20300 27.35000
C  35.86500 0.66500 26.64300
C  35.40900 0.46000 25.14600
C  33.99600 1.08800 25.06400
C  33.77600 1.42500 26.49600
C  36.50900 1.09000 24.17600
C  32.93100 0.11000 24.46800
C  32.48900 0.35000 23.01800
N  32.93000 2.19300 29.15400
C  32.21100 2.42400 28.09100
C  30.90900 3.13500 28.43900
C  31.09700 3.48000 29.77800
C  32.35800 2.84000 30.14600
C  29.88500 3.70000 27.50900
C  30.59200 4.17000 30.94400
O  29.57400 4.83800 31.11000
C  31.46800 3.70100 32.14300
C  31.75600 4.90400 32.98300
O  32.49500 5.79600 32.66300
O  31.12600 4.92300 34.15800
C  31.27500 6.16500 34.85400
H  38.08800 1.33100 32.65200
H  37.69000 -0.20700 26.31500
H  31.84500 2.15700 26.01300
H  34.00000 3.59800 33.89100
H  35.81800 1.42600 34.33900
H  37.22200 3.61000 33.28600
H  37.26300 2.83100 34.88000
H  36.00100 4.09800 34.53800
H  33.79700 0.58300 34.36300
H  32.38300 1.41600 33.65500
H  32.68800 0.99900 36.34700
H  31.83000 2.43400 35.60300
H  40.50500 -1.05800 31.23300
H  39.92500 0.03100 32.27900
H  40.91500 0.67200 30.88000
H  41.31600 -2.10700 29.23400
H  41.70400 -0.44600 28.91700
H  41.90200 -1.61400 27.64900
H  35.37900 -0.59700 24.88300
H  34.01300 2.05800 24.56800
H  36.06000 1.76500 23.44800
H  36.81500 0.21300 23.60500
H  37.28800 1.61400 24.73100
H  32.03100 0.13900 25.08200
H  33.33300 -0.90000 24.54300
H  31.40200 0.37400 22.94000
H  32.94200 -0.24100 22.22200
H  32.94400 1.32000 22.81500
H  30.36700 4.34500 26.77400
H  29.22300 4.41100 28.00400
H  29.34000 2.89200 27.02100
H  30.79400 3.08500 32.73800
H  30.53500 6.89700 34.53100
H  32.23000 6.64500 35.06900
H  30.89700 5.85100 35.82700

