158

Mg 2.59600 -1.11800 43.93600
C  6.08100 -0.31100 43.78300
C  1.93600 1.85100 42.50100
C  -0.51200 -2.24800 43.46300
C  3.62700 -4.22400 44.98200
N  3.93500 0.46200 43.20300
C  5.22600 0.67100 43.27300
C  5.72500 1.97900 42.66800
C  4.36400 2.76800 42.62200
C  3.31000 1.61500 42.81600
C  4.08600 4.12600 43.45600
C  6.42800 1.78100 41.31600
C  7.74800 2.58900 41.08100
H  8.24800 2.57700 39.64200
N  0.96600 -0.31100 43.10700
C  0.81900 0.93100 42.58100
C  -0.53700 1.25800 42.19500
C  -1.27700 0.04300 42.44900
C  -0.27000 -0.90200 43.04800
C  -0.93300 2.55900 41.50000
C  -2.70700 -0.07500 42.10400
O  -3.29100 0.70900 41.41000
C  -3.43000 -1.33800 42.47900
N  1.73000 -3.04800 44.05700
C  0.41000 -3.26000 43.93300
C  0.05100 -4.79300 44.16200
C  1.36000 -5.29600 44.80400
C  2.31600 -4.14100 44.65600
C  -1.32900 -5.01400 44.90000
C  1.91500 -6.62300 44.25400
C  2.15100 -7.78800 45.23500
N  4.47300 -2.05800 44.33000
C  4.70200 -3.30900 44.85700
C  6.07300 -3.52800 45.12000
C  6.70500 -2.29300 44.66700
C  5.66600 -1.51100 44.24600
C  6.68200 -4.87000 45.62600
C  7.97100 -1.67400 44.52500
O  9.10400 -2.10500 44.72700
C  7.64800 -0.25200 43.93400
C  8.01300 0.77100 45.00300
O  7.76100 0.66500 46.18200
O  8.79500 1.77400 44.41100
C  9.05800 2.86600 45.38300
H  1.77700 2.87100 42.14500
H  -1.54500 -2.58600 43.36100
H  4.03500 -5.15900 45.37100
H  6.40600 2.50600 43.33600
H  4.31600 3.21000 41.62700
H  3.09800 3.96300 43.88800
H  3.97800 5.01800 42.83800
H  4.79800 4.23000 44.27500
H  5.71100 1.99200 40.52300
H  6.60500 0.70700 41.25700
H  8.56000 2.17400 41.67900
H  7.61300 3.64600 41.30800
H  -0.62200 2.47600 40.45900
H  -0.61000 3.51000 41.92400
H  -2.01500 2.59000 41.62500
H  -4.50700 -1.26000 42.32600
H  -3.27400 -1.55900 43.53500
H  -3.14700 -2.17400 41.83900
H  -0.01500 -5.24200 43.17100
H  1.19100 -5.45100 45.87000
H  -2.10300 -4.32400 44.56200
H  -1.08600 -4.90900 45.95700
H  -1.53400 -6.05100 44.63700
H  2.83400 -6.43300 43.70000
H  1.14800 -7.02000 43.58900
H  3.18900 -8.11100 45.15400
H  1.58600 -8.64600 44.87100
H  1.81500 -7.66900 46.26500
H  6.77100 -5.73400 44.96600
H  6.16700 -5.10400 46.55800
H  7.72900 -4.66200 45.84800
H  8.21400 -0.04400 43.02600
H  8.06600 3.27900 45.56300
H  9.84800 3.53400 45.04000
H  9.47300 2.40100 46.27800
Mg 44.61800 4.94200 47.70900
C  42.40200 7.69800 47.33900
C  41.88500 2.99300 46.83900
C  46.70500 2.48300 47.23100
C  47.19900 7.23100 47.90100
N  42.35900 5.34200 47.03400
C  41.68900 6.51000 47.18400
C  40.18700 6.33000 47.09400
C  39.99200 4.75200 46.99000
C  41.51800 4.32300 47.04700
C  39.12600 4.11300 48.09900
C  39.49400 7.10100 45.93000
C  40.31200 7.21600 44.62200
H  39.71500 6.82200 43.25700
N  44.31300 2.94400 47.23700
C  43.13600 2.30100 46.97600
C  43.41000 0.93200 46.69200
C  44.83100 0.77500 46.72400
C  45.39000 2.08900 47.09400
C  42.45100 -0.10000 46.20800
C  45.52000 -0.57400 46.43200
O  44.84200 -1.60300 46.26500
C  47.06900 -0.77600 46.32300
N  46.66200 4.92300 47.53200
C  47.33600 3.71000 47.48600
C  48.81400 3.99500 47.55600
C  48.97700 5.50400 47.96700
C  47.50700 5.91400 47.95400
C  49.52800 3.09200 48.56400
C  49.94400 6.20900 47.05100
C  50.84000 7.12900 47.85900
N  44.80700 7.04300 47.67400
C  45.96800 7.83000 47.72900
C  45.60000 9.24300 47.75600
C  44.19400 9.22500 47.57400
C  43.75700 7.91000 47.49100
C  46.57400 10.42100 47.95000
C  43.04500 10.03800 47.47400
O  42.93100 11.23200 47.63900
C  41.80000 9.07300 47.33200
C  40.83900 9.33700 48.44700
O  40.81700 8.69500 49.52000
O  40.10900 10.40600 48.10400
C  39.23600 10.98600 49.10500
H  41.00600 2.43600 46.50900
H  47.45700 1.72400 47.00600
H  47.94100 8.02600 48.00100
H  39.64500 6.78600 47.92300
H  39.56400 4.44100 46.03700
H  38.39700 4.83900 48.45900
H  39.71200 3.72000 48.93000
H  38.51200 3.36800 47.59300
H  39.30600 8.12800 46.24500
H  38.59100 6.52200 45.73900
H  41.14000 6.51900 44.75000
H  40.53600 8.27300 44.47800
H  41.46100 0.34700 46.12000
H  42.31700 -0.86200 46.97600
H  42.79500 -0.66400 45.34100
H  47.73300 -0.36500 47.08300
H  47.38500 -0.33500 45.37800
H  47.28100 -1.84300 46.39600
H  49.14600 3.62500 46.58600
H  49.28200 5.63900 49.00400
H  50.28900 3.67700 49.08000
H  50.16500 2.42400 47.98400
H  48.92800 2.61800 49.34100
H  49.36700 6.76500 46.31200
H  50.51000 5.42600 46.54600
H  50.96400 6.86300 48.90900
H  50.44200 8.14400 47.85100
H  51.75600 7.17300 47.27000
H  47.49600 10.10700 48.44000
H  46.07600 11.20600 48.51900
H  46.78400 10.79800 46.94900
H  41.41100 9.32400 46.34500
H  39.87500 11.72800 49.58300
H  38.84700 10.38600 49.92800
H  38.39300 11.49300 48.63600

