158

Mg 1.64100 8.18500 25.52600
C  2.33500 10.29200 28.41000
C  1.54300 5.56800 27.56700
C  0.81100 6.33100 22.82500
C  1.82900 11.05700 23.53600
N  2.16000 7.94500 27.65800
C  2.20500 8.92200 28.71800
C  2.24700 8.25300 30.07900
C  2.30000 6.72000 29.66200
C  1.98700 6.73000 28.18700
C  3.60700 5.92900 30.01500
C  1.11700 8.72500 30.98900
C  1.33000 8.81400 32.42900
H  2.38000 7.91000 33.12500
N  1.07300 6.22900 25.24800
C  1.16400 5.33000 26.26700
C  0.69600 4.03700 25.70300
C  0.35300 4.30100 24.32500
C  0.77900 5.65700 24.08200
C  0.51500 2.69100 26.57400
C  -0.23400 3.33400 23.31600
O  -0.52600 3.73400 22.22900
C  -0.67300 1.88800 23.69800
N  1.53500 8.65300 23.53600
C  1.10900 7.67600 22.62200
C  0.84000 8.34500 21.21100
C  0.75700 9.84400 21.60100
C  1.49100 9.84900 22.98900
C  1.90800 8.10300 20.15200
C  -0.62600 10.35600 21.65700
C  -1.04900 10.98700 20.28300
N  2.01000 10.21200 25.89000
C  2.07200 11.24800 24.94000
C  2.36900 12.49800 25.63900
C  2.39300 12.17000 26.99600
C  2.29100 10.76400 27.09300
C  2.40300 13.89900 25.00900
C  2.64400 12.72000 28.29300
O  2.95200 13.85100 28.59100
C  2.52800 11.52600 29.28600
C  3.66700 11.50700 30.25600
O  4.72600 10.95500 29.96000
O  3.41700 12.17000 31.40300
C  4.39000 11.97700 32.46100
H  1.56300 4.65800 28.17000
H  0.58800 5.83100 21.88100
H  1.70000 11.95200 22.92400
H  3.26700 8.51900 30.35300
H  1.44800 6.18800 30.08700
H  4.40500 6.51200 30.47400
H  3.95300 5.34300 29.16300
H  3.33900 5.22300 30.80100
H  0.45600 7.86000 30.93900
H  0.68800 9.65200 30.60800
H  0.36300 8.71000 32.92000
H  1.68700 9.81000 32.68900
H  1.47100 2.18500 26.70200
H  -0.29900 2.07100 26.19700
H  0.28200 3.02200 27.58700
H  -1.61100 2.04100 24.23200
H  0.05300 1.29700 24.25600
H  -0.79000 1.35800 22.75300
H  -0.14400 7.95500 20.94800
H  1.45200 10.40000 20.97200
H  2.86800 8.20400 20.65800
H  1.68000 8.90100 19.44500
H  1.79900 7.13100 19.67000
H  -0.64300 11.03300 22.51100
H  -1.31600 9.57500 21.97600
H  -0.23400 10.86300 19.57000
H  -1.14900 12.06900 20.36500
H  -1.92700 10.50000 19.85700
H  1.36800 14.15700 24.78300
H  2.99200 13.80600 24.09700
H  2.73800 14.65900 25.71500
H  1.67400 11.68300 29.94600
H  5.42900 12.17900 32.19700
H  4.42000 10.96600 32.86600
H  4.08600 12.61100 33.29400
Mg -2.57200 34.82200 27.13500
C  -3.64600 33.34300 30.07300
C  -1.25800 37.53500 29.02200
C  -2.07500 36.58500 24.25800
C  -4.05000 32.37900 25.33500
N  -2.53100 35.35500 29.26200
C  -2.98300 34.51300 30.29200
C  -2.52600 35.02600 31.63100
C  -1.70400 36.33100 31.24500
C  -1.89300 36.47900 29.72500
C  -2.06800 37.56700 31.99300
C  -1.79400 33.94200 32.48000
C  -2.46800 33.67200 33.85200
H  -1.50300 33.65700 35.09700
N  -1.68200 36.72100 26.68200
C  -1.17400 37.63300 27.61800
C  -0.47600 38.69000 26.89400
C  -0.69600 38.39900 25.43800
C  -1.55900 37.22700 25.40300
C  0.24400 39.78700 27.52400
C  -0.15200 39.16900 24.18500
O  -0.46100 38.93400 23.06900
C  0.55300 40.50500 24.41800
N  -3.22800 34.67300 25.14000
C  -2.88500 35.46000 24.09200
C  -3.49400 34.97500 22.77100
C  -3.51600 33.47900 23.07400
C  -3.65900 33.47000 24.64700
C  -4.76800 35.71500 22.42800
C  -2.30300 32.68500 22.63500
C  -1.06500 32.67000 23.49100
N  -3.60100 33.13400 27.53700
C  -4.20100 32.22800 26.69500
C  -4.86500 31.16700 27.50900
C  -4.70100 31.59100 28.80900
C  -3.93500 32.79200 28.76100
C  -5.59900 29.95000 27.01600
C  -5.02000 31.31400 30.19700
O  -5.71500 30.39700 30.67000
C  -4.37700 32.40300 31.08000
C  -5.49500 33.02100 31.79400
O  -5.98900 34.07900 31.45700
O  -5.91400 32.20800 32.83500
C  -6.95100 32.82600 33.67400
H  -0.76800 38.30400 29.62300
H  -2.00400 37.02400 23.26100
H  -4.46500 31.72200 24.56800
H  -3.41000 35.24900 32.22800
H  -0.65700 36.11000 31.45500
H  -1.15500 38.03200 32.36400
H  -2.74300 37.31000 32.81000
H  -2.57200 38.34700 31.42200
H  -0.81200 34.32200 32.76500
H  -1.68500 33.02200 31.90600
H  -3.19100 32.85600 33.87900
H  -2.99500 34.60100 34.07000
H  0.17200 39.71000 28.60800
H  -0.27300 40.68000 27.17100
H  1.24500 39.80300 27.09200
H  1.50400 40.13800 24.80500
H  0.03700 41.24000 25.03600
H  0.65400 41.02000 23.46200
H  -2.71900 35.03500 22.00700
H  -4.46200 33.05000 22.74300
H  -5.06900 36.37800 23.23900
H  -5.58600 35.00000 22.34900
H  -4.65500 36.21600 21.46600
H  -2.09600 33.09200 21.64500
H  -2.68300 31.66400 22.58900
H  -0.33600 33.05000 22.77500
H  -0.79200 31.67400 23.84000
H  -1.02900 33.31700 24.36800
H  -6.57800 30.31600 26.70700
H  -5.75500 29.24100 27.82900
H  -5.09200 29.55600 26.13500
H  -3.70300 31.98000 31.82500
H  -6.31800 33.41100 34.34100
H  -7.43600 31.97600 34.15400
H  -7.71800 33.36800 33.12200

