158

Mg 30.22400 59.83200 40.01700
C  27.60100 57.94000 38.70700
C  32.44300 57.39400 38.87700
C  32.81700 61.93500 40.75800
C  27.91500 62.34100 40.72700
N  30.02400 57.93600 38.83700
C  28.87500 57.39100 38.46400
C  29.06600 56.06800 37.73700
C  30.54500 55.68100 38.16700
C  31.09300 57.07600 38.69600
C  30.63100 54.60300 39.25200
C  28.97300 56.27300 36.18800
C  28.47900 54.99400 35.30800
H  27.62800 55.32400 34.11400
N  32.36300 59.65400 39.95800
C  33.06400 58.55000 39.44300
C  34.47000 58.80500 39.61000
C  34.59200 60.07400 40.15700
C  33.20800 60.66400 40.28300
C  35.57500 57.88000 39.10100
C  35.90700 60.66400 40.58100
O  36.88300 59.93200 40.71300
C  36.10100 62.16200 40.80200
N  30.37600 61.83100 40.50100
C  31.50300 62.43300 40.90600
C  31.22500 63.87700 41.35900
C  29.64800 64.07600 41.35900
C  29.21000 62.63800 40.85800
C  31.91000 64.21500 42.65100
C  29.14700 65.19600 40.44100
C  28.05700 66.08400 41.09900
N  28.14900 60.11800 39.89500
C  27.34100 61.17200 40.20100
C  25.96000 60.80000 39.87000
C  26.03900 59.48900 39.38000
C  27.40000 59.18400 39.29800
C  24.78100 61.64400 40.27500
C  25.27200 58.34400 38.86000
O  24.03700 58.27200 38.71500
C  26.28200 57.35200 38.34600
C  25.94900 55.99900 38.97300
O  26.09400 55.67700 40.12100
O  25.56200 55.14200 37.98200
C  25.26700 53.78700 38.36100
H  33.02400 56.51100 38.60100
H  33.53900 62.71400 41.01000
H  27.22200 63.11100 41.07100
H  28.34600 55.27400 37.93400
H  31.11600 55.22400 37.35900
H  31.17000 53.74000 38.86100
H  29.61700 54.32000 39.53500
H  31.22500 54.85200 40.13100
H  29.99400 56.53200 35.90800
H  28.43800 57.19600 35.96700
H  27.93100 54.23700 35.86900
H  29.33600 54.44500 34.91800
H  36.09200 57.42900 39.94800
H  36.38800 58.35200 38.54900
H  35.18000 57.09700 38.45300
H  35.67000 62.79200 40.02400
H  37.18500 62.25600 40.85800
H  35.62700 62.40500 41.75300
H  31.74800 64.44300 40.58800
H  29.40200 64.17800 42.41600
H  32.93600 64.51900 42.44200
H  31.92700 63.36000 43.32600
H  31.42200 65.02200 43.19700
H  28.72300 64.80700 39.51500
H  30.06800 65.76800 40.32700
H  27.89000 66.00300 42.17300
H  27.18500 65.84800 40.48900
H  28.29700 67.13900 40.96800
H  23.93200 60.96800 40.37100
H  24.61400 62.38200 39.49200
H  25.03100 62.04800 41.25600
H  26.27900 57.33500 37.25600
H  24.20900 53.73500 38.62000
H  25.94000 53.44300 39.14600
H  25.34500 53.13000 37.49500
Mg 5.36400 55.25800 40.52700
C  4.35900 51.85300 40.50500
C  8.31100 54.07200 39.00200
C  6.34100 58.36300 40.08400
C  2.44800 56.10500 41.94200
N  6.06300 53.18600 39.58600
C  5.53400 51.97500 39.73700
C  6.28900 50.90500 38.82900
C  7.69000 51.56100 38.76400
C  7.38100 53.01200 39.14300
C  8.81700 50.82900 39.59200
C  5.68900 50.71700 37.35600
C  5.23800 49.36300 36.79900
H  5.81500 48.79900 35.55600
N  7.14000 56.10700 39.63800
C  8.17100 55.47500 39.10100
C  9.19700 56.44800 38.73000
C  8.71500 57.73900 39.08000
C  7.31800 57.45000 39.62400
C  10.60500 56.11900 38.09100
C  9.41600 59.05500 38.90900
O  10.59500 59.14800 38.48600
C  8.83600 60.30600 39.16500
N  4.53700 57.00000 40.89800
C  5.13100 58.19600 40.73000
C  4.12500 59.29700 41.20900
C  2.91400 58.59500 41.69600
C  3.30100 57.11300 41.59600
C  4.80100 60.14300 42.42900
C  1.65800 58.95400 40.94100
C  1.36000 60.37600 40.32100
N  3.69500 54.20400 41.13800
C  2.59600 54.73000 41.74100
C  1.77100 53.63500 42.15400
C  2.45700 52.46000 41.75800
C  3.64000 52.88400 41.13200
C  0.45300 53.58400 42.77200
C  2.43100 50.98500 41.69900
O  1.65800 50.20700 42.23500
C  3.69500 50.50600 40.91900
C  3.48300 49.44900 39.93100
O  2.88400 49.50700 38.90600
O  3.98000 48.20800 40.37400
C  3.70300 47.09100 39.51800
H  9.27800 53.68100 38.68000
H  6.55400 59.42200 39.92300
H  1.45900 56.44800 42.25500
H  6.38200 49.91800 39.28300
H  8.03800 51.58000 37.73100
H  9.34600 51.61800 40.12600
H  9.52300 50.44100 38.85700
H  8.44900 50.00900 40.20800
H  6.28900 51.10500 36.53200
H  4.80400 51.34700 37.44700
H  4.17200 49.36200 36.57200
H  5.52800 48.64800 37.56800
H  11.29000 56.67200 38.73300
H  10.71900 56.44400 37.05700
H  10.89200 55.07200 38.19100
H  8.00200 60.46100 38.48100
H  9.52400 61.14100 39.03600
H  8.50700 60.49900 40.18600
H  3.91800 59.97800 40.38400
H  2.68400 58.67100 42.75900
H  4.81600 61.19800 42.15700
H  5.81000 59.78100 42.63000
H  4.23500 60.11900 43.36000
H  0.93600 58.92200 41.75700
H  1.51200 58.16300 40.20500
H  1.36500 60.31500 39.23200
H  2.07900 61.03400 40.80800
H  0.32500 60.55700 40.61300
H  -0.21400 53.49400 41.91500
H  0.21900 54.43300 43.41500
H  0.38500 52.69400 43.39800
H  4.39900 50.12300 41.65800
H  2.80900 46.53000 39.78900
H  4.53600 46.40300 39.66600
H  3.71800 47.24600 38.43900

