158

Mg 1.58500 7.94900 27.58800
C  2.10800 10.02100 30.32900
C  2.01600 5.24200 29.91500
C  1.25300 5.84400 25.07200
C  1.62700 10.58700 25.41900
N  1.94700 7.68700 29.83000
C  1.88000 8.76100 30.70900
C  1.67500 8.25000 32.11900
C  2.19600 6.77900 32.01600
C  1.96400 6.50800 30.48900
C  3.47500 6.19900 32.63000
C  0.26800 8.36300 32.54100
C  -0.12100 8.43100 34.11400
H  1.14400 8.20500 35.09200
N  1.49000 5.83800 27.50000
C  1.77200 4.89500 28.53300
C  1.73800 3.57400 27.87900
C  1.37900 3.67800 26.50500
C  1.33200 5.14200 26.28500
C  2.00000 2.26000 28.61000
C  1.23700 2.57900 25.43900
O  0.95800 2.90100 24.26600
C  1.32500 1.05100 25.75400
N  1.37100 8.17400 25.62400
C  1.29600 7.20200 24.72900
C  1.01400 7.64100 23.29200
C  0.86800 9.21100 23.54400
C  1.24800 9.35200 24.93700
C  2.21400 7.46900 22.27300
C  -0.45600 9.86300 23.00600
C  -0.44400 11.13900 22.24000
N  1.96300 9.93300 27.77000
C  1.96200 10.90000 26.76500
C  2.14600 12.16000 27.39100
C  2.24200 11.90100 28.75900
C  2.05200 10.54000 28.92800
C  2.12800 13.54500 26.68000
C  2.48700 12.48000 30.10600
O  2.78100 13.60300 30.46600
C  2.33600 11.34300 31.16000
C  3.54300 11.26300 32.02200
O  4.65700 11.13700 31.54800
O  3.35500 11.48900 33.42300
C  4.57200 11.68500 34.21400
H  1.94600 4.44700 30.66000
H  1.12500 5.24000 24.17100
H  1.46400 11.45800 24.78000
H  2.31500 8.79800 32.81100
H  1.51400 6.08500 32.50800
H  4.03100 6.98800 33.13500
H  4.20700 5.90000 31.87900
H  3.33700 5.27200 33.18800
H  -0.34200 7.57300 32.10200
H  -0.16300 9.20800 32.00400
H  -0.88500 7.65900 34.20300
H  -0.66400 9.36100 34.27800
H  1.18700 1.61900 28.27000
H  1.90300 2.31200 29.69400
H  2.89600 1.74400 28.26600
H  1.38000 0.43300 24.85900
H  0.43800 0.70500 26.28600
H  2.16900 0.81900 26.40300
H  0.11400 7.13700 22.94000
H  1.59900 9.78900 22.97700
H  1.82100 7.04800 21.34700
H  2.86500 6.72100 22.72600
H  2.81600 8.37000 22.15300
H  -1.10700 10.17000 23.82500
H  -1.05600 9.12900 22.46800
H  -0.83400 10.80300 21.27900
H  0.57400 11.41900 21.97000
H  -1.01700 11.99700 22.59200
H  3.02300 13.82900 26.12800
H  1.88200 14.26500 27.46100
H  1.22100 13.41000 26.09000
H  1.52300 11.56500 31.85200
H  4.53300 12.51700 34.91800
H  5.40800 12.02700 33.60500
H  4.77400 10.73500 34.70800
Mg 55.47000 22.71100 44.27100
C  53.31100 25.44300 43.27500
C  53.05700 20.58400 43.10900
C  57.66200 20.32300 44.81000
C  57.79600 25.10200 45.31900
N  53.49200 23.04300 43.18500
C  52.81200 24.20600 42.95700
C  51.33700 23.94800 42.57900
C  51.19100 22.38600 42.95900
C  52.68800 21.96800 42.97200
C  50.33600 21.98000 44.26000
C  50.99900 24.32400 41.07800
C  49.56500 24.67300 40.76400
H  48.84200 23.98100 39.62500
N  55.45100 20.70400 43.84900
C  54.36700 19.96400 43.42500
C  54.65400 18.56200 43.51600
C  55.99300 18.43800 43.99300
C  56.45800 19.85500 44.26500
C  53.66300 17.56600 42.99600
C  56.80000 17.14100 44.00400
O  56.29500 16.08200 43.68200
C  58.19700 17.12600 44.23300
N  57.47300 22.68400 44.83400
C  58.19800 21.58500 44.96400
C  59.68500 21.85000 45.25000
C  59.62500 23.36400 45.56700
C  58.22900 23.78500 45.24900
C  60.35900 21.02000 46.40300
C  60.70000 24.20000 44.69300
C  61.09300 25.62200 45.23400
N  55.60700 24.82000 44.29900
C  56.56500 25.62000 44.82100
C  56.18500 27.00800 44.61900
C  54.87400 26.94500 44.21900
C  54.57100 25.61300 43.94200
C  57.01300 28.31700 44.87000
C  53.69700 27.73600 43.89900
O  53.47600 28.90800 44.08000
C  52.68700 26.81400 43.17200
C  52.57300 27.26600 41.75700
O  53.44500 27.06800 40.92500
O  51.27300 27.77200 41.57400
C  50.99900 28.21100 40.16000
H  52.34000 19.76900 42.99100
H  58.44300 19.61500 45.09500
H  58.46200 25.91100 45.62800
H  50.71800 24.50900 43.27900
H  50.70600 21.79600 42.18100
H  51.03200 21.55900 44.98500
H  49.52700 21.27900 44.05300
H  49.92500 22.85800 44.75900
H  51.09200 23.36700 40.56500
H  51.80900 24.93100 40.67200
H  49.78700 25.68800 40.43500
H  48.99600 24.43200 41.66200
H  52.61000 17.80100 43.14800
H  53.78100 16.64900 43.57400
H  53.87000 17.30200 41.95900
H  58.56200 17.91500 43.57400
H  58.75200 16.22200 43.98400
H  58.43400 17.35700 45.27100
H  60.16300 21.71500 44.28000
H  59.75500 23.54900 46.63400
H  59.72000 20.29200 46.90200
H  60.89000 21.44700 47.25400
H  60.94000 20.21000 45.96100
H  60.23700 24.39700 43.72600
H  61.63500 23.70000 44.43900
H  60.49600 26.32100 44.64800
H  62.12200 25.81300 44.92900
H  60.99400 25.81900 46.30100
H  57.48200 28.20000 45.84700
H  56.36400 29.18400 44.74900
H  57.81600 28.47000 44.14900
H  51.71400 26.80500 43.66300
H  51.88700 28.71400 39.77800
H  50.23100 28.98500 40.14900
H  50.74000 27.39300 39.48800

