158

Mg 0.97700 7.69900 27.42900
C  1.66700 9.76700 30.28900
C  0.31900 5.11600 29.80300
C  0.08800 5.77400 24.95800
C  1.69600 10.43400 25.36400
N  1.19700 7.34500 29.84000
C  1.29800 8.44100 30.72400
C  1.04900 8.00900 32.19700
C  0.74800 6.45300 32.00000
C  0.73700 6.27400 30.49700
C  1.79600 5.52200 32.72400
C  -0.20900 8.69300 32.69400
C  -0.26400 9.13100 34.15200
H  0.37400 8.26600 35.28200
N  0.34700 5.75500 27.39000
C  0.25400 4.80600 28.41000
C  -0.16500 3.54400 27.86300
C  -0.29500 3.71500 26.47400
C  0.05100 5.12300 26.17900
C  -0.24000 2.31100 28.80500
C  -0.66300 2.66600 25.41000
O  -0.63200 2.90300 24.21000
C  -1.11700 1.33900 25.86300
N  0.82800 8.07300 25.48800
C  0.55200 7.08200 24.61800
C  0.59800 7.58200 23.13800
C  1.14600 8.99200 23.25000
C  1.19100 9.25700 24.78100
C  1.35000 6.60500 22.23800
C  0.31600 10.07800 22.38800
C  -0.78500 10.84300 23.02100
N  1.70700 9.57700 27.69000
C  1.91400 10.56900 26.71700
C  2.20800 11.81600 27.43000
C  2.00200 11.54700 28.79900
C  1.80600 10.19000 28.92900
C  2.40200 13.16800 26.80800
C  2.05100 12.10000 30.10300
O  2.26300 13.26000 30.39800
C  1.78500 11.02400 31.11300
C  2.72900 11.11400 32.16800
O  3.89200 10.80300 32.11600
O  2.17000 11.73800 33.21200
C  3.01800 11.89500 34.39400
H  -0.00900 4.35900 30.51900
H  -0.17300 5.08300 24.15400
H  1.93100 11.20300 24.62400
H  1.93300 8.17400 32.81300
H  -0.21700 6.27100 32.47200
H  2.45000 4.93200 32.08100
H  1.20200 4.80200 33.28700
H  2.31400 6.14000 33.45800
H  -1.11800 8.10400 32.57300
H  -0.42900 9.52500 32.02500
H  -1.35200 9.18000 34.20200
H  0.09000 10.15300 34.28600
H  0.56300 1.60400 28.60100
H  -1.17900 1.77100 28.68200
H  -0.11400 2.55400 29.86000
H  -1.63800 0.84300 25.04300
H  -1.82700 1.48200 26.67700
H  -0.33900 0.66000 26.21200
H  -0.42900 7.60900 22.77300
H  2.19900 9.03400 22.97100
H  1.30800 7.01700 21.22900
H  0.84500 5.64100 22.29800
H  2.38100 6.50700 22.57700
H  -0.17200 9.56700 21.55800
H  1.06000 10.77000 21.99300
H  -1.56300 11.09800 22.30100
H  -0.44500 11.77500 23.47300
H  -1.33400 10.22400 23.73100
H  1.40300 13.59800 26.74200
H  2.96800 13.14100 25.87600
H  2.93000 13.85900 27.46500
H  0.83000 11.27800 31.57300
H  3.10500 10.93900 34.91100
H  2.53200 12.57700 35.09100
H  4.01400 12.29200 34.19700
Mg 48.28100 34.77800 26.96400
C  46.48100 33.43400 29.69500
C  49.00100 37.58600 28.86600
C  49.79400 36.08200 24.28900
C  47.39800 31.94400 25.10000
N  47.86000 35.35400 29.03900
C  47.19300 34.64000 30.02200
C  47.42100 35.24100 31.41200
C  47.92200 36.66800 31.04100
C  48.30900 36.52800 29.54900
C  47.01100 37.80800 31.33000
C  48.49300 34.46400 32.28300
C  48.15000 34.32200 33.74800
H  47.09200 35.32700 34.33700
N  49.22400 36.61900 26.60100
C  49.47500 37.58700 27.52200
C  50.37200 38.54300 26.98100
C  50.63100 38.13600 25.67100
C  49.83600 36.93300 25.44200
C  50.99200 39.78300 27.74800
C  51.45900 38.81700 24.55300
O  51.45100 38.43000 23.42700
C  52.34200 40.00500 24.87700
N  48.48800 34.06900 24.95800
C  49.16400 34.91500 24.08100
C  49.36600 34.19500 22.72100
C  48.70900 32.74800 22.97700
C  48.06700 32.90000 24.40500
C  48.90600 34.95700 21.47500
C  49.65600 31.49600 22.99000
C  49.02800 30.22000 22.50800
N  47.26700 33.00600 27.27300
C  46.98200 31.90100 26.45400
C  46.21700 30.95800 27.16100
C  45.94800 31.53100 28.39500
C  46.61800 32.71900 28.49800
C  45.77800 29.61000 26.66400
C  45.24300 31.27300 29.67000
O  44.57800 30.31600 30.00500
C  45.65200 32.48700 30.65100
C  46.57400 31.86700 31.75300
O  47.64400 31.25900 31.63000
O  45.93100 32.03100 32.90900
C  46.39100 31.04400 34.01600
H  49.28000 38.46300 29.45400
H  50.43600 36.41600 23.47100
H  47.37300 31.02100 24.51700
H  46.48900 35.42100 31.94900
H  48.76900 36.99500 31.64400
H  46.56200 38.25700 30.44400
H  47.67700 38.55200 31.76700
H  46.14400 37.63000 31.96500
H  49.46000 34.96600 32.24100
H  48.71000 33.46500 31.90500
H  49.07500 34.51600 34.29000
H  47.74600 33.34800 34.02300
H  52.07700 39.70700 27.82600
H  50.59600 39.95600 28.74900
H  50.62800 40.62300 27.15600
H  52.78500 40.44200 23.98200
H  53.14300 39.79800 25.58700
H  51.71700 40.80500 25.27300
H  50.45100 34.09500 22.70800
H  47.97700 32.42100 22.23900
H  49.82100 35.16100 20.91800
H  48.32700 35.85700 21.68400
H  48.18700 34.35500 20.91800
H  50.05000 31.36500 23.99800
H  50.57100 31.71300 22.44000
H  49.48000 29.91100 21.56600
H  47.97300 30.32600 22.25200
H  49.03800 29.43600 23.26600
H  46.57800 29.13500 26.09600
H  44.96600 29.81300 25.96500
H  45.48100 29.10600 27.58300
H  44.80400 33.06500 31.01800
H  46.41800 30.00700 33.68100
H  45.87700 31.10000 34.97600
H  47.43100 31.32500 34.17600

