158

Mg 17.53600 -1.16300 27.73300
C  16.65500 0.66400 30.68200
C  19.35000 -3.17900 29.74700
C  18.62600 -2.67000 24.96100
C  15.82800 1.10600 25.84200
N  17.91400 -1.27200 30.01200
C  17.55500 -0.31000 30.93500
C  17.97200 -0.76900 32.35800
C  19.08200 -1.79800 31.94000
C  18.74700 -2.12900 30.49200
C  20.56700 -1.21600 31.99400
C  16.90600 -1.39500 33.32300
C  17.19500 -1.76300 34.79900
H  18.55700 -1.61200 35.37400
N  18.68600 -2.80100 27.38600
C  19.39300 -3.45600 28.37600
C  20.14400 -4.55200 27.75600
C  19.88700 -4.45200 26.39400
C  18.98700 -3.26000 26.16300
C  21.03700 -5.55500 28.65200
C  20.44700 -5.27400 25.25700
O  20.04300 -5.17700 24.07200
C  21.28700 -6.45500 25.65500
N  17.37800 -0.74600 25.64600
C  17.91500 -1.54900 24.64000
C  17.52300 -1.12100 23.19000
C  16.53600 0.06000 23.59000
C  16.50600 0.10200 25.13600
C  18.76400 -0.66000 22.26900
C  15.15900 0.05200 22.82800
C  15.11000 0.60900 21.43500
N  16.38200 0.46800 28.08000
C  15.73900 1.29200 27.25000
C  14.87700 2.20700 28.01800
C  15.16500 1.91600 29.32100
C  16.14900 0.95600 29.35700
C  13.88800 3.13200 27.43600
C  14.90700 2.45100 30.66000
O  14.17100 3.35600 31.05700
C  15.81500 1.54800 31.59700
C  16.60900 2.46000 32.44900
O  17.73500 2.77200 32.05200
O  15.82700 3.05800 33.37000
C  16.45500 4.14200 33.99900
H  20.02500 -3.80300 30.33800
H  18.94700 -3.18700 24.05500
H  15.31300 1.92700 25.33800
H  18.34900 0.08500 32.92000
H  19.06000 -2.72500 32.51300
H  20.66500 -0.23300 32.45400
H  20.91700 -1.14000 30.96500
H  21.26000 -1.80000 32.60100
H  16.58000 -2.28700 32.78800
H  16.01000 -0.77800 33.25000
H  16.95100 -2.81900 34.91600
H  16.49000 -1.16600 35.37800
H  20.85800 -6.57300 28.30500
H  20.73300 -5.56200 29.69800
H  22.10800 -5.36000 28.60200
H  22.05700 -6.14100 26.36000
H  21.79800 -6.67500 24.71800
H  20.63400 -7.27100 25.96600
H  16.92000 -1.96500 22.85600
H  16.92500 1.03700 23.30300
H  18.54100 0.31700 21.84000
H  18.68100 -1.46300 21.53700
H  19.69300 -0.83700 22.81000
H  14.57900 0.70800 23.47800
H  14.81800 -0.96300 23.03000
H  14.67100 1.60700 21.42300
H  14.52100 -0.14000 20.90500
H  16.11900 0.70300 21.03500
H  14.39400 3.63300 26.61100
H  13.59500 3.88300 28.16900
H  12.98800 2.68000 27.02000
H  15.17500 1.03200 32.31300
H  15.62300 4.69100 34.44200
H  16.99400 4.82100 33.33800
H  17.17200 3.84100 34.76200
Mg 40.48900 9.29700 29.21200
C  42.09400 10.67400 31.96600
C  38.28100 7.78000 31.38300
C  39.19000 7.75400 26.67600
C  43.38700 10.23200 27.24600
N  40.23300 9.17700 31.35900
C  40.90100 9.97500 32.28500
C  40.23300 9.94100 33.66400
C  39.25100 8.74700 33.48700
C  39.28400 8.47100 32.02200
C  39.45500 7.53700 34.41200
C  39.64500 11.31400 34.13400
C  38.91400 11.34700 35.50400
H  39.53700 12.25400 36.60000
N  38.98700 8.00700 28.97700
C  38.13900 7.63400 29.99400
C  37.06500 6.80200 29.41700
C  37.28000 6.70300 27.94600
C  38.48800 7.50400 27.78100
C  35.97000 6.17600 30.22300
C  36.44900 5.92100 26.94400
O  36.78400 5.90600 25.75800
C  35.36200 4.96500 27.32800
N  41.32500 8.90100 27.29000
C  40.43800 8.35100 26.43000
C  40.92700 8.53700 24.93000
C  42.29300 9.24600 25.10300
C  42.37700 9.50000 26.62400
C  40.96800 7.28500 24.00000
C  42.54800 10.53700 24.22800
C  41.79400 11.86700 24.61700
N  42.29100 10.33600 29.49300
C  43.36100 10.63400 28.65500
C  44.32200 11.51000 29.26900
C  43.92400 11.48500 30.59600
C  42.71700 10.77700 30.65400
C  45.45500 12.22100 28.67700
C  44.27300 11.89200 31.84700
O  45.25300 12.54300 32.16400
C  43.15400 11.37500 32.81100
C  43.68700 10.40200 33.86600
O  44.57600 9.55800 33.66100
O  43.16000 10.73700 35.09700
C  43.68600 9.84800 36.21800
H  37.49100 7.42300 32.04800
H  38.70000 7.31500 25.80500
H  44.29700 10.52200 26.71800
H  41.03700 9.70100 34.36000
H  38.32800 9.30300 33.65200
H  39.97000 6.73200 33.88900
H  38.48400 7.28300 34.83800
H  40.19800 7.83500 35.15100
H  38.86700 11.59800 33.42500
H  40.50100 11.98800 34.14400
H  38.82300 10.30200 35.80300
H  37.87900 11.68800 35.49500
H  35.07900 6.19500 29.59600
H  35.74600 6.67000 31.16800
H  36.23600 5.14000 30.43000
H  34.41700 5.50400 27.39600
H  35.58100 4.35900 28.20700
H  35.25800 4.23300 26.52700
H  40.23700 9.29000 24.54700
H  43.11600 8.57300 24.86400
H  40.06400 7.23500 23.39400
H  41.09500 6.42300 24.65500
H  41.77700 7.47800 23.29500
H  42.65900 10.49400 23.14500
H  43.57400 10.83300 24.44800
H  42.59100 12.50600 24.99900
H  41.02400 11.57400 25.33000
H  41.30000 12.21100 23.70800
H  45.56800 12.12600 27.59700
H  46.36100 11.78800 29.10200
H  45.42100 13.27300 28.96000
H  42.75300 12.24400 33.33200
H  43.13900 10.04200 37.14100
H  44.76600 9.95100 36.32200
H  43.42300 8.86900 35.81800

