158

Mg 1.97900 -2.07300 44.59300
C  5.35600 -1.02500 44.10000
C  1.02900 0.55000 42.62400
C  -1.19800 -3.27300 44.68100
C  3.25300 -5.10000 45.90400
N  3.18300 -0.37300 43.45700
C  4.50800 -0.14700 43.48000
C  4.78500 1.15800 42.80000
C  3.34900 1.63900 42.28500
C  2.44800 0.56300 42.81100
C  2.97900 2.99800 42.84200
C  5.93000 1.07700 41.68300
C  6.05700 -0.13900 40.80800
H  6.95500 0.02300 39.61600
N  0.20900 -1.46500 43.79100
C  0.04100 -0.36500 42.95200
C  -1.38500 -0.14900 42.70600
C  -2.11900 -1.20100 43.37000
C  -1.03000 -2.00600 44.02900
C  -1.84400 1.11700 41.90900
C  -3.63900 -1.34200 43.41000
O  -4.43600 -0.54400 42.86300
C  -4.29300 -2.59100 43.89700
N  1.21000 -4.02000 44.96300
C  -0.14600 -4.15300 45.12800
C  -0.38700 -5.43300 45.95200
C  0.95300 -6.20100 45.97800
C  1.86700 -5.06200 45.60400
C  -1.01200 -5.16800 47.37200
C  1.17400 -7.45300 45.13000
C  1.64800 -8.67500 45.81200
N  3.90100 -2.95800 44.91700
C  4.26100 -4.20400 45.42800
C  5.73400 -4.24900 45.53600
C  6.15800 -3.04500 44.99700
C  5.04100 -2.26000 44.60700
C  6.64600 -5.27800 46.18300
C  7.35200 -2.21300 44.81000
O  8.50500 -2.50100 45.06700
C  6.87100 -0.85500 44.27300
C  7.16700 0.20500 45.26400
O  6.81900 0.26200 46.45300
O  7.95800 1.19300 44.67700
C  8.34600 2.33400 45.44900
H  0.74600 1.47700 42.12200
H  -2.21200 -3.59100 44.93000
H  3.52400 -6.02900 46.41100
H  5.13500 1.88900 43.52900
H  3.30400 1.68900 41.19700
H  2.28000 2.82700 43.66200
H  2.45200 3.57800 42.08400
H  3.81300 3.59300 43.21500
H  6.87900 1.22100 42.19900
H  5.79100 1.92400 41.01200
H  5.01400 -0.27200 40.52100
H  6.37600 -1.03800 41.33400
H  -1.55300 1.10900 40.85800
H  -1.28200 1.97700 42.27400
H  -2.90700 1.35300 41.95500
H  -3.94900 -3.56000 43.53400
H  -5.37300 -2.66700 43.76600
H  -4.19900 -2.39200 44.96400
H  -1.07400 -5.99400 45.31800
H  1.09500 -6.41800 47.03700
H  -0.77700 -5.99300 48.04500
H  -2.09300 -5.08800 47.25800
H  -0.59400 -4.24300 47.76700
H  2.06000 -7.23400 44.53400
H  0.26800 -7.61300 44.54500
H  1.56600 -8.70800 46.89800
H  2.70400 -8.86300 45.61300
H  1.06200 -9.49700 45.40300
H  6.67500 -6.24700 45.68400
H  6.62300 -5.31300 47.27200
H  7.61400 -4.94100 45.81200
H  7.48900 -0.67100 43.39400
H  9.41700 2.33900 45.65500
H  7.82500 2.50300 46.39100
H  8.04400 3.21300 44.88000
Mg 16.10500 -2.09600 27.72600
C  15.02500 -0.16700 30.30000
C  18.16000 -3.93600 29.91000
C  17.34100 -3.62300 25.15400
C  14.23500 0.00300 25.50500
N  16.73900 -1.84500 29.83900
C  15.90600 -1.20300 30.71800
C  16.27200 -1.53500 32.22200
C  17.41800 -2.55800 32.00400
C  17.47300 -2.80400 30.49400
C  18.78900 -1.89500 32.48100
C  15.14500 -2.06300 33.09200
C  15.15100 -1.49000 34.53900
H  16.39700 -0.95000 35.34100
N  17.34800 -3.70600 27.50000
C  18.02400 -4.35800 28.53900
C  18.56700 -5.57300 28.01900
C  18.39500 -5.45700 26.59400
C  17.73100 -4.26100 26.34800
C  19.22500 -6.71600 28.82800
C  18.68700 -6.57500 25.51400
O  18.40700 -6.40800 24.32600
C  19.26400 -7.85500 25.89000
N  15.90400 -1.74700 25.59400
C  16.62200 -2.47100 24.72900
C  16.57700 -1.89500 23.26400
C  15.35900 -0.93400 23.40100
C  15.12900 -0.88900 24.94900
C  17.88300 -1.28100 22.67800
C  14.08900 -1.45700 22.76200
C  13.44000 -0.48400 21.86400
N  14.79700 -0.40700 27.80700
C  14.10100 0.26700 26.84200
C  13.28200 1.31000 27.48600
C  13.58900 1.16300 28.82000
C  14.57400 0.14000 28.96200
C  12.47100 2.30700 26.86500
C  13.30800 1.69500 30.20000
O  12.50000 2.54200 30.57900
C  14.21200 0.76700 31.19100
C  15.11300 1.65400 31.93800
O  16.20600 2.12400 31.56000
O  14.44900 2.16800 32.99500
C  14.99400 3.39000 33.57800
H  18.91500 -4.41000 30.54000
H  17.72500 -4.13700 24.27000
H  13.58100 0.52400 24.80300
H  16.72900 -0.63800 32.64000
H  17.27000 -3.45700 32.60200
H  18.76600 -0.80600 32.44600
H  19.59900 -2.34200 31.90500
H  18.81200 -2.13200 33.54500
H  15.03400 -3.14600 33.14300
H  14.21200 -1.61900 32.74700
H  14.57400 -2.19200 35.14100
H  14.51000 -0.61000 34.48500
H  18.58300 -7.59500 28.90000
H  19.47300 -6.46800 29.86000
H  20.25500 -6.91500 28.53300
H  18.61300 -8.37800 26.59100
H  20.29000 -7.75600 26.24600
H  19.23200 -8.49000 25.00400
H  16.27600 -2.69500 22.58700
H  15.66000 0.03200 22.99500
H  18.48700 -1.58000 23.53500
H  17.82100 -0.22400 22.42000
H  18.12800 -1.93800 21.84400
H  13.43400 -1.86600 23.53100
H  14.34600 -2.22500 22.03400
H  13.83000 0.52700 21.98300
H  12.36800 -0.39200 22.04200
H  13.53000 -0.78000 20.81900
H  11.83600 2.86900 27.55000
H  11.65600 1.89600 26.26900
H  13.08400 2.99200 26.28000
H  13.66200 0.36300 32.04100
H  15.63200 3.96900 32.91000
H  15.56700 3.16700 34.47900
H  14.11200 3.92300 33.93200

