158

Mg 45.52900 17.34000 28.89700
C  44.04500 16.48800 31.83900
C  47.78000 19.40100 30.57600
C  47.01500 18.15600 25.82700
C  43.09100 15.49500 27.18400
N  45.70700 18.00400 30.87800
C  45.13700 17.33500 31.97300
C  45.88600 17.66000 33.25100
C  46.65900 18.94200 32.78800
C  46.73400 18.78800 31.30300
C  46.03500 20.27100 33.23200
C  46.70800 16.58200 33.88400
C  46.65200 16.56900 35.51300
H  46.58500 17.87100 36.23800
N  47.12800 18.51500 28.32800
C  47.89300 19.35000 29.13900
C  48.72900 20.18900 28.33900
C  48.61900 19.79300 26.99800
C  47.56200 18.81200 27.01100
C  49.62700 21.25600 28.85600
C  49.15300 20.44200 25.71200
O  48.61200 20.28000 24.64800
C  50.32700 21.36100 25.77400
N  45.27000 16.73800 26.75200
C  45.93700 17.25300 25.71600
C  45.37200 16.68900 24.41900
C  44.05400 15.85700 24.84100
C  44.12200 16.01400 26.35500
C  45.14800 17.79300 23.34100
C  44.06100 14.31000 24.36200
C  44.61800 13.20900 25.25000
N  43.94700 16.26100 29.36500
C  43.05700 15.57900 28.60300
C  41.92300 14.96100 29.44700
C  42.42000 15.27400 30.74300
C  43.53600 16.06700 30.63000
C  40.69200 14.12600 29.03800
C  42.15500 15.04800 32.14000
O  41.24400 14.34700 32.66000
C  43.15700 15.82000 32.86300
C  42.56700 16.72900 33.75900
O  41.83100 17.65700 33.42400
O  42.89000 16.41400 35.05800
C  42.29900 17.30100 36.11200
H  48.52700 19.99900 31.10200
H  47.55500 18.31000 24.89000
H  42.28200 14.90800 26.74300
H  45.13800 17.99300 33.97000
H  47.68000 19.02800 33.15900
H  45.87200 20.92000 32.37100
H  46.78000 20.76700 33.85500
H  45.20100 20.18200 33.92800
H  47.73200 16.62500 33.51200
H  46.30300 15.61800 33.57800
H  47.59000 16.04100 35.68700
H  45.86300 15.91600 35.88700
H  50.66000 20.97900 28.64700
H  49.45800 21.56500 29.88700
H  49.31600 22.17700 28.36300
H  50.03700 22.36400 26.08800
H  50.63300 21.31400 24.72900
H  51.05700 20.93500 26.46300
H  46.15500 16.01300 24.07800
H  43.16300 16.42000 24.56400
H  45.84300 17.62700 22.51800
H  45.30300 18.79000 23.75200
H  44.14100 17.80400 22.92300
H  44.52400 14.16900 23.38500
H  43.03400 14.00400 24.16500
H  43.83000 12.47900 25.44200
H  45.12300 13.56200 26.14900
H  45.45300 12.76500 24.70800
H  40.78500 13.99500 27.96000
H  39.85800 14.75400 29.35000
H  40.81400 13.19900 29.59800
H  43.80700 15.16100 33.44000
H  42.68900 18.30500 35.94600
H  42.58600 16.81600 37.04500
H  41.21500 17.18800 36.11800
Mg 49.41800 36.16500 28.41600
C  46.91900 34.57500 30.35600
C  49.18600 38.79100 30.59200
C  51.28200 37.80200 26.29600
C  48.79400 33.69500 25.92800
N  48.34400 36.54200 30.39600
C  47.40300 35.71000 31.00300
C  46.93100 36.41900 32.34200
C  47.70400 37.79800 32.31100
C  48.54000 37.68800 31.05200
C  46.73800 39.03700 32.38500
C  47.02300 35.61700 33.75000
C  48.31000 34.76900 33.90300
H  49.37000 35.42500 34.82300
N  50.16400 38.07300 28.48200
C  49.93500 39.04700 29.41900
C  50.55500 40.29400 29.02800
C  51.15400 40.01600 27.81900
C  50.96400 38.59300 27.49900
C  50.42700 41.62100 29.71500
C  52.03400 40.95400 26.93200
O  52.56900 40.59100 25.85900
C  52.26800 42.37300 27.31600
N  49.99500 35.71200 26.46100
C  50.79200 36.56300 25.78200
C  51.04600 36.06000 24.37000
C  50.20500 34.85000 24.25500
C  49.68800 34.65400 25.65600
C  50.81100 37.05900 23.19800
C  50.91800 33.55800 23.61100
C  50.17300 33.08500 22.43500
N  48.19500 34.46600 28.17200
C  48.07800 33.54400 27.08600
C  47.11100 32.56300 27.41400
C  46.55300 32.90900 28.65200
C  47.29500 34.05900 29.07200
C  46.62100 31.45100 26.55500
C  45.53000 32.60500 29.70500
O  44.68100 31.76500 29.79800
C  45.76900 33.64600 30.85800
C  46.13300 32.90500 31.99900
O  47.20400 32.29200 32.20700
O  45.10200 32.87300 32.88200
C  45.46400 32.32400 34.21100
H  49.31800 39.69100 31.19800
H  51.87900 38.38900 25.59600
H  48.63600 32.90400 25.19100
H  45.86800 36.59000 32.17400
H  48.31300 37.91800 33.20600
H  46.41700 39.28100 31.37200
H  47.14300 39.92700 32.86800
H  45.85600 38.75000 32.95600
H  46.16200 34.95100 33.79900
H  46.96800 36.30600 34.59200
H  48.75000 34.67300 32.91100
H  48.03800 33.85300 34.42700
H  50.25100 42.42200 28.99700
H  51.35000 41.90100 30.22300
H  49.53600 41.58300 30.34200
H  51.35200 42.96200 27.35500
H  52.66700 42.87500 26.43400
H  52.94900 42.39600 28.16600
H  52.10500 35.80500 24.33800
H  49.33200 35.14100 23.67100
H  50.84600 38.07200 23.60100
H  49.91900 36.88600 22.59600
H  51.63700 36.91100 22.50400
H  50.98700 32.78400 24.37600
H  51.94200 33.85800 23.38800
H  50.75700 32.77100 21.56900
H  49.42900 33.77300 22.03500
H  49.60100 32.23100 22.79700
H  45.94400 31.93800 25.85300
H  46.17000 30.65200 27.14400
H  47.48500 31.10500 25.98900
H  44.88600 34.26400 31.01800
H  45.45500 31.23600 34.26900
H  44.77300 32.74400 34.94100
H  46.42900 32.66500 34.58600

