158

Mg 53.34600 23.68500 44.63600
C  50.67700 25.91700 43.80700
C  51.62000 21.21700 42.99100
C  56.05500 21.89400 44.83300
C  54.90900 26.36100 46.20000
N  51.51500 23.68100 43.44200
C  50.60500 24.66900 43.26300
C  49.63500 24.25900 42.18400
C  49.61100 22.66000 42.41400
C  51.03200 22.47100 42.97000
C  48.56900 22.09700 43.34400
C  50.17000 24.67500 40.73300
C  49.11900 25.30600 39.84900
H  49.54900 26.17300 38.65500
N  53.76500 21.77100 44.00500
C  52.90600 20.85400 43.45700
C  53.51800 19.55800 43.49000
C  54.83300 19.79700 43.94000
C  54.91100 21.18000 44.35000
C  52.72800 18.29600 43.04700
C  55.91700 18.74700 44.10700
O  55.77100 17.56200 43.69100
C  57.23900 19.00100 44.74100
N  55.35600 24.16700 45.20900
C  56.26800 23.21200 45.24900
C  57.55500 23.74200 45.85600
C  57.19800 25.17300 46.26300
C  55.70600 25.30900 45.84700
C  58.03600 22.92200 47.03300
C  58.15900 26.23000 45.55100
C  57.90800 26.59500 44.10100
N  52.97100 25.71700 44.92300
C  53.62600 26.57800 45.76100
C  52.87200 27.73900 46.00000
C  51.70000 27.55700 45.28400
C  51.79600 26.31500 44.59600
C  53.23500 28.99100 46.83500
C  50.57900 28.21600 44.84700
O  50.21300 29.36500 45.13700
C  49.81300 27.21400 43.81400
C  49.50800 27.85200 42.51100
O  50.24300 27.83000 41.52300
O  48.21300 28.38000 42.53300
C  47.63700 29.12400 41.40400
H  50.92600 20.43700 42.67200
H  56.92300 21.24500 44.96900
H  55.29100 27.19900 46.78800
H  48.59200 24.54000 42.33200
H  49.43300 22.13900 41.47300
H  49.03200 22.12800 44.33000
H  48.43800 21.04300 43.09800
H  47.58000 22.55500 43.32000
H  50.41600 23.72000 40.27000
H  51.05800 25.30500 40.78000
H  48.54700 26.02500 40.43400
H  48.33500 24.59400 39.59300
H  52.71300 18.19800 41.96200
H  51.72200 18.40000 43.45500
H  53.32600 17.49300 43.47800
H  57.90900 18.14700 44.64700
H  57.15900 19.34300 45.77300
H  57.83900 19.73200 44.19700
H  58.25700 23.64100 45.02800
H  57.27300 25.28600 47.34500
H  59.09800 22.71100 46.90400
H  57.39300 22.04400 47.08600
H  57.85900 23.42000 47.98600
H  59.18400 25.89500 45.71300
H  58.17900 27.16400 46.11200
H  57.79800 27.67900 44.10000
H  57.03100 26.13300 43.64800
H  58.69700 26.29400 43.41200
H  52.34300 29.39600 47.31200
H  53.55500 29.80000 46.17800
H  53.95900 28.76400 47.61700
H  48.93000 26.97900 44.40900
H  46.57000 29.22300 41.60500
H  47.81600 28.56500 40.48500
H  48.08900 30.11500 41.45000
Mg 47.31900 25.48900 28.78200
C  48.10000 27.80500 31.30600
C  46.05200 23.47900 31.19700
C  46.77700 23.38500 26.41500
C  49.12900 27.51500 26.45400
N  47.04900 25.69200 31.05800
C  47.48100 26.70400 31.86900
C  47.05100 26.47200 33.37200
C  46.60900 24.88000 33.31900
C  46.53700 24.66800 31.76700
C  47.65700 23.92600 34.05100
C  45.90900 27.48000 33.73800
C  45.74400 27.86400 35.19500
H  46.24600 26.94700 36.24500
N  46.53200 23.67700 28.81000
C  46.05100 23.00200 29.89700
C  45.45300 21.74200 29.45200
C  45.66900 21.69200 28.06100
C  46.35800 22.95400 27.71100
C  44.82500 20.67200 30.28900
C  45.17100 20.65000 27.08600
O  45.28100 20.83300 25.92700
C  44.44700 19.40100 27.49000
N  47.71400 25.49600 26.71900
C  47.46400 24.44900 26.00900
C  48.17900 24.54700 24.61700
C  48.50800 26.06300 24.48400
C  48.47700 26.38100 26.00700
C  49.38500 23.55200 24.53000
C  47.56000 26.91200 23.66100
C  47.83300 28.47000 23.62400
N  48.37400 27.22900 28.79000
C  49.04900 27.99000 27.76800
C  49.49000 29.28200 28.29400
C  49.10300 29.25500 29.68000
C  48.50700 27.99800 29.95100
C  50.23000 30.35900 27.51200
C  49.17100 30.03400 30.93700
O  49.62900 31.09100 31.28000
C  48.57200 29.02700 31.97900
C  49.56400 28.81400 33.06600
O  50.70800 28.32400 32.93000
O  48.97800 29.23900 34.23900
C  49.88400 29.30400 35.42300
H  45.70600 22.74500 31.92800
H  46.54000 22.75700 25.55400
H  49.75800 28.03200 25.72700
H  47.95400 26.66400 33.95000
H  45.58800 24.76600 33.68400
H  47.97400 23.22100 33.28200
H  47.14500 23.33800 34.81300
H  48.40800 24.61500 34.43600
H  45.00000 27.06100 33.30700
H  46.09800 28.39100 33.17000
H  44.73100 28.26400 35.24200
H  46.38300 28.74100 35.29400
H  43.77000 20.46100 30.11400
H  44.77400 21.05400 31.30900
H  45.39500 19.75900 30.11400
H  45.16300 18.98100 28.19700
H  44.27800 18.77600 26.61200
H  43.48600 19.68300 27.91900
H  47.39800 24.28100 23.90500
H  49.52200 26.24500 24.12800
H  49.18500 22.87700 23.69800
H  49.41800 22.93300 25.42700
H  50.32500 24.10200 24.47200
H  46.58900 26.70900 24.11200
H  47.71300 26.59100 22.63000
H  48.91400 28.56600 23.72300
H  47.24500 28.86900 24.45100
H  47.41200 28.93200 22.73100
H  50.94100 29.72700 26.98100
H  50.74300 31.05800 28.17400
H  49.51100 30.86500 26.86800
H  47.74100 29.50500 32.49700
H  49.29500 29.02800 36.29700
H  50.21100 30.33800 35.53500
H  50.78500 28.69000 35.40100

