158

Mg 42.96100 3.35300 47.19900
C  41.06200 6.20600 47.19000
C  40.05600 1.50900 47.08400
C  44.77200 0.55300 46.11700
C  45.85500 5.30200 46.43500
N  40.83000 3.84900 47.14300
C  40.22200 5.12100 47.21200
C  38.66900 4.96400 47.37400
C  38.44300 3.40200 47.63700
C  39.88600 2.87600 47.21200
C  37.97500 3.03400 49.05500
C  37.73900 5.58800 46.26500
C  38.16700 5.41400 44.78900
H  38.02500 6.63600 43.84300
N  42.48900 1.29000 46.76400
C  41.19800 0.76200 46.77700
C  41.25100 -0.61600 46.52600
C  42.62500 -0.98400 46.11800
C  43.36900 0.28600 46.43300
C  39.97700 -1.43200 46.62600
C  43.16400 -2.30100 45.55000
O  42.35000 -3.22600 45.37400
C  44.65700 -2.59100 45.15700
N  44.95400 3.02000 46.26300
C  45.45800 1.77500 46.11100
C  46.94500 1.78200 45.97100
C  47.32000 3.32900 45.88000
C  45.97300 3.96500 46.10700
C  47.54600 0.97200 47.15000
C  48.05600 3.71700 44.52200
C  49.58900 3.93000 44.60600
N  43.49000 5.32200 47.12400
C  44.66800 6.05000 46.85500
C  44.46900 7.44800 47.08900
C  43.04800 7.53600 47.27000
C  42.49600 6.22800 47.14400
C  45.33200 8.64700 46.80200
C  41.93800 8.51400 47.42200
O  41.98400 9.75800 47.36200
C  40.63500 7.65200 47.42300
C  39.95200 7.96300 48.74900
O  40.17000 7.41200 49.79100
O  38.83600 8.66300 48.43700
C  37.86600 8.81100 49.49600
H  39.11400 0.95700 47.07700
H  45.36300 -0.34300 45.91700
H  46.70800 5.95800 46.25100
H  38.49000 5.54800 48.27700
H  37.73100 2.97000 46.93400
H  37.13500 2.35400 48.91600
H  37.57400 3.91300 49.56100
H  38.75600 2.55100 49.64200
H  37.55100 6.65900 46.32800
H  36.78200 5.09800 46.44200
H  37.55100 4.59700 44.41300
H  39.20300 5.07600 44.77300
H  39.39800 -1.11400 45.75900
H  39.39600 -1.29700 47.53800
H  40.14500 -2.49700 46.46800
H  45.39100 -2.49600 45.95700
H  44.91200 -1.82700 44.42300
H  44.64500 -3.59000 44.72000
H  47.27400 1.10000 45.18700
H  47.99700 3.55200 46.70500
H  47.88400 0.04600 46.68500
H  46.93700 0.76200 48.02900
H  48.46000 1.47000 47.47500
H  47.68000 4.60900 44.02100
H  47.91500 2.86200 43.86000
H  49.91700 4.89900 44.22900
H  50.08600 3.25300 43.91200
H  49.88000 3.78400 45.64600
H  46.26600 8.36100 46.31900
H  45.52900 9.16400 47.74100
H  44.78400 9.25500 46.08100
H  40.07200 7.93700 46.53500
H  38.21100 9.63600 50.12000
H  37.71500 7.91600 50.09900
H  36.89200 9.08500 49.08900
Mg 48.36500 34.51300 27.67000
C  46.38200 33.19200 30.19000
C  48.62000 37.46400 29.56100
C  49.55300 36.11700 24.97100
C  47.27300 31.84500 25.63300
N  47.71000 35.14200 29.66400
C  46.94300 34.43900 30.50300
C  47.04100 35.10300 31.95100
C  47.27300 36.58500 31.53300
C  47.94000 36.40000 30.17600
C  46.07900 37.59100 31.48700
C  48.26400 34.45800 32.67400
C  48.52900 34.98000 34.10700
H  47.64600 36.01100 34.78500
N  49.26200 36.50400 27.33000
C  49.24200 37.52600 28.24500
C  49.82600 38.64000 27.63300
C  50.16900 38.39100 26.25000
C  49.68800 36.94300 26.11400
C  49.95100 39.93700 28.40900
C  50.63000 39.25600 25.16500
O  50.72400 38.86400 24.02600
C  50.76300 40.72500 25.46300
N  48.35200 34.05100 25.61700
C  48.91300 34.88500 24.72800
C  48.95300 34.30500 23.30500
C  48.24800 32.94400 23.55200
C  47.84800 32.92800 25.03600
C  48.27300 35.17700 22.09400
C  49.08500 31.67700 23.04800
C  50.22700 31.06500 24.00500
N  47.19300 32.76000 27.87300
C  46.94300 31.70500 26.99700
C  46.16400 30.71200 27.72900
C  45.87600 31.30800 28.95700
C  46.52900 32.50600 28.99100
C  45.75600 29.28200 27.24700
C  45.17600 31.09000 30.18100
O  44.54000 30.10800 30.54200
C  45.42300 32.39100 31.05700
C  45.77600 31.95600 32.45800
O  46.75800 31.24000 32.79200
O  44.79700 32.47200 33.28800
C  44.96400 32.21900 34.71100
H  48.45900 38.41500 30.07200
H  49.74800 36.59000 24.00600
H  47.10000 30.97800 24.99200
H  46.23700 34.90300 32.65900
H  48.09800 37.02200 32.09600
H  45.15800 37.06700 31.23200
H  46.22100 38.26900 30.64500
H  46.02100 38.21200 32.38100
H  49.06200 34.59200 31.94500
H  48.21200 33.37000 32.66400
H  49.56800 35.31000 34.14900
H  48.47600 34.08400 34.72500
H  50.86700 40.44300 28.10200
H  50.12700 39.69900 29.45900
H  49.08800 40.58900 28.28200
H  50.03200 41.06800 26.19500
H  50.69800 41.37600 24.59100
H  51.74000 40.86600 25.92500
H  50.04200 34.29400 23.27100
H  47.30600 32.93200 23.00300
H  48.99300 35.38400 21.30300
H  47.98600 36.12400 22.55200
H  47.42800 34.61500 21.69700
H  49.40400 32.05400 22.07600
H  48.28000 30.94800 22.96300
H  49.65700 30.27800 24.49800
H  50.49900 31.86200 24.69700
H  51.10600 30.61300 23.54400
H  45.31200 28.84300 28.14000
H  46.64400 28.75900 26.89400
H  44.96100 29.48700 26.53000
H  44.47300 32.91500 31.16100
H  45.94400 31.87000 35.03600
H  44.29600 31.44100 35.08100
H  44.64100 33.05900 35.32600

