158

Mg 30.38600 58.09700 39.32100
C  27.46100 56.24600 38.64000
C  32.27100 55.44600 38.11600
C  33.14100 60.08000 39.46200
C  28.37700 60.87900 40.12000
N  29.89900 56.01800 38.41000
C  28.62700 55.48200 38.27900
C  28.74500 54.10300 37.67900
C  30.29700 53.88300 37.66700
C  30.88200 55.19600 38.08000
C  30.76800 52.73800 38.63800
C  27.89300 53.87300 36.39300
C  28.27900 54.88700 35.16800
H  27.66400 54.56100 33.86100
N  32.43700 57.70700 39.07600
C  32.96800 56.61500 38.46500
C  34.42600 56.75700 38.48100
C  34.70200 58.15700 38.75500
C  33.41600 58.69700 39.17100
C  35.38200 55.69000 37.98200
C  36.11400 58.83300 38.55200
O  37.07100 58.15600 38.12200
C  36.33700 60.24200 38.78400
N  30.67500 60.19800 39.70300
C  31.92100 60.74500 39.79100
C  31.87700 62.18100 40.33200
C  30.38200 62.26700 40.90900
C  29.71700 61.02500 40.21100
C  32.92400 62.69900 41.32000
C  29.78600 63.68300 40.60200
C  28.71500 64.05000 41.62500
N  28.35800 58.57700 39.35300
C  27.68400 59.73400 39.75000
C  26.23400 59.46400 39.64900
C  26.17600 58.06300 39.30000
C  27.42000 57.57700 39.11000
C  25.11300 60.53200 39.86300
C  25.17600 57.02100 38.96900
O  23.93100 57.03700 38.93600
C  25.96400 55.83300 38.46700
C  25.67000 54.65700 39.28200
O  26.15500 54.30900 40.31800
O  24.62900 54.03000 38.66500
C  23.98300 52.98600 39.45100
H  32.88100 54.70900 37.58900
H  33.98300 60.77500 39.46100
H  27.83300 61.72600 40.54300
H  28.27400 53.39800 38.36300
H  30.55900 53.57600 36.65400
H  30.06700 51.91000 38.53700
H  30.87400 53.04100 39.68000
H  31.71500 52.34600 38.26800
H  26.85700 54.11900 36.62900
H  28.00100 52.85700 36.01200
H  29.36900 54.87600 35.14200
H  28.07100 55.89800 35.51700
H  35.45800 55.71300 36.89500
H  35.00800 54.70000 38.24200
H  36.36300 55.80400 38.44500
H  36.24100 60.37900 39.86100
H  35.48500 60.69400 38.27600
H  37.25400 60.71200 38.42800
H  32.02400 62.82100 39.46200
H  30.50700 62.18500 41.98800
H  33.71400 61.95300 41.22400
H  32.61500 62.70700 42.36500
H  33.37300 63.65100 41.04000
H  29.39000 63.51100 39.60200
H  30.53200 64.47400 40.53000
H  28.95400 65.05800 41.96400
H  28.87200 63.39800 42.48500
H  27.75400 64.04300 41.11100
H  24.40000 60.29100 39.07500
H  25.52400 61.53900 39.78100
H  24.67000 60.31000 40.83400
H  25.68500 55.60300 37.43900
H  24.74000 52.20600 39.53600
H  23.09600 52.57200 38.97100
H  23.65300 53.41600 40.39600
Mg 0.52100 43.04100 25.71100
C  2.40800 43.02400 28.61700
C  -2.28700 42.42200 27.69200
C  -1.16800 42.43900 22.90800
C  3.52800 42.89400 23.81800
N  0.07400 42.67200 27.94000
C  1.01200 42.90800 28.93400
C  0.35400 42.81800 30.33000
C  -1.19400 42.56500 29.98300
C  -1.18100 42.53900 28.47900
C  -2.05900 41.42400 30.58500
C  0.67400 44.10800 31.17500
C  1.46000 43.83600 32.52500
H  1.01200 42.63800 33.33300
N  -1.46900 42.57800 25.34700
C  -2.50300 42.42500 26.27000
C  -3.76000 42.30200 25.53100
C  -3.42800 42.19100 24.16100
C  -1.98100 42.41200 24.12300
C  -5.15300 42.18900 26.21900
C  -4.38800 42.14100 22.97800
O  -4.06100 41.90900 21.83300
C  -5.85900 42.44100 23.29700
N  1.11600 42.79400 23.68000
C  0.21400 42.60800 22.66800
C  0.82200 42.60100 21.24200
C  2.31500 42.95100 21.67400
C  2.34000 42.86500 23.15600
C  0.60700 41.27800 20.49100
C  2.86000 44.24100 21.13700
C  2.47800 45.64500 21.77800
N  2.53500 42.97700 26.04300
C  3.68600 42.99900 25.19500
C  4.88100 43.00900 26.00400
C  4.38600 43.02600 27.31700
C  3.00200 42.96600 27.26600
C  6.31500 43.02100 25.44600
C  4.89800 43.04300 28.64700
O  6.04600 43.11100 29.02400
C  3.61500 43.03700 29.50300
C  3.70300 41.79700 30.32800
O  3.14200 40.69100 30.12500
O  4.51300 42.05600 31.43900
C  4.61700 40.98900 32.38600
H  -3.21300 42.19300 28.22200
H  -1.65800 42.13200 21.98100
H  4.40900 42.91300 23.17300
H  0.76000 41.92500 30.80600
H  -1.76600 43.45100 30.25900
H  -2.93700 41.67100 31.18100
H  -1.42400 40.82900 31.24000
H  -2.40800 40.71200 29.83700
H  -0.22900 44.68500 31.37900
H  1.33700 44.77500 30.62400
H  1.21700 44.74700 33.07200
H  2.53100 43.92600 32.34600
H  -5.17600 42.17400 27.30900
H  -5.49000 41.25400 25.77300
H  -5.77100 42.97300 25.78100
H  -6.28500 41.62000 23.87400
H  -6.39200 42.59200 22.35900
H  -5.98600 43.38500 23.82600
H  0.35800 43.39000 20.65000
H  2.99600 42.13200 21.44400
H  0.21000 40.53600 21.18400
H  1.59100 40.90300 20.21100
H  -0.05200 41.40000 19.63100
H  2.46700 44.35800 20.12700
H  3.94000 44.14900 21.02300
H  2.14900 45.42800 22.79400
H  1.61500 46.01400 21.22400
H  3.38100 46.25500 21.79300
H  6.46000 42.78600 24.39200
H  6.78700 42.25500 26.06100
H  6.82400 43.95700 25.67800
H  3.69200 43.80200 30.27500
H  5.00500 40.13000 31.84000
H  3.67400 40.66200 32.82400
H  5.31700 41.33700 33.14600

