158

Mg 24.39900 -4.77600 45.39700
C  26.46400 -2.53500 43.82200
C  21.77200 -3.52700 43.48000
C  22.67900 -7.77800 45.92400
C  27.17000 -6.23000 47.00100
N  24.17400 -3.23700 43.82000
C  25.16600 -2.41000 43.44100
C  24.59900 -1.47200 42.41000
C  23.10300 -1.48200 42.72800
C  23.00900 -2.82700 43.41700
C  22.52200 -0.34800 43.59000
C  24.92300 -1.92100 40.96900
C  25.20700 -0.70300 40.03400
H  24.90500 -0.85600 38.53700
N  22.39200 -5.52300 44.85100
C  21.52100 -4.88600 44.00000
C  20.30400 -5.68400 44.03800
C  20.55700 -6.89500 44.65500
C  21.94400 -6.78800 45.21900
C  19.00900 -5.17900 43.37400
C  19.61900 -8.02000 44.90600
O  18.52000 -7.92600 44.32300
C  19.91000 -9.27900 45.86700
N  24.71800 -6.63500 46.55400
C  23.84400 -7.70900 46.58600
C  24.46100 -8.93100 47.31700
C  25.81700 -8.35800 47.75100
C  25.92900 -6.93200 47.08500
C  23.58500 -9.57600 48.41300
C  27.10300 -9.33100 47.70900
C  27.72900 -9.71200 49.12800
N  26.38800 -4.35200 45.55100
C  27.41300 -5.01000 46.26300
C  28.67100 -4.32700 46.01700
C  28.37100 -3.38100 45.05100
C  26.96300 -3.46200 44.84100
C  30.02300 -4.78300 46.53700
C  28.85400 -2.41600 44.12800
O  30.04700 -2.09400 43.92400
C  27.64300 -1.79400 43.28200
C  27.62900 -0.34000 43.59900
O  27.29300 0.08400 44.72500
O  28.03800 0.38300 42.48700
C  27.97400 1.81500 42.77800
H  20.92800 -3.07300 42.95500
H  22.34700 -8.80900 45.78700
H  27.92100 -6.74600 47.60300
H  25.06200 -0.49800 42.57200
H  22.49500 -1.65700 41.84000
H  21.84300 0.28100 43.01400
H  23.38600 0.27400 43.82200
H  22.12800 -0.70900 44.54000
H  24.06000 -2.48400 40.61200
H  25.77900 -2.59600 40.99900
H  26.26600 -0.44800 40.01700
H  24.64900 0.17500 40.36100
H  18.28000 -5.97200 43.20700
H  19.22500 -4.72400 42.40700
H  18.67600 -4.37100 44.02700
H  20.29700 -9.02900 46.85500
H  20.63800 -9.84800 45.29000
H  18.97300 -9.80700 46.04600
H  24.61700 -9.71200 46.57300
H  25.68300 -8.08600 48.79800
H  23.34800 -10.62800 48.24900
H  22.65400 -9.06600 48.65700
H  24.14400 -9.53700 49.34800
H  27.88100 -9.06600 46.99200
H  26.68900 -10.22100 47.23400
H  28.81200 -9.62200 49.04400
H  27.47700 -10.71900 49.46000
H  27.51400 -8.95900 49.88600
H  30.74500 -4.56200 45.75100
H  29.96800 -5.87000 46.46700
H  30.20800 -4.39000 47.53600
H  27.82100 -2.06600 42.24200
H  27.27500 2.21000 42.04000
H  28.95700 2.26900 42.65900
H  27.56600 2.20200 43.71200
Mg 1.44700 42.71600 24.70400
C  2.40600 42.87600 27.98300
C  -1.69200 41.56400 25.73400
C  0.63100 41.78500 21.44900
C  4.60300 43.50400 23.59400
N  0.53600 42.15700 26.68700
C  1.03900 42.50300 27.87100
C  -0.04800 42.30400 28.93000
C  -1.28700 41.80000 28.16500
C  -0.80300 41.76300 26.81000
C  -1.79600 40.37900 28.64300
C  -0.20200 43.59900 29.73800
C  -0.49300 43.38600 31.24300
H  -1.08600 42.05100 31.76600
N  -0.30200 41.93200 23.70900
C  -1.45200 41.56400 24.33900
C  -2.46000 41.25100 23.36600
C  -1.82300 41.35800 22.06800
C  -0.44700 41.72700 22.34500
C  -3.93300 40.92300 23.74700
C  -2.37100 41.18200 20.68400
O  -1.71700 41.24600 19.66500
C  -3.83000 40.67800 20.59500
N  2.43900 42.64500 22.76800
C  1.94600 42.17900 21.65600
C  3.05800 42.03100 20.55400
C  4.16400 43.04200 21.11400
C  3.70400 43.16500 22.55000
C  3.50400 40.56700 20.47700
C  4.13700 44.46100 20.54900
C  4.92300 44.59700 19.23000
N  3.21600 43.06100 25.59700
C  4.42500 43.39700 25.08200
C  5.29200 43.68600 26.17200
C  4.57800 43.50200 27.35000
C  3.32600 43.09800 26.92300
C  6.68600 44.15600 26.13500
C  4.68200 43.50100 28.85100
O  5.56500 43.73900 29.66700
C  3.23000 43.00400 29.28000
C  3.42000 41.70200 30.01100
O  4.51600 41.03600 30.01800
O  2.36000 41.27300 30.78600
C  2.42000 40.17500 31.71500
H  -2.68400 41.33900 26.13100
H  0.47800 41.35600 20.45700
H  5.51700 43.85000 23.10700
H  0.30000 41.50900 29.58900
H  -2.06400 42.54100 28.35300
H  -1.48200 39.65700 27.89000
H  -2.87900 40.46200 28.73200
H  -1.34100 40.05800 29.58000
H  -1.00600 44.21900 29.34000
H  0.64500 44.28000 29.64900
H  -1.05000 44.28300 31.51500
H  0.45200 43.47100 31.77900
H  -4.59600 41.72300 23.41600
H  -4.09300 40.74400 24.81000
H  -4.20700 39.98500 23.26300
H  -4.19200 40.82200 19.57700
H  -4.58500 41.13300 21.23700
H  -3.80900 39.59800 20.74100
H  2.64400 42.26000 19.57200
H  5.18000 42.64900 21.15000
H  4.47900 40.49800 20.95900
H  3.55100 40.30700 19.41900
H  2.85500 39.83900 20.96400
H  4.66400 44.99300 21.34200
H  3.12500 44.86000 20.48800
H  4.97700 45.63600 18.90500
H  4.65000 43.96000 18.38900
H  5.94300 44.30900 19.48300
H  7.36400 43.35000 25.85500
H  6.91100 44.72800 27.03400
H  6.76400 44.72100 25.20600
H  2.65500 43.68400 29.90800
H  2.46500 39.24400 31.15100
H  1.39500 40.08800 32.07400
H  3.19600 40.35900 32.45800

