158

Mg 8.56500 5.01600 27.58700
C  9.86500 3.29900 30.35300
C  6.60500 6.91200 29.59900
C  7.49400 6.63400 24.85100
C  10.09600 2.59400 25.49400
N  8.06400 4.91500 29.75500
C  8.84900 4.23900 30.65800
C  8.41000 4.67700 32.04300
C  7.45700 5.89600 31.80800
C  7.38700 5.95200 30.27100
C  5.96300 5.81100 32.43600
C  9.42700 4.89600 33.12900
C  8.82700 4.80200 34.52800
H  9.76200 5.00600 35.76900
N  7.28600 6.61500 27.29400
C  6.47200 7.12000 28.22700
C  5.48400 8.16700 27.55400
C  5.96200 8.24200 26.16800
C  6.99800 7.19300 26.06200
C  4.34200 8.98800 28.35900
C  5.52900 9.12600 25.05300
O  6.00900 9.06600 23.91900
C  4.46300 10.12000 25.32400
N  8.81500 4.73500 25.46300
C  8.31200 5.58000 24.57100
C  8.65100 5.16300 23.14300
C  9.48100 3.85700 23.24600
C  9.49400 3.68700 24.79600
C  7.39000 4.98100 22.19200
C  10.98000 3.86200 22.68100
C  11.28400 2.68300 21.75100
N  9.81600 3.29300 27.79600
C  10.29400 2.36700 26.89800
C  11.03100 1.30000 27.58300
C  10.97400 1.68400 28.91700
C  10.19900 2.89000 29.00800
C  11.56400 0.07600 26.95300
C  11.38500 1.38300 30.33200
O  12.13700 0.50800 30.71400
C  10.72900 2.46000 31.24600
C  9.93700 1.53500 32.16000
O  8.82800 1.03100 32.00100
O  10.51800 1.65400 33.38100
C  9.98500 0.85500 34.49000
H  6.06700 7.59600 30.25900
H  7.00800 7.10300 23.99200
H  10.59600 1.88800 24.82800
H  7.83400 3.78800 32.29900
H  7.98000 6.74300 32.25300
H  6.01800 4.99200 33.15300
H  5.27500 5.68800 31.60000
H  5.75900 6.70700 33.02300
H  10.06300 5.75500 32.91700
H  10.10900 4.04600 33.15800
H  8.65100 3.74100 34.70600
H  7.91200 5.38800 34.60800
H  3.38700 9.16500 27.86300
H  4.60200 10.03000 28.55100
H  4.17000 8.67200 29.38800
H  4.76200 10.64300 26.23300
H  3.47800 9.66000 25.40200
H  4.50700 10.87800 24.54200
H  9.24400 5.98300 22.73700
H  8.86200 3.00100 22.97600
H  7.49000 4.13000 21.51800
H  7.40100 5.84600 21.53000
H  6.39800 4.95500 22.64400
H  11.68300 3.91200 23.51300
H  11.19300 4.72100 22.04500
H  11.42400 2.93100 20.69900
H  10.47300 1.95600 21.79000
H  12.15000 2.12900 22.11200
H  11.93800 -0.49600 27.80200
H  12.27800 0.55800 26.28500
H  10.79600 -0.35800 26.31200
H  11.55400 2.84100 31.84800
H  9.53200 1.46800 35.26900
H  10.90200 0.45600 34.92400
H  9.33000 0.03600 34.19200
Mg -10.17600 17.20400 40.66300
C  -6.60100 16.93900 40.48400
C  -9.93800 20.55200 39.91400
C  -13.45200 17.20700 40.25300
C  -10.22000 13.54000 40.30700
N  -8.47100 18.55100 40.09500
C  -7.07100 18.23100 40.23500
C  -6.35700 19.57800 39.91500
C  -7.39600 20.64300 40.24700
C  -8.73000 19.89800 40.13100
C  -7.21200 21.28400 41.67200
C  -5.93200 19.57000 38.42200
C  -4.43700 19.41200 38.26700
H  -3.89200 18.33200 37.26700
N  -11.59300 18.68300 40.08600
C  -11.26100 19.97900 39.81200
C  -12.53500 20.68400 39.38300
C  -13.63000 19.79800 39.57200
C  -12.97700 18.50600 40.01800
C  -12.56600 22.07800 38.94500
C  -15.16300 20.01800 39.36900
O  -15.57000 21.18300 39.12500
C  -16.18300 18.97300 39.58400
N  -11.58600 15.66400 40.46400
C  -12.86000 15.93200 40.41400
C  -13.72100 14.68600 40.45800
C  -12.71200 13.51800 40.16400
C  -11.40900 14.27800 40.26900
C  -14.49400 14.58300 41.77400
C  -12.94900 12.94400 38.69000
C  -12.82900 11.37300 38.58400
N  -8.69800 15.55000 40.62100
C  -8.92100 14.18600 40.42400
C  -7.64700 13.54400 40.43000
C  -6.64800 14.58300 40.48800
C  -7.38400 15.77100 40.58200
C  -7.46000 12.04600 40.15100
C  -5.24900 14.95000 40.55000
O  -4.21000 14.29700 40.72400
C  -5.19700 16.50500 40.68600
C  -4.52900 16.80000 41.96100
O  -4.78000 16.34400 43.05900
O  -3.75800 17.87600 41.72400
C  -3.45600 18.66700 42.87000
H  -9.74300 21.62600 39.88300
H  -14.53800 17.32000 40.22400
H  -10.37200 12.50300 39.99900
H  -5.51000 19.77000 40.57300
H  -7.29600 21.43100 39.50100
H  -7.47400 22.33300 41.53000
H  -6.31800 20.97100 42.21100
H  -8.03300 20.93300 42.29700
H  -6.25900 20.56000 38.10600
H  -6.52800 18.83600 37.88000
H  -4.04700 18.99200 39.19500
H  -3.90700 20.29600 37.91300
H  -11.64900 22.46300 38.49800
H  -12.81800 22.75300 39.76300
H  -13.20400 21.95300 38.07000
H  -17.14100 19.27200 39.15800
H  -16.32200 19.00800 40.66500
H  -15.90700 18.07100 39.03800
H  -14.47000 14.85800 39.68500
H  -12.77500 12.67900 40.85600
H  -14.77000 13.54900 41.98200
H  -15.45900 15.07600 41.89700
H  -13.77500 14.82000 42.55800
H  -12.32400 13.50400 37.99400
H  -13.95600 13.19700 38.35800
H  -13.75600 10.81800 38.44100
H  -12.35500 10.98000 39.48300
H  -12.07500 11.22000 37.81200
H  -6.47600 11.71000 40.47800
H  -7.53000 12.03100 39.06300
H  -8.30000 11.52200 40.60700
H  -4.49500 16.75500 39.89100
H  -2.81200 19.48100 42.53700
H  -2.91400 18.02400 43.56300
H  -4.40700 18.96100 43.31500

