158

Mg 40.58400 8.67700 29.81400
C  42.19300 10.28400 32.48600
C  38.29100 7.34600 32.13200
C  39.15800 6.88600 27.47000
C  43.30100 9.46300 27.81000
N  40.29800 8.76600 32.08100
C  41.10000 9.54300 32.95100
C  40.50000 9.53600 34.40300
C  39.36200 8.47400 34.27900
C  39.35000 8.10500 32.74900
C  39.56900 7.24300 35.23200
C  39.97200 10.87200 34.88900
C  39.15800 10.82800 36.19500
H  39.59400 11.70000 37.31000
N  38.82800 7.40700 29.77400
C  38.03400 7.01000 30.82000
C  36.96200 6.20000 30.34200
C  37.18600 6.13800 28.93800
C  38.39900 6.82700 28.63800
C  35.89400 5.65800 31.24500
C  36.36000 5.44800 27.84800
O  36.55300 5.58200 26.66500
C  35.18100 4.62700 28.34700
N  41.11300 8.29800 27.85700
C  40.34600 7.51300 27.04300
C  41.02600 7.37700 25.62500
C  42.34200 8.27000 25.78800
C  42.27700 8.72700 27.24700
C  41.36200 5.89100 25.28100
C  42.42900 9.44700 24.77100
C  42.00900 10.93500 25.25300
N  42.32400 9.73200 29.98200
C  43.32900 9.97400 29.10900
C  44.29500 10.94100 29.67100
C  43.92500 11.03100 31.00000
C  42.73900 10.26200 31.11800
C  45.48100 11.52500 29.10700
C  44.24600 11.55800 32.33800
O  45.33200 11.97900 32.72000
C  43.09000 11.13500 33.31400
C  43.74300 10.30300 34.37200
O  44.25400 9.20100 34.23600
O  43.53400 10.94600 35.56000
C  43.74800 10.21400 36.80700
H  37.55900 6.93000 32.82700
H  38.73300 6.25600 26.68600
H  44.18500 9.62400 27.18900
H  41.19500 9.13200 35.13900
H  38.37200 8.90700 34.42100
H  40.40600 7.40500 35.91100
H  39.80600 6.43600 34.53800
H  38.68600 7.00100 35.82400
H  39.24800 11.22600 34.15600
H  40.79600 11.58200 34.95600
H  38.94200 9.83400 36.58700
H  38.15900 11.25400 36.11300
H  35.08900 6.38500 31.35200
H  36.35400 5.49600 32.22000
H  35.38800 4.72000 31.01900
H  35.62900 3.89700 29.02100
H  34.86100 4.23300 27.38200
H  34.34100 5.23300 28.68600
H  40.35300 7.74300 24.85000
H  43.14100 7.62900 25.41400
H  40.64700 5.51100 24.55100
H  41.25100 5.31100 26.19700
H  42.38400 5.68600 24.96300
H  41.83500 9.25800 23.87700
H  43.47200 9.55300 24.47300
H  41.16100 11.26100 24.65000
H  42.78200 11.69100 25.11600
H  41.62800 10.83800 26.27000
H  45.40700 11.52600 28.01900
H  46.34500 10.93000 29.40500
H  45.65000 12.52600 29.50200
H  42.57500 12.00100 33.72900
H  43.44900 9.17900 36.64100
H  43.00400 10.45700 37.56500
H  44.72200 10.29800 37.29000
Mg 26.88200 50.14500 26.72700
C  24.77000 51.57800 29.15800
C  29.00500 49.33400 29.46000
C  29.24600 49.35100 24.60400
C  24.96200 51.54600 24.29200
N  26.91300 50.52900 29.02400
C  25.92900 50.96300 29.71800
C  26.17900 50.85200 31.23500
C  27.67000 50.35200 31.25400
C  27.87000 50.01100 29.85300
C  28.89100 51.33100 31.70600
C  25.25100 49.71200 31.86000
C  24.82000 49.89200 33.41500
H  25.81300 50.55600 34.38200
N  28.78000 49.38100 26.98900
C  29.42900 49.03000 28.11800
C  30.69900 48.44300 27.78300
C  30.85000 48.49900 26.36800
C  29.61900 49.14100 25.92700
C  31.54800 47.87300 28.89600
C  31.96900 48.05600 25.52500
O  31.95700 48.17700 24.33800
C  33.19100 47.42800 26.11900
N  27.02200 50.23100 24.73000
C  28.07300 49.85100 24.00800
C  27.78600 49.83400 22.52300
C  26.32500 50.39400 22.46300
C  26.03200 50.72400 23.91700
C  28.81700 50.67100 21.63200
C  25.24000 49.43600 21.97300
C  24.78200 49.79300 20.61000
N  25.20600 51.32800 26.63500
C  24.53500 51.76100 25.57800
C  23.32000 52.49200 26.06600
C  23.40100 52.41200 27.41800
C  24.54600 51.70700 27.77000
C  22.38200 53.30600 25.27900
C  22.75000 52.78900 28.70800
O  21.82000 53.52200 28.86100
C  23.53300 52.17300 29.83800
C  23.95100 53.24900 30.79200
O  24.90300 53.99400 30.69300
O  23.08800 53.31100 31.78400
C  23.17200 54.36700 32.90600
H  29.53100 49.04900 30.37400
H  30.04400 49.00900 23.94200
H  24.34100 51.80600 23.43200
H  26.05500 51.82400 31.71200
H  27.84100 49.40500 31.76500
H  28.51800 52.24700 32.16300
H  29.58500 51.54900 30.89400
H  29.34000 50.79500 32.54200
H  25.60100 48.71600 31.58800
H  24.35700 49.69300 31.23700
H  24.46200 48.91100 33.72800
H  23.95300 50.55100 33.45700
H  31.55500 46.78400 28.93400
H  31.27600 48.17900 29.90600
H  32.58300 48.21300 28.87900
H  34.00900 47.46300 25.40000
H  32.90400 46.43300 26.45900
H  33.59200 48.13100 26.85000
H  27.72700 48.80000 22.18100
H  26.17600 51.31000 21.89200
H  29.66100 51.10700 22.16600
H  28.35700 51.48100 21.06600
H  29.26300 49.93200 20.96600
H  24.43100 49.17800 22.65600
H  25.65900 48.43100 21.93700
H  23.79100 50.24300 20.66400
H  24.62400 48.82600 20.13200
H  25.37300 50.32100 19.86100
H  22.46500 54.39000 25.35800
H  21.35600 53.07000 25.56100
H  22.46300 53.07700 24.21600
H  22.96100 51.44700 30.41600
H  23.52100 55.31500 32.49500
H  23.85400 53.99300 33.67000
H  22.20100 54.56300 33.35900

