158

Mg 8.91800 3.71300 27.79700
C  10.48700 2.03600 30.51100
C  6.83800 5.19700 29.89900
C  7.47500 4.99500 25.12100
C  10.84300 1.49700 25.74400
N  8.70900 3.59200 29.84500
C  9.51000 3.02100 30.83000
C  9.19200 3.60100 32.26900
C  7.94200 4.46600 32.07000
C  7.84600 4.44300 30.50100
C  6.74500 3.84300 32.84100
C  10.37500 4.07000 33.14700
C  10.09400 5.17300 34.25000
H  10.47800 4.79000 35.69000
N  7.32700 4.92200 27.54600
C  6.55600 5.47500 28.53300
C  5.48000 6.23100 27.96700
C  5.77900 6.38000 26.57500
C  6.88900 5.38600 26.33100
C  4.42800 6.86000 28.71500
C  5.13400 7.17300 25.45900
O  5.50300 7.12400 24.28200
C  4.15800 8.21100 25.89500
N  9.10200 3.16600 25.73500
C  8.46200 4.03800 24.84400
C  8.83000 3.71000 23.41200
C  9.91300 2.57100 23.61300
C  9.93100 2.31900 25.10400
C  7.55700 3.19700 22.59900
C  11.31600 2.88600 23.08600
C  11.79500 1.78900 22.16600
N  10.31100 2.07100 28.04100
C  11.01000 1.25300 27.09900
C  11.81200 0.29500 27.77700
C  11.69600 0.64200 29.11300
C  10.71100 1.63700 29.21400
C  12.68900 -0.76600 27.13000
C  12.11600 0.28800 30.47000
O  12.96900 -0.51300 30.89100
C  11.37400 1.19900 31.38900
C  10.60700 0.42200 32.43500
O  9.45700 -0.01700 32.31400
O  11.33500 0.42600 33.59900
C  10.59600 0.27300 34.87100
H  6.10900 5.59700 30.60700
H  7.24800 5.48600 24.17200
H  11.43400 0.79800 25.14900
H  8.92300 2.71100 32.83800
H  8.16500 5.48900 32.37400
H  5.97900 3.63000 32.09600
H  6.29000 4.60100 33.47700
H  6.75600 2.94800 33.46300
H  11.19400 4.41900 32.51800
H  10.71100 3.17400 33.66800
H  9.07500 5.55900 34.24100
H  10.68200 6.07200 34.06300
H  4.26900 6.51100 29.73500
H  3.43500 6.90800 28.26800
H  4.73600 7.89700 28.84200
H  3.29400 7.63300 26.22300
H  3.85900 8.91700 25.12000
H  4.50400 8.80800 26.73900
H  9.32100 4.60900 23.03900
H  9.51500 1.67300 23.14200
H  6.68500 3.22400 23.25300
H  7.66800 2.16800 22.25800
H  7.36500 3.75200 21.68000
H  11.98200 3.10000 23.92100
H  11.28600 3.82400 22.53100
H  12.21600 2.34900 21.33100
H  11.05000 1.11700 21.74100
H  12.56300 1.23000 22.70200
H  12.02300 -1.31100 26.46100
H  13.09700 -1.46300 27.86100
H  13.54200 -0.31200 26.62600
H  12.14000 1.86700 31.78300
H  9.90500 -0.56200 34.98800
H  10.10700 1.23100 35.05100
H  11.31400 0.09600 35.67200
Mg -5.17200 24.85900 27.03500
C  -3.80800 26.52400 29.74400
C  -6.50800 22.65300 29.29100
C  -6.15100 23.05600 24.42100
C  -3.31200 26.93000 24.89100
N  -4.93000 24.49600 29.23600
C  -4.50400 25.39600 30.13400
C  -4.95300 25.09300 31.60000
C  -5.45100 23.63700 31.42700
C  -5.69400 23.57500 29.89000
C  -4.45400 22.59000 31.88400
C  -5.98100 26.11700 32.06800
C  -6.10000 26.35000 33.57000
H  -5.76100 25.10700 34.45100
N  -6.18300 23.12300 26.92700
C  -6.72600 22.44900 27.93000
C  -7.69000 21.46900 27.36000
C  -7.67200 21.66400 25.94600
C  -6.61300 22.61500 25.65900
C  -8.51100 20.52000 28.15400
C  -8.52000 21.05300 24.80900
O  -8.42300 21.43400 23.66700
C  -9.56600 20.12200 25.08300
N  -4.63200 24.85000 24.90000
C  -5.32800 24.02300 24.02800
C  -4.89100 24.42400 22.61800
C  -4.09900 25.70800 22.75700
C  -3.96400 25.86900 24.22800
C  -4.21500 23.21500 21.92200
C  -4.87800 26.95000 22.23000
C  -4.17100 27.72100 21.17800
N  -3.75600 26.45000 27.24000
C  -3.08800 27.26000 26.28500
C  -2.22600 28.20100 26.97400
C  -2.46300 27.88700 28.31400
C  -3.40700 26.87100 28.40100
C  -1.20500 29.14300 26.36300
C  -2.09600 28.33800 29.64400
O  -1.38700 29.24700 30.07900
C  -3.07300 27.52400 30.61400
C  -2.30200 26.96600 31.84600
O  -1.42200 26.10600 31.75000
O  -2.77500 27.55500 32.97500
C  -2.26900 27.03400 34.19600
H  -7.09800 22.04400 29.98000
H  -6.56000 22.54700 23.54600
H  -2.77400 27.65900 24.28300
H  -4.06400 25.11200 32.23200
H  -6.36400 23.50100 32.00600
H  -4.28200 21.82000 31.13200
H  -4.91300 22.11400 32.75100
H  -3.51400 23.08200 32.13300
H  -6.96200 25.78900 31.72300
H  -5.85300 27.11300 31.64500
H  -7.05000 26.80800 33.84300
H  -5.26200 26.98600 33.85400
H  -9.50000 20.92200 28.37300
H  -8.01400 20.37000 29.11300
H  -8.63700 19.63000 27.53800
H  -9.13300 19.12800 25.20100
H  -10.15700 20.03500 24.17100
H  -10.18900 20.59300 25.84200
H  -5.75900 24.56800 21.97500
H  -3.11100 25.53700 22.33000
H  -4.03500 22.42500 22.65100
H  -3.32800 23.58000 21.40400
H  -4.82400 22.74600 21.15000
H  -5.13500 27.69300 22.98500
H  -5.78700 26.52100 21.80900
H  -3.31500 27.15800 20.80900
H  -3.76300 28.63500 21.61100
H  -4.77500 28.05100 20.33300
H  -0.82300 28.67400 25.45700
H  -0.40800 29.48600 27.02300
H  -1.67200 30.06500 26.01600
H  -3.76000 28.28300 30.98700
H  -1.45100 27.58400 34.66000
H  -1.83300 26.05500 33.99500
H  -3.08700 26.92300 34.90800

