158

Mg 53.34800 22.79600 43.84900
C  50.48700 24.52300 42.70900
C  51.79700 19.84200 43.42000
C  56.37700 21.32600 43.93100
C  54.85700 25.93300 44.36200
N  51.49400 22.19900 42.67600
C  50.45000 23.11500 42.51700
C  49.19200 22.24800 42.23700
C  49.51000 20.86500 42.84900
C  50.99700 20.90900 42.98800
C  48.67800 20.64000 44.20700
C  48.96900 22.12600 40.70800
C  47.80600 21.22200 40.24000
H  48.01000 20.17300 39.18900
N  53.99200 20.80800 43.67700
C  53.20700 19.75500 43.60400
C  53.99800 18.56200 43.54200
C  55.36200 18.89900 43.70500
C  55.27900 20.39800 43.76800
C  53.46200 17.12800 43.37300
C  56.55600 17.95900 43.62600
O  56.35800 16.73600 43.53700
C  58.00600 18.38700 43.66000
N  55.36000 23.53500 43.88800
C  56.42900 22.70700 44.07800
C  57.71800 23.52300 44.33400
C  57.24000 25.02400 44.46100
C  55.72500 24.84400 44.21000
C  58.68200 23.01200 45.43000
C  57.96400 25.95500 43.36900
C  57.21100 26.43200 42.12400
N  52.80100 24.78400 43.75500
C  53.46700 25.87900 44.05200
C  52.56700 26.98800 44.06500
C  51.41600 26.50300 43.50500
C  51.58400 25.14300 43.27000
C  52.70900 28.41500 44.62300
C  50.08100 26.85700 43.03800
O  49.40500 27.86100 43.16800
C  49.45400 25.52800 42.39700
C  49.40700 25.78800 40.95000
O  50.40200 26.02600 40.20000
O  48.14600 25.53100 40.46900
C  47.95100 25.78800 38.99900
H  51.20300 18.92700 43.39200
H  57.35400 20.85300 44.05100
H  55.28500 26.91100 44.58900
H  48.28600 22.68600 42.65400
H  49.27100 20.07300 42.13900
H  48.06100 19.76200 44.01600
H  48.09800 21.51300 44.50700
H  49.35800 20.37400 45.01600
H  49.87100 21.60700 40.38200
H  48.85200 23.11100 40.25800
H  47.07000 21.91000 39.82400
H  47.43900 20.68000 41.11200
H  53.89600 16.54700 42.56000
H  52.38700 17.25400 43.25000
H  53.63200 16.57300 44.29600
H  58.59500 17.53500 43.32000
H  58.13100 18.59100 44.72300
H  58.27300 19.29700 43.12300
H  58.30200 23.35600 43.42900
H  57.40800 25.39900 45.47100
H  58.12400 22.52900 46.23200
H  59.41000 23.75600 45.75400
H  59.31600 22.28300 44.92500
H  58.89400 25.50300 43.02400
H  58.43300 26.73600 43.96800
H  56.41600 25.74400 41.83500
H  57.89100 26.63200 41.29600
H  56.76700 27.38700 42.40600
H  52.21500 29.20600 44.06000
H  53.78400 28.59600 44.63700
H  52.29600 28.53600 45.62400
H  48.43300 25.35200 42.73500
H  48.54400 26.61500 38.60800
H  46.91200 25.96200 38.71900
H  48.19100 24.85400 38.49200
Mg -1.47300 34.44600 26.71300
C  -2.83300 32.82400 29.49500
C  0.12900 36.61900 28.71500
C  -0.71900 36.26100 23.94000
C  -3.41200 32.34000 24.70500
N  -1.59100 34.82100 28.88700
C  -1.99400 33.89600 29.82300
C  -1.56500 34.31900 31.24200
C  -0.63600 35.50700 30.97200
C  -0.65400 35.67300 29.43400
C  -1.05800 36.76000 31.75000
C  -0.78400 33.25600 32.05800
C  -1.40700 32.95100 33.39400
H  -0.40900 32.98400 34.57200
N  -0.36600 36.18900 26.34900
C  0.24100 36.92300 27.31900
C  1.02900 37.91400 26.69800
C  0.70700 37.93900 25.27400
C  -0.10200 36.73800 25.12200
C  1.79300 38.90500 27.50100
C  1.24000 38.78100 24.17800
O  0.92100 38.60400 23.00200
C  2.34000 39.79600 24.49700
N  -2.15900 34.43300 24.63200
C  -1.67100 35.31800 23.71300
C  -2.05600 34.87300 22.29000
C  -2.37800 33.38400 22.50100
C  -2.73500 33.36500 24.03900
C  -3.16200 35.71000 21.54300
C  -1.32600 32.34000 22.23300
C  0.15400 32.67000 22.51100
N  -2.85800 32.86700 26.92100
C  -3.58400 32.13400 26.07000
C  -4.41000 31.15900 26.72600
C  -4.13900 31.35200 28.12000
C  -3.19300 32.39200 28.17800
C  -5.37500 30.12800 26.17400
C  -4.39200 30.90100 29.44200
O  -5.13900 29.99600 29.86800
C  -3.62000 31.88000 30.39700
C  -4.62800 32.54800 31.20400
O  -5.23400 33.59500 30.94700
O  -4.76100 31.76600 32.37700
C  -5.71300 32.34800 33.33600
H  0.64200 37.30400 29.39300
H  -0.55500 36.80200 23.00500
H  -3.99100 31.70200 24.03200
H  -2.49600 34.50100 31.78000
H  0.39900 35.31500 31.25800
H  -0.19200 37.23800 32.20800
H  -1.78200 36.56500 32.54100
H  -1.58200 37.50200 31.14700
H  0.25900 33.53800 32.20900
H  -0.76600 32.39300 31.39300
H  -1.83000 31.94600 33.38200
H  -2.33200 33.47400 33.63800
H  1.19100 39.05800 28.39700
H  1.80600 39.89000 27.03300
H  2.82000 38.55500 27.60300
H  2.84800 39.92600 23.54100
H  3.04900 39.48400 25.26400
H  1.92500 40.74300 24.84200
H  -1.12100 34.89400 21.73000
H  -3.12300 33.12700 21.74700
H  -3.54700 36.41600 22.27800
H  -4.06300 35.23300 21.15700
H  -2.80400 36.35800 20.74300
H  -1.58000 32.18400 21.18400
H  -1.48800 31.45400 22.84600
H  0.44000 33.62400 22.95200
H  0.76600 32.56300 21.61600
H  0.47300 31.98200 23.29400
H  -5.33900 29.75900 25.14900
H  -6.41800 30.43100 26.26300
H  -5.33500 29.28300 26.86200
H  -3.01800 31.20800 31.00800
H  -5.78400 31.66000 34.17800
H  -6.64700 32.57600 32.82400
H  -5.14700 33.22900 33.63900

