158

Mg 47.20300 24.86100 27.80000
C  48.20200 27.21900 30.30300
C  46.65600 22.59800 30.26000
C  46.47600 22.83700 25.34800
C  48.25900 27.31700 25.36700
N  47.44500 24.94500 30.12200
C  47.82900 25.98800 30.91700
C  47.73300 25.58300 32.39500
C  47.23000 24.12000 32.32200
C  47.09800 23.82800 30.84600
C  48.10600 23.04200 33.12300
C  46.94100 26.71400 33.26100
C  45.91100 26.35200 34.39800
H  45.94900 27.21100 35.72000
N  46.67000 22.90000 27.79700
C  46.53000 22.12100 28.95600
C  46.09000 20.82300 28.50200
C  45.84400 20.89200 27.08000
C  46.37900 22.22300 26.66400
C  45.75600 19.58300 29.44000
C  45.25200 19.84400 26.12800
O  45.00200 20.09700 24.96300
C  44.97600 18.44100 26.59100
N  47.15400 25.17800 25.67900
C  46.81400 24.10700 24.92400
C  47.25400 24.41100 23.48600
C  47.44600 25.96400 23.43200
C  47.66000 26.19400 24.93300
C  48.59000 23.61900 23.12900
C  46.10400 26.61900 22.99400
C  46.23600 27.96800 22.33800
N  48.06400 26.92100 27.71600
C  48.42600 27.75900 26.68400
C  48.93200 28.96800 27.27100
C  48.74100 28.87900 28.68700
C  48.28400 27.53700 28.87900
C  49.47100 30.18300 26.55000
C  48.93100 29.55300 29.94000
O  49.48200 30.66800 30.13300
C  48.51800 28.48600 31.01700
C  49.69900 28.25200 31.95900
O  50.56900 27.40300 31.82000
O  49.61700 29.11400 32.96800
C  50.56300 28.97200 34.08200
H  46.48700 21.77000 30.95000
H  46.19600 22.16200 24.53600
H  48.70700 28.02900 24.67000
H  48.75400 25.61400 32.77700
H  46.35300 23.96700 32.95000
H  47.58000 22.53600 33.93300
H  48.99600 23.51900 33.53400
H  48.28800 22.32900 32.31900
H  46.40700 27.38100 32.58300
H  47.76400 27.31700 33.64400
H  46.16300 25.34300 34.72400
H  44.91500 26.47800 33.97500
H  44.68200 19.39900 29.41700
H  45.99500 19.65500 30.50100
H  46.29100 18.70900 29.06700
H  44.16300 18.35200 27.31100
H  45.94100 18.15200 27.00800
H  44.71600 17.78700 25.75900
H  46.50900 24.04300 22.78000
H  48.29900 26.26600 22.82400
H  49.27300 23.68600 23.97500
H  49.03900 24.03400 22.22700
H  48.33800 22.56500 23.00700
H  45.52000 26.62300 23.91400
H  45.62600 25.93900 22.28900
H  46.03300 27.70700 21.30000
H  47.26600 28.32100 22.40200
H  45.58700 28.71700 22.79200
H  49.12200 31.01000 27.16700
H  49.17600 30.48900 25.54600
H  50.55600 30.17400 26.65400
H  47.66500 28.93200 31.52800
H  49.98100 28.78600 34.98500
H  51.02800 29.94100 34.26500
H  51.31200 28.21200 33.85700
Mg 0.41200 43.87800 26.23500
C  1.96300 43.98500 29.36700
C  -2.50200 43.16500 27.99900
C  -1.00200 43.16600 23.30800
C  3.62400 44.23100 24.72700
N  -0.21800 43.54200 28.51000
C  0.61300 43.79600 29.52600
C  -0.21400 43.64200 30.90800
C  -1.60600 43.18600 30.43400
C  -1.42900 43.31800 28.91100
C  -1.96700 41.80100 30.90600
C  -0.23800 45.01800 31.66500
C  -0.43400 44.97100 33.22700
H  -0.81700 43.68200 34.00700
N  -1.52700 43.42100 25.74200
C  -2.59600 43.17400 26.57500
C  -3.74500 42.78900 25.67900
C  -3.33500 42.91400 24.32200
C  -1.90000 43.15400 24.43400
C  -5.10900 42.46200 26.16500
C  -4.15800 42.71900 22.99200
O  -3.71800 42.86800 21.87200
C  -5.60800 42.28400 23.01300
N  1.19500 43.75300 24.33400
C  0.40100 43.46600 23.29900
C  1.18600 43.44200 21.96200
C  2.55200 44.11300 22.36500
C  2.49500 44.06800 23.90400
C  1.34200 42.15000 21.18300
C  2.75900 45.49900 21.85200
C  3.46600 45.56600 20.48100
N  2.46200 44.07000 26.81200
C  3.63400 44.15900 26.12700
C  4.68000 44.33700 27.13600
C  4.08600 44.25700 28.40500
C  2.70700 44.10500 28.15300
C  6.16200 44.52500 26.80800
C  4.33400 44.18700 29.82100
O  5.36400 44.17200 30.48500
C  3.01300 44.11600 30.49000
C  3.13900 42.99300 31.38400
O  3.16700 41.84000 31.03000
O  3.01100 43.39300 32.68300
C  3.03500 42.22200 33.56900
H  -3.36500 43.02800 28.65500
H  -1.51700 42.98400 22.36300
H  4.53400 44.47300 24.17500
H  0.30500 42.95700 31.57800
H  -2.35300 43.93600 30.69000
H  -2.96400 41.80200 31.34600
H  -1.21900 41.32700 31.54200
H  -1.98900 41.16600 30.02000
H  -0.93200 45.76000 31.26900
H  0.73900 45.49500 31.58700
H  -1.03600 45.79500 33.60900
H  0.57000 45.25500 33.54300
H  -5.94500 43.08500 25.84800
H  -5.16800 42.12100 27.19900
H  -5.40200 41.50700 25.72900
H  -6.26700 43.02900 23.45900
H  -5.81200 41.33600 23.50900
H  -5.88400 42.04100 21.98600
H  0.62400 44.16000 21.36500
H  3.40200 43.45100 22.20300
H  2.28100 42.13100 20.62900
H  0.54900 42.03900 20.44300
H  1.37100 41.26900 21.82400
H  3.32900 46.15800 22.50700
H  1.82500 46.05400 21.75700
H  2.68700 45.75700 19.74200
H  3.82500 44.59000 20.15400
H  4.22300 46.35000 20.46300
H  6.81800 43.92300 27.43700
H  6.30900 45.58000 27.04000
H  6.42200 44.40600 25.75600
H  2.89400 45.01900 31.08800
H  3.89900 41.57700 33.40500
H  2.14700 41.59700 33.46900
H  3.04000 42.41500 34.64100

