158

Mg -2.20100 17.15500 25.88300
C  -2.39500 14.74900 28.39700
C  -2.74000 19.60100 28.21500
C  -2.52200 19.27500 23.39000
C  -1.93300 14.47900 23.60500
N  -2.57700 17.15600 28.09600
C  -2.45400 16.05400 28.92500
C  -2.67400 16.48500 30.39200
C  -2.79600 18.06200 30.29700
C  -2.67500 18.31500 28.78700
C  -4.17500 18.52700 30.89700
C  -1.63500 15.96000 31.36900
C  -1.48200 16.56000 32.72400
H  -1.91300 15.98100 34.12100
N  -2.63200 19.19600 25.81700
C  -2.72200 20.07900 26.84500
C  -2.70700 21.45500 26.31900
C  -2.61800 21.33900 24.90600
C  -2.65300 19.89600 24.66700
C  -2.88400 22.60400 27.23100
C  -2.61200 22.38400 23.86500
O  -2.56100 22.18700 22.65600
C  -2.44800 23.82600 24.25700
N  -2.13800 16.95100 23.76800
C  -2.26200 17.97300 22.93700
C  -2.06100 17.53900 21.52900
C  -1.69700 15.99500 21.62500
C  -1.90300 15.79200 23.10500
C  -3.26200 17.85800 20.59200
C  -0.34900 15.64900 21.15100
C  0.80400 16.22400 21.88100
N  -2.10100 15.07600 25.89900
C  -2.02900 14.11400 24.89500
C  -1.91300 12.79800 25.45300
C  -2.02700 13.00000 26.81600
C  -2.17800 14.40600 27.03900
C  -1.89300 11.45000 24.84600
C  -2.06000 12.33900 28.07200
O  -2.04600 11.11500 28.34900
C  -2.26600 13.51400 29.14600
C  -1.00500 13.41900 29.85800
O  -0.00800 14.05600 29.53200
O  -1.16300 12.56200 30.94600
C  -0.00800 12.58300 31.88100
H  -2.92800 20.43900 28.89000
H  -2.70600 19.88300 22.50200
H  -1.84700 13.77500 22.77500
H  -3.54900 15.88300 30.64100
H  -1.97900 18.57800 30.80000
H  -4.51600 17.67700 31.48800
H  -5.01800 18.78600 30.25600
H  -4.06600 19.37200 31.57600
H  -0.69500 15.94400 30.81800
H  -1.96900 14.94300 31.57500
H  -2.13000 17.43600 32.70700
H  -0.48700 16.99900 32.78900
H  -1.99000 23.07700 27.63800
H  -3.52200 22.38500 28.08600
H  -3.47500 23.33900 26.68400
H  -1.72600 23.90600 25.07000
H  -3.46900 24.13700 24.47900
H  -2.02500 24.39200 23.42700
H  -1.17200 17.99400 21.09100
H  -2.48800 15.39100 21.17900
H  -2.92300 18.41900 19.72100
H  -4.11100 18.30600 21.11000
H  -3.63900 16.96200 20.10000
H  -0.30600 16.19100 20.20600
H  -0.19500 14.58800 20.95600
H  0.64500 16.24500 22.95900
H  1.12700 17.15000 21.40500
H  1.65400 15.54700 21.79700
H  -1.37100 11.34100 23.89500
H  -2.88600 11.02300 24.70700
H  -1.38300 10.76100 25.51800
H  -3.13200 13.31200 29.77700
H  -0.32800 11.92900 32.69200
H  0.31900 13.53100 32.31000
H  0.91000 12.25600 31.39300
Mg -11.47300 16.00900 41.95200
C  -7.90400 16.13500 41.79800
C  -11.29500 19.43800 41.30600
C  -14.60900 15.78200 41.16800
C  -11.19100 12.42500 42.14200
N  -9.73700 17.60900 41.58300
C  -8.42400 17.40800 41.61200
C  -7.65100 18.69800 41.52300
C  -8.73700 19.75400 41.74300
C  -10.01600 18.92500 41.62900
C  -8.78000 20.45300 43.19000
C  -6.98600 18.95100 40.08600
C  -5.45400 19.07200 40.04400
H  -4.76700 18.45800 38.77000
N  -12.75100 17.41400 41.26700
C  -12.53400 18.75800 41.14000
C  -13.78400 19.42600 40.71100
C  -14.75900 18.38900 40.70900
C  -14.08000 17.12500 41.06700
C  -13.88800 20.90100 40.31100
C  -16.29300 18.59200 40.58400
O  -16.72800 19.71600 40.28600
C  -17.24300 17.54500 40.88400
N  -12.64500 14.30000 41.53500
C  -13.99000 14.55900 41.38200
C  -14.72700 13.22800 41.38500
C  -13.65300 12.13800 41.46300
C  -12.39100 12.95800 41.67600
C  -15.79200 13.18600 42.51200
C  -13.47800 11.15100 40.24900
C  -13.11700 9.62000 40.41800
N  -9.94400 14.54100 42.09100
C  -10.02700 13.17600 42.25800
C  -8.67100 12.71900 42.54900
C  -7.85400 13.84800 42.38700
C  -8.64100 14.90700 42.04100
C  -8.18700 11.32700 42.88700
C  -6.52300 14.31700 42.43400
O  -5.57900 13.61400 42.66100
C  -6.43600 15.84900 42.12200
C  -5.96300 16.41400 43.46200
O  -6.70900 16.70600 44.41200
O  -4.68300 16.96300 43.34500
C  -4.38400 18.04600 44.36200
H  -11.23000 20.52400 41.21800
H  -15.66800 15.54700 41.04400
H  -11.18200 11.34100 42.26900
H  -6.87600 18.80300 42.28200
H  -8.86700 20.48200 40.94200
H  -9.74200 20.28900 43.67400
H  -8.53800 21.50200 43.01800
H  -7.94600 19.93400 43.66300
H  -7.45200 19.78400 39.56000
H  -7.15200 18.07800 39.45500
H  -4.91400 18.68600 40.90900
H  -5.25900 20.14100 40.12500
H  -14.53800 21.05300 39.44900
H  -13.01700 21.50700 40.06100
H  -14.43600 21.35100 41.13800
H  -18.26500 17.92200 40.87200
H  -16.87200 17.06300 41.78800
H  -17.30000 16.81700 40.07500
H  -15.28900 13.04000 40.47000
H  -13.73500 11.54100 42.37100
H  -15.70100 12.29800 43.13600
H  -16.82900 13.25600 42.18200
H  -15.58200 14.08000 43.09900
H  -12.70200 11.62900 39.65100
H  -14.42500 11.22500 39.71600
H  -12.56100 9.38700 41.32700
H  -12.48200 9.41500 39.55600
H  -13.94700 8.91700 40.35500
H  -8.99900 10.63000 43.09800
H  -7.49400 11.47700 43.71500
H  -7.61900 10.84800 42.09000
H  -5.77200 16.15800 41.31500
H  -3.71200 18.82200 43.99500
H  -3.86300 17.52000 45.16200
H  -5.28300 18.56900 44.68600

