158

Mg 16.53300 -1.45000 27.99200
C  15.73400 0.39800 30.82500
C  18.71600 -3.37900 30.01500
C  17.96700 -2.99700 25.29600
C  14.80600 0.74900 25.98200
N  17.22200 -1.40500 30.13900
C  16.65000 -0.68200 31.16100
C  17.37800 -0.79400 32.50800
C  18.37300 -1.96700 32.17500
C  18.06200 -2.27200 30.69400
C  19.89600 -1.77400 32.42900
C  16.35200 -1.08800 33.66900
C  16.82900 -1.75500 34.95600
H  17.23900 -0.89000 36.12500
N  18.00700 -3.19900 27.65900
C  18.70400 -3.84100 28.63100
C  19.39600 -4.95300 28.06800
C  19.12100 -4.90300 26.69600
C  18.35600 -3.69800 26.45800
C  20.28100 -5.92300 28.81400
C  19.64400 -5.75900 25.52300
O  19.42700 -5.37400 24.35600
C  20.45900 -7.07500 25.71700
N  16.43800 -1.14700 25.94500
C  17.12300 -1.89500 25.02900
C  16.75700 -1.42300 23.65800
C  15.56800 -0.40300 23.84100
C  15.61300 -0.24400 25.30800
C  18.02000 -0.86800 22.88200
C  14.10200 -0.68800 23.42800
C  13.86500 -0.17300 21.97500
N  15.38000 0.12600 28.27500
C  14.72800 0.92500 27.36100
C  13.91100 1.87800 28.05900
C  14.30900 1.73400 29.41600
C  15.20600 0.63300 29.51900
C  13.11900 2.88300 27.46600
C  14.08400 2.29600 30.70800
O  13.32700 3.23000 31.03300
C  14.99900 1.41300 31.78300
C  15.88600 2.35100 32.50300
O  16.83000 3.03000 32.10400
O  15.46000 2.49100 33.76600
C  15.94700 3.61900 34.53500
H  19.47500 -3.78500 30.68800
H  18.39700 -3.33900 24.35300
H  14.19100 1.38500 25.34100
H  17.88300 0.13700 32.76200
H  18.09200 -2.85300 32.74500
H  20.13900 -1.15000 33.28900
H  20.33300 -1.29800 31.55200
H  20.33700 -2.74500 32.65500
H  15.58200 -1.76400 33.29900
H  15.89000 -0.13800 33.93800
H  17.76800 -2.28800 34.80300
H  16.06300 -2.34800 35.45400
H  20.16400 -5.80500 29.89100
H  21.35000 -5.86300 28.60800
H  20.08400 -6.96300 28.55400
H  19.73700 -7.70900 26.23300
H  21.31400 -7.00500 26.39000
H  20.86100 -7.52600 24.81000
H  16.40900 -2.23100 23.01500
H  15.81500 0.57600 23.43100
H  18.87700 -0.75800 23.54700
H  17.73500 0.09900 22.46900
H  18.30800 -1.48900 22.03300
H  13.40700 -0.21500 24.12200
H  13.93900 -1.76500 23.40800
H  14.84700 0.06100 21.56400
H  13.33700 0.76400 22.15300
H  13.32900 -0.93700 21.41100
H  13.41400 3.21900 26.47200
H  13.17600 3.81700 28.02400
H  12.11900 2.45000 27.43500
H  14.25800 1.02500 32.48200
H  15.04100 3.96700 35.03100
H  16.28300 4.50400 33.99400
H  16.75000 3.19600 35.13900
Mg 48.28900 16.42800 28.28400
C  46.13700 16.22200 31.10200
C  50.46300 18.11800 30.45500
C  50.14900 17.29700 25.69400
C  45.78200 15.11200 26.44900
N  48.28500 17.10900 30.53300
C  47.37400 16.77800 31.46900
C  47.82200 17.12200 32.93900
C  49.14000 17.94000 32.67400
C  49.34400 17.67400 31.13200
C  48.84900 19.44100 33.06100
C  48.03900 15.86500 33.79600
C  47.29100 15.71300 35.07500
H  47.13600 16.98400 35.91400
N  50.06000 17.56400 28.09500
C  50.79100 18.05600 29.13100
C  52.06800 18.66400 28.59500
C  51.99900 18.36600 27.21400
C  50.69400 17.80000 26.93100
C  53.12500 19.24100 29.51400
C  53.07600 18.70000 26.13200
O  52.90100 18.43400 24.96000
C  54.45300 19.16300 26.49500
N  47.91700 16.37100 26.33000
C  48.87100 16.64200 25.45600
C  48.48900 16.16100 24.01900
C  47.06900 15.46500 24.23300
C  46.88300 15.63300 25.76800
C  48.51500 17.34200 22.99500
C  46.95100 13.95700 23.75700
C  45.60300 13.40200 23.23100
N  46.47300 15.55400 28.65300
C  45.50700 15.06900 27.79200
C  44.30200 14.73100 28.45700
C  44.51300 15.26500 29.70300
C  45.86100 15.68800 29.82100
C  43.02000 14.19500 27.77900
C  43.82200 15.46600 30.96500
O  42.64700 15.35400 31.35500
C  44.97400 15.97500 31.96300
C  44.45000 17.06800 32.73400
O  44.09800 18.15800 32.33600
O  44.25400 16.58900 34.01900
C  43.48300 17.42800 34.84300
H  51.14200 18.50100 31.22000
H  50.77900 17.32700 24.80200
H  44.93900 14.81100 25.82400
H  47.04800 17.69900 33.44400
H  49.93700 17.64800 33.35700
H  49.32900 19.74200 33.99200
H  47.77600 19.58500 33.19300
H  49.15500 20.04500 32.20600
H  49.10100 15.66600 33.94200
H  47.61900 15.02800 33.23900
H  47.84300 14.92400 35.58500
H  46.28400 15.30200 35.00800
H  52.83000 19.46100 30.54000
H  53.48500 20.19500 29.12900
H  53.99500 18.58500 29.54500
H  54.88600 18.87500 27.45300
H  54.37200 20.25000 26.48500
H  55.08100 18.83500 25.66700
H  49.22900 15.49800 23.56900
H  46.29100 16.13500 23.86700
H  49.38200 17.27100 22.33800
H  48.83100 18.23200 23.53900
H  47.62900 17.45400 22.37000
H  47.14500 13.29000 24.59700
H  47.77900 13.76000 23.07600
H  44.98600 14.21800 22.85700
H  45.08800 12.89800 24.04800
H  45.63600 12.54800 22.55400
H  42.87800 13.13100 27.96700
H  42.99100 14.36100 26.70200
H  42.17500 14.60600 28.33200
H  45.09500 15.05100 32.52800
H  42.44700 17.24000 34.56000
H  43.63000 18.50700 34.87800
H  43.58200 17.04200 35.85700

