158

Mg 26.18500 1.48400 29.55800
C  28.33100 1.15600 32.37700
C  23.54300 1.77200 31.71500
C  24.25600 1.68600 26.88100
C  28.97500 0.63200 27.54900
N  25.96400 1.27700 31.87600
C  26.98100 1.32000 32.77500
C  26.36800 1.56000 34.19800
C  24.78600 1.47100 34.00100
C  24.74800 1.52300 32.43600
C  24.17000 0.14100 34.52500
C  26.86000 2.80100 34.89300
C  27.90100 2.68300 36.08500
H  27.66100 3.60400 37.23000
N  24.17600 1.65400 29.32400
C  23.28500 1.86000 30.36800
C  22.01200 2.11700 29.77200
C  22.09700 1.95400 28.37300
C  23.54500 1.64600 28.11700
C  20.75900 2.44000 30.48600
C  21.12400 2.05500 27.25500
O  21.33000 1.69800 26.12100
C  19.73800 2.67400 27.46200
N  26.57600 1.18200 27.44600
C  25.62400 1.38600 26.52900
C  26.26700 1.33100 25.09900
C  27.66900 0.82200 25.30400
C  27.78200 0.97600 26.89400
C  25.35200 0.59000 24.08300
C  28.82600 1.50900 24.58400
C  29.84600 0.65800 23.71000
N  28.22500 0.98700 29.88300
C  29.23200 0.79200 28.90400
C  30.51700 0.56500 29.63700
C  30.13900 0.70500 30.96400
C  28.78500 0.97900 31.03900
C  31.87900 0.45400 29.01600
C  30.77900 0.69000 32.22300
O  31.92800 0.46400 32.67400
C  29.55700 1.06700 33.25900
C  29.42900 0.01900 34.27700
O  28.96500 -1.08800 34.07000
O  30.00000 0.46300 35.45200
C  30.16400 -0.49800 36.51100
H  22.71000 2.03900 32.36900
H  23.64700 2.04300 26.04700
H  29.79100 0.37300 26.87100
H  26.60400 0.81000 34.95300
H  24.21500 2.36600 34.24900
H  23.51200 -0.34500 33.80500
H  23.54300 0.27500 35.40700
H  24.93400 -0.51400 34.94400
H  26.01000 3.36000 35.28500
H  27.31100 3.48400 34.17300
H  28.91600 2.87300 35.73500
H  27.87000 1.63400 36.37900
H  20.31900 3.36700 30.11900
H  20.86600 2.61400 31.55600
H  20.13800 1.56100 30.31300
H  19.17200 2.31400 28.32100
H  19.15800 2.47500 26.56100
H  19.91200 3.74700 27.54400
H  26.21700 2.36400 24.75600
H  27.73700 -0.25700 25.16800
H  24.47200 0.17200 24.57200
H  25.90100 -0.26300 23.68500
H  25.13800 1.39000 23.37400
H  29.34800 2.12900 25.31300
H  28.34600 2.21500 23.90700
H  30.83500 1.09300 23.85500
H  29.50600 0.44000 22.69800
H  29.83600 -0.33300 24.16400
H  32.63000 1.08100 29.49700
H  31.79400 0.76600 27.97500
H  32.12100 -0.60800 28.98500
H  29.83000 2.00700 33.73800
H  29.19800 -0.70000 36.97500
H  30.92400 -0.16600 37.21700
H  30.52100 -1.43500 36.08300
Mg 47.67800 35.28000 27.32000
C  46.04300 33.40700 29.71000
C  47.48500 37.98200 29.47100
C  48.97700 36.94100 24.92600
C  47.21600 32.53400 25.00700
N  46.91900 35.56700 29.35100
C  46.50200 34.58100 30.21700
C  46.58000 35.09000 31.63300
C  46.50200 36.64200 31.37800
C  46.97300 36.74700 30.00400
C  45.15200 37.30600 31.67900
C  47.87800 34.60100 32.37100
C  48.36000 35.43400 33.54700
H  47.27800 36.03700 34.49800
N  48.21500 37.23400 27.24900
C  48.05200 38.22500 28.20200
C  48.58600 39.46000 27.65800
C  49.09700 39.19800 26.39200
C  48.79800 37.74500 26.11000
C  48.52000 40.67600 28.55600
C  49.94600 40.07000 25.47700
O  50.42800 39.64000 24.42400
C  50.30900 41.48100 25.86600
N  47.81400 34.87200 25.09100
C  48.63200 35.70500 24.45400
C  48.87900 35.25700 22.96400
C  48.38800 33.76800 23.06200
C  47.78600 33.69100 24.48800
C  48.18000 36.11600 21.87800
C  49.47500 32.66900 22.90800
C  49.64100 32.08700 21.45000
N  46.73400 33.36000 27.26500
C  46.62500 32.38100 26.27800
C  45.90900 31.23400 26.97500
C  45.59200 31.62800 28.25400
C  46.06900 32.98200 28.36800
C  45.64700 29.98000 26.27400
C  45.01100 31.12600 29.51000
O  44.55300 30.05300 29.79700
C  45.14600 32.33200 30.43300
C  45.65800 31.75900 31.61800
O  46.69900 31.23000 31.78400
O  44.78500 32.15200 32.62200
C  45.13800 31.69700 34.04100
H  47.33000 38.82200 30.15100
H  49.45100 37.45800 24.08900
H  47.18500 31.73100 24.26700
H  45.76400 34.67400 32.22300
H  47.17200 37.17200 32.05500
H  45.37000 38.05000 32.44500
H  44.42600 36.56500 32.01300
H  44.71700 37.64200 30.73800
H  48.63900 34.58800 31.59100
H  47.77100 33.57500 32.72200
H  49.12300 36.18600 33.34300
H  48.91000 34.71800 34.15800
H  49.09400 40.60400 29.47900
H  47.53500 41.03700 28.85000
H  48.85600 41.55900 28.01200
H  50.71600 41.45700 26.87700
H  49.31500 41.92800 25.84800
H  50.94500 41.96500 25.12500
H  49.95000 35.31100 22.76900
H  47.54400 33.49900 22.42700
H  47.62600 36.90700 22.38500
H  47.58500 35.61000 21.11800
H  48.99800 36.61500 21.35600
H  49.21500 31.78100 23.48500
H  50.47600 33.01600 23.16300
H  50.62600 32.27700 21.02400
H  48.84600 32.50800 20.83400
H  49.32500 31.04600 21.51200
H  46.39800 29.30100 26.67900
H  45.73200 30.09500 25.19300
H  44.68100 29.52200 26.48500
H  44.13700 32.65200 30.69400
H  45.88000 32.38300 34.44800
H  45.59400 30.70800 34.00100
H  44.25000 31.72600 34.67300

