158

Mg 46.69000 17.13900 28.14600
C  44.70500 16.79900 31.02100
C  48.62300 19.37500 29.82200
C  48.29800 17.87300 25.28400
C  44.10600 15.63100 26.29600
N  46.74600 17.90300 30.17600
C  45.91100 17.50900 31.19100
C  46.39900 18.08300 32.54800
C  47.51300 19.13500 32.19800
C  47.66200 18.79100 30.65900
C  47.27400 20.63700 32.59100
C  46.73800 16.98800 33.61700
C  45.95100 16.96000 34.85300
H  45.78200 18.32200 35.63800
N  48.34200 18.39400 27.62000
C  48.93900 19.24200 28.48200
C  50.07000 19.84800 27.77100
C  50.00300 19.40700 26.38100
C  48.85900 18.48700 26.42300
C  51.20300 20.69300 28.45700
C  50.90400 19.78700 25.19600
O  50.74200 19.22400 24.10200
C  52.01500 20.82100 25.32500
N  46.24800 16.79600 26.13200
C  47.12000 17.15900 25.13700
C  46.73100 16.67800 23.76600
C  45.40500 15.92400 24.05900
C  45.21600 16.16000 25.59200
C  46.55800 17.79400 22.67000
C  45.37000 14.41800 23.64700
C  46.14100 13.48500 24.53700
N  44.77500 16.37600 28.53700
C  43.88300 15.71300 27.71300
C  42.73800 15.26500 28.53000
C  43.03800 15.61000 29.82700
C  44.31200 16.29900 29.76500
C  41.54800 14.41700 28.11100
C  42.59200 15.57300 31.16000
O  41.64900 15.01400 31.67500
C  43.59900 16.36700 32.01000
C  42.87300 17.47400 32.59200
O  42.39700 18.37800 31.94700
O  42.53300 17.17900 33.87000
C  41.73700 18.10700 34.62900
H  49.25400 20.14300 30.27400
H  48.80600 18.03100 24.33000
H  43.32100 15.27900 25.62300
H  45.60600 18.69200 32.98200
H  48.37500 18.80400 32.77700
H  47.14000 21.28300 31.72300
H  48.12800 21.15000 33.03400
H  46.45300 20.83000 33.28000
H  47.76200 17.02500 33.98900
H  46.43300 16.04200 33.17000
H  46.59600 16.41800 35.54500
H  45.03400 16.38000 34.75500
H  52.23600 20.37300 28.32000
H  51.11400 20.85900 29.53100
H  51.13700 21.67900 27.99600
H  52.48200 21.14200 24.39400
H  52.83000 20.59500 26.01300
H  51.62300 21.70600 25.82700
H  47.54800 16.01600 23.48000
H  44.48000 16.27000 23.59700
H  45.52700 17.88200 22.32600
H  47.18800 17.68900 21.78800
H  46.60000 18.82100 23.03500
H  45.87100 14.30900 22.68500
H  44.37700 13.97300 23.59400
H  46.95000 13.11000 23.91100
H  45.55600 12.59800 24.78300
H  46.33300 13.99400 25.48100
H  40.69900 15.09600 28.19000
H  41.35000 13.64200 28.85300
H  41.59900 14.02800 27.09500
H  44.12300 15.79900 32.77800
H  40.68600 17.82100 34.59300
H  41.88400 19.13800 34.30400
H  42.13600 18.02100 35.63900
Mg 37.30400 50.56000 25.18900
C  37.01900 48.39600 27.85300
C  35.95400 53.07700 26.89000
C  37.09100 52.34300 22.28400
C  38.26600 47.70700 23.26800
N  36.40600 50.63600 27.14600
C  36.62400 49.76000 28.11500
C  36.37700 50.31600 29.49600
C  35.72400 51.69500 29.14300
C  36.07600 51.91300 27.63500
C  34.23200 51.80400 29.35600
C  37.45000 50.30400 30.56300
C  37.05300 49.66200 31.90400
H  35.66700 49.87000 32.50500
N  36.77100 52.55100 24.66000
C  36.28300 53.44400 25.53900
C  36.04100 54.70700 24.88400
C  36.31900 54.52800 23.47800
C  36.74000 53.11400 23.42800
C  35.61600 55.90700 25.63300
C  36.20500 55.41800 22.31700
O  36.47800 55.03700 21.20200
C  35.84900 56.86100 22.55800
N  37.54100 50.08000 23.10800
C  37.42200 50.99900 22.06600
C  37.82600 50.35600 20.71000
C  38.40200 49.00100 21.07100
C  38.05900 48.91000 22.62700
C  36.51800 50.30100 19.80300
C  39.85700 48.65500 20.68100
C  40.84900 49.67100 21.20600
N  37.54200 48.45000 25.39700
C  37.94400 47.41500 24.56900
C  38.01200 46.18600 25.29300
C  37.68600 46.53600 26.59700
C  37.33400 47.88500 26.58700
C  38.52300 44.93800 24.72700
C  37.63300 46.09500 27.94500
O  37.82500 44.98400 28.34300
C  37.32400 47.33400 28.84900
C  36.21200 46.93500 29.71900
O  35.04500 47.00600 29.39800
O  36.71300 46.42800 30.92900
C  35.71600 46.17100 31.94900
H  35.76300 53.88100 27.60400
H  37.05200 52.88500 21.33700
H  38.87300 46.96300 22.74800
H  35.56900 49.70400 29.89800
H  36.21400 52.53200 29.64100
H  33.99300 51.00700 30.06100
H  33.75700 51.69600 28.38100
H  34.07800 52.77900 29.81800
H  37.83400 51.30100 30.77700
H  38.25500 49.69400 30.15200
H  37.75000 50.05200 32.64700
H  37.39300 48.62700 31.87600
H  35.76200 55.85900 26.71200
H  34.56300 56.11400 25.44100
H  36.08300 56.82800 25.28500
H  35.02200 56.96900 23.25900
H  35.67600 57.32000 21.58400
H  36.80700 57.24200 22.91300
H  38.62100 50.82500 20.13100
H  37.76200 48.26000 20.59200
H  36.81800 50.69100 18.83000
H  35.80200 51.00400 20.22800
H  35.95300 49.38500 19.63100
H  39.96800 48.54700 19.60200
H  40.12300 47.66000 21.03900
H  40.42200 50.67100 21.27400
H  41.67600 49.70300 20.49600
H  41.38600 49.37600 22.10800
H  39.52400 45.13300 24.34300
H  37.85700 44.64300 23.91600
H  38.60400 44.12500 25.44900
H  38.26700 47.46200 29.38100
H  35.76700 45.08200 31.95700
H  34.70100 46.48500 31.70200
H  36.09000 46.49600 32.91900

