158

Mg -1.97100 17.35800 25.84300
C  -2.45300 15.02200 28.44900
C  -2.51000 19.79500 28.19000
C  -1.95400 19.51800 23.22000
C  -2.49800 14.74300 23.52700
N  -2.53600 17.34300 28.15500
C  -2.45600 16.29100 29.00200
C  -2.52800 16.77000 30.54200
C  -2.69500 18.33100 30.38900
C  -2.51100 18.54400 28.84000
C  -4.02300 18.90800 30.97700
C  -1.35300 16.26800 31.42700
C  -1.07300 16.95600 32.77400
H  -0.92000 16.04300 34.02500
N  -1.99300 19.36400 25.71100
C  -2.20100 20.15200 26.82100
C  -2.29100 21.51400 26.29800
C  -2.04000 21.52200 24.92200
C  -1.93600 20.06000 24.56600
C  -2.56800 22.68300 27.14600
C  -1.89000 22.63200 23.91400
O  -1.73200 22.41100 22.74600
C  -1.83900 24.07500 24.36700
N  -2.03000 17.09900 23.61400
C  -2.00700 18.18600 22.78800
C  -1.99500 17.77800 21.33400
C  -2.25600 16.20100 21.43400
C  -2.32300 15.95700 22.93400
C  -2.86700 18.58100 20.43400
C  -1.22300 15.28200 20.70200
C  -1.93500 14.28300 19.77400
N  -2.23600 15.28100 25.87400
C  -2.43300 14.36100 24.87600
C  -2.59900 13.11800 25.49700
C  -2.47200 13.24100 26.87500
C  -2.43200 14.65200 27.08000
C  -3.11600 11.89200 24.73000
C  -2.61200 12.54500 28.14600
O  -2.91200 11.41600 28.37900
C  -2.49500 13.64300 29.16600
C  -1.23800 13.29900 29.90700
O  -0.12200 13.79100 29.63100
O  -1.48800 12.38000 30.86000
C  -0.46700 12.33500 31.91100
H  -2.40100 20.65600 28.85300
H  -1.77800 20.12200 22.32700
H  -2.66900 14.01900 22.72800
H  -3.46200 16.33900 30.90400
H  -1.88100 18.76300 30.97200
H  -4.91600 18.30000 30.83200
H  -4.33100 19.84100 30.50500
H  -3.82400 19.18800 32.01100
H  -0.45500 16.19200 30.81400
H  -1.51600 15.25400 31.79400
H  -1.88900 17.62600 33.04400
H  -0.10200 17.42900 32.62900
H  -2.96000 22.47800 28.14200
H  -3.35900 23.14600 26.55500
H  -1.67000 23.29300 27.24400
H  -2.81700 24.39300 24.72700
H  -1.62000 24.77400 23.56000
H  -1.11600 24.18000 25.17500
H  -0.99200 17.97000 20.95300
H  -3.29400 15.91100 21.26600
H  -3.66400 19.04100 21.01900
H  -3.29700 17.94700 19.65900
H  -2.24200 19.35400 19.98700
H  -0.59400 14.84300 21.47600
H  -0.49000 15.85200 20.12900
H  -1.24600 13.62900 19.23900
H  -2.55000 14.89900 19.11800
H  -2.67100 13.69900 20.32700
H  -4.19000 11.74900 24.61100
H  -2.79800 11.03300 25.32000
H  -2.53100 11.85900 23.81000
H  -3.33200 13.52700 29.85500
H  0.20500 11.47700 31.92200
H  -0.90000 12.24600 32.90700
H  0.16100 13.21800 32.02700
Mg 24.73900 -4.48800 45.71700
C  26.73000 -2.09200 43.90000
C  22.02500 -3.28800 43.81000
C  23.10800 -7.21800 46.62500
C  27.71600 -5.73100 46.95100
N  24.52900 -2.91500 44.05000
C  25.45100 -2.11100 43.43100
C  24.79600 -1.24500 42.32800
C  23.24800 -1.48500 42.54000
C  23.22200 -2.61500 43.58200
C  22.29600 -0.28000 43.10500
C  25.38100 -1.59600 40.89700
C  25.92300 -0.41600 40.07500
H  25.66600 -0.56400 38.55000
N  22.78900 -5.12900 45.32500
C  21.82100 -4.47800 44.62700
C  20.68100 -5.31200 44.66300
C  20.89600 -6.46100 45.47700
C  22.31200 -6.31900 45.86200
C  19.45800 -4.91600 43.86300
C  19.87300 -7.53800 45.88500
O  18.75200 -7.67400 45.36700
C  20.10200 -8.52600 46.95800
N  25.32000 -6.16500 46.79400
C  24.47300 -7.23300 47.06500
C  25.18000 -8.45000 47.62600
C  26.62500 -7.89900 47.96100
C  26.60100 -6.55100 47.19100
C  24.41700 -9.02000 48.88700
C  27.73700 -8.92000 47.52400
C  28.61300 -9.48300 48.70100
N  26.74600 -3.90400 45.75900
C  27.79500 -4.49700 46.32300
C  28.93900 -3.63300 46.23900
C  28.63300 -2.72000 45.19300
C  27.26100 -2.89600 44.95200
C  30.24400 -3.76700 47.02500
C  29.08900 -1.65200 44.39100
O  30.12400 -1.06700 44.37500
C  27.85000 -1.30400 43.44600
C  27.56500 0.15300 43.65400
O  27.06700 0.71400 44.61800
O  28.10400 0.88000 42.61500
C  28.18600 2.38500 42.66400
H  21.11200 -2.92400 43.33500
H  22.52000 -8.10200 46.88200
H  28.70900 -6.01200 47.30700
H  25.02500 -0.21800 42.61100
H  22.98500 -1.84700 41.54600
H  21.56800 -0.61600 43.84400
H  21.65100 0.13900 42.33300
H  22.89500 0.57200 43.42500
H  24.67700 -2.08200 40.22100
H  26.13800 -2.37500 40.99500
H  26.97600 -0.26000 40.31200
H  25.33000 0.41900 40.44900
H  19.50900 -5.15200 42.80000
H  19.15800 -3.86800 43.87700
H  18.53000 -5.39300 44.17700
H  19.16900 -9.02300 47.22300
H  20.45900 -7.89300 47.77100
H  20.77700 -9.33600 46.68200
H  25.18100 -9.27900 46.91900
H  26.77600 -7.76800 49.03200
H  25.01500 -8.92100 49.79300
H  24.12400 -10.05800 48.73300
H  23.44000 -8.55100 49.00900
H  28.42000 -8.41000 46.84400
H  27.30900 -9.74000 46.94700
H  28.85000 -10.54200 48.60300
H  28.00400 -9.36600 49.59800
H  29.50500 -8.86600 48.80500
H  30.82100 -4.53300 46.50700
H  30.04200 -4.21100 47.99900
H  30.79200 -2.82500 46.97500
H  28.19600 -1.53200 42.43800
H  28.31400 2.64800 41.61400
H  29.06300 2.59100 43.27700
H  27.31600 2.91300 43.05700

