158

Mg -1.85600 17.49800 27.32700
C  -2.34500 15.54900 30.09600
C  -2.86100 20.29900 29.14100
C  -1.33600 19.39600 24.44500
C  -1.64900 14.63200 25.38000
N  -2.36600 17.89400 29.49500
C  -2.47300 16.91300 30.47200
C  -2.69400 17.61100 31.85700
C  -3.27000 18.99900 31.42300
C  -2.78200 19.14400 29.90700
C  -4.75200 19.23500 31.43900
C  -1.45300 17.55900 32.77400
C  -1.80600 17.40700 34.31900
H  -0.71000 17.72900 35.32800
N  -1.88300 19.59100 26.95000
C  -2.39100 20.55500 27.83700
C  -2.29800 21.84100 27.18700
C  -1.76200 21.59500 25.85100
C  -1.62000 20.13400 25.68900
C  -2.64100 23.17600 27.83800
C  -1.38800 22.62000 24.82500
O  -1.02000 22.29800 23.71700
C  -1.51300 24.07000 25.12500
N  -1.56300 17.04700 25.17000
C  -1.34800 18.04400 24.16300
C  -1.07300 17.37600 22.76900
C  -0.99800 15.88200 23.20400
C  -1.42400 15.78500 24.65500
C  -2.23300 17.68100 21.79300
C  0.47600 15.23400 23.04200
C  1.49400 16.06200 23.85600
N  -2.05400 15.46100 27.54900
C  -2.01700 14.40600 26.70800
C  -2.21300 13.16200 27.42500
C  -2.31600 13.57100 28.81000
C  -2.22700 14.96200 28.81500
C  -2.27500 11.79100 26.74000
C  -2.49900 13.09500 30.13200
O  -2.58700 11.94900 30.56900
C  -2.42700 14.36900 31.05800
C  -1.19400 14.16600 31.79200
O  -0.02000 14.17400 31.41700
O  -1.52500 14.07600 33.12800
C  -0.42800 13.87000 34.06800
H  -3.21300 21.15500 29.72000
H  -1.13100 20.02100 23.57400
H  -1.51900 13.76400 24.73100
H  -3.40500 16.93000 32.32500
H  -2.85200 19.85400 31.95500
H  -5.22400 18.26600 31.27500
H  -5.18300 19.81000 30.61900
H  -5.06800 19.78700 32.32400
H  -0.81300 18.42900 32.62500
H  -0.79700 16.71000 32.58300
H  -2.12300 16.42400 34.66700
H  -2.67500 18.03700 34.51000
H  -1.73700 23.78400 27.83600
H  -2.80900 23.07000 28.91000
H  -3.57100 23.66700 27.55000
H  -1.66800 24.52400 24.14600
H  -0.62300 24.42700 25.64400
H  -2.35800 24.38900 25.73600
H  -0.16600 17.67900 22.24500
H  -1.67500 15.32600 22.55500
H  -3.15000 17.43200 22.32600
H  -2.11100 17.22100 20.81300
H  -2.28100 18.76500 21.68600
H  0.80600 15.17600 22.00500
H  0.41600 14.20000 23.38100
H  2.17900 15.32100 24.26600
H  1.10300 16.80000 24.55700
H  2.14100 16.61500 23.17500
H  -2.01700 11.82400 25.68200
H  -3.28100 11.37600 26.80300
H  -1.62900 11.08300 27.25900
H  -3.30400 14.51200 31.69000
H  -0.64600 14.35200 35.02100
H  0.54200 14.25400 33.75100
H  -0.35600 12.78800 34.17700
Mg 48.48900 35.20300 27.20200
C  46.87900 33.52000 29.59300
C  48.53400 37.94900 29.36000
C  50.03900 37.02200 24.92100
C  48.40400 32.40200 25.10700
N  47.88400 35.65800 29.19600
C  47.33300 34.75200 30.00300
C  47.19600 35.22000 31.50000
C  47.34500 36.77300 31.30200
C  47.92600 36.78800 29.82300
C  46.02300 37.49600 31.46900
C  48.23700 34.45100 32.41000
C  48.93700 35.16100 33.55600
H  48.03800 35.94800 34.55400
N  49.03300 37.26400 27.10100
C  49.05300 38.22900 28.10800
C  49.66800 39.46800 27.61300
C  50.03600 39.24300 26.25100
C  49.80600 37.74100 26.04700
C  49.72200 40.78400 28.40200
C  50.61400 40.17600 25.20300
O  50.91700 39.90000 24.07100
C  50.80100 41.67300 25.63500
N  49.06100 34.84600 25.23200
C  49.77100 35.77000 24.52900
C  50.32300 35.15700 23.19200
C  49.88200 33.64300 23.34400
C  49.04600 33.60100 24.61400
C  49.84300 35.82600 21.92700
C  51.13600 32.70700 23.37900
C  51.02200 31.34500 22.81700
N  47.81900 33.33500 27.26800
C  47.78000 32.30500 26.35400
C  47.00600 31.19000 26.89000
C  46.57800 31.62400 28.14400
C  47.12000 32.93000 28.38100
C  46.68100 29.88900 26.21000
C  45.83600 31.17900 29.31700
O  45.26800 30.12900 29.59600
C  45.83500 32.53900 30.19500
C  45.96200 32.19500 31.61200
O  46.77900 31.40700 32.05400
O  44.95200 32.78900 32.34000
C  44.79700 32.54300 33.77600
H  48.55300 38.77000 30.07900
H  50.72800 37.52500 24.24000
H  48.43700 31.43700 24.59600
H  46.18000 34.94400 31.78300
H  48.11400 37.20000 31.94500
H  46.23600 38.48200 31.05800
H  45.70900 37.77400 32.47500
H  45.19900 36.94900 31.01000
H  48.95600 33.92400 31.78300
H  47.80800 33.58300 32.91000
H  49.60900 35.85600 33.05300
H  49.66700 34.51000 34.03800
H  50.77100 41.06000 28.50800
H  49.46300 40.59100 29.44300
H  49.22900 41.64600 27.95100
H  49.85500 42.11800 25.94200
H  51.23200 42.23400 24.80600
H  51.57200 41.57700 26.40000
H  51.40300 35.29800 23.24700
H  49.16700 33.24900 22.62100
H  49.47300 35.09400 21.20900
H  50.71000 36.26800 21.43700
H  49.20100 36.65000 22.23900
H  51.40800 32.56100 24.42500
H  51.88600 33.20200 22.76300
H  50.02100 31.20800 22.40800
H  51.02000 30.61400 23.62600
H  51.80900 31.12900 22.09400
H  47.65400 29.53000 25.87600
H  45.97600 30.15400 25.42200
H  46.25600 29.11200 26.84600
H  44.85300 32.99700 30.07400
H  43.85300 32.02400 33.94100
H  44.69400 33.45700 34.36100
H  45.65300 31.97100 34.13400

