158

Mg 54.30700 23.65700 43.73800
C  51.48300 25.72600 43.26900
C  52.33700 20.98800 42.73400
C  57.16200 22.10100 43.25600
C  56.20400 26.71100 44.23000
N  52.16000 23.40000 42.91800
C  51.16500 24.44800 42.91400
C  49.88100 23.87500 42.38000
C  50.19800 22.33400 42.60500
C  51.66300 22.20200 42.78000
C  49.52600 21.73100 43.80100
C  49.67900 24.18800 40.83500
C  48.24100 24.22500 40.31300
H  47.84400 24.79000 38.91900
N  54.73100 21.79700 43.23700
C  53.77300 20.77800 42.92500
C  54.48900 19.51400 42.68300
C  55.88700 19.76300 42.89500
C  56.03500 21.28400 43.15900
C  53.83700 18.24900 42.17000
C  57.00000 18.70800 42.78200
O  56.81100 17.52000 42.54800
C  58.44600 19.06800 43.08400
N  56.37700 24.29900 43.80700
C  57.39200 23.38600 43.57600
C  58.81800 23.98300 43.89200
C  58.50700 25.48000 44.06400
C  56.95200 25.55400 44.04600
C  59.43500 23.42800 45.12600
C  58.97700 26.35700 42.86800
C  58.74500 25.99200 41.39500
N  53.91000 25.73000 43.89100
C  54.74600 26.78600 44.21200
C  53.97000 27.97700 44.43100
C  52.67000 27.54100 44.08500
C  52.74000 26.22500 43.69400
C  54.39500 29.29100 45.02800
C  51.25100 28.04700 44.09000
O  50.73200 29.11100 44.51200
C  50.46600 26.96100 43.42700
C  50.07900 27.52200 42.12600
O  50.85300 27.93400 41.26200
O  48.67600 27.51300 41.92300
C  48.22900 28.00500 40.60800
H  51.75600 20.07800 42.56900
H  58.00000 21.44900 43.00100
H  56.72500 27.59300 44.60700
H  49.02000 24.18400 42.97300
H  49.96400 21.81200 41.67700
H  48.79600 22.43100 44.20700
H  50.27300 21.48700 44.55700
H  48.99500 20.79300 43.64200
H  50.12500 23.43500 40.18500
H  50.05700 25.20100 40.69700
H  47.70700 24.70600 41.13300
H  47.87500 23.20600 40.43900
H  53.04100 18.31300 41.42800
H  53.42000 17.71800 43.02600
H  54.37500 17.42000 41.71000
H  58.92300 19.74800 42.37800
H  59.09600 18.19800 43.16600
H  58.43200 19.56800 44.05200
H  59.47000 23.74100 43.05300
H  58.68400 25.77600 45.09800
H  60.47500 23.18600 44.90500
H  58.99400 22.45500 45.34300
H  59.28100 24.05400 46.00500
H  60.03900 26.43900 43.10200
H  58.60600 27.36000 43.08000
H  57.93700 25.27300 41.26300
H  59.70700 25.68000 40.99100
H  58.41800 26.90400 40.89500
H  55.22000 29.05200 45.69800
H  53.53300 29.68200 45.56900
H  54.74400 30.09400 44.37800
H  49.56500 26.73300 43.99700
H  48.39700 29.07400 40.48000
H  47.14400 27.90800 40.60600
H  48.69900 27.46600 39.78400
Mg 1.46100 42.81000 26.13300
C  2.99300 42.74900 29.28700
C  -1.46600 41.70100 27.59200
C  0.12600 42.45100 23.01800
C  4.50100 43.57000 24.68100
N  0.90800 42.17400 28.22600
C  1.61100 42.43100 29.32700
C  0.76800 42.29000 30.61900
C  -0.61400 41.58900 29.99200
C  -0.44800 41.93700 28.48300
C  -0.76700 40.12200 30.31200
C  0.52300 43.58900 31.34800
C  0.88600 43.50000 32.89000
H  -0.09400 42.80800 33.87500
N  -0.45000 42.27700 25.40900
C  -1.46500 41.81800 26.12800
C  -2.57800 41.54200 25.29900
C  -2.19100 41.86500 23.97300
C  -0.77500 42.22800 24.10900
C  -3.85500 41.01300 25.88100
C  -3.00900 41.85700 22.69200
O  -2.58800 42.34000 21.66200
C  -4.45900 41.54800 22.68600
N  2.18500 43.04700 24.20200
C  1.49200 42.65300 23.06600
C  2.38700 42.75300 21.81200
C  3.75500 43.36900 22.30300
C  3.48600 43.31900 23.80400
C  2.67000 41.46600 21.08300
C  3.92500 44.78500 21.89400
C  2.82600 45.81800 22.15900
N  3.39800 43.16900 26.80600
C  4.54100 43.49200 26.13100
C  5.62400 43.64700 27.02500
C  5.06400 43.25200 28.25300
C  3.71200 43.03900 28.07500
C  6.92000 44.26400 26.74100
C  5.34900 43.14500 29.64800
O  6.42100 43.35900 30.25500
C  4.07700 42.82100 30.40100
C  4.31200 41.60200 31.19900
O  4.43000 40.46400 30.79600
O  4.28000 42.01300 32.51800
C  4.34800 40.84000 33.42400
H  -2.42200 41.38800 28.01800
H  -0.22300 42.21600 22.01000
H  5.44000 43.70900 24.14200
H  1.38400 41.60900 31.20700
H  -1.54400 42.01300 30.37100
H  -0.10100 39.85200 31.13200
H  -0.46300 39.43200 29.52500
H  -1.81800 40.04500 30.58900
H  -0.50900 43.86700 31.13300
H  1.09300 44.39800 30.89300
H  1.12800 44.51500 33.20300
H  1.74100 42.82600 32.94600
H  -4.74400 41.33000 25.33600
H  -4.01100 41.42500 26.87700
H  -3.81100 39.93400 26.02600
H  -4.87400 41.54900 21.67800
H  -5.01300 42.32100 23.22000
H  -4.62900 40.59900 23.19400
H  1.85300 43.38600 21.10400
H  4.60000 42.69700 22.15200
H  1.98500 41.26900 20.25800
H  2.44500 40.59700 21.70200
H  3.69900 41.21800 20.82600
H  4.19600 44.83500 20.84000
H  4.77800 45.24400 22.39500
H  3.06800 46.45500 23.01000
H  1.97200 45.25900 22.54200
H  2.63200 46.40200 21.25900
H  7.67800 43.81100 27.38000
H  7.00900 45.33400 26.93000
H  7.18800 44.22000 25.68500
H  3.81300 43.62400 31.08900
H  5.17900 40.17700 33.18200
H  3.34000 40.47200 33.23300
H  4.53200 41.16700 34.44800

