158

Mg 42.48700 41.63500 26.35500
C  42.08900 43.84800 29.08500
C  43.47400 39.29400 28.67600
C  43.91500 39.77900 23.82600
C  42.10200 44.29000 24.16400
N  42.68200 41.55100 28.71000
C  42.47300 42.55500 29.57700
C  42.44000 42.06700 31.04600
C  42.91200 40.59600 30.82500
C  43.08700 40.42300 29.33000
C  44.17800 40.11100 31.61500
C  40.98400 42.30500 31.65200
C  40.65800 41.34200 32.79500
H  39.83700 41.77600 34.06800
N  43.39700 39.78300 26.21000
C  43.62300 38.92500 27.32500
C  43.97900 37.60900 26.79500
C  44.16800 37.76400 25.40300
C  43.78500 39.15200 25.07900
C  44.14100 36.41200 27.69100
C  44.62500 36.76500 24.40800
O  45.00700 37.05900 23.28500
C  44.61200 35.32800 24.77400
N  42.92300 42.04900 24.22600
C  43.45500 41.03800 23.44100
C  43.34100 41.44900 21.92100
C  42.56600 42.85500 22.01200
C  42.47200 43.08600 23.54100
C  44.61500 41.44700 20.98500
C  41.17700 42.94500 21.37700
C  40.28700 41.74000 21.71400
N  42.06300 43.56600 26.54900
C  41.81900 44.51100 25.59300
C  41.40500 45.73300 26.22600
C  41.50400 45.48000 27.55700
C  41.92300 44.17400 27.72700
C  41.09200 46.97300 25.46100
C  41.39700 46.21700 28.83500
O  41.14800 47.33700 29.11800
C  41.65900 45.05300 29.93100
C  42.78200 45.51000 30.80000
O  43.95600 45.63900 30.40400
O  42.46200 45.67100 32.12500
C  43.45900 46.31500 32.95600
H  43.56500 38.45300 29.36600
H  44.26600 39.12500 23.02600
H  41.94700 45.18100 23.55200
H  43.16000 42.63500 31.63500
H  42.12600 39.85500 30.97400
H  45.08000 40.19300 31.00900
H  44.10300 39.05300 31.86400
H  44.24200 40.73800 32.50500
H  40.18200 42.52800 30.94800
H  41.09000 43.23800 32.20500
H  41.54700 40.73300 32.95700
H  39.90100 40.70700 32.33400
H  43.33900 35.68100 27.58800
H  44.03700 36.66100 28.74700
H  45.11700 35.95500 27.52700
H  43.75500 35.02900 25.37800
H  45.48300 35.21400 25.41900
H  44.76100 34.72800 23.87600
H  42.67500 40.80000 21.35300
H  43.30100 43.50500 21.53700
H  44.38100 41.10200 19.97700
H  45.43000 40.80200 21.31500
H  45.07000 42.40300 20.72700
H  41.29900 43.08900 20.30300
H  40.82400 43.82800 21.90900
H  40.24600 40.97300 20.94100
H  39.34800 42.22900 21.97600
H  40.70300 41.12200 22.51000
H  40.83100 47.76100 26.16700
H  40.23800 46.84100 24.79600
H  41.99300 47.33900 24.96900
H  40.85100 44.83800 30.63000
H  44.31400 45.64800 33.07300
H  42.87000 46.51000 33.85200
H  43.83500 47.26300 32.57200
Mg 0.69500 43.77300 26.09000
C  2.79300 43.32000 28.69400
C  -1.86100 42.40900 27.92100
C  -1.20600 43.64500 23.23300
C  3.56400 44.54300 24.06700
N  0.47300 43.00000 28.08600
C  1.48900 43.00900 28.98500
C  0.89700 42.67600 30.40800
C  -0.58100 42.19200 30.04300
C  -0.66400 42.43000 28.52500
C  -0.92700 40.72000 30.55700
C  0.95200 43.86800 31.39100
C  0.58700 43.54300 32.87800
H  0.40400 42.14200 33.39200
N  -1.32700 43.24800 25.66900
C  -2.22900 42.67300 26.57800
C  -3.56200 42.46200 25.96800
C  -3.37700 42.86700 24.56400
C  -1.88900 43.28400 24.42900
C  -4.77300 41.91400 26.71700
C  -4.33800 42.87500 23.43300
O  -4.08200 43.28100 22.25500
C  -5.74800 42.56600 23.63600
N  1.19000 43.75000 23.91900
C  0.14000 43.88800 22.99000
C  0.63500 44.32800 21.62700
C  2.06400 44.73500 21.99100
C  2.31400 44.29000 23.45400
C  0.51300 43.19700 20.54000
C  2.32100 46.21300 21.77100
C  1.68900 47.20300 22.74600
N  2.86200 43.87800 26.28700
C  3.84500 44.25300 25.39900
C  5.07200 44.29500 26.09100
C  4.77500 43.92400 27.42100
C  3.37800 43.71100 27.46300
C  6.37400 44.68900 25.52000
C  5.27500 43.64900 28.71800
O  6.38800 43.65900 29.11600
C  4.04000 43.28500 29.64200
C  4.32500 41.95600 30.22600
O  4.21000 40.90200 29.64600
O  4.76800 42.11500 31.52600
C  4.80000 40.73200 32.15400
H  -2.61000 41.87000 28.50500
H  -1.82900 43.75500 22.34300
H  4.39800 45.01000 23.54100
H  1.53500 41.92900 30.88000
H  -1.16000 42.94000 30.58400
H  -1.75200 40.53700 31.24600
H  -0.00500 40.40500 31.04600
H  -1.12000 40.07100 29.70200
H  0.19500 44.54900 30.99900
H  1.90900 44.37900 31.28600
H  -0.28600 44.11000 33.19900
H  1.48200 43.88400 33.39900
H  -5.09600 41.01200 26.19600
H  -5.54300 42.67900 26.62400
H  -4.53400 41.59600 27.73200
H  -6.26500 42.59100 22.67700
H  -6.22200 43.29300 24.29500
H  -5.75000 41.58600 24.11300
H  0.04900 45.17800 21.28000
H  2.68500 44.14300 21.31800
H  -0.54100 43.10400 20.28100
H  1.03200 42.29300 20.85600
H  0.93500 43.65500 19.64500
H  1.99000 46.34500 20.74100
H  3.40900 46.25400 21.82700
H  0.75900 46.80800 23.15300
H  1.49000 48.15100 22.24500
H  2.42300 47.48100 23.50300
H  7.12900 44.47700 26.27600
H  6.52800 45.74400 25.29700
H  6.49100 44.03900 24.65200
H  4.06400 44.00300 30.46300
H  5.74400 40.21600 31.97500
H  3.92200 40.11400 31.96900
H  4.78900 41.04200 33.19900

