158

Mg 48.39200 25.59500 27.62200
C  49.15200 27.71400 30.26200
C  47.32600 23.39500 29.96300
C  48.08200 23.46300 25.09300
C  50.50700 27.73600 25.52100
N  48.32200 25.53000 29.83800
C  48.54300 26.55700 30.73900
C  48.25100 26.22800 32.21500
C  47.59500 24.82900 32.05900
C  47.82100 24.51900 30.51600
C  48.14600 23.67600 32.91100
C  47.21100 27.16800 32.93300
C  46.48400 26.76700 34.19100
H  46.50100 27.75800 35.30900
N  47.66500 23.75300 27.52600
C  47.29100 23.00900 28.57700
C  46.61400 21.81300 28.03400
C  47.01500 21.75800 26.68000
C  47.58800 23.03400 26.36800
C  45.83500 20.88100 28.90500
C  46.85400 20.58200 25.77000
O  47.41600 20.54100 24.69300
C  45.95700 19.47700 26.12100
N  49.26000 25.60600 25.51400
C  48.94300 24.54300 24.69300
C  49.31100 24.89600 23.22800
C  50.14900 26.22300 23.38200
C  49.94800 26.58900 24.85300
C  50.09000 23.73300 22.63000
C  49.65500 27.38600 22.38900
C  50.75300 27.96800 21.43100
N  49.49900 27.34900 27.75000
C  50.33800 28.05700 26.90200
C  50.77700 29.33100 27.51000
C  50.25800 29.26700 28.84900
C  49.60200 27.97700 28.97100
C  51.45700 30.43900 26.94400
C  50.26800 29.91900 30.13700
O  50.62100 30.96900 30.57000
C  49.46700 28.97600 31.08400
C  50.41500 28.66300 32.16700
O  51.47300 28.03100 32.07300
O  49.88500 29.05800 33.43100
C  50.80100 28.65000 34.51000
H  46.99600 22.73600 30.76900
H  47.96300 22.76700 24.26000
H  51.04200 28.41800 24.85600
H  49.24100 26.17900 32.66800
H  46.52200 24.88300 32.24000
H  47.33500 23.15900 33.42400
H  48.91300 23.99300 33.61800
H  48.77700 22.91600 32.45000
H  46.39300 27.37200 32.24200
H  47.69800 28.10900 33.19200
H  46.81800 25.82100 34.61700
H  45.44200 26.61200 33.90900
H  46.38100 19.94000 28.96300
H  44.94500 20.48600 28.41500
H  45.56500 21.16200 29.92400
H  46.42000 19.00800 26.98900
H  45.83400 18.73200 25.33500
H  45.01500 20.00900 26.25500
H  48.34900 24.97800 22.72200
H  51.20600 25.95800 23.36800
H  50.32800 22.99800 23.39800
H  51.05800 24.07500 22.26300
H  49.49100 23.30800 21.82500
H  49.51400 28.28500 22.98900
H  48.75400 27.06500 21.86700
H  50.77300 29.04700 21.58500
H  50.36500 27.71500 20.44400
H  51.76600 27.58600 21.55500
H  51.53000 31.21200 27.70900
H  50.81900 30.93300 26.21100
H  52.39800 30.14500 26.48000
H  48.58300 29.53100 31.40000
H  50.50400 27.64500 34.80900
H  50.57200 29.39100 35.27600
H  51.86400 28.52000 34.30700
Mg -12.39100 17.58900 41.29200
C  -9.02700 16.36200 40.76200
C  -11.20700 20.83700 40.58600
C  -15.48600 18.60400 40.66300
C  -13.43800 14.17000 41.18200
N  -10.37900 18.39700 40.72500
C  -9.10800 17.76700 40.59800
C  -7.91900 18.82400 40.32800
C  -8.74900 20.18700 40.35700
C  -10.25900 19.79400 40.59000
C  -8.23600 21.33800 41.34800
C  -7.15000 18.62600 39.01000
C  -5.75100 18.06800 39.21400
H  -5.40200 16.93000 38.16400
N  -13.18700 19.43700 40.71900
C  -12.59700 20.65000 40.52400
C  -13.55500 21.64000 40.01800
C  -14.85500 20.98600 40.03600
C  -14.56800 19.62200 40.46800
C  -13.22900 23.02100 39.59700
C  -16.17500 21.60900 39.59200
O  -16.18300 22.77200 39.15500
C  -17.52300 21.01100 39.81200
N  -14.21500 16.51000 40.97000
C  -15.34700 17.21600 40.83800
C  -16.54300 16.27200 40.77800
C  -15.90800 14.87100 41.23600
C  -14.44000 15.16500 41.04500
C  -17.85600 16.62600 41.53300
C  -16.54700 13.67100 40.40500
C  -17.57800 12.76300 41.15800
N  -11.46600 15.61600 41.16000
C  -12.06900 14.32400 41.11800
C  -11.02100 13.36800 40.95800
C  -9.82600 14.17600 40.92200
C  -10.14500 15.53000 41.01000
C  -11.15300 11.89300 40.88000
C  -8.38400 13.99100 40.67600
O  -7.75500 12.95300 40.53700
C  -7.78900 15.45300 40.54900
C  -6.67100 15.60100 41.61900
O  -6.78100 16.27800 42.63500
O  -5.58700 14.84400 41.28200
C  -4.64900 14.67400 42.42600
H  -10.73900 21.80500 40.39100
H  -16.54000 18.81700 40.47300
H  -13.80200 13.14100 41.22100
H  -7.24000 18.68100 41.16800
H  -8.87100 20.61000 39.36000
H  -7.23900 21.23100 41.77600
H  -9.02000 21.33000 42.10500
H  -8.29100 22.24300 40.74400
H  -7.05900 19.60500 38.54100
H  -7.74300 17.95200 38.39100
H  -5.56600 17.66300 40.20900
H  -5.06800 18.87200 38.94100
H  -13.51300 23.27100 38.57500
H  -12.16500 23.22100 39.72100
H  -13.76200 23.66300 40.29800
H  -17.63600 20.04900 39.31200
H  -18.25500 21.67100 39.34700
H  -17.67600 20.92900 40.88900
H  -16.79200 16.00500 39.75100
H  -15.99800 14.63000 42.29500
H  -18.49100 17.12900 40.80400
H  -17.80100 17.20200 42.45700
H  -18.35700 15.67700 41.72600
H  -15.69100 13.03100 40.19200
H  -17.14000 13.86100 39.51000
H  -17.35600 12.37700 42.15300
H  -17.65200 11.93800 40.44900
H  -18.54000 13.27400 41.18000
H  -11.07400 11.52200 41.90100
H  -10.45000 11.27700 40.32000
H  -12.13800 11.60000 40.51600
H  -7.38400 15.62700 39.55200
H  -4.13100 15.62300 42.57000
H  -3.96300 13.82900 42.47300
H  -5.18900 14.50800 43.35800

