158

Mg 24.58000 -4.64900 45.58000
C  26.25100 -1.84400 44.16100
C  21.70400 -3.86900 43.84000
C  23.39700 -7.63700 46.48000
C  27.56600 -5.27100 47.27000
N  24.03700 -3.02000 44.16900
C  24.92600 -2.08000 43.67700
C  24.26300 -1.30900 42.57100
C  22.73300 -1.84300 42.53000
C  22.81300 -2.91500 43.66900
C  21.62300 -0.76800 42.78000
C  24.96000 -1.43400 41.18400
C  25.16300 -0.25700 40.32000
H  24.85700 -0.44900 38.83200
N  22.73800 -5.57200 45.28200
C  21.68800 -5.09700 44.53900
C  20.74000 -6.13600 44.32500
C  21.14300 -7.28200 45.05000
C  22.44800 -6.88500 45.69700
C  19.45800 -5.95900 43.46900
C  20.33000 -8.49000 45.17200
O  19.30800 -8.65800 44.61100
C  20.79500 -9.59100 45.96100
N  25.43900 -6.28700 46.65600
C  24.69700 -7.40400 46.88200
C  25.51300 -8.30900 47.78700
C  26.72500 -7.44400 48.24400
C  26.62200 -6.25500 47.29300
C  24.77900 -8.98600 48.97400
C  28.17500 -8.10300 48.06300
C  29.07800 -7.99100 49.27500
N  26.52700 -3.80200 45.70300
C  27.62800 -4.23600 46.40100
C  28.69300 -3.27300 46.29800
C  28.17900 -2.32200 45.41500
C  26.86900 -2.68000 45.08800
C  29.99900 -3.23000 46.95300
C  28.48100 -1.08700 44.80600
O  29.49200 -0.44200 44.96200
C  27.30800 -0.74200 43.76600
C  26.78800 0.60300 44.03900
O  26.20500 0.94300 45.06300
O  26.98300 1.44500 42.98500
C  26.45500 2.75100 42.98600
H  20.81700 -3.60200 43.26300
H  23.07700 -8.66900 46.64400
H  28.44100 -5.47900 47.88900
H  24.23900 -0.26700 42.89000
H  22.50500 -2.46000 41.66100
H  21.95100 0.26900 42.84900
H  20.99000 -1.03600 43.62600
H  20.96200 -0.93800 41.93000
H  24.57000 -2.27800 40.61700
H  25.93800 -1.88800 41.34200
H  26.22100 -0.07900 40.51400
H  24.70200 0.68400 40.61900
H  19.24400 -6.81300 42.82700
H  19.56700 -5.07600 42.83900
H  18.55800 -5.64400 43.99700
H  21.76500 -9.73400 45.48300
H  20.11500 -10.43100 45.82000
H  21.00800 -9.33300 46.99800
H  25.89600 -9.07200 47.11000
H  26.56000 -7.10700 49.26700
H  24.80200 -10.05700 48.76900
H  23.77500 -8.56100 48.99000
H  25.23200 -8.77600 49.94200
H  28.72000 -7.69600 47.21100
H  28.09800 -9.17300 47.87000
H  29.98200 -7.42700 49.04900
H  29.35500 -9.02200 49.49500
H  28.43800 -7.50600 50.01200
H  30.68100 -2.53200 46.46700
H  30.51900 -4.18800 46.91200
H  29.98800 -3.06800 48.03100
H  27.65100 -0.78000 42.73200
H  25.96000 3.02100 43.91800
H  25.77600 2.61200 42.14400
H  27.24100 3.42800 42.65200
Mg 25.64600 1.28100 29.33100
C  27.53900 1.04700 32.23800
C  22.77700 1.84700 31.25700
C  23.86200 1.07500 26.44400
C  28.56400 0.62700 27.41000
N  25.19600 1.27600 31.42400
C  26.12200 1.36000 32.46200
C  25.54200 1.77000 33.78400
C  23.99900 1.67100 33.42600
C  23.99800 1.65300 31.92300
C  23.12200 0.60900 34.16600
C  26.09000 3.05600 34.43100
C  26.56700 2.82700 35.91900
H  26.20500 3.95500 36.95800
N  23.60700 1.44700 28.88100
C  22.56500 1.71800 29.83500
C  21.36700 1.84000 29.12500
C  21.63600 1.62100 27.78700
C  23.11800 1.38100 27.64800
C  20.11000 2.07800 29.77500
C  20.64400 1.65600 26.66300
O  21.01500 1.36700 25.50400
C  19.15300 1.90100 26.87600
N  26.13300 0.87000 27.23100
C  25.20800 0.84300 26.24300
C  25.85700 0.63900 24.83300
C  27.41000 0.51700 25.16700
C  27.37600 0.64000 26.67700
C  25.25400 -0.46000 23.90400
C  28.23100 1.73900 24.51300
C  27.89600 3.19700 24.90300
N  27.63500 1.00600 29.68400
C  28.67200 0.75600 28.85000
C  29.81300 0.40000 29.58900
C  29.45100 0.58800 30.92100
C  28.09900 0.87200 30.94000
C  31.14500 -0.05100 29.10900
C  29.92000 0.58200 32.33200
O  30.99000 0.36500 32.90400
C  28.67100 1.07300 33.18000
C  28.55400 0.16600 34.37000
O  27.88700 -0.87100 34.43000
O  29.48800 0.53300 35.28600
C  29.44600 -0.23600 36.53700
H  21.95400 1.88400 31.97400
H  23.39800 1.03300 25.45700
H  29.51300 0.45600 26.89800
H  25.74400 0.98000 34.50600
H  23.48400 2.61700 33.59500
H  22.10500 0.98600 34.27500
H  23.55300 0.28400 35.11300
H  23.17500 -0.22800 33.46900
H  25.28500 3.79000 34.42000
H  26.88400 3.44200 33.79200
H  27.63800 2.63700 35.83900
H  26.19400 1.90400 36.36300
H  19.52300 1.17600 29.60500
H  19.63100 2.98400 29.40400
H  20.31600 2.25200 30.83100
H  18.89200 2.95400 26.98300
H  18.77000 1.30200 27.70300
H  18.66900 1.67500 25.92600
H  25.75000 1.56900 24.27600
H  27.81800 -0.48600 25.03700
H  24.42600 -1.02300 24.33500
H  26.05500 -1.17700 23.72200
H  24.81300 -0.09500 22.97600
H  28.08000 1.65700 23.43600
H  29.28300 1.48000 24.63000
H  27.09200 3.13800 25.63600
H  27.60100 3.74600 24.00900
H  28.71100 3.75900 25.36100
H  31.30900 0.29500 28.08800
H  31.33600 -1.11300 28.95300
H  31.89100 0.36800 29.78500
H  28.88500 2.09000 33.51000
H  28.52800 -0.13400 37.11500
H  30.20100 -0.01500 37.29200
H  29.52400 -1.29700 36.30200

