158

Mg 46.81200 17.42300 28.44500
C  44.89300 17.06700 31.40600
C  49.00500 19.31300 30.32300
C  48.40300 17.92100 25.59300
C  44.07900 15.78400 26.81900
N  46.84400 18.22600 30.51800
C  46.08400 17.76800 31.58900
C  46.57600 18.18300 32.94500
C  47.71600 19.19600 32.55600
C  47.94200 18.84000 31.04100
C  47.30900 20.78100 32.60200
C  47.06500 16.95500 33.85700
C  46.66900 17.09400 35.34200
H  46.39200 18.46700 35.84100
N  48.51900 18.43300 28.03200
C  49.30300 19.16300 28.92100
C  50.30100 19.91800 28.19100
C  50.05600 19.55000 26.83000
C  48.99400 18.53200 26.76300
C  51.34500 20.71000 28.90500
C  50.79200 20.07900 25.70000
O  50.72400 19.58900 24.56900
C  51.56700 21.44100 25.77300
N  46.37400 16.85100 26.51800
C  47.20200 17.16300 25.50000
C  46.57200 16.65100 24.21700
C  45.31300 15.83600 24.62400
C  45.28800 16.12300 26.10900
C  46.35800 17.74600 23.10600
C  45.39600 14.34700 24.28600
C  44.78100 13.80900 22.97400
N  44.86600 16.59800 28.97000
C  43.88000 15.93000 28.21000
C  42.69200 15.53400 29.03200
C  43.08700 15.89400 30.28200
C  44.34800 16.63600 30.17900
C  41.35300 14.89300 28.63100
C  42.57500 15.92200 31.66700
O  41.56500 15.48800 32.11700
C  43.78200 16.70200 32.45800
C  43.04700 17.95200 32.95000
O  42.75800 18.94600 32.27900
O  42.76500 17.89000 34.28200
C  42.13900 19.06000 34.91600
H  49.75100 19.89900 30.86500
H  48.78400 18.13100 24.59100
H  43.17200 15.52200 26.26900
H  45.72900 18.63800 33.45800
H  48.68500 18.90300 32.96100
H  47.18100 21.09300 31.56600
H  48.16500 21.27600 33.06200
H  46.39200 20.80600 33.19000
H  48.15200 16.87700 33.86100
H  46.61600 16.00700 33.56100
H  47.27500 16.45600 35.98500
H  45.69300 16.63300 35.49500
H  52.29700 20.50200 28.41800
H  51.41500 20.27200 29.90100
H  51.06600 21.76400 28.90800
H  51.15900 22.09300 26.54600
H  51.64100 21.89000 24.78300
H  52.57700 21.27300 26.14800
H  47.33600 15.98700 23.81200
H  44.38600 16.24000 24.21800
H  46.80300 18.67700 23.45500
H  45.29000 17.89700 22.94800
H  46.87600 17.43600 22.19900
H  44.96400 13.76000 25.09600
H  46.36500 13.85300 24.21900
H  45.56000 13.67400 22.22300
H  44.08900 14.48100 22.46600
H  44.25900 12.89500 23.25700
H  41.14900 15.19700 27.60500
H  40.52900 15.13900 29.30100
H  41.34400 13.81400 28.47300
H  44.11900 16.23900 33.38500
H  41.29200 19.50600 34.39400
H  42.89900 19.80900 35.13900
H  41.67800 18.59600 35.78800
Mg 17.17200 51.28900 25.77600
C  18.83600 50.27300 28.58900
C  14.46500 52.08100 27.69700
C  15.59000 52.47600 22.99800
C  19.77400 50.04300 23.80900
N  16.69100 51.13600 27.91200
C  17.52700 50.74900 28.87100
C  16.91200 51.04800 30.27100
C  15.44800 51.40600 30.02600
C  15.54700 51.60700 28.47700
C  14.41700 50.27000 30.39700
C  17.70800 52.16400 31.09500
C  17.99800 51.84900 32.52500
H  17.13400 52.51600 33.59500
N  15.28700 52.25000 25.41100
C  14.33100 52.45200 26.33700
C  13.16200 53.06600 25.73400
C  13.48500 53.28100 24.35800
C  14.86100 52.66800 24.21500
C  11.87500 53.40600 26.52700
C  12.59300 53.93800 23.26900
O  12.94600 53.98800 22.06000
C  11.33000 54.54900 23.59200
N  17.68700 51.36000 23.76800
C  16.84300 51.89300 22.79200
C  17.39200 51.63300 21.36800
C  18.84900 51.21500 21.71100
C  18.82000 50.82300 23.16800
C  16.59200 50.66400 20.52100
C  19.94700 52.21400 21.32000
C  21.02100 51.57600 20.45500
N  18.93700 50.34600 26.07900
C  19.88200 49.80200 25.16900
C  21.05400 49.27800 25.90000
C  20.70800 49.47400 27.21300
C  19.40400 50.06700 27.29600
C  22.31400 48.67400 25.24900
C  21.16900 49.31500 28.56100
O  22.23200 48.86400 29.03900
C  19.96300 49.87000 29.52600
C  19.63100 48.79400 30.51400
O  19.09600 47.69900 30.22900
O  20.09100 49.16100 31.74500
C  19.95300 48.25300 32.89100
H  13.55900 52.15700 28.30100
H  14.93700 52.66900 22.14500
H  20.58500 49.73900 23.14400
H  17.06000 50.19200 30.92800
H  15.25900 52.38800 30.45800
H  13.38400 50.61500 30.34700
H  14.56300 49.88900 31.40700
H  14.57000 49.48400 29.65700
H  16.99100 52.98300 31.15500
H  18.67600 52.37300 30.64000
H  19.04800 52.12300 32.63100
H  18.03900 50.77400 32.70000
H  11.86400 54.49400 26.45800
H  11.87500 53.12700 27.58100
H  11.03600 52.98000 25.97700
H  10.87500 55.08300 22.75700
H  11.70100 55.39900 24.16400
H  10.58500 53.96000 24.12800
H  17.31200 52.53100 20.75600
H  19.03900 50.25000 21.24000
H  16.52200 51.10300 19.52600
H  15.56700 50.65400 20.89200
H  17.05300 49.67700 20.48500
H  20.44600 52.65400 22.18400
H  19.58600 52.96500 20.61800
H  20.65300 51.53000 19.43000
H  21.29400 50.62800 20.91700
H  21.96500 52.10800 20.33800
H  22.00900 48.08700 24.38300
H  22.90200 48.04700 25.92000
H  22.96600 49.51800 25.02900
H  20.39000 50.63500 30.17500
H  19.19400 47.48600 32.73900
H  19.79700 48.91100 33.74600
H  20.96500 47.84900 32.93000

