158

Mg -2.03300 16.91100 26.45400
C  -2.37000 14.56000 29.07300
C  -2.96800 19.31700 28.74000
C  -2.34200 19.05900 23.87700
C  -1.92900 14.25700 24.16900
N  -2.71900 16.90600 28.73400
C  -2.56700 15.86200 29.59000
C  -2.73400 16.24300 31.06300
C  -2.86300 17.80500 30.91200
C  -2.96300 18.03600 29.37600
C  -4.08600 18.42900 31.73600
C  -1.73900 15.74200 32.23700
C  -1.67000 16.59100 33.47800
H  -1.24900 15.98500 34.76400
N  -2.32000 18.90600 26.36400
C  -2.72000 19.72400 27.40400
C  -2.71400 21.06400 26.88600
C  -2.61500 21.02800 25.53500
C  -2.35700 19.64500 25.17800
C  -2.98700 22.26600 27.78900
C  -2.84600 22.20300 24.54400
O  -2.98000 22.03500 23.34800
C  -3.13800 23.64600 24.94900
N  -2.26800 16.67000 24.33100
C  -2.32300 17.73900 23.53400
C  -2.30700 17.27700 22.06000
C  -1.78700 15.84300 22.16900
C  -1.95900 15.55800 23.63100
C  -3.68100 17.45900 21.33700
C  -0.36800 15.57400 21.75700
C  0.87600 16.08800 22.50100
N  -2.15500 14.82500 26.49100
C  -2.03000 13.85700 25.48000
C  -2.10800 12.53800 26.03800
C  -2.18500 12.75400 27.40200
C  -2.23700 14.13700 27.65000
C  -2.11500 11.27000 25.15700
C  -2.34200 12.08600 28.68800
O  -2.41400 10.90200 28.98000
C  -2.49000 13.26700 29.79900
C  -1.39500 12.97200 30.80200
O  -0.24500 13.44200 30.81000
O  -1.87800 12.05300 31.72400
C  -1.10900 11.57000 32.85600
H  -3.12800 20.13600 29.44400
H  -2.35600 19.69400 22.98900
H  -1.69900 13.54400 23.37500
H  -3.68700 15.89800 31.46500
H  -1.94700 18.33400 31.17300
H  -4.46300 17.69200 32.44500
H  -4.89900 18.66500 31.04900
H  -3.76100 19.31600 32.27900
H  -0.71700 15.67200 31.86400
H  -2.15000 14.77400 32.52300
H  -2.69700 16.90700 33.65800
H  -1.03400 17.46300 33.32600
H  -2.74400 22.15200 28.84600
H  -4.03600 22.55700 27.73000
H  -2.33700 23.09800 27.51900
H  -2.41300 23.91900 25.71700
H  -4.08500 23.54000 25.47800
H  -3.17600 24.32300 24.09600
H  -1.52900 17.89000 21.60600
H  -2.37300 15.06600 21.68000
H  -4.20800 18.14100 22.00400
H  -4.32500 16.58200 21.39200
H  -3.61500 17.78100 20.29700
H  -0.15200 15.69700 20.69600
H  -0.23900 14.49200 21.77000
H  1.44200 16.73500 21.83100
H  1.59000 15.30100 22.74700
H  0.57300 16.58000 23.42400
H  -1.43400 11.34100 24.30800
H  -3.12700 10.91400 24.96200
H  -1.62400 10.49100 25.74000
H  -3.51300 13.17000 30.16300
H  -0.14800 12.05500 33.02400
H  -0.84200 10.52300 32.71300
H  -1.68600 11.66200 33.77600
Mg 46.62100 25.41100 28.57100
C  47.83700 27.72600 31.03800
C  45.51200 23.31700 31.00500
C  46.33000 23.16400 26.09900
C  48.37700 27.53000 26.18600
N  46.57800 25.62200 30.74800
C  47.11500 26.63000 31.56100
C  46.80200 26.35200 33.03400
C  46.25300 24.87800 32.98800
C  46.04900 24.54300 31.50500
C  47.25800 23.80100 33.64700
C  45.74100 27.37200 33.57400
C  45.39900 27.50100 35.10700
H  46.12300 26.67900 36.21900
N  45.89700 23.51600 28.54600
C  45.42500 22.84600 29.64000
C  44.91900 21.51600 29.12400
C  45.15700 21.45700 27.70700
C  45.79600 22.75500 27.35200
C  44.23600 20.40600 30.02100
C  44.76300 20.46800 26.61500
O  45.06400 20.60200 25.42000
C  43.72100 19.35800 27.05500
N  47.30600 25.36800 26.44700
C  46.88700 24.34800 25.65300
C  47.20000 24.62200 24.18000
C  47.74700 26.09200 24.16800
C  47.82900 26.39000 25.71300
C  48.13000 23.59600 23.43500
C  46.83400 27.10100 23.45400
C  47.55300 28.36700 22.97800
N  47.77400 27.24900 28.53600
C  48.38400 27.96500 27.51800
C  49.09800 29.11100 28.04900
C  48.87800 29.07800 29.46300
C  48.10700 27.91600 29.67200
C  49.92500 30.09900 27.13400
C  49.15500 29.73100 30.70300
O  49.78700 30.75900 30.95900
C  48.49900 28.82200 31.76800
C  49.58500 28.34900 32.73600
O  50.51500 27.65700 32.45500
O  49.25700 28.91700 33.96100
C  50.21300 28.82200 35.11000
H  45.18900 22.55500 31.71800
H  46.07000 22.53200 25.24700
H  48.71700 28.31500 25.50800
H  47.69100 26.43100 33.66100
H  45.30700 24.73200 33.51000
H  46.86200 23.06900 34.35100
H  48.03800 24.28000 34.23700
H  47.74800 23.27600 32.82700
H  44.86300 27.09900 32.98800
H  46.11800 28.32000 33.19000
H  44.34900 27.20800 35.14400
H  45.42700 28.54300 35.42700
H  43.26000 20.25900 29.55900
H  44.18300 20.59300 31.09300
H  44.79200 19.46900 30.05700
H  42.90300 19.86400 27.56900
H  44.24200 18.69400 27.74400
H  43.24900 18.73700 26.29300
H  46.25000 24.70000 23.65200
H  48.74700 26.05000 23.73700
H  47.36700 22.95900 22.98700
H  48.66700 23.14400 24.26900
H  48.70200 24.14000 22.68300
H  46.13500 27.49000 24.19400
H  46.31300 26.69300 22.58800
H  47.19400 29.22400 23.54900
H  47.46100 28.60900 21.92000
H  48.63100 28.41000 23.13400
H  49.40300 30.83600 26.52500
H  50.65900 29.62200 26.48500
H  50.64800 30.66700 27.71900
H  47.80400 29.54000 32.20300
H  49.68100 28.32000 35.91800
H  50.58300 29.83200 35.29200
H  51.18900 28.38100 34.90800

