158

Mg 0.78400 8.35400 25.24100
C  1.51200 10.24100 28.12000
C  0.95700 5.48800 27.17200
C  0.82000 6.61700 22.40000
C  0.97400 11.40100 23.39700
N  1.09000 7.92400 27.41500
C  1.29500 8.83400 28.36000
C  1.32000 8.18100 29.82100
C  1.32100 6.69700 29.48100
C  1.04900 6.67300 27.92500
C  2.61500 5.94900 29.80300
C  0.29900 8.69700 30.84000
C  0.62800 8.41700 32.34000
H  1.90900 7.62200 32.71700
N  0.77600 6.32800 24.83200
C  0.82600 5.31300 25.75900
C  0.85400 3.98000 25.06600
C  0.77500 4.28100 23.67800
C  0.82800 5.81000 23.59300
C  0.90300 2.62900 25.75800
C  0.63600 3.37700 22.46700
O  0.62500 3.80200 21.29400
C  0.36200 1.92300 22.66600
N  0.85900 8.95500 23.24400
C  0.86100 8.01900 22.25700
C  0.55600 8.65900 20.84700
C  0.71600 10.15900 21.17200
C  0.80500 10.18300 22.69200
C  1.43000 8.21100 19.70400
C  -0.40500 11.00200 20.53200
C  -1.71000 11.18300 21.36700
N  0.95400 10.52000 25.70100
C  1.08900 11.54000 24.79900
C  1.45200 12.76000 25.55000
C  1.62200 12.33900 26.88500
C  1.26500 10.94400 26.93900
C  1.64600 14.13000 24.91800
C  1.91800 12.72600 28.20300
O  2.20900 13.81100 28.67200
C  1.98600 11.45100 29.11200
C  3.25600 11.04600 29.81200
O  3.90300 10.13600 29.43600
O  3.40600 11.89600 30.90300
C  4.62300 11.53000 31.73400
H  1.09000 4.58700 27.77400
H  0.77600 6.01800 21.48900
H  1.04500 12.33200 22.83100
H  2.27400 8.43400 30.28400
H  0.40700 6.31200 29.93400
H  2.27600 5.09800 30.39300
H  3.35200 6.49400 30.39400
H  3.13600 5.52200 28.94600
H  -0.68400 8.24500 30.70400
H  0.21600 9.78000 30.75900
H  -0.19900 7.81100 32.70900
H  0.69000 9.32100 32.94700
H  -0.07000 2.17300 25.58000
H  0.99600 2.71200 26.84100
H  1.70500 1.95700 25.45100
H  1.14100 1.48500 23.29100
H  0.41900 1.35600 21.73800
H  -0.63500 1.87300 23.10200
H  -0.48000 8.43100 20.60000
H  1.69300 10.42200 20.76500
H  0.86100 7.46200 19.15300
H  2.35600 7.69900 19.96700
H  1.59000 9.07600 19.06000
H  -0.58500 10.44300 19.61400
H  -0.09800 12.01500 20.27300
H  -2.51700 11.18500 20.63300
H  -1.66500 12.06300 22.00900
H  -1.88100 10.26400 21.92700
H  1.73800 14.16300 23.83300
H  2.50300 14.53600 25.45500
H  0.70600 14.66000 25.07300
H  1.37000 11.68900 29.97900
H  4.71000 12.29900 32.50100
H  5.50600 11.56700 31.09700
H  4.53300 10.55700 32.21600
Mg 48.20700 34.70300 27.37100
C  45.99200 33.38100 29.76900
C  48.35600 37.40400 29.27200
C  49.44500 36.29900 24.78700
C  47.24900 31.89700 25.21500
N  47.46800 35.17800 29.44600
C  46.60500 34.53000 30.16100
C  46.69000 35.08800 31.59700
C  46.96300 36.55900 31.27400
C  47.57800 36.44400 29.84100
C  45.78000 37.65100 31.36100
C  47.83600 34.49700 32.40600
C  48.39500 35.10100 33.71100
H  47.38500 35.65900 34.68300
N  49.05700 36.55400 27.14200
C  49.10100 37.53400 28.07000
C  49.96400 38.63100 27.59500
C  50.09300 38.41600 26.22400
C  49.55100 37.05100 25.98700
C  50.33500 39.87700 28.43500
C  50.72700 39.29000 25.13600
O  50.84900 38.81900 23.98500
C  51.34300 40.67900 25.49400
N  48.10400 34.22800 25.26300
C  48.89200 35.08100 24.46800
C  49.27400 34.36100 23.11600
C  48.58400 32.93800 23.29300
C  47.99700 32.94300 24.67600
C  48.95000 35.11900 21.78400
C  49.44000 31.67400 23.01800
C  50.74900 31.59500 23.86600
N  46.97500 32.91800 27.45900
C  46.63500 31.91700 26.52800
C  45.84300 30.93000 27.14500
C  45.43600 31.50400 28.37100
C  46.20500 32.73500 28.51800
C  45.27600 29.71100 26.39100
C  44.72600 31.25900 29.61700
O  44.01700 30.31800 29.99000
C  44.95900 32.56100 30.53900
C  45.04600 32.06400 31.92200
O  45.80700 31.18700 32.39500
O  43.90000 32.49500 32.60000
C  43.78800 31.98300 34.03000
H  48.37100 38.32300 29.86100
H  49.90200 36.77800 23.91800
H  47.19300 31.00800 24.58400
H  45.78200 34.90900 32.17200
H  47.78800 37.04600 31.79400
H  44.86600 37.14500 31.67100
H  45.69700 38.16400 30.40300
H  46.01200 38.41000 32.10900
H  48.64400 34.18000 31.74700
H  47.44000 33.53300 32.72500
H  49.19300 35.82400 33.54600
H  48.83700 34.27400 34.26700
H  51.41100 40.04400 28.47300
H  50.03200 39.69000 29.46500
H  49.79000 40.72600 28.02300
H  51.59200 41.18100 24.55900
H  52.23200 40.49300 26.09700
H  50.54200 41.22700 25.98900
H  50.35800 34.25300 23.06900
H  47.73300 32.89600 22.61400
H  48.44500 36.02500 22.12100
H  48.31200 34.60000 21.06900
H  49.90400 35.38800 21.32900
H  49.62900 31.55500 21.95100
H  48.85600 30.81300 23.33900
H  50.56000 30.73700 24.51100
H  50.76500 32.48700 24.49200
H  51.73000 31.31800 23.48100
H  46.02400 28.94400 26.19000
H  44.95200 30.02900 25.40000
H  44.43500 29.31400 26.95900
H  44.02700 33.12000 30.62100
H  42.99700 31.31300 34.36700
H  43.73800 32.85200 34.68500
H  44.65000 31.38200 34.32100

