158

Mg 54.33100 23.64600 45.07100
C  51.91200 25.85600 43.95700
C  52.46400 21.00300 44.00200
C  57.19400 21.65600 45.18700
C  56.24900 26.34200 46.03000
N  52.43300 23.48500 44.11400
C  51.62500 24.51700 43.82000
C  50.25400 23.95600 43.26800
C  50.33500 22.44700 43.74300
C  51.83600 22.26700 43.90900
C  49.52900 22.22100 45.07100
C  50.19400 24.13800 41.67300
C  48.93200 24.64000 40.95700
H  48.68100 24.01400 39.51800
N  54.69200 21.60600 44.76900
C  53.81400 20.68200 44.27200
C  54.41000 19.40300 44.29000
C  55.79200 19.54200 44.65100
C  55.97100 21.01800 44.84200
C  53.72500 18.15300 43.76500
C  56.82600 18.38700 44.60300
O  56.46400 17.25500 44.23900
C  58.34900 18.54300 44.88900
N  56.42600 23.95200 45.42100
C  57.34900 23.02600 45.42700
C  58.68700 23.51300 46.11800
C  58.31600 24.99800 46.47900
C  56.90500 25.12300 45.92200
C  59.05900 22.69500 47.39300
C  59.35500 26.09600 46.19100
C  59.99700 26.74900 47.41400
N  54.11700 25.75600 45.20400
C  54.97700 26.72000 45.60700
C  54.30800 28.05100 45.53500
C  53.04000 27.76600 44.91900
C  53.10000 26.37200 44.58700
C  54.86800 29.45900 46.02200
C  51.77200 28.34500 44.41200
O  51.44800 29.53400 44.36200
C  51.04000 27.18700 43.68000
C  51.14100 27.55800 42.22900
O  52.19200 27.52900 41.60400
O  49.90800 27.94000 41.74700
C  49.90400 28.54200 40.41600
H  51.84300 20.12200 43.82600
H  58.15300 21.13700 45.25000
H  56.80400 27.14300 46.52400
H  49.41600 24.49400 43.71200
H  49.93400 21.73600 43.02200
H  50.20600 21.94000 45.87700
H  48.95700 21.32700 44.82600
H  48.82500 23.03900 45.22500
H  50.36300 23.15900 41.22500
H  51.06300 24.71300 41.35300
H  48.84400 25.71500 40.80300
H  48.05100 24.29100 41.49600
H  54.02300 18.20300 42.71800
H  52.63900 18.18000 43.85200
H  54.10800 17.29800 44.32200
H  58.83600 19.08700 44.07900
H  58.79000 17.55500 45.02000
H  58.49900 19.11300 45.80600
H  59.44100 23.47100 45.33100
H  58.24000 25.02800 47.56600
H  58.45900 21.78600 47.44100
H  59.02500 23.31800 48.28700
H  60.10500 22.39600 47.32700
H  58.95900 26.80700 45.46500
H  60.08900 25.52900 45.61900
H  61.03400 26.42500 47.32700
H  59.67000 26.38800 48.38900
H  59.81200 27.82200 47.36300
H  54.33700 29.81500 46.90500
H  54.70600 30.19800 45.23700
H  55.94500 29.45500 46.19200
H  50.03800 26.97500 44.05400
H  50.02800 27.81900 39.61000
H  50.68000 29.30600 40.40300
H  48.93600 29.00800 40.22900
Mg -1.07100 34.91400 26.99700
C  -2.91000 33.33600 29.59700
C  0.30200 37.03400 29.40700
C  0.55100 36.35800 24.49400
C  -2.69700 32.74600 24.78900
N  -1.28700 35.12500 29.27100
C  -2.00900 34.29400 30.08300
C  -1.71800 34.66600 31.51800
C  -0.88900 36.00000 31.49800
C  -0.60500 36.09100 29.99500
C  -1.57500 37.30900 32.04700
C  -1.11700 33.53000 32.42700
C  -0.92900 33.98000 33.90600
H  -1.49400 33.11500 35.08900
N  0.18000 36.49500 26.93300
C  0.69000 37.19200 28.01500
C  1.64700 38.22400 27.55000
C  1.62300 38.12500 26.17900
C  0.72100 36.95900 25.77100
C  2.35800 39.10900 28.52700
C  2.30100 39.07400 25.16000
O  2.15700 38.98700 23.94800
C  3.16500 40.14700 25.67600
N  -1.27000 34.73500 24.94500
C  -0.30500 35.35500 24.16700
C  -0.41000 34.87700 22.68300
C  -1.52600 33.74800 22.74000
C  -1.87000 33.72500 24.28000
C  -0.62800 35.89000 21.60300
C  -1.05400 32.34900 22.14500
C  -0.56000 31.28800 23.16600
N  -2.53100 33.39000 27.06000
C  -3.02700 32.59200 26.10400
C  -3.96000 31.66900 26.62600
C  -3.91300 31.85100 28.06600
C  -3.06800 32.95900 28.24300
C  -4.71100 30.51500 25.86800
C  -4.47400 31.43200 29.38700
O  -5.22400 30.48000 29.68700
C  -3.81200 32.41100 30.42400
C  -4.92300 33.10700 31.06500
O  -5.45600 34.10900 30.64400
O  -5.26900 32.43700 32.19400
C  -6.31800 33.04900 33.00700
H  0.58000 37.83000 30.10000
H  1.19800 36.57900 23.64200
H  -3.15500 32.01300 24.12200
H  -2.67400 34.74300 32.03500
H  0.04500 35.75500 32.00400
H  -1.85000 37.97100 31.22600
H  -0.76400 37.74100 32.63400
H  -2.51800 37.18800 32.57900
H  -0.11600 33.30700 32.05800
H  -1.77500 32.67000 32.55500
H  -1.26600 35.00900 34.02400
H  0.14300 33.98700 34.09900
H  2.33600 38.67900 29.52800
H  1.91800 40.10200 28.43100
H  3.42000 39.09200 28.28200
H  3.90100 39.55400 26.21900
H  2.69700 40.93200 26.27000
H  3.66100 40.61900 24.82800
H  0.54400 34.37100 22.53400
H  -2.42200 34.07300 22.21200
H  -0.82300 36.84900 22.08300
H  -1.51000 35.74700 20.97800
H  0.31700 35.90800 21.06000
H  -0.27600 32.51400 21.40000
H  -1.95800 32.05400 21.61300
H  -0.11800 31.76400 24.04200
H  0.30600 30.82900 22.69000
H  -1.34700 30.54900 23.31500
H  -4.18300 30.32000 24.93400
H  -5.76000 30.78000 25.73100
H  -4.78000 29.56000 26.38700
H  -3.21200 31.78300 31.08400
H  -6.00500 33.74400 33.78700
H  -6.85300 32.28300 33.56600
H  -7.10200 33.48600 32.38900

