158

Mg 30.74400 57.70900 39.77700
C  28.25700 55.49200 38.55100
C  33.08700 55.56600 38.70500
C  33.09200 60.15800 39.98500
C  28.31900 60.00100 40.31000
N  30.64200 55.80600 38.71900
C  29.54800 55.09900 38.25500
C  30.01600 53.79500 37.57400
C  31.53600 53.74900 37.84900
C  31.81100 55.13100 38.44300
C  31.87400 52.58300 38.85300
C  29.52600 53.63300 36.06400
C  28.85100 54.81300 35.33300
H  28.98800 54.90400 33.80400
N  32.82600 57.75500 39.62300
C  33.67800 56.74400 39.15300
C  35.10000 57.19700 39.10400
C  35.05000 58.57900 39.42900
C  33.59800 58.85000 39.78600
C  36.31100 56.34300 38.73800
C  36.25400 59.48100 39.31500
O  37.36100 59.07900 39.05000
C  36.24000 60.98000 39.58100
N  30.74400 59.82500 39.90800
C  31.78700 60.63600 40.07300
C  31.44800 62.03600 40.57000
C  29.86600 61.90400 40.84400
C  29.59500 60.47000 40.33900
C  32.29400 62.66200 41.75700
C  28.96700 62.97900 40.21300
C  27.76700 63.43200 41.12300
N  28.63900 57.76700 39.54900
C  27.84800 58.80700 39.81100
C  26.47200 58.38400 39.55500
C  26.59500 57.02600 39.11200
C  27.92800 56.77000 39.07800
C  25.23700 59.26200 39.55700
C  25.91900 55.81100 38.61500
O  24.73500 55.52500 38.67200
C  26.95000 54.78200 38.28000
C  26.69600 53.53600 39.04100
O  26.98200 53.36100 40.16600
O  26.03000 52.59500 38.31100
C  25.52500 51.38900 39.08100
H  33.87600 54.90400 38.34200
H  33.92200 60.85800 40.10100
H  27.51100 60.60500 40.72700
H  29.43900 53.02800 38.08900
H  32.04700 53.55400 36.90700
H  31.05600 51.86400 38.81400
H  31.90200 53.09600 39.81400
H  32.83800 52.15800 38.56900
H  28.88400 52.75800 36.16900
H  30.30400 53.16600 35.46100
H  29.29300 55.75500 35.65900
H  27.77400 54.85000 35.50100
H  36.49500 56.43800 37.66800
H  36.09900 55.28900 38.91900
H  37.21100 56.61300 39.28900
H  37.16900 61.33300 39.13300
H  36.25700 61.12900 40.66100
H  35.43800 61.59900 39.17900
H  31.52500 62.63800 39.66500
H  29.73300 61.71100 41.90800
H  33.13700 63.29300 41.47400
H  32.81000 61.83900 42.25300
H  31.73300 63.13700 42.56100
H  28.59200 62.71700 39.22400
H  29.56000 63.89400 40.19900
H  27.76200 64.52100 41.16800
H  27.79800 63.04500 42.14200
H  26.83200 63.27100 40.58700
H  25.43900 60.11400 38.90900
H  24.94300 59.62100 40.54300
H  24.48500 58.67000 39.03500
H  26.55400 54.56500 37.28800
H  24.56900 51.00600 38.72500
H  25.47200 51.65100 40.13800
H  26.29100 50.63700 38.89100
Mg 17.45900 51.72200 26.38000
C  19.41100 50.23400 28.98300
C  15.00500 52.31500 28.65600
C  15.44300 52.50600 23.86200
C  19.93000 50.72600 24.11200
N  17.33300 51.34300 28.63100
C  18.15000 50.71100 29.49000
C  17.68300 50.99800 30.91000
C  16.16300 51.29100 30.75200
C  16.18000 51.76700 29.28300
C  15.17600 50.20200 31.14200
C  18.56400 52.11600 31.48800
C  18.94200 52.00700 33.04600
H  17.94300 51.26800 33.92900
N  15.57900 52.32700 26.29500
C  14.72000 52.55400 27.31400
C  13.44600 53.02100 26.86200
C  13.55800 53.17000 25.49300
C  14.95900 52.67300 25.15300
C  12.14800 53.22900 27.76200
C  12.47900 53.68000 24.50100
O  12.87700 54.00200 23.39200
C  11.07500 53.93400 24.84300
N  17.63600 51.60600 24.32100
C  16.68400 52.03000 23.43700
C  17.19200 51.95300 22.00200
C  18.68100 51.57500 22.12500
C  18.78300 51.33700 23.64000
C  16.35500 51.06200 21.04000
C  19.55600 52.79700 21.68700
C  20.88300 52.47500 21.10500
N  19.20100 50.59400 26.47500
C  20.09100 50.26300 25.44400
C  21.27500 49.62300 25.98200
C  21.04200 49.59600 27.32600
C  19.78900 50.25800 27.57400
C  22.46800 49.15700 25.17700
C  21.53700 49.10500 28.60700
O  22.62300 48.61600 28.86700
C  20.57900 49.65500 29.70600
C  20.07100 48.57600 30.57500
O  19.23500 47.74100 30.29900
O  20.57800 48.71100 31.86100
C  20.03400 47.83500 32.97400
H  14.23700 52.40400 29.42700
H  14.77900 52.81700 23.05300
H  20.80000 50.70700 23.45200
H  17.87000 50.12100 31.53000
H  15.79500 52.14300 31.32300
H  14.43400 49.96200 30.38100
H  14.83500 50.47800 32.14000
H  15.76300 49.30800 31.35100
H  17.98700 52.99100 31.18900
H  19.50100 52.02500 30.93900
H  19.01300 53.02400 33.43100
H  19.87400 51.44400 33.09400
H  11.42200 52.47400 27.46200
H  11.80500 54.26400 27.76000
H  12.38500 53.11900 28.82000
H  10.58800 53.01300 25.16600
H  10.72100 54.23900 23.85900
H  10.84100 54.59500 25.67700
H  17.14100 52.93700 21.53600
H  19.11900 50.70200 21.64100
H  15.45400 50.71300 21.54500
H  16.95600 50.23900 20.65300
H  15.88600 51.61800 20.22800
H  19.80700 53.28900 22.62700
H  19.00300 53.56500 21.14700
H  21.59600 52.80000 21.86400
H  20.97800 53.15100 20.25600
H  21.06300 51.48700 20.68100
H  22.18300 48.76900 24.19900
H  22.87000 48.37600 25.82200
H  23.17400 49.91200 24.83100
H  21.14600 50.30800 30.36900
H  20.00000 48.41300 33.89700
H  20.76700 47.04800 33.15100
H  19.10200 47.36300 32.66200

