158

Mg 24.69900 -7.59200 48.17400
C  27.03100 -5.29300 47.06300
C  22.38200 -6.53400 45.80800
C  22.74400 -10.12000 49.06400
C  27.36400 -9.28100 49.97300
N  24.71800 -6.19500 46.57900
C  25.78500 -5.32600 46.36500
C  25.38800 -4.36300 45.22400
C  23.85300 -4.48300 45.16400
C  23.65300 -5.86900 45.80400
C  22.97800 -3.43800 45.87200
C  26.06800 -4.81900 43.94800
C  26.66800 -3.65800 43.28100
H  25.72900 -2.59300 42.72400
N  22.76200 -8.18200 47.51200
C  22.00700 -7.66000 46.51600
C  20.81900 -8.38900 46.37100
C  20.79100 -9.41800 47.36700
C  22.13400 -9.30200 48.04900
C  19.71700 -8.13100 45.35000
C  19.71500 -10.45900 47.57100
O  18.65300 -10.48000 46.95500
C  19.84200 -11.49700 48.71300
N  25.14800 -9.57700 49.16100
C  24.00400 -10.22100 49.56100
C  24.25300 -11.22000 50.68500
C  25.81900 -11.15100 50.77500
C  26.12200 -9.94100 49.94600
C  23.58500 -11.00300 52.06600
C  26.57500 -12.45900 50.37900
C  27.46400 -12.50100 49.05000
N  26.73200 -7.33000 48.51000
C  27.64600 -8.08600 49.30400
C  28.90900 -7.27600 49.21500
C  28.68900 -6.17100 48.41000
C  27.37500 -6.20900 47.98100
C  30.20900 -7.73500 49.75600
C  29.27800 -4.95200 47.90600
O  30.39900 -4.47400 48.13400
C  28.25200 -4.47100 46.82800
C  28.02600 -3.03700 47.01200
O  27.48700 -2.46800 47.96800
O  28.55100 -2.41500 45.97000
C  28.25200 -0.97900 45.82600
H  21.49200 -6.11000 45.33900
H  22.17000 -10.88000 49.59800
H  28.08600 -9.80800 50.60000
H  25.75900 -3.36500 45.45700
H  23.58000 -4.52600 44.10900
H  22.51200 -3.87300 46.75700
H  22.24000 -2.98900 45.20700
H  23.62900 -2.66600 46.28100
H  25.40100 -5.42300 43.33300
H  26.89600 -5.47700 44.21500
H  27.30700 -4.14000 42.54000
H  27.44100 -3.21400 43.90900
H  20.02300 -8.88800 44.62700
H  19.87300 -7.18100 44.84100
H  18.66000 -8.34500 45.51000
H  20.40900 -12.26500 48.18700
H  18.82400 -11.86800 48.82800
H  20.14100 -11.04600 49.66000
H  23.97200 -12.23400 50.40000
H  26.13600 -10.99000 51.80500
H  23.21900 -9.99000 52.23200
H  24.09600 -11.23700 53.00100
H  22.66800 -11.59100 52.05100
H  25.75500 -13.17000 50.28000
H  27.17500 -12.75700 51.23800
H  27.43200 -13.56800 48.83100
H  28.48500 -12.17200 49.24300
H  27.14600 -12.11800 48.08000
H  31.12000 -7.74500 49.15700
H  30.01200 -8.67900 50.26400
H  30.63900 -7.08200 50.51500
H  28.53400 -4.66200 45.79300
H  29.29600 -0.66600 45.81300
H  27.78100 -0.51500 46.69200
H  27.61700 -0.83000 44.95200
Mg -1.85000 34.41600 26.76700
C  -3.46200 32.72200 29.40400
C  -0.33600 36.38100 28.96400
C  -0.63400 35.97600 24.16200
C  -3.68800 32.26900 24.49500
N  -1.94700 34.50300 28.97100
C  -2.62900 33.77400 29.85800
C  -2.27700 34.22900 31.29000
C  -1.41600 35.51400 31.07800
C  -1.20400 35.46200 29.54300
C  -2.09800 36.84400 31.61200
C  -1.44500 33.14000 32.05900
C  -1.36600 33.36500 33.55100
H  -1.91800 32.34900 34.54700
N  -0.81100 36.09700 26.59700
C  -0.15700 36.69400 27.58300
C  0.72000 37.70200 27.04500
C  0.66400 37.60700 25.68700
C  -0.33500 36.53600 25.38700
C  1.56200 38.56400 27.88800
C  1.34100 38.49500 24.59600
O  0.98900 38.58400 23.43100
C  2.39400 39.51400 24.90400
N  -2.22500 34.28400 24.66400
C  -1.52300 34.98600 23.76300
C  -1.74600 34.55700 22.25700
C  -2.68200 33.29400 22.45000
C  -2.82400 33.22300 24.01900
C  -2.51300 35.73500 21.36500
C  -2.04300 31.89300 21.95100
C  -0.57400 31.63900 22.54200
N  -3.31800 32.70300 26.87500
C  -3.93000 31.97500 25.87800
C  -4.76400 30.99200 26.53600
C  -4.68300 31.28900 27.93000
C  -3.69400 32.24800 28.10100
C  -5.57700 29.90200 25.84000
C  -5.03900 30.87500 29.19100
O  -5.72100 29.94700 29.65600
C  -4.29400 31.77100 30.23200
C  -5.29200 32.27800 31.24000
O  -6.18200 33.09000 30.93200
O  -5.15400 31.67600 32.43400
C  -6.13000 31.97800 33.52600
H  0.21600 36.89000 29.75600
H  -0.03100 36.44200 23.38000
H  -4.09700 31.51100 23.82300
H  -3.17400 34.45700 31.86600
H  -0.44400 35.41100 31.56200
H  -2.17900 37.55700 30.79200
H  -1.58700 37.36900 32.42000
H  -3.14200 36.75700 31.91300
H  -0.45500 33.19500 31.60700
H  -1.94400 32.19400 31.84500
H  -1.65900 34.38300 33.80900
H  -0.29200 33.36900 33.73600
H  1.49800 38.24900 28.93000
H  1.28000 39.60400 27.72600
H  2.52400 38.36500 27.41600
H  3.31400 39.03200 25.23700
H  1.91400 40.08400 25.70000
H  2.63800 40.12700 24.03700
H  -0.73900 34.42600 21.86200
H  -3.68600 33.41700 22.04300
H  -3.27700 36.12300 22.03800
H  -2.77800 35.16800 20.47200
H  -1.84700 36.55700 21.10400
H  -2.11900 31.98100 20.86700
H  -2.68200 31.02800 22.13100
H  -0.56200 31.96200 23.58300
H  0.11500 32.23600 21.94300
H  -0.22000 30.61800 22.69100
H  -5.95200 29.15200 26.53800
H  -5.03400 29.52000 24.97600
H  -6.47600 30.39000 25.46400
H  -3.74300 30.93900 30.67100
H  -6.94200 31.25200 33.58600
H  -6.61500 32.93600 33.34400
H  -5.57800 32.02600 34.46400

