158

Mg 24.48300 -5.05400 46.32300
C  26.39900 -2.49900 44.61200
C  21.87000 -4.07500 44.36700
C  22.81600 -7.67600 47.44800
C  27.44600 -6.15500 47.76500
N  24.23600 -3.37000 44.76600
C  25.08100 -2.46600 44.23100
C  24.41200 -1.62400 43.14800
C  22.95400 -2.05200 43.26000
C  22.97200 -3.23400 44.24400
C  21.97100 -0.89400 43.70600
C  25.17100 -1.95600 41.77600
C  25.87800 -0.76300 41.06100
H  25.69900 -0.66000 39.54800
N  22.56300 -5.78200 46.00300
C  21.59400 -5.25400 45.11800
C  20.41000 -6.02700 45.17900
C  20.66300 -7.11200 46.09800
C  22.03900 -6.86500 46.63600
C  19.16800 -5.80500 44.27900
C  19.63100 -8.23900 46.43700
O  18.48800 -8.18600 45.96600
C  20.04100 -9.36200 47.41600
N  25.09600 -6.78600 47.38700
C  24.15900 -7.60500 47.91100
C  24.88900 -8.67400 48.82500
C  26.24000 -7.93200 49.09200
C  26.26200 -6.97100 47.93700
C  24.07200 -9.02700 50.07400
C  27.45700 -8.95400 49.21300
C  28.36400 -8.90300 50.39900
N  26.49200 -4.47300 46.28000
C  27.58100 -4.99600 46.95100
C  28.74500 -4.13100 46.71500
C  28.31700 -3.12300 45.82400
C  26.94400 -3.37600 45.58600
C  30.12600 -4.38900 47.20800
C  28.75900 -1.97000 45.06200
O  29.84900 -1.38200 44.92300
C  27.51700 -1.58800 44.17000
C  27.31100 -0.13300 44.35700
O  26.41500 0.38100 45.05200
O  28.23200 0.55900 43.62500
C  28.11000 2.09000 43.74400
H  21.10000 -3.73600 43.67000
H  22.40300 -8.56200 47.93400
H  28.29800 -6.34300 48.42100
H  24.56400 -0.55200 43.27900
H  22.59600 -2.49100 42.32900
H  21.22800 -1.30600 44.38800
H  21.60100 -0.61700 42.71800
H  22.41900 0.03200 44.06600
H  24.36100 -2.34400 41.15900
H  25.91800 -2.73200 41.94500
H  26.94300 -0.89300 41.25300
H  25.52300 0.16700 41.50400
H  19.08200 -6.57300 43.51000
H  19.04600 -4.89400 43.69200
H  18.34800 -5.76000 44.99600
H  19.30200 -10.12800 47.65000
H  20.47400 -9.03500 48.36100
H  20.82000 -9.84300 46.82400
H  24.99600 -9.58300 48.23300
H  26.15000 -7.45500 50.06800
H  24.82500 -9.19200 50.84400
H  23.63100 -9.97800 49.77500
H  23.28500 -8.39900 50.49100
H  28.03500 -8.86000 48.29300
H  27.08900 -9.96900 49.36600
H  29.32400 -8.50900 50.06400
H  28.41000 -9.96600 50.63700
H  28.04600 -8.29200 51.24300
H  30.17000 -4.19100 48.27900
H  30.95000 -4.02900 46.59100
H  30.19800 -5.47600 47.22500
H  27.76600 -1.68500 43.11300
H  27.92100 2.32400 44.79200
H  27.29100 2.53000 43.17600
H  29.02900 2.60900 43.47100
Mg 48.57100 35.84100 27.52400
C  46.67300 34.28100 29.76100
C  49.15800 38.47500 29.69600
C  50.40800 37.39100 25.07300
C  47.93000 33.22400 25.22700
N  48.06300 36.15500 29.52400
C  47.24100 35.40200 30.30900
C  46.84200 36.15600 31.56900
C  47.53300 37.57700 31.36100
C  48.31300 37.41300 30.11700
C  46.58900 38.83300 31.32800
C  47.20900 35.54700 32.92400
C  48.63700 34.93800 33.04100
H  49.57800 35.85900 33.73500
N  49.60600 37.65400 27.38200
C  49.70700 38.60500 28.42500
C  50.55300 39.71900 27.92700
C  51.10300 39.34100 26.63700
C  50.39300 38.06600 26.32200
C  50.93900 40.84900 28.77400
C  52.25900 39.89600 25.78100
O  52.48700 39.42800 24.68700
C  52.95200 41.24600 26.26800
N  49.03400 35.43000 25.46700
C  49.76000 36.20300 24.63900
C  49.66700 35.74900 23.15800
C  49.32000 34.25900 23.38700
C  48.73600 34.27400 24.79900
C  48.69000 36.59500 22.38200
C  50.36500 33.20500 23.14700
C  50.51300 32.60000 21.71800
N  47.53800 34.10400 27.50000
C  47.37400 33.10300 26.54100
C  46.45600 32.12600 26.99300
C  46.10700 32.51400 28.24000
C  46.82100 33.75000 28.47300
C  45.89100 30.97500 26.22400
C  45.32300 32.21800 29.38100
O  44.58700 31.28500 29.61900
C  45.60200 33.35500 30.40000
C  46.00700 32.71500 31.66900
O  47.09400 32.22500 31.95700
O  44.91000 32.67600 32.50700
C  45.06700 32.34100 33.88800
H  49.41100 39.28600 30.38400
H  50.90600 37.98200 24.30100
H  47.61100 32.61400 24.38000
H  45.75600 36.25800 31.58100
H  48.25900 37.88500 32.11400
H  46.68400 39.42100 30.41500
H  46.55800 39.37200 32.27500
H  45.59000 38.40000 31.29200
H  46.40700 34.82800 33.09400
H  46.97300 36.29700 33.67800
H  49.02000 34.69100 32.05100
H  48.54800 33.97100 33.53500
H  51.63300 40.68600 29.59800
H  50.07500 41.30400 29.25900
H  51.31700 41.68700 28.18800
H  53.32900 40.96100 27.25100
H  52.23300 42.06500 26.26300
H  53.85900 41.38700 25.68000
H  50.65200 35.89400 22.71400
H  48.49600 33.96900 22.73500
H  48.01300 35.91500 21.86600
H  49.19800 37.11500 21.57000
H  48.16100 37.28600 23.03800
H  50.22200 32.44300 23.91300
H  51.33800 33.64700 23.36100
H  49.76300 33.03700 21.05800
H  50.15800 31.58700 21.91100
H  51.55800 32.65700 21.41500
H  45.63700 31.26400 25.20400
H  44.99000 30.81000 26.81500
H  46.59100 30.14100 26.25700
H  44.62200 33.79900 30.57900
H  45.43900 33.19300 34.45800
H  45.73700 31.48500 33.97000
H  44.09700 32.14300 34.34300

