158

Mg 0.80900 8.04200 25.34100
C  1.47500 9.77700 28.20000
C  1.32600 5.03900 27.00300
C  0.46100 6.25700 22.41300
C  1.03300 10.96700 23.46600
N  1.53600 7.52600 27.27300
C  1.44900 8.40800 28.33000
C  1.42900 7.74700 29.69200
C  1.72400 6.30600 29.32100
C  1.57200 6.23800 27.74000
C  3.04600 5.78200 30.02600
C  0.06400 7.99000 30.50400
C  0.26400 8.15600 31.98800
H  1.33300 7.40800 32.66300
N  0.85800 5.96200 24.77100
C  1.03200 4.90800 25.62600
C  0.96500 3.72800 24.81700
C  0.57400 4.01200 23.50400
C  0.53600 5.46200 23.51600
C  1.27100 2.40800 25.37300
C  0.14800 3.10000 22.34700
O  -0.20500 3.47300 21.21200
C  0.07300 1.63400 22.55700
N  0.81500 8.56200 23.21200
C  0.67600 7.66100 22.22500
C  0.67100 8.36400 20.84400
C  0.69900 9.86800 21.09400
C  0.75500 9.85200 22.66200
C  1.83500 7.84300 19.98800
C  -0.39700 10.76800 20.47900
C  -1.85000 10.43700 21.15300
N  1.18200 9.91200 25.68700
C  1.22400 10.99400 24.85000
C  1.49400 12.19400 25.62200
C  1.61000 11.77100 26.95500
C  1.45400 10.33800 26.91300
C  1.59400 13.66300 25.29700
C  1.88000 12.16300 28.29700
O  2.23100 13.26200 28.73100
C  1.61400 10.89300 29.22900
C  2.82100 10.72700 30.11100
O  3.91200 10.37600 29.73000
O  2.44100 11.11400 31.35800
C  3.39600 11.09100 32.49900
H  1.66800 4.17500 27.57600
H  0.31000 5.75900 21.45300
H  0.96200 11.95000 22.99700
H  2.24500 8.17300 30.27600
H  0.91100 5.72100 29.75100
H  3.80200 6.42600 30.47500
H  3.51300 5.08300 29.33200
H  2.77300 5.17300 30.88800
H  -0.62700 7.18800 30.24500
H  -0.30400 8.95800 30.16300
H  -0.73300 8.03300 32.41000
H  0.42800 9.23400 32.00300
H  0.38200 1.81700 25.14900
H  1.35200 2.49000 26.45600
H  2.13900 2.05800 24.81500
H  1.00000 1.36200 23.06100
H  0.22000 1.13600 21.59900
H  -0.76900 1.37700 23.19800
H  -0.24400 8.06600 20.33200
H  1.63600 10.32700 20.77700
H  2.47600 8.68400 19.72500
H  1.44100 7.53500 19.02000
H  2.39900 7.06200 20.49800
H  -0.39500 10.69300 19.39200
H  -0.13000 11.80100 20.70100
H  -2.33800 9.98600 20.29000
H  -2.35800 11.37700 21.36800
H  -1.75900 9.71100 21.96100
H  1.63200 13.77700 24.21400
H  2.46800 14.16000 25.71700
H  0.75800 14.23800 25.69700
H  0.70300 11.05100 29.80600
H  4.18900 10.39100 32.23200
H  2.95700 10.78000 33.44700
H  3.84300 12.05700 32.73400
Mg 17.07500 -1.92000 28.12000
C  16.13600 0.50000 30.51500
C  18.89700 -3.56700 30.49800
C  18.68500 -3.60800 25.55900
C  15.88900 0.43500 25.69800
N  17.49800 -1.51000 30.22900
C  16.95500 -0.56500 31.07000
C  17.50600 -0.71500 32.54600
C  18.47600 -1.90200 32.42100
C  18.25000 -2.40000 30.96500
C  19.88400 -1.62100 32.86200
C  16.32400 -1.01800 33.60900
C  16.63900 -0.27700 34.99400
H  18.03600 -0.22000 35.52300
N  18.37900 -3.60400 28.06200
C  19.01600 -4.17200 29.19300
C  19.71200 -5.32600 28.69700
C  19.72700 -5.33100 27.27200
C  18.93000 -4.13600 26.87700
C  20.30900 -6.43000 29.58800
C  20.51900 -6.17000 26.34100
O  20.42100 -6.03200 25.13400
C  21.40500 -7.28400 26.70000
N  17.37300 -1.56100 25.94800
C  17.97900 -2.47400 25.11300
C  17.82800 -2.09600 23.65800
C  16.90000 -0.77100 23.70200
C  16.68700 -0.64300 25.21900
C  19.09800 -2.01000 22.82600
C  15.41900 -0.94000 23.02600
C  14.29500 -1.75500 23.79100
N  15.90800 -0.10500 28.09600
C  15.52700 0.73700 27.02100
C  14.64500 1.72000 27.52200
C  14.87800 1.66700 28.91700
C  15.76200 0.59400 29.17700
C  13.91500 2.71700 26.63200
C  14.64900 2.38700 30.09200
O  14.09900 3.51500 30.26600
C  15.35300 1.58300 31.27200
C  16.22000 2.51800 32.19300
O  17.41500 2.62700 31.99300
O  15.51800 3.07000 33.27700
C  16.29500 4.00400 34.12700
H  19.36400 -4.02600 31.37200
H  19.08200 -4.26100 24.77900
H  15.48900 1.07700 24.91100
H  17.97100 0.25700 32.71300
H  18.05600 -2.74300 32.97300
H  20.16100 -0.63500 33.23600
H  20.38400 -1.65200 31.89400
H  20.24300 -2.37200 33.56400
H  16.21300 -2.07800 33.84000
H  15.33200 -0.77600 33.22800
H  15.98200 -0.74900 35.72400
H  16.36700 0.75100 34.75300
H  21.34500 -6.63100 29.31500
H  19.81800 -7.37900 29.37100
H  20.19200 -6.27200 30.66000
H  21.87100 -7.81000 25.86700
H  20.95100 -8.11000 27.24800
H  22.17100 -6.94300 27.39700
H  17.36800 -2.92900 23.12800
H  17.35900 0.11200 23.25600
H  19.93800 -2.53300 23.28400
H  19.37900 -0.97200 22.65100
H  18.88200 -2.41700 21.83800
H  15.50500 -1.40000 22.04200
H  14.90800 0.00100 22.82300
H  13.57800 -1.09300 24.27500
H  14.65800 -2.47700 24.52200
H  13.65000 -2.32500 23.12100
H  13.24300 3.22400 27.32600
H  13.32800 2.18600 25.88200
H  14.58500 3.45400 26.19100
H  14.47400 1.14000 31.74200
H  16.94200 4.60800 33.49100
H  16.86600 3.36400 34.79900
H  15.58500 4.62800 34.67100

