158

Mg 47.91000 44.90100 43.26300
C  44.56300 44.29700 42.49500
C  48.62100 41.57800 43.01000
C  51.09400 45.67200 43.61400
C  47.09000 48.36400 43.20700
N  46.80500 43.16600 42.55000
C  45.37500 43.13300 42.48700
C  44.91800 41.70500 42.21300
C  46.19800 40.84300 42.42700
C  47.31500 41.92300 42.75500
C  46.26200 39.89300 43.61700
C  44.26200 41.59300 40.81400
C  44.68800 42.33200 39.53900
H  43.91200 41.94200 38.20900
N  49.67000 43.70700 43.29100
C  49.74900 42.39500 43.24300
C  51.09000 42.02400 43.44800
C  51.87300 43.21100 43.55400
C  50.87500 44.28100 43.52500
C  51.45100 40.52100 43.46500
C  53.30800 43.30500 43.85600
O  53.98700 42.27100 43.85600
C  54.05200 44.52900 44.14600
N  48.94700 46.78200 43.27300
C  50.24300 46.78300 43.51900
C  50.74700 48.23300 43.68900
C  49.38700 49.07000 43.73500
C  48.40200 48.00000 43.36400
C  51.63200 48.42000 45.03100
C  49.46000 50.35200 42.88400
C  49.48600 51.65300 43.75200
N  46.13100 46.16800 42.95800
C  45.96300 47.52200 42.98300
C  44.58100 47.87000 42.79700
C  43.97300 46.60500 42.63100
C  44.97100 45.63600 42.70800
C  43.95500 49.23100 42.88200
C  42.63700 45.95600 42.45800
O  41.54800 46.46400 42.35000
C  42.99400 44.44300 42.29600
C  42.23200 43.81100 43.39400
O  41.32400 42.98300 43.27200
O  42.71800 44.18200 44.62200
C  41.99000 43.75200 45.85800
H  48.68300 40.49000 43.07900
H  52.12600 45.93900 43.85100
H  46.79900 49.41100 43.31600
H  44.17900 41.46700 42.97800
H  46.53500 40.30000 41.54500
H  46.90100 40.28900 44.40700
H  46.78500 38.96800 43.37600
H  45.26000 39.65200 43.97300
H  43.18200 41.61100 40.96000
H  44.45300 40.56500 40.50500
H  45.67500 41.90100 39.37000
H  44.54500 43.41300 39.51300
H  52.50400 40.28000 43.31700
H  50.90500 40.00900 42.67300
H  51.12000 40.02500 44.37700
H  54.17800 45.16200 43.26800
H  55.11400 44.38100 44.34000
H  53.61500 45.09300 44.97000
H  51.30300 48.34300 42.75900
H  49.17400 49.27000 44.78500
H  51.68900 49.43900 45.41300
H  52.63400 48.08000 44.76900
H  51.20000 47.65300 45.67300
H  48.63700 50.43300 42.17400
H  50.33200 50.38700 42.23100
H  50.25800 52.39500 43.54800
H  49.69500 51.44700 44.80200
H  48.47600 52.05500 43.66400
H  44.19100 49.88900 42.04500
H  44.29400 49.87000 43.69700
H  42.87200 49.20500 43.00500
H  42.68600 44.07400 41.31800
H  41.76800 42.68500 45.86700
H  41.02000 44.22500 46.01200
H  42.65500 43.94000 46.70100
Mg 9.35000 47.55500 27.51200
C  7.20700 47.26800 30.25600
C  12.00800 47.95000 29.72000
C  11.30500 48.33900 25.01200
C  6.54700 47.57900 25.50000
N  9.50600 47.78800 29.74700
C  8.49500 47.49200 30.66100
C  9.00300 47.60300 32.17600
C  10.56900 47.86900 31.86500
C  10.76000 47.78100 30.33800
C  11.21500 49.15800 32.50400
C  8.62300 46.48500 33.21900
C  9.40400 46.41900 34.51000
H  8.94900 45.62000 35.67700
N  11.42500 47.89000 27.30100
C  12.31900 48.04600 28.30900
C  13.60000 48.29800 27.72800
C  13.43100 48.28100 26.31100
C  11.99000 48.18500 26.13200
C  14.80000 48.32400 28.50500
C  14.42600 48.27600 25.17800
O  14.10600 48.10400 24.04100
C  15.78900 48.45300 25.50000
N  8.91200 48.03200 25.50200
C  9.93900 48.29000 24.70300
C  9.42400 48.34900 23.24500
C  7.83700 48.04100 23.38500
C  7.74200 47.80600 24.88700
C  9.79200 49.75100 22.55100
C  7.45100 46.79400 22.58000
C  6.02800 46.77700 21.93700
N  7.31700 47.36200 27.69800
C  6.25600 47.48100 26.81500
C  5.00300 47.30800 27.46900
C  5.31600 47.16300 28.81700
C  6.70400 47.30500 28.92700
C  3.71800 47.34300 26.81300
C  4.76600 47.07300 30.15600
O  3.61000 47.02700 30.52100
C  6.00200 46.93400 31.14000
C  6.05500 45.54200 31.78300
O  6.74000 44.61900 31.43600
O  5.22000 45.52800 32.87300
C  5.20700 44.22900 33.62900
H  12.78100 48.14700 30.46500
H  11.92300 48.60000 24.15000
H  5.66500 47.56200 24.85700
H  8.58200 48.50800 32.61400
H  11.03500 46.94000 32.19500
H  12.27500 48.93700 32.62800
H  10.81300 49.36100 33.49700
H  11.06300 50.09900 31.97600
H  8.70100 45.50900 32.74000
H  7.59500 46.66900 33.53000
H  9.60900 47.45200 34.79100
H  10.34100 45.93700 34.22800
H  15.59000 47.61600 28.25700
H  14.78100 48.30600 29.59500
H  15.31600 49.25400 28.26600
H  16.37100 48.23900 24.60400
H  16.07100 47.71500 26.25200
H  15.86500 49.49700 25.80500
H  9.86500 47.55200 22.64600
H  7.12200 48.86300 23.36000
H  10.23000 50.39500 23.31400
H  8.91200 50.18200 22.07300
H  10.52300 49.49700 21.78400
H  7.47000 45.92900 23.24300
H  8.17900 46.52300 21.81500
H  5.29100 46.20400 22.49900
H  6.04100 46.43500 20.90200
H  5.73700 47.81500 21.77600
H  3.32400 48.35900 26.86500
H  3.10900 46.74200 27.48800
H  3.89000 46.90100 25.83200
H  5.82400 47.76000 31.82900
H  6.19900 44.02500 34.03200
H  4.82800 43.35100 33.10600
H  4.64500 44.45400 34.53500

