158

Mg 1.15400 7.59100 25.92900
C  1.70600 9.63300 28.69100
C  1.47600 4.79000 28.00500
C  0.91100 5.60900 23.15600
C  1.65800 10.39100 23.86800
N  1.60700 7.28900 28.09700
C  1.64500 8.28500 29.06600
C  1.56500 7.63100 30.41900
C  1.91800 6.09300 30.15900
C  1.69600 6.03800 28.68600
C  3.35700 5.60700 30.60900
C  0.23000 7.93400 31.16100
C  0.34100 8.33700 32.62400
H  1.58700 7.89800 33.51700
N  1.08700 5.52700 25.65200
C  1.19900 4.52600 26.62000
C  1.06000 3.26700 26.02800
C  0.85700 3.45700 24.60200
C  0.89600 4.87700 24.38100
C  1.00200 1.92600 26.82300
C  0.79000 2.41800 23.50500
O  0.78700 2.77100 22.36100
C  0.65900 0.89300 23.79800
N  1.29100 7.96500 23.72200
C  1.03700 6.97100 22.87100
C  0.98000 7.55500 21.44800
C  1.41200 9.03000 21.67800
C  1.38800 9.21600 23.16000
C  1.78100 6.77300 20.37000
C  0.56900 10.06300 20.95600
C  -0.66200 10.52600 21.68800
N  1.54100 9.58100 26.17100
C  1.70900 10.59100 25.26100
C  1.88200 11.85100 25.91800
C  1.83800 11.52500 27.32300
C  1.71500 10.14900 27.39700
C  2.14200 13.16800 25.32600
C  1.95800 12.05000 28.64200
O  2.33800 13.17400 28.98500
C  1.83500 10.87400 29.60500
C  3.01800 10.79300 30.49700
O  4.10700 10.20900 30.32100
O  2.73400 11.47500 31.66900
C  3.93100 11.92300 32.45700
H  1.46100 3.92300 28.66800
H  0.80000 5.03700 22.23300
H  1.80200 11.25700 23.21900
H  2.34100 8.15100 30.98000
H  1.18000 5.44500 30.63200
H  3.93300 6.46200 30.96300
H  3.78800 5.07600 29.76000
H  3.29700 4.94700 31.47400
H  -0.38600 7.05000 31.33200
H  -0.28700 8.71300 30.60200
H  -0.56600 7.96600 33.10300
H  0.30300 9.42400 32.70500
H  0.06700 1.62000 27.29300
H  1.69300 2.08800 27.65000
H  1.41500 1.07500 26.28300
H  0.40500 0.53000 22.80200
H  -0.15500 0.68100 24.49100
H  1.64200 0.54800 24.12100
H  -0.04400 7.59700 21.07600
H  2.40700 9.19200 21.26400
H  2.17500 5.84200 20.77800
H  2.57500 7.40900 19.97900
H  1.04000 6.37900 19.67500
H  0.12500 9.74900 20.01100
H  1.25500 10.87600 20.71700
H  -0.53400 11.58900 21.89300
H  -0.84600 9.92000 22.57500
H  -1.51700 10.33500 21.04100
H  1.39400 13.38700 24.56400
H  3.18400 13.33300 25.05100
H  2.08100 13.91900 26.11300
H  0.92400 10.98100 30.19400
H  4.51500 12.40400 31.67200
H  4.34600 10.99100 32.84000
H  3.43500 12.46300 33.26400
Mg 9.03400 2.55900 27.10300
C  10.33600 1.17100 30.04500
C  7.03500 4.62200 28.96000
C  7.81500 3.74600 24.24900
C  10.88900 0.05000 25.28200
N  8.66500 2.77500 29.29900
C  9.34100 2.13900 30.30500
C  9.16500 2.87700 31.66400
C  7.86700 3.79800 31.28400
C  7.83500 3.75500 29.74600
C  6.53200 3.30500 31.99700
C  10.43400 3.57200 32.23000
C  10.15600 4.40100 33.45000
H  10.85400 4.05100 34.75200
N  7.61000 4.05800 26.70200
C  6.89800 4.74800 27.56900
C  5.99400 5.65800 26.84700
C  6.29000 5.46700 25.44800
C  7.29400 4.38200 25.39600
C  5.08000 6.67800 27.40900
C  5.77100 6.18100 24.10500
O  6.21200 5.93700 22.95500
C  4.73900 7.34400 24.22700
N  9.37700 2.00600 25.06400
C  8.67100 2.67800 24.11300
C  9.17400 2.19300 22.71800
C  9.94800 0.94500 22.99800
C  10.20500 0.99400 24.51400
C  8.02500 1.96700 21.67700
C  11.16200 0.70900 21.98600
C  11.09900 -0.50300 21.04200
N  10.24600 0.93100 27.50700
C  10.98700 0.07700 26.69600
C  11.80200 -0.80500 27.53700
C  11.58800 -0.35500 28.85300
C  10.62400 0.69100 28.80400
C  12.56100 -2.01300 27.19700
C  12.03800 -0.61500 30.17700
O  12.84000 -1.39100 30.71400
C  11.24600 0.49900 30.98600
C  10.51000 -0.05500 32.09400
O  9.46100 -0.71200 31.96500
O  11.07200 0.17400 33.26900
C  10.28800 -0.01300 34.39500
H  6.43900 5.40600 29.43100
H  7.47100 4.03000 23.25200
H  11.36400 -0.68600 24.62900
H  8.82200 2.14500 32.39500
H  8.05400 4.82300 31.60400
H  5.77500 3.35900 31.21400
H  6.27700 4.09700 32.70200
H  6.35600 2.32700 32.44500
H  10.72200 4.21400 31.39900
H  11.34700 3.02100 32.45400
H  9.07700 4.38100 33.60600
H  10.54300 5.38600 33.18900
H  5.57400 7.61300 27.14400
H  5.03100 6.50700 28.48500
H  4.17300 6.66500 26.80600
H  5.01300 8.08500 24.97800
H  3.73500 6.93700 24.34200
H  4.76000 7.86000 23.26700
H  9.85500 2.90800 22.25600
H  9.25600 0.10700 22.91700
H  7.08200 2.33000 22.08600
H  7.88700 0.91600 21.42300
H  8.33400 2.52600 20.79300
H  12.04300 0.67400 22.62500
H  11.25300 1.58900 21.35000
H  11.59200 -1.24900 21.66500
H  11.62600 -0.29900 20.11000
H  10.06300 -0.82300 20.93400
H  13.40400 -2.27100 27.83700
H  12.80900 -1.79300 26.15900
H  11.83200 -2.82200 27.15600
H  11.99900 1.20200 31.34400
H  9.36800 -0.58300 34.27000
H  10.06100 0.97600 34.79200
H  10.67400 -0.54100 35.26700

