158

Mg 16.94200 -2.24000 28.32700
C  15.99300 -0.39600 31.01300
C  18.90400 -4.27100 30.50400
C  18.55500 -3.67700 25.68600
C  15.66600 0.06700 26.08700
N  17.35500 -2.34000 30.54900
C  16.87100 -1.43000 31.45000
C  17.36900 -1.73600 32.88700
C  18.39600 -2.91700 32.67100
C  18.23000 -3.22200 31.13600
C  19.92400 -2.55400 33.00800
C  16.13300 -2.19500 33.80400
C  16.35400 -2.18200 35.27700
H  17.62100 -1.52700 35.90800
N  18.30500 -3.85100 28.13100
C  18.97800 -4.52000 29.13100
C  19.61300 -5.68200 28.59800
C  19.58400 -5.53000 27.15400
C  18.84400 -4.30300 26.97000
C  20.30400 -6.86200 29.40300
C  20.11800 -6.42400 26.02500
O  19.96000 -6.25000 24.82800
C  20.65900 -7.75700 26.42800
N  17.15300 -1.81300 26.08700
C  17.78400 -2.56800 25.27000
C  17.52000 -2.25600 23.80600
C  16.38700 -1.17800 23.97400
C  16.36500 -0.96800 25.50400
C  18.78200 -1.72700 23.12000
C  15.05000 -1.62100 23.16800
C  13.71000 -1.76900 23.97100
N  15.87200 -0.64300 28.43600
C  15.45900 0.25000 27.45400
C  14.73000 1.24700 28.12800
C  14.94800 1.06500 29.54300
C  15.65000 -0.15900 29.66800
C  13.94600 2.45400 27.39100
C  14.71100 1.65500 30.81600
O  14.18500 2.70200 31.08800
C  15.35500 0.72300 31.81900
C  16.34200 1.52600 32.55900
O  17.47100 1.77100 32.22000
O  15.79900 1.90900 33.74500
C  16.65400 2.74500 34.51400
H  19.43900 -4.95000 31.17000
H  18.96700 -4.11300 24.77400
H  15.09400 0.61300 25.33300
H  17.79900 -0.78700 33.20700
H  18.01100 -3.75200 33.25600
H  20.36000 -3.17100 33.79400
H  20.03900 -1.56700 33.45600
H  20.50900 -2.55400 32.08800
H  15.84100 -3.16400 33.39900
H  15.29700 -1.51100 33.65500
H  16.27900 -3.18300 35.70300
H  15.43900 -1.69700 35.61500
H  19.75300 -7.74300 29.07500
H  20.10000 -6.79300 30.47200
H  21.35400 -7.06200 29.18700
H  21.51300 -7.51300 27.06100
H  21.03600 -8.43800 25.66500
H  19.93200 -8.39000 26.93600
H  17.19100 -3.10400 23.20500
H  16.70600 -0.28700 23.43200
H  18.60900 -0.91900 22.40900
H  19.23400 -2.57500 22.60600
H  19.54700 -1.39600 23.82200
H  15.33400 -2.52100 22.62300
H  14.82200 -0.82300 22.46200
H  13.92500 -1.72300 25.03800
H  13.25400 -2.74000 23.77900
H  13.14200 -0.91100 23.61200
H  13.49500 3.09100 28.15200
H  13.13300 2.01900 26.80900
H  14.49800 2.94200 26.58800
H  14.58400 0.46600 32.54500
H  16.33100 2.98300 35.52700
H  16.67600 3.70400 33.99600
H  17.65600 2.31800 34.56200
Mg -2.40900 34.34000 26.73700
C  -3.52600 32.40400 29.33600
C  -1.08900 36.64100 28.82100
C  -1.50600 36.40200 24.05600
C  -3.85400 32.13600 24.56800
N  -2.42000 34.49400 28.83100
C  -2.86100 33.59100 29.78500
C  -2.57400 34.08600 31.26500
C  -1.82600 35.44100 31.05900
C  -1.83400 35.58300 29.44100
C  -2.40900 36.73100 31.79000
C  -1.69800 33.04200 32.10900
C  -2.28300 32.49000 33.42300
H  -1.32900 32.59900 34.63600
N  -1.50800 36.30300 26.52100
C  -0.97400 37.05100 27.57700
C  -0.51200 38.33800 27.07300
C  -0.66800 38.29600 25.64500
C  -1.15600 36.92700 25.34000
C  -0.19200 39.43400 28.07200
C  -0.37100 39.45500 24.68500
O  -0.43900 39.30500 23.45300
C  0.02500 40.77900 25.32800
N  -2.86000 34.43600 24.60500
C  -2.31800 35.29400 23.77400
C  -2.72400 34.91500 22.27800
C  -3.09200 33.40200 22.46000
C  -3.30700 33.30400 23.97700
C  -3.84800 35.85700 21.79300
C  -2.04100 32.41300 21.85100
C  -0.77800 32.04500 22.67000
N  -3.57200 32.65000 26.90900
C  -4.14900 31.85700 25.93300
C  -4.86800 30.70000 26.51600
C  -4.61600 30.79900 27.84000
C  -3.89400 32.04200 28.04800
C  -5.43000 29.54200 25.77100
C  -4.75900 30.27200 29.12900
O  -5.46400 29.33400 29.54100
C  -4.05100 31.24300 30.10100
C  -5.06400 31.61000 31.07100
O  -5.98600 32.42300 30.82600
O  -4.99300 30.91400 32.16000
C  -5.96500 31.13800 33.29300
H  -0.61700 37.17300 29.64900
H  -1.24100 37.03900 23.21000
H  -4.26200 31.37300 23.90100
H  -3.43700 34.40700 31.84900
H  -0.79600 35.24100 31.35300
H  -2.97500 37.35200 31.09500
H  -1.53600 37.30100 32.10700
H  -2.92300 36.46000 32.71200
H  -0.70600 33.41600 32.36300
H  -1.51300 32.16100 31.49500
H  -2.45000 31.42200 33.27700
H  -3.32300 32.77600 33.58100
H  -0.00900 39.16200 29.11100
H  -0.99900 40.16600 28.05200
H  0.75600 39.88500 27.78200
H  0.13500 41.44500 24.47300
H  0.98700 40.68900 25.83200
H  -0.74500 41.09000 26.03500
H  -1.97900 35.05500 21.49500
H  -4.10500 33.23500 22.09300
H  -4.15800 36.56800 22.55800
H  -4.77000 35.30800 21.60000
H  -3.59900 36.35700 20.85700
H  -1.73900 32.83800 20.89300
H  -2.64200 31.53400 21.61700
H  -0.54800 32.64300 23.55200
H  0.08900 31.74900 22.07900
H  -1.07200 31.16600 23.24300
H  -5.30000 28.76500 26.52400
H  -4.90600 29.32600 24.84000
H  -6.51300 29.60600 25.66800
H  -3.23700 30.68100 30.55900
H  -6.96000 31.34300 32.89900
H  -5.60100 31.96900 33.89800
H  -5.99200 30.23600 33.90500

