158

Mg 30.53500 57.96700 40.51800
C  27.94000 56.28900 38.92400
C  32.56500 55.28800 39.83800
C  33.08000 60.04900 40.88700
C  28.36300 60.83700 40.53400
N  30.25900 56.02200 39.43100
C  29.09100 55.51700 38.99400
C  29.29100 54.08300 38.49000
C  30.61600 53.68400 39.21000
C  31.20800 55.07400 39.52000
C  30.55000 52.74300 40.38100
C  29.43600 53.99600 36.93000
C  28.24500 53.35400 36.16100
H  27.70300 54.10900 34.91400
N  32.63000 57.72600 40.45000
C  33.23600 56.54400 40.15000
C  34.67300 56.76700 40.16300
C  34.86700 58.14000 40.42100
C  33.48900 58.71000 40.63200
C  35.64100 55.68300 39.87500
C  36.22800 58.70400 40.51900
O  37.15900 57.93500 40.42200
C  36.51600 60.08500 40.94900
N  30.70700 60.16000 40.54600
C  31.87800 60.71400 40.87300
C  31.78600 62.24000 41.13200
C  30.28000 62.47900 40.96700
C  29.69700 61.10900 40.67300
C  32.39700 62.73500 42.48400
C  29.98100 63.46400 39.79500
C  28.70800 64.22800 40.00200
N  28.52000 58.40300 40.19000
C  27.87500 59.61000 40.22700
C  26.52600 59.43400 39.76100
C  26.49300 58.12700 39.37200
C  27.73500 57.55000 39.54200
C  25.32300 60.43000 39.73600
C  25.64800 57.10400 38.77700
O  24.42700 57.19500 38.52100
C  26.54900 55.88600 38.41200
C  25.99400 54.67100 39.21100
O  26.48200 54.11400 40.17500
O  24.82600 54.24400 38.59400
C  24.28600 52.92100 38.97900
H  33.12200 54.35100 39.77200
H  33.95000 60.68100 41.08000
H  27.73200 61.72800 40.57200
H  28.45500 53.45300 38.79500
H  31.20700 53.14800 38.46700
H  29.56800 52.43200 40.73800
H  31.05900 53.09500 41.27900
H  31.12200 51.85900 40.10100
H  30.35000 53.48900 36.62100
H  29.54600 55.03600 36.62300
H  27.42200 53.09600 36.82800
H  28.64600 52.42500 35.75600
H  36.22700 55.84600 38.97000
H  35.11000 54.73100 39.86300
H  36.30900 55.51600 40.72000
H  37.53400 60.38100 41.20300
H  35.91600 60.34400 41.82100
H  36.26300 60.62000 40.03400
H  32.40000 62.58700 40.30100
H  29.79100 62.83000 41.87500
H  33.23200 63.38800 42.22900
H  32.69300 61.84700 43.04300
H  31.69000 63.29200 43.09900
H  29.93800 62.87900 38.87700
H  30.77700 64.19600 39.66300
H  28.19000 64.04900 40.94400
H  28.06800 64.04800 39.13800
H  28.95900 65.28700 39.95200
H  25.66500 61.30000 39.17400
H  24.97500 60.70200 40.73200
H  24.48200 59.93200 39.25400
H  26.43400 55.58500 37.37100
H  24.25400 52.34900 38.05200
H  23.29700 52.94500 39.43700
H  25.01900 52.44100 39.62800
Mg 6.76600 55.59700 40.89600
C  4.25000 53.19600 40.71700
C  8.98100 53.20400 40.08700
C  8.96700 58.10800 40.26100
C  4.28400 58.01700 41.61200
N  6.53700 53.57500 40.20600
C  5.46800 52.74600 40.24800
C  5.82300 51.31500 39.82200
C  7.32100 51.26300 40.09700
C  7.66800 52.74400 40.11700
C  7.69700 50.54700 41.46700
C  5.40500 51.19100 38.31500
C  4.56500 50.01400 37.95800
H  5.05500 49.23800 36.69500
N  8.69700 55.69800 40.23400
C  9.47900 54.54800 40.03900
C  10.79900 54.98700 39.71600
C  10.82200 56.38300 39.64300
C  9.46100 56.74800 40.00400
C  11.88500 54.00900 39.32200
C  12.05100 57.21300 39.22400
O  13.14900 56.70900 39.23000
C  11.84600 58.67900 38.78000
N  6.55100 57.76000 40.80400
C  7.66100 58.56000 40.50600
C  7.34100 60.04100 40.73300
C  5.88900 60.08100 41.15200
C  5.52300 58.52900 41.24200
C  8.20900 60.79800 41.74900
C  4.86200 60.82100 40.23100
C  3.90200 61.69500 40.99400
N  4.69600 55.68800 41.15000
C  3.85800 56.64300 41.54000
C  2.47600 56.12400 41.73100
C  2.63300 54.75200 41.53500
C  3.98700 54.55700 41.09700
C  1.23700 56.93700 42.07700
C  1.89600 53.48600 41.58400
O  0.71900 53.28000 41.86400
C  2.94100 52.42700 40.95000
C  2.32300 51.79900 39.76500
O  2.22100 52.26700 38.61800
O  1.81800 50.56400 40.18000
C  1.31000 49.70700 39.15600
H  9.74400 52.42800 39.99500
H  9.73900 58.88000 40.25900
H  3.55400 58.75400 41.95300
H  5.32400 50.66100 40.53700
H  7.83100 50.79200 39.25700
H  8.33400 49.70300 41.20500
H  6.83400 50.17400 42.02000
H  8.27300 51.24200 42.07800
H  6.29700 51.10600 37.69400
H  4.98500 52.13600 37.97000
H  3.52300 50.31900 37.85500
H  4.58500 49.34300 38.81600
H  12.30100 54.50100 38.44300
H  11.55200 53.00800 39.04800
H  12.58400 54.02200 40.15900
H  12.44800 58.94400 37.91100
H  12.23900 59.35500 39.53900
H  10.80900 58.90600 38.52900
H  7.50500 60.53500 39.77600
H  5.84100 60.48500 42.16300
H  7.81000 61.04600 42.73300
H  8.64400 61.71300 41.34900
H  8.91400 60.08100 42.17100
H  4.23200 60.07900 39.73900
H  5.37000 61.37900 39.44400
H  4.26200 61.87500 42.00700
H  2.89200 61.29000 40.94200
H  3.91000 62.59200 40.37500
H  0.95900 57.62400 41.27800
H  1.42200 57.55200 42.95800
H  0.49100 56.15400 42.21400
H  3.11700 51.66800 41.71200
H  1.07500 50.22700 38.22700
H  0.39100 49.21000 39.46600
H  2.08100 48.96000 38.97000

