158

Mg 9.28400 3.37800 27.79100
C  10.37700 1.72300 30.66500
C  7.69000 5.66800 29.73900
C  7.86900 4.57600 24.91000
C  10.66700 0.70200 25.92800
N  9.01800 3.59400 29.97600
C  9.67300 2.94000 30.98700
C  9.47600 3.58900 32.32000
C  8.48700 4.75200 32.00300
C  8.42300 4.71600 30.49800
C  7.07600 4.47500 32.61100
C  10.80900 4.03100 32.94600
C  11.20200 3.37400 34.35000
H  11.50400 4.34600 35.45800
N  7.99700 4.93700 27.44800
C  7.40200 5.78300 28.32100
C  6.67100 6.83300 27.65700
C  6.66200 6.38100 26.27100
C  7.55500 5.27500 26.12500
C  5.92200 7.95800 28.37300
C  5.84300 6.89000 25.09500
O  6.02300 6.64300 23.90700
C  4.85000 8.02200 25.29600
N  9.30000 2.58500 25.69700
C  8.67400 3.36700 24.74000
C  8.65500 2.79000 23.35800
C  9.57500 1.48900 23.59000
C  9.92500 1.57900 25.12600
C  7.28000 2.26600 22.74700
C  10.81700 1.46100 22.76500
C  10.65400 1.07500 21.20000
N  10.27800 1.63000 28.14500
C  10.81100 0.68300 27.28400
C  11.59200 -0.36600 28.07200
C  11.44700 0.06000 29.36100
C  10.61600 1.20900 29.39000
C  12.43000 -1.43200 27.42100
C  11.85200 -0.25900 30.79700
O  12.56700 -1.08300 31.25600
C  11.13200 0.88600 31.59400
C  10.15300 0.11300 32.53900
O  9.01800 -0.33000 32.33500
O  10.82300 0.03400 33.76500
C  10.15600 -0.51500 34.89200
H  7.40800 6.54300 30.32800
H  7.57900 4.92800 23.91800
H  11.17500 -0.01400 25.27800
H  9.06900 2.80400 32.95800
H  8.86100 5.69000 32.41500
H  7.16800 4.91500 33.60500
H  6.99900 3.39000 32.68200
H  6.40100 4.84300 31.83800
H  10.79800 5.09500 33.18100
H  11.58400 3.87900 32.19500
H  12.12300 2.80200 34.23900
H  10.36500 2.73800 34.63600
H  6.25200 7.94000 29.41200
H  4.87000 7.83800 28.11500
H  6.21500 8.92300 27.95900
H  4.17700 8.17000 24.45100
H  5.36300 8.97200 25.44500
H  4.28900 7.69300 26.17100
H  9.08200 3.59300 22.75800
H  9.17200 0.50400 23.35800
H  6.88600 2.91800 21.96700
H  6.51200 2.34400 23.51700
H  7.28400 1.20100 22.51500
H  11.47600 0.68300 23.15100
H  11.29300 2.43700 22.85900
H  9.64100 0.83100 20.87800
H  11.09100 0.07700 21.19200
H  11.11200 1.79400 20.52100
H  11.75800 -2.00400 26.78200
H  12.88900 -2.11600 28.13500
H  13.15600 -0.96300 26.75700
H  11.80000 1.55900 32.13100
H  9.34600 -1.19300 34.62100
H  9.60900 0.20100 35.50600
H  10.89300 -1.00900 35.52400
Mg 47.17300 24.74200 28.39900
C  48.05100 27.05600 31.13700
C  46.64500 22.44700 30.73300
C  47.46400 22.60400 25.95200
C  47.95500 27.50500 26.18200
N  47.49900 24.74300 30.73400
C  47.67200 25.76100 31.63500
C  47.33600 25.27800 33.09300
C  47.16500 23.75200 32.84300
C  47.00000 23.63300 31.32200
C  48.19500 22.86700 33.38600
C  46.07300 26.13000 33.46400
C  46.16800 26.91400 34.74500
H  45.08600 26.64400 35.88300
N  46.98100 22.76100 28.30700
C  46.64000 22.01300 29.40300
C  46.40300 20.67200 28.93400
C  46.86900 20.63000 27.61300
C  47.11200 21.99900 27.18800
C  45.97700 19.57100 29.85100
C  47.05900 19.44700 26.69900
O  47.37400 19.53900 25.50600
C  46.87200 18.03300 27.23700
N  47.68500 25.03600 26.39500
C  47.77300 23.93000 25.59500
C  48.09800 24.29600 24.12300
C  47.79700 25.88400 24.17400
C  47.81800 26.19600 25.66000
C  49.52200 24.02900 23.61200
C  46.52000 26.42400 23.52900
C  45.21000 25.96100 24.10400
N  47.82500 26.82700 28.57600
C  47.98400 27.77400 27.57600
C  48.37300 29.02400 28.17200
C  48.40500 28.80300 29.52800
C  48.03200 27.46400 29.74800
C  48.69300 30.26400 27.43600
C  48.65300 29.38500 30.89000
O  49.04300 30.54100 31.17300
C  48.41200 28.33400 31.90400
C  49.69800 28.12800 32.61400
O  50.60500 27.47000 32.25700
O  49.45700 28.56000 33.92200
C  50.57700 28.27300 34.93400
H  46.28300 21.70900 31.45200
H  47.49800 21.92900 25.09500
H  48.23100 28.31300 25.50100
H  48.12400 25.51000 33.80900
H  46.32000 23.35700 33.40700
H  48.31800 22.01400 32.71900
H  47.88900 22.37500 34.30900
H  49.16800 23.35800 33.40600
H  45.25400 25.41400 33.52700
H  45.68600 26.74100 32.64800
H  46.06900 27.97100 34.49800
H  47.11900 26.85600 35.27400
H  46.84200 19.11400 30.33100
H  45.30000 18.94200 29.27300
H  45.36000 20.06300 30.60300
H  47.09000 17.32900 26.43400
H  45.79200 18.12500 27.34800
H  47.44700 17.81000 28.13600
H  47.37300 23.73300 23.53500
H  48.55800 26.55700 23.78000
H  49.92000 24.87000 23.04200
H  49.62700 23.17200 22.94700
H  50.29400 23.85900 24.36200
H  46.55300 26.30600 22.44600
H  46.44800 27.51100 23.55700
H  45.35500 25.01900 24.63400
H  44.35400 25.88600 23.43300
H  44.85700 26.62100 24.89700
H  48.55300 31.16000 28.04100
H  48.11800 30.36000 26.51500
H  49.74300 30.05900 27.23200
H  47.64100 28.75400 32.55000
H  51.54600 28.15400 34.45100
H  50.23300 27.39500 35.48100
H  50.60500 29.12600 35.61200

