158

Mg 0.90600 7.16800 26.52800
C  1.44100 9.45600 28.97200
C  1.13200 4.56200 28.81600
C  0.76100 4.88900 23.99500
C  1.05300 9.77300 24.19500
N  1.02600 7.02800 28.67200
C  1.30800 8.12800 29.49900
C  1.41800 7.68300 30.97700
C  1.61300 6.16000 30.86100
C  1.24700 5.88900 29.37700
C  2.98400 5.57800 31.27800
C  0.13400 8.08800 31.71800
C  0.21200 8.39300 33.26300
H  1.38700 7.89300 34.07900
N  0.95800 5.01900 26.41800
C  1.04400 4.15100 27.45900
C  0.85800 2.77400 26.93300
C  0.69900 2.86700 25.57200
C  0.82200 4.33200 25.23000
C  0.82400 1.65900 27.92200
C  0.37700 1.77200 24.63000
O  -0.01500 1.97200 23.44400
C  0.57700 0.35900 24.98000
N  0.74700 7.34100 24.48900
C  0.75300 6.29000 23.61700
C  0.45700 6.74900 22.13000
C  0.46000 8.31100 22.31500
C  0.73900 8.48800 23.73400
C  1.22400 6.17700 20.99200
C  -0.84100 8.91200 21.73100
C  -2.11700 8.89600 22.54800
N  1.13400 9.21400 26.56700
C  1.27200 10.13600 25.52100
C  1.63900 11.45500 26.08200
C  1.74500 11.17400 27.42700
C  1.33900 9.85700 27.65700
C  1.96000 12.65600 25.24900
C  2.17100 11.74800 28.60900
O  2.63100 12.87800 28.86300
C  1.81900 10.73400 29.66000
C  2.92700 10.63200 30.61200
O  4.09400 10.34100 30.35200
O  2.42200 11.08600 31.84200
C  3.43900 11.25000 32.88000
H  1.22300 3.68500 29.46100
H  0.60900 4.23600 23.13400
H  0.92900 10.61700 23.51400
H  2.26000 8.18600 31.45300
H  0.92800 5.65600 31.54300
H  3.61800 5.75100 30.40800
H  2.93700 4.49600 31.39500
H  3.44100 6.08700 32.12700
H  -0.64800 7.34300 31.57300
H  -0.27900 9.01000 31.30800
H  -0.67400 8.04400 33.79300
H  0.27700 9.47600 33.37000
H  0.16600 1.90800 28.75400
H  1.85400 1.63500 28.27900
H  0.51500 0.70700 27.49200
H  -0.32500 -0.04100 25.44300
H  1.52100 0.09100 25.45500
H  0.63900 -0.23200 24.06700
H  -0.59300 6.50100 21.97200
H  1.41200 8.60800 21.87500
H  0.63900 5.38200 20.52900
H  2.10700 5.64000 21.33900
H  1.43300 7.03600 20.35500
H  -0.99400 8.50600 20.73100
H  -0.65300 9.97800 21.59900
H  -2.73500 9.79000 22.63800
H  -2.00300 8.53800 23.57100
H  -2.82300 8.19900 22.09700
H  2.02300 12.38400 24.19600
H  2.93900 13.07700 25.48000
H  1.25300 13.48200 25.32400
H  0.94600 11.11400 30.19100
H  4.47000 11.43000 32.57500
H  3.25500 10.55100 33.69700
H  3.38700 12.26600 33.27100
Mg 8.77600 48.75400 26.23900
C  6.48800 48.32500 28.74000
C  11.04600 50.12000 28.53900
C  10.78800 49.46500 23.64600
C  6.12800 48.14900 23.92200
N  8.72300 49.14400 28.36500
C  7.76200 48.72400 29.17700
C  8.22000 49.04400 30.66200
C  9.49100 49.90400 30.60000
C  9.74100 49.82700 29.07500
C  9.39900 51.38400 31.01900
C  8.40600 47.75300 31.49100
C  9.18800 47.78800 32.83600
H  8.66600 47.08300 34.03800
N  10.72000 49.36800 26.21500
C  11.47000 49.95400 27.21600
C  12.70600 50.24400 26.68000
C  12.77700 49.91200 25.25200
C  11.34600 49.56000 25.01300
C  13.82400 50.87200 27.48200
C  14.00800 49.93500 24.23200
O  13.81800 49.52400 23.10600
C  15.34000 50.40300 24.57000
N  8.45500 48.97100 24.07400
C  9.53400 49.10900 23.23100
C  9.12700 48.79700 21.76900
C  7.72600 48.12900 21.95600
C  7.37600 48.46300 23.42100
C  9.17900 49.99800 20.78200
C  7.87400 46.54900 21.95000
C  8.20400 45.99000 20.52500
N  6.72700 48.29900 26.27500
C  5.73700 48.23300 25.30300
C  4.44900 47.95700 25.89500
C  4.71700 47.95900 27.27000
C  6.06400 48.21900 27.42800
C  3.28300 47.65900 25.08900
C  4.13900 47.76900 28.58400
O  3.04900 47.42000 28.92800
C  5.37000 47.85100 29.63100
C  5.49000 46.46000 29.99200
O  6.10300 45.64700 29.36600
O  4.76700 46.17800 31.16500
C  4.91400 44.82500 31.80300
H  11.79100 50.42400 29.27700
H  11.56600 49.76200 22.93900
H  5.42000 47.88500 23.13400
H  7.55800 49.62600 31.30400
H  10.32400 49.43700 31.12700
H  9.50600 52.08100 30.18800
H  10.18500 51.69600 31.70800
H  8.44000 51.51100 31.52100
H  8.83100 47.03300 30.79100
H  7.43200 47.27700 31.60100
H  9.23100 48.82900 33.15800
H  10.19500 47.51100 32.52500
H  14.80100 50.70600 27.02800
H  13.89700 50.59400 28.53300
H  13.63800 51.94600 27.48800
H  15.94100 49.77800 25.23200
H  15.28500 51.41500 24.97100
H  15.90700 50.34900 23.64100
H  9.93300 48.19100 21.35500
H  7.12800 48.56700 21.15700
H  9.49800 50.94700 21.21200
H  8.20600 50.20600 20.33800
H  9.91300 49.82100 19.99600
H  6.85300 46.23600 22.17100
H  8.59000 46.26900 22.72200
H  7.99800 46.77100 19.79300
H  7.62700 45.15600 20.12500
H  9.25100 45.77200 20.31600
H  3.05200 46.76300 24.51300
H  3.28900 48.44700 24.33500
H  2.44000 47.88600 25.74000
H  5.11900 48.56400 30.41600
H  4.02500 44.20400 31.69000
H  5.06100 44.92000 32.87900
H  5.71900 44.23800 31.36100

