158

Mg 8.62300 3.09000 27.60300
C  9.97100 1.70400 30.43100
C  6.63900 5.20600 29.52500
C  7.10300 4.25400 24.77600
C  10.16400 0.64800 25.60100
N  8.35100 3.47600 29.73300
C  9.06900 2.77400 30.70800
C  8.62000 3.32000 32.11400
C  7.41700 4.28000 31.83500
C  7.51900 4.37900 30.26700
C  6.02900 3.72000 32.26900
C  9.70900 3.97900 32.94700
C  9.39100 4.04200 34.43100
H  10.60800 4.22000 35.30900
N  7.16100 4.55800 27.23500
C  6.49700 5.32200 28.15900
C  5.73000 6.29200 27.41100
C  5.81800 6.04000 26.02500
C  6.73200 4.85100 25.96300
C  4.95300 7.37600 28.02900
C  4.96600 6.68500 24.83200
O  5.12600 6.40600 23.62100
C  3.99600 7.88300 25.15000
N  8.52200 2.38700 25.48600
C  8.00000 3.16300 24.51700
C  8.32800 2.70000 23.10900
C  9.27600 1.48100 23.37500
C  9.38800 1.50900 24.90400
C  7.01900 2.44900 22.32000
C  10.67400 1.51300 22.70200
C  11.06400 0.36500 21.76200
N  9.79500 1.48200 27.90200
C  10.33000 0.59900 26.99600
C  11.19800 -0.33600 27.73700
C  11.08300 0.08800 29.09800
C  10.21500 1.17900 29.08400
C  11.89900 -1.48800 27.08800
C  11.52300 -0.15700 30.42900
O  12.32300 -0.99200 30.86400
C  10.87400 0.94100 31.38700
C  10.01500 0.38100 32.45300
O  8.96500 -0.20100 32.29900
O  10.52700 0.72000 33.66400
C  9.97700 0.19600 34.87900
H  6.07100 5.93800 30.10100
H  6.72600 4.70900 23.85700
H  10.61400 -0.09200 24.93600
H  8.24200 2.50800 32.73500
H  7.65800 5.26300 32.24100
H  6.06200 2.70100 32.65400
H  5.26300 3.68500 31.49400
H  5.58300 4.42300 32.97300
H  9.90700 5.00000 32.61800
H  10.63700 3.45400 32.72100
H  8.87500 3.14400 34.77200
H  8.84000 4.95800 34.64400
H  5.14600 7.43800 29.10000
H  3.87300 7.29100 27.90600
H  5.27200 8.33800 27.62700
H  4.66400 8.68200 25.47300
H  3.40800 7.61200 26.02600
H  3.48600 8.05500 24.20300
H  8.89700 3.42800 22.53100
H  8.72100 0.58400 23.10000
H  6.11900 2.69600 22.88400
H  6.86800 1.38100 22.16300
H  6.94800 2.96000 21.36000
H  11.40900 1.58100 23.50400
H  10.74600 2.41300 22.09100
H  10.50800 -0.49600 22.13400
H  12.12700 0.15300 21.87000
H  10.94800 0.53000 20.69100
H  11.94400 -1.44300 26.00000
H  11.32400 -2.39500 27.27500
H  12.88900 -1.48600 27.54300
H  11.57100 1.66600 31.81000
H  9.01700 0.69000 35.02900
H  10.65400 0.11800 35.73000
H  9.74900 -0.85100 34.67900
Mg 6.06800 54.24500 40.58300
C  5.23700 50.88100 40.29000
C  9.43100 53.42800 39.93800
C  6.73900 57.45400 40.12000
C  2.69300 54.96500 40.87000
N  7.09200 52.43600 40.01800
C  6.56800 51.12900 39.89600
C  7.68900 50.14300 39.62200
C  9.05400 50.94500 39.78900
C  8.49400 52.35700 39.98100
C  10.01600 50.48500 40.92700
C  7.53500 49.26000 38.35200
C  7.54800 50.03200 36.93900
H  6.55500 49.57200 35.86500
N  7.89100 55.25600 40.24000
C  9.12000 54.77200 39.97000
C  10.02000 55.88700 39.83600
C  9.35600 57.12200 40.10600
C  7.93500 56.66800 40.18000
C  11.56300 55.44900 39.50700
C  9.97000 58.52600 40.19300
O  11.21000 58.67300 39.97200
C  9.15800 59.71600 40.53800
N  4.88600 55.89600 40.35100
C  5.41600 57.14800 40.22500
C  4.30400 58.23000 40.13300
C  3.06700 57.43300 40.46200
C  3.56200 56.00500 40.58900
C  4.49500 59.44000 41.08600
C  1.87800 57.74600 39.46200
C  0.52400 58.25600 40.07400
N  4.23100 53.18700 40.65100
C  2.91500 53.62600 40.84700
C  2.09700 52.48800 41.06700
C  2.99300 51.41500 40.85700
C  4.25300 51.83900 40.62300
C  0.59200 52.34900 41.35400
C  2.92600 49.94200 40.79200
O  1.99500 49.11400 40.86600
C  4.47100 49.53200 40.50700
C  4.36500 48.56200 39.40200
O  3.90100 48.67000 38.26500
O  4.73500 47.36300 39.97400
C  4.42500 46.11600 39.25700
H  10.42700 52.99000 39.84300
H  6.97500 58.51000 39.97300
H  1.68100 55.25800 41.15800
H  7.71800 49.45200 40.46500
H  9.53000 50.84100 38.81400
H  10.93400 50.04600 40.53700
H  9.65700 49.72400 41.62000
H  10.27800 51.41700 41.42900
H  6.78000 48.47600 38.40600
H  8.46600 48.69900 38.42100
H  8.55700 49.89900 36.55000
H  7.43800 51.10400 37.10600
H  12.08300 55.03800 40.37200
H  12.23800 56.20400 39.10300
H  11.47600 54.65500 38.76600
H  8.63000 60.10200 39.66600
H  9.87700 60.46500 40.86800
H  8.46900 59.48700 41.35100
H  4.40100 58.55400 39.09700
H  2.61700 57.75400 41.40100
H  5.12500 60.19600 40.61700
H  5.02900 59.06800 41.96000
H  3.55600 59.94400 41.31400
H  1.66900 56.85200 38.87300
H  2.15900 58.51600 38.74300
H  -0.23600 57.48600 39.93500
H  0.12800 59.18100 39.65500
H  0.63800 58.45300 41.14000
H  -0.10100 53.08500 40.94600
H  0.47400 52.31200 42.43700
H  0.32600 51.45200 40.79500
H  4.75800 49.00300 41.41500
H  4.65200 45.18600 39.77800
H  4.81700 46.24600 38.24800
H  3.34300 46.03100 39.15700

