158

Mg 35.18600 2.92600 29.89300
C  33.07300 4.16600 32.32200
C  37.87900 3.30400 32.04700
C  37.14500 1.95400 27.23000
C  32.37000 2.76600 27.74700
N  35.50400 3.78900 31.83800
C  34.45800 3.97700 32.71500
C  35.03600 3.90500 34.23000
C  36.49800 4.09700 33.91800
C  36.65900 3.71900 32.52400
C  37.14400 5.48200 34.20800
C  34.51400 2.72200 35.10100
C  34.13300 3.18200 36.56300
H  35.01600 4.21900 37.34300
N  37.27500 2.59800 29.72500
C  38.22300 2.70100 30.77100
C  39.45900 2.16300 30.20500
C  39.31500 1.87200 28.81100
C  37.85700 2.09800 28.55300
C  40.73700 2.24300 30.98600
C  40.30200 1.31400 27.65700
O  39.89500 1.04100 26.49000
C  41.77100 1.03000 27.91400
N  34.86600 2.50400 27.80300
C  35.79700 2.18800 26.90100
C  35.30200 2.05000 25.52100
C  33.76200 2.07900 25.67800
C  33.60400 2.43800 27.21400
C  35.90000 2.92700 24.41600
C  32.99500 0.83800 25.18600
C  32.64300 -0.27300 26.16200
N  33.09800 3.41900 29.91500
C  32.06000 3.26400 28.98800
C  30.84900 3.78400 29.54000
C  31.11200 4.10900 30.89600
C  32.53000 3.89500 31.04300
C  29.53800 3.90600 28.78700
C  30.65800 4.53000 32.12000
O  29.50400 4.75100 32.51600
C  31.88900 4.51300 33.19100
C  32.02900 5.83500 33.79600
O  32.58400 6.77900 33.24800
O  31.41900 5.72900 35.02800
C  31.57800 6.91900 35.89700
H  38.74600 3.30700 32.71000
H  37.77100 1.74100 26.36000
H  31.53200 2.76200 27.04800
H  34.57500 4.82400 34.59300
H  36.99700 3.37400 34.56400
H  36.48600 6.18200 34.72300
H  37.46200 5.99800 33.30300
H  38.03000 5.45100 34.84100
H  35.27900 1.94700 35.13100
H  33.60300 2.30900 34.66900
H  34.14400 2.31200 37.21900
H  33.07000 3.41700 36.61900
H  41.58100 2.72700 30.49400
H  41.00400 1.20700 31.19300
H  40.66900 2.70200 31.97300
H  42.17200 0.36400 27.15000
H  41.77500 0.60200 28.91600
H  42.25800 2.00500 27.95900
H  35.65400 1.02500 25.40200
H  33.47800 2.94000 25.07400
H  36.51600 3.70600 24.86400
H  35.21000 3.47700 23.77400
H  36.47600 2.22200 23.81700
H  33.62100 0.44600 24.38400
H  32.02600 0.99800 24.71400
H  32.89900 -1.21400 25.67600
H  31.57900 -0.15300 26.36300
H  33.24000 -0.21600 27.07200
H  29.43100 3.28000 27.90100
H  29.34500 4.94900 28.53700
H  28.72300 3.55400 29.41900
H  31.63200 3.78800 33.96400
H  32.30500 6.64800 36.66200
H  30.59600 7.08000 36.34200
H  31.88100 7.85200 35.42100
Mg 2.25000 42.17900 25.25600
C  3.39200 42.18500 28.69700
C  -0.75600 41.18800 26.29400
C  1.60100 41.46300 22.05400
C  5.50300 43.08800 24.32400
N  1.46800 41.69200 27.30900
C  2.02800 41.80400 28.55100
C  1.02000 41.64200 29.66900
C  -0.28400 41.08700 28.83400
C  0.13300 41.35800 27.36800
C  -0.71900 39.64100 29.22700
C  0.85800 42.91400 30.45500
C  0.81800 42.92500 31.98300
H  0.15200 41.83300 32.78800
N  0.70200 41.36400 24.30800
C  -0.56300 41.06500 24.89700
C  -1.49100 40.75900 23.84700
C  -0.77700 40.71200 22.60400
C  0.60700 41.12900 22.97900
C  -2.96500 40.60000 24.16300
C  -1.28000 40.51500 21.12700
O  -0.54500 40.68400 20.20000
C  -2.73600 40.32700 20.91000
N  3.44200 42.20600 23.41600
C  2.85900 41.92800 22.24100
C  3.89000 42.15800 21.08400
C  4.99800 42.84500 21.79200
C  4.63400 42.78100 23.26400
C  4.24400 40.93600 20.22000
C  5.25500 44.21300 21.19200
C  4.22400 45.37200 21.48500
N  4.09000 42.69600 26.27600
C  5.29000 42.97500 25.73600
C  6.29000 43.15200 26.85600
C  5.61600 42.78800 27.99900
C  4.22100 42.53500 27.60300
C  7.70900 43.57500 26.68600
C  5.67600 42.61300 29.42500
O  6.65100 42.62500 30.13400
C  4.21300 42.21600 29.87300
C  4.25200 40.94000 30.73300
O  4.70500 39.82600 30.43800
O  3.89200 41.35100 31.92900
C  3.88100 40.30800 32.91400
H  -1.74600 40.86700 26.62400
H  1.46800 41.15300 21.01500
H  6.54700 43.26400 24.05700
H  1.29200 40.88700 30.40600
H  -1.14100 41.73800 29.00800
H  -0.95000 39.14500 28.28500
H  -1.56500 39.70000 29.91200
H  0.13400 39.14600 29.69100
H  -0.02400 43.51300 30.23000
H  1.71100 43.48800 30.09300
H  0.52400 43.95200 32.20000
H  1.81300 42.94600 32.42900
H  -3.33800 39.78800 23.53800
H  -3.46600 41.48900 23.78200
H  -3.21900 40.36300 25.19600
H  -3.26500 41.16400 21.36500
H  -3.08800 39.37300 21.30500
H  -2.90300 40.23000 19.83800
H  3.46600 42.81800 20.32700
H  5.94100 42.30300 21.71300
H  3.61900 40.11900 20.58100
H  5.26200 40.54700 20.22400
H  4.05200 41.06500 19.15500
H  5.27200 44.14100 20.10400
H  6.22400 44.60200 21.50600
H  3.34700 44.94300 21.96800
H  3.92300 45.70500 20.49200
H  4.73900 46.08100 22.13400
H  7.78500 44.55800 27.15200
H  8.01100 43.65300 25.64200
H  8.38600 42.96800 27.28700
H  4.00500 43.01200 30.58700
H  3.21900 39.52900 32.53400
H  3.37800 40.67300 33.80900
H  4.85700 39.87600 33.13400

