158

Mg 5.32600 54.12900 41.38000
C  5.00800 50.69900 40.88500
C  8.73400 53.79500 40.41000
C  5.76900 57.39400 41.54600
C  2.00600 54.22700 42.07000
N  6.61400 52.55200 40.48800
C  6.18900 51.25100 40.40100
C  7.38800 50.38100 39.90500
C  8.58800 51.32200 40.18400
C  7.92500 52.62600 40.37500
C  9.61200 50.91200 41.32500
C  7.27800 49.84600 38.45300
C  6.52000 50.84500 37.41700
H  5.83600 50.20000 36.16500
N  7.03100 55.43300 41.01800
C  8.30100 55.13800 40.65100
C  9.07800 56.35500 40.64000
C  8.29400 57.45300 41.04900
C  6.97000 56.77900 41.28100
C  10.54900 56.41500 40.25400
C  8.70600 58.94200 41.15200
O  9.78800 59.36200 40.68400
C  7.77300 59.97000 41.79700
N  4.07200 55.67100 41.71500
C  4.48300 56.90300 41.87000
C  3.20600 57.84700 41.96600
C  2.07900 56.82000 42.12800
C  2.76000 55.48000 41.90800
C  3.23000 58.82500 43.08600
C  0.96500 56.94700 41.16100
C  0.45200 58.32900 40.70400
N  3.79000 52.76300 41.52800
C  2.51500 52.91300 41.94500
C  1.89600 51.60400 42.01900
C  2.85700 50.73600 41.65300
C  3.94200 51.44600 41.36600
C  0.42800 51.35800 42.51500
C  3.08900 49.29100 41.54300
O  2.34700 48.30000 41.67800
C  4.57500 49.25800 41.04500
C  4.44900 48.55000 39.79000
O  4.09100 49.07500 38.74400
O  4.72000 47.24400 39.95400
C  4.65500 46.33200 38.77400
H  9.82000 53.68400 40.36700
H  5.71300 58.48400 41.50500
H  0.93200 54.36700 42.20600
H  7.46400 49.53400 40.58700
H  9.14800 51.49700 39.26600
H  9.51600 49.84600 41.53300
H  9.45100 51.47100 42.24700
H  10.62500 51.16300 41.00900
H  6.76200 48.88600 38.42000
H  8.29500 49.87000 38.06200
H  7.21900 51.58500 37.02900
H  5.71000 51.36100 37.93300
H  10.65000 56.82000 39.24700
H  10.96300 55.41000 40.16700
H  11.19600 56.99200 40.91400
H  8.39200 60.82100 42.08000
H  7.49200 59.48000 42.72900
H  6.94000 60.10400 41.10700
H  3.14100 58.38300 41.01900
H  1.62000 56.83800 43.11600
H  3.14100 59.80000 42.60800
H  4.21200 58.79800 43.55900
H  2.47600 58.72400 43.86700
H  0.14900 56.47100 41.70500
H  1.23500 56.34900 40.29100
H  0.85800 58.46000 39.70100
H  0.83600 59.11700 41.35100
H  -0.63700 58.28700 40.70600
H  0.49800 51.66200 43.55900
H  0.20100 50.31900 42.27500
H  -0.16000 52.09400 41.96500
H  5.19500 48.68600 41.73600
H  5.04900 46.71500 37.83300
H  3.66600 45.93100 38.55400
H  5.42200 45.56500 38.88500
Mg -12.70900 16.14300 42.71800
C  -9.58200 14.53000 42.35900
C  -11.31500 18.76100 41.00300
C  -15.79800 17.38800 42.26700
C  -13.95700 13.15500 43.95200
N  -10.64000 16.53500 41.73500
C  -9.53400 15.79400 41.81300
C  -8.37500 16.44700 41.09500
C  -8.92800 17.90500 40.94000
C  -10.39100 17.75100 41.20900
C  -8.29200 18.98100 41.85100
C  -8.05400 15.73500 39.72300
C  -6.53200 15.44300 39.45900
H  -5.93500 16.34300 38.30800
N  -13.47500 17.90500 41.80500
C  -12.72300 18.83400 41.16200
C  -13.55500 19.90100 40.70700
C  -14.89500 19.52400 40.95800
C  -14.77300 18.21300 41.69500
C  -12.95600 21.09300 39.91200
C  -16.06400 20.36900 40.65600
O  -15.84000 21.46500 40.10200
C  -17.49300 19.99700 41.08800
N  -14.56700 15.38500 43.16200
C  -15.75600 16.09800 42.94000
C  -16.96900 15.31500 43.48900
C  -16.42500 13.91600 43.90100
C  -14.91300 14.09300 43.58300
C  -17.69800 16.23300 44.56600
C  -17.04000 12.69400 43.11700
C  -17.49000 11.38700 43.89000
N  -11.92700 14.22000 43.19200
C  -12.57000 13.08300 43.64600
C  -11.64900 11.94100 43.70400
C  -10.46500 12.51800 43.30300
C  -10.68000 13.91300 42.95100
C  -11.99300 10.52600 44.14000
C  -9.09200 12.18800 43.00800
O  -8.54800 11.11500 43.13000
C  -8.50800 13.48900 42.32700
C  -7.34300 13.89700 43.16100
O  -7.33300 13.84100 44.38100
O  -6.19700 14.25300 42.36600
C  -5.00300 14.45900 43.18200
H  -10.77300 19.58500 40.53300
H  -16.80800 17.76500 42.09100
H  -14.40400 12.24600 44.36100
H  -7.46300 16.45100 41.69200
H  -8.83800 18.24100 39.90700
H  -7.65000 18.58200 42.63600
H  -8.98500 19.63300 42.38100
H  -7.86400 19.75100 41.20900
H  -8.39100 16.34600 38.88600
H  -8.62900 14.81400 39.62800
H  -6.39500 14.38200 39.24700
H  -5.91900 15.63700 40.33900
H  -13.18600 21.15400 38.84800
H  -11.88500 21.28100 39.84000
H  -13.29700 21.91500 40.54100
H  -17.80300 19.14100 40.48800
H  -18.22500 20.75900 40.81700
H  -17.54800 19.73100 42.14400
H  -17.56200 15.16900 42.58700
H  -16.81700 13.82900 44.91400
H  -17.83500 15.66500 45.48600
H  -18.73500 16.45000 44.30900
H  -17.27500 17.21400 44.78000
H  -16.55200 12.34300 42.20700
H  -18.00700 13.05800 42.77000
H  -16.81500 10.60200 43.55100
H  -18.46300 10.96900 43.63000
H  -17.36000 11.47900 44.96800
H  -12.52800 10.41900 45.08300
H  -11.13800 9.85000 44.11100
H  -12.59400 10.06400 43.35700
H  -8.10800 13.11700 41.38400
H  -5.23300 15.35600 43.75800
H  -4.18300 14.62300 42.48200
H  -4.78200 13.75800 43.98800

