158

Mg -2.00700 16.79800 26.91000
C  -2.55600 14.53200 29.61400
C  -2.60300 19.31600 29.00100
C  -1.79100 18.79600 24.26200
C  -2.24100 14.02000 24.73700
N  -2.55900 16.85600 29.09000
C  -2.53500 15.89500 30.01600
C  -2.59500 16.44200 31.43300
C  -2.58800 18.01700 31.20800
C  -2.61000 18.05200 29.64000
C  -3.61800 18.81600 32.06200
C  -1.53100 15.92300 32.35900
C  -0.92600 16.69400 33.51700
H  -0.66000 15.91900 34.92400
N  -2.21700 18.79800 26.69300
C  -2.39300 19.69900 27.72000
C  -2.36100 20.98800 27.12700
C  -2.09400 20.88100 25.74400
C  -1.99300 19.39300 25.49900
C  -2.77700 22.16900 27.99100
C  -1.90000 21.90100 24.64600
O  -1.75900 21.73100 23.40800
C  -1.70500 23.42500 25.03500
N  -1.82000 16.44500 24.78000
C  -1.81600 17.44600 23.90300
C  -1.91700 16.89500 22.49500
C  -1.73900 15.42600 22.64300
C  -1.99300 15.28900 24.11800
C  -3.29800 17.34900 21.92600
C  -0.33100 14.84900 22.26200
C  -0.31100 13.39300 21.73900
N  -2.24400 14.73900 27.04900
C  -2.32900 13.76000 26.07400
C  -2.59400 12.48100 26.68400
C  -2.64900 12.73400 28.03300
C  -2.42600 14.10700 28.21400
C  -2.76700 11.17300 25.95200
C  -2.85100 12.07900 29.29800
O  -3.21200 10.96600 29.54600
C  -2.82800 13.22000 30.44100
C  -1.80700 12.72100 31.31500
O  -0.58300 12.85600 31.18700
O  -2.40000 12.03300 32.33500
C  -1.42800 11.60000 33.31600
H  -2.76500 20.15600 29.68000
H  -1.90200 19.49400 23.43000
H  -2.50600 13.24300 24.01700
H  -3.50000 16.06800 31.91100
H  -1.65100 18.48700 31.50800
H  -3.14400 19.65500 32.57200
H  -4.03300 18.26300 32.90500
H  -4.47400 19.11300 31.45600
H  -0.71000 15.70800 31.67500
H  -1.79700 14.96900 32.81400
H  -1.50400 17.60800 33.65200
H  0.08200 16.93400 33.18000
H  -3.16800 22.91300 27.29600
H  -1.88100 22.51200 28.50800
H  -3.50700 21.94200 28.76800
H  -2.66200 23.91300 25.21600
H  -1.34400 23.96500 24.16000
H  -1.01500 23.44600 25.87900
H  -1.08900 17.20000 21.85500
H  -2.47800 14.97300 21.98200
H  -4.09800 17.12300 22.63100
H  -3.40700 16.80800 20.98600
H  -3.19700 18.41500 21.72500
H  0.28300 14.92200 23.16100
H  0.06300 15.53200 21.51000
H  0.19900 13.30500 20.77900
H  -1.31300 13.02100 21.52600
H  0.25100 12.73100 22.39800
H  -2.19300 11.07900 25.03000
H  -3.80200 11.12200 25.61500
H  -2.64500 10.30200 26.59700
H  -3.73800 13.52400 30.95800
H  -0.74300 10.90200 32.83400
H  -1.98600 11.09400 34.10300
H  -0.88400 12.39900 33.82000
Mg 30.28800 57.98200 40.62500
C  27.61000 55.79200 39.43900
C  32.50200 55.76900 39.12100
C  32.60300 60.33800 40.92900
C  27.68600 60.29200 41.36600
N  30.03400 55.96200 39.61400
C  28.86300 55.37900 39.10100
C  29.20100 54.01800 38.43900
C  30.73800 53.94800 38.58100
C  31.17000 55.33200 39.07800
C  31.20600 52.91100 39.64500
C  28.81600 53.94200 36.91300
C  29.12700 55.20600 35.98600
H  28.07900 55.62800 34.90800
N  32.30000 58.06200 40.11800
C  32.96300 57.05500 39.48400
C  34.39700 57.42100 39.36300
C  34.51100 58.71900 39.98500
C  33.12000 59.09300 40.39600
C  35.57000 56.60100 38.81300
C  35.78800 59.64000 40.15100
O  36.93300 59.19600 39.85500
C  35.61000 61.01400 40.86000
N  30.16300 59.96000 41.29800
C  31.27100 60.75300 41.25900
C  30.89200 62.22200 41.62000
C  29.32800 62.16800 41.72900
C  29.00600 60.72900 41.38200
C  31.54300 62.74900 42.93600
C  28.54300 63.24400 40.97600
C  28.23600 62.98400 39.52100
N  28.12200 58.01400 40.58900
C  27.25500 59.05900 40.85300
C  25.90600 58.63900 40.67600
C  26.01600 57.44000 40.11100
C  27.35900 57.09300 40.04600
C  24.73700 59.51100 41.14200
C  25.21700 56.32900 39.63400
O  24.01700 56.20300 39.49200
C  26.19200 55.23100 39.13400
C  25.95800 54.06000 40.10400
O  25.75700 54.18200 41.32700
O  25.76400 52.82000 39.50400
C  25.08800 51.84100 40.38400
H  33.18500 55.08500 38.61300
H  33.29400 61.18300 40.94800
H  26.89300 61.04100 41.32900
H  28.77600 53.12900 38.90400
H  31.25300 53.83900 37.62600
H  30.32100 52.75100 40.26100
H  32.05600 53.34800 40.16800
H  31.56500 51.95000 39.27600
H  27.75200 53.81000 36.71900
H  29.35700 53.06100 36.56600
H  29.96800 54.96100 35.33800
H  29.50700 56.06500 36.53900
H  36.16200 57.11500 38.05600
H  35.20300 55.77900 38.19900
H  36.06100 56.14400 39.67200
H  35.36900 61.83400 40.18400
H  36.61300 61.21300 41.23700
H  34.94700 60.96000 41.72400
H  31.22000 62.84700 40.78900
H  28.98000 62.22300 42.76000
H  32.38600 62.13000 43.24300
H  30.81900 62.84100 43.74500
H  31.99300 63.72000 42.72800
H  29.19100 64.11900 41.02100
H  27.66900 63.50400 41.57200
H  27.17500 62.78200 39.37800
H  28.72400 62.08200 39.15100
H  28.54000 63.88300 38.98500
H  24.32300 60.02800 40.27700
H  25.01400 60.22200 41.92100
H  23.95500 58.87300 41.55500
H  25.95000 54.92300 38.11700
H  24.38900 51.34400 39.71200
H  24.54800 52.12600 41.28600
H  25.83700 51.07500 40.58700

