158

Mg 44.78200 3.27100 47.38900
C  42.57500 6.02600 47.21000
C  42.07300 1.24200 47.03900
C  46.90100 0.52800 47.38300
C  47.42300 5.39800 47.38400
N  42.59900 3.64900 47.08300
C  41.91000 4.83700 47.03200
C  40.39500 4.68100 46.64900
C  40.30400 3.10800 47.02400
C  41.74100 2.61300 47.04500
C  39.42100 2.78100 48.31600
C  39.97100 5.03000 45.15800
C  39.01800 6.21800 45.03300
H  38.39400 6.34400 43.63600
N  44.51100 1.15300 47.25700
C  43.28700 0.52800 47.10500
C  43.57300 -0.90000 47.00700
C  44.95600 -1.09900 46.87800
C  45.58500 0.22200 47.20500
C  42.47100 -1.90800 46.95500
C  45.60200 -2.45000 46.51200
O  44.89000 -3.42300 46.29100
C  47.16800 -2.62100 46.34400
N  46.85500 2.97700 47.09900
C  47.51500 1.76800 47.40300
C  49.03900 1.98100 47.64200
C  49.16900 3.53900 47.58700
C  47.72200 4.05600 47.34600
C  49.58000 1.31500 48.89300
C  50.13900 4.00700 46.42700
C  51.45800 4.75800 46.81900
N  45.06000 5.32500 47.22700
C  46.15400 6.04400 47.31000
C  45.85100 7.46700 47.31700
C  44.45800 7.48300 47.20900
C  43.97500 6.14300 47.23800
C  46.74600 8.61500 47.34100
C  43.30600 8.36100 47.12700
O  43.27500 9.60100 47.06000
C  42.05500 7.42600 47.05100
C  41.18100 7.72200 48.18800
O  41.53100 7.60500 49.37400
O  39.92600 8.26900 47.82100
C  38.94600 8.61600 48.78700
H  41.15900 0.68200 46.83100
H  47.63800 -0.26900 47.26000
H  48.31500 6.01400 47.51900
H  39.81900 5.26100 47.37100
H  39.87300 2.57700 46.17600
H  39.12600 3.74000 48.74300
H  40.02200 2.27200 49.07000
H  38.56200 2.19800 47.98500
H  39.46200 4.12900 44.81600
H  40.86700 5.00200 44.53800
H  39.47500 7.15300 45.35800
H  38.17900 6.01700 45.69900
H  42.57600 -2.53000 46.06700
H  41.45500 -1.52200 46.87600
H  42.49900 -2.52600 47.85300
H  47.48200 -1.82400 45.67000
H  47.34400 -3.62900 45.96800
H  47.66000 -2.53900 47.31300
H  49.58800 1.50600 46.82900
H  49.52000 3.83300 48.57600
H  48.75100 1.23700 49.59600
H  50.37900 1.95900 49.26200
H  50.02100 0.35000 48.64300
H  49.67700 4.64600 45.67400
H  50.46400 3.16000 45.82300
H  51.44200 5.77100 46.41900
H  52.17800 4.19200 46.22800
H  51.61000 4.66700 47.89400
H  46.95000 8.86400 46.30000
H  47.58400 8.24300 47.93200
H  46.09500 9.39300 47.73900
H  41.48300 7.51200 46.12700
H  39.15600 8.24300 49.78900
H  37.95100 8.36200 48.42200
H  39.00400 9.70200 48.85900
Mg 46.59900 44.35700 42.60000
C  43.26400 43.43400 42.93400
C  47.25300 40.96300 42.39000
C  49.84100 45.06600 41.88900
C  45.70100 47.70200 42.24700
N  45.37000 42.42400 42.80900
C  44.01000 42.31700 42.81500
C  43.54800 40.86800 42.79200
C  44.94900 40.13300 43.05800
C  45.90800 41.26400 42.64400
C  45.23400 39.65800 44.46600
C  42.84700 40.46700 41.52800
C  43.27100 40.99500 40.13800
H  43.98300 40.16200 39.04700
N  48.30600 43.13100 42.22100
C  48.38300 41.75400 42.23600
C  49.73300 41.29400 41.96200
C  50.47300 42.48600 41.70700
C  49.56000 43.65200 41.95800
C  50.15100 39.83800 42.07600
C  51.94100 42.46800 41.43400
O  52.54300 41.43800 41.29900
C  52.67200 43.84500 41.35600
N  47.55500 46.12000 42.05900
C  48.91600 46.16700 41.95400
C  49.46700 47.60600 41.97700
C  48.18800 48.45500 42.29400
C  47.05200 47.40400 42.12100
C  50.62300 47.98300 42.87100
C  48.06000 49.78300 41.46800
C  47.86300 51.13800 42.26800
N  44.82500 45.45900 42.58100
C  44.61600 46.82500 42.54300
C  43.25200 47.04800 42.80500
C  42.64600 45.75800 42.96700
C  43.64900 44.76900 42.75800
C  42.57800 48.42800 42.75800
C  41.46600 45.04200 43.25000
O  40.31200 45.40800 43.45600
C  41.84300 43.53100 43.30700
C  41.67700 43.03900 44.74800
O  42.29500 43.41600 45.72900
O  40.65000 42.09800 44.87600
C  40.55500 41.36000 46.12300
H  47.40200 39.88200 42.34200
H  50.89200 45.36100 41.93200
H  45.44500 48.76100 42.32800
H  42.88600 40.70000 43.64100
H  45.11900 39.35600 42.31300
H  45.76600 40.46800 44.96500
H  45.99600 38.87900 44.48900
H  44.29800 39.46100 44.98800
H  41.79500 40.64900 41.74900
H  42.96000 39.39600 41.36500
H  43.78500 41.95500 40.18800
H  42.31100 41.20600 39.66700
H  50.39700 39.29300 41.16500
H  49.45100 39.17500 42.58400
H  51.04900 39.85600 42.69300
H  52.23300 44.47700 40.58400
H  53.73300 43.65000 41.20100
H  52.56300 44.16700 42.39100
H  49.81700 47.76600 40.95700
H  48.35400 48.70100 43.34400
H  50.68600 48.99000 43.28400
H  51.54600 47.79600 42.32200
H  50.70200 47.32300 43.73400
H  47.32500 49.72500 40.66500
H  49.06200 49.91800 41.05900
H  47.01400 51.68900 41.86300
H  48.73000 51.79900 42.24500
H  47.71100 50.91600 43.32400
H  41.56900 48.20700 43.10600
H  42.46500 48.87700 41.77100
H  42.93200 49.12900 43.51400
H  41.11500 42.95200 42.74000
H  41.37200 41.60400 46.80200
H  40.62600 40.30400 45.85900
H  39.68100 41.65400 46.70500

