158

Mg 44.89000 4.54800 46.44800
C  42.92300 7.47300 46.84300
C  41.91000 2.90000 45.95700
C  46.72900 1.87100 45.80900
C  47.72100 6.53800 46.62000
N  42.67800 5.22000 46.38400
C  42.07900 6.41600 46.60300
C  40.58200 6.37600 46.57200
C  40.29100 4.82400 46.60200
C  41.72200 4.26500 46.30300
C  39.51900 4.28800 47.78400
C  39.98700 7.28800 45.42200
C  40.45900 7.23600 43.98400
H  39.74800 6.38700 42.94400
N  44.39100 2.64700 45.86600
C  43.08300 2.13400 45.78900
C  43.20800 0.71600 45.54200
C  44.60000 0.37800 45.41300
C  45.29700 1.67000 45.64300
C  41.99700 -0.22100 45.27500
C  45.16100 -1.02700 45.11600
O  44.44200 -2.03600 45.17600
C  46.44400 -1.22200 44.52400
N  46.99600 4.33900 45.91300
C  47.53700 3.09500 45.86900
C  48.98700 3.09900 46.24600
C  49.36000 4.66500 46.14200
C  47.90000 5.24100 46.24900
C  49.35300 2.55700 47.65100
C  49.96500 5.20300 44.79100
C  51.44600 5.79200 44.90600
N  45.32300 6.60600 46.67900
C  46.54400 7.26700 46.78600
C  46.34500 8.64500 47.12400
C  44.92700 8.78600 47.12800
C  44.35000 7.52100 46.84600
C  47.38800 9.76500 47.08600
C  43.85800 9.68800 47.30700
O  43.78500 10.86600 47.42400
C  42.52200 8.82000 47.21200
C  41.76000 8.96000 48.42900
O  41.98800 8.29300 49.42200
O  40.58000 9.69700 48.24000
C  39.59000 9.54700 49.33800
H  40.90700 2.46900 45.96000
H  47.30800 0.95900 45.65300
H  48.64800 7.04800 46.89100
H  40.40300 6.83600 47.54300
H  39.58700 4.57900 45.80600
H  39.24000 4.98200 48.57700
H  40.12300 3.45100 48.13500
H  38.62200 3.68800 47.63600
H  40.02700 8.33900 45.70700
H  38.95500 6.97100 45.57500
H  41.45000 6.78600 43.93300
H  40.35600 8.24900 43.59400
H  41.81800 -0.33100 44.20500
H  41.00900 0.04700 45.65000
H  42.31200 -1.21400 45.59800
H  46.38700 -1.85800 43.64200
H  47.15300 -1.73900 45.17000
H  46.92100 -0.29700 44.20100
H  49.45800 2.51000 45.45800
H  49.85600 5.14200 46.98700
H  48.41000 2.34600 48.15500
H  49.88700 3.29000 48.25500
H  50.02300 1.70100 47.56100
H  49.24700 5.92300 44.39900
H  49.95200 4.45400 43.99900
H  51.53500 6.59400 44.17300
H  52.11600 4.96900 44.65700
H  51.63400 6.15700 45.91600
H  46.94000 10.67400 46.68400
H  48.31500 9.57300 46.54500
H  47.63300 10.06000 48.10600
H  41.83900 9.30600 46.51500
H  38.62900 9.67400 48.83900
H  39.74200 10.30700 50.10500
H  39.59500 8.57100 49.82300
Mg -11.80700 37.49600 41.85700
C  -9.31700 35.15400 40.92400
C  -9.65000 39.98700 40.62200
C  -14.33100 39.47300 42.11500
C  -13.81400 34.82100 42.95400
N  -9.72700 37.49000 40.90100
C  -8.92800 36.45400 40.60600
C  -7.65900 36.94400 39.92300
C  -7.59400 38.52800 40.15700
C  -9.05000 38.70300 40.65100
C  -6.50500 39.00100 41.13500
C  -7.66300 36.53300 38.42100
C  -6.40600 35.79500 37.84600
H  -5.90900 36.25900 36.45300
N  -12.01700 39.44300 41.41600
C  -11.02600 40.33900 40.91700
C  -11.71200 41.59000 40.74800
C  -12.99800 41.50100 41.29200
C  -13.12500 40.11500 41.64500
C  -10.99500 42.81000 40.16900
C  -14.05700 42.58400 41.27200
O  -13.77700 43.70200 40.97200
C  -15.47300 42.27900 41.63500
N  -13.86900 37.15700 42.29900
C  -14.68100 38.18800 42.38600
C  -15.98000 37.79600 43.00400
C  -15.85000 36.28200 43.33800
C  -14.44900 36.03300 42.87000
C  -16.47900 38.68500 44.17700
C  -16.85700 35.32400 42.62500
C  -17.71800 34.42400 43.54200
N  -11.62700 35.51600 41.94300
C  -12.49400 34.55800 42.50000
C  -11.95300 33.24600 42.43300
C  -10.78000 33.45100 41.74500
C  -10.53700 34.88000 41.57600
C  -12.47400 31.92500 42.91200
C  -9.47000 32.80000 41.27200
O  -9.14900 31.62800 41.24300
C  -8.60400 33.82700 40.70200
C  -7.32700 33.64600 41.40100
O  -6.46100 32.88100 41.03400
O  -7.28000 34.54100 42.47100
C  -5.98200 34.45800 43.13900
H  -9.07900 40.77100 40.12000
H  -15.25900 40.04100 42.20300
H  -14.48800 34.03400 43.30000
H  -6.85900 36.39500 40.41900
H  -7.40400 39.03500 39.21100
H  -5.58400 38.42900 41.01800
H  -6.72600 38.89500 42.19700
H  -6.28900 40.04300 40.90100
H  -8.05500 37.42900 37.94000
H  -8.47600 35.80800 38.39200
H  -6.66100 34.73600 37.88100
H  -5.51900 35.86100 38.47600
H  -11.44300 43.05500 39.20700
H  -9.92500 42.61900 40.07900
H  -11.09100 43.67100 40.83100
H  -16.00900 43.22800 41.61900
H  -15.62000 41.95500 42.66600
H  -15.95800 41.63300 40.90400
H  -16.67800 37.84800 42.16800
H  -15.61500 36.04300 44.37500
H  -17.44000 39.03800 43.80200
H  -15.76800 39.48200 44.39200
H  -16.68700 38.01700 45.01200
H  -16.29300 34.65500 41.97600
H  -17.66200 35.82700 42.09000
H  -18.77500 34.69000 43.54600
H  -17.31300 34.76500 44.49400
H  -17.47800 33.36200 43.48200
H  -11.76000 31.37500 43.52500
H  -12.79900 31.36800 42.03400
H  -13.27200 32.08400 43.63700
H  -8.47400 33.64600 39.63500
H  -5.28000 34.61200 42.32000
H  -5.87200 33.43600 43.50300
H  -6.07300 35.13700 43.98600

