158

Mg 40.29600 9.82100 29.39100
C  42.19800 11.06600 32.07200
C  37.86100 8.90100 31.72200
C  38.32900 8.78700 26.81100
C  42.89800 10.36000 27.23400
N  39.99100 10.07700 31.67000
C  40.89800 10.76600 32.49600
C  40.32500 10.79500 33.97200
C  38.94600 9.99000 33.78700
C  38.88100 9.67400 32.28600
C  38.68900 8.81900 34.81800
C  40.26200 12.17900 34.66500
C  40.94800 12.33900 36.04100
H  40.04600 12.89900 37.11100
N  38.38800 9.04400 29.28700
C  37.53800 8.63800 30.33100
C  36.33100 8.06800 29.82400
C  36.33100 8.26700 28.38300
C  37.69200 8.83500 28.09900
C  35.18100 7.61800 30.67400
C  35.29200 8.04600 27.23700
O  35.38600 8.55200 26.14900
C  33.95400 7.45800 27.71900
N  40.63000 9.47400 27.34400
C  39.67500 8.96000 26.46000
C  40.26700 8.61400 25.11400
C  41.67100 9.27700 25.20100
C  41.83200 9.68300 26.66800
C  40.11000 7.03700 24.90300
C  41.85600 10.49500 24.19600
C  41.51900 11.89700 24.66200
N  42.23200 10.55500 29.60600
C  43.16600 10.70600 28.62900
C  44.37900 11.19900 29.20500
C  44.01500 11.50400 30.56400
C  42.70300 10.92800 30.79600
C  45.61000 11.46300 28.41100
C  44.48100 12.00600 31.81900
O  45.56400 12.54100 32.15100
C  43.31700 11.77200 32.79100
C  43.83600 10.76700 33.72700
O  44.29200 9.66000 33.42000
O  44.00200 11.29300 34.97900
C  44.68900 10.56200 36.02600
H  37.15900 8.49100 32.45000
H  37.74300 8.40800 25.97100
H  43.74000 10.43200 26.54300
H  41.00800 10.13400 34.50500
H  38.09300 10.64000 33.98200
H  38.98500 7.87400 34.36200
H  37.67000 8.84500 35.20400
H  39.34600 8.95000 35.67800
H  39.20100 12.40300 34.77100
H  40.65000 12.95600 34.00500
H  41.77500 13.03000 35.87600
H  41.29900 11.34300 36.31000
H  34.78800 6.66200 30.32900
H  34.40400 8.36100 30.49300
H  35.59200 7.59600 31.68300
H  33.53000 8.18000 28.41700
H  34.30200 6.52200 28.15400
H  33.34000 7.34400 26.82600
H  39.57200 9.11700 24.44100
H  42.36400 8.50500 24.86800
H  41.02100 6.84400 24.33500
H  39.25800 6.76900 24.27900
H  40.10500 6.52900 25.86700
H  41.10300 10.31000 23.42900
H  42.91600 10.41700 23.95700
H  40.85400 11.90600 25.52500
H  41.02700 12.40800 23.83400
H  42.38000 12.54600 24.82400
H  46.38900 11.34600 29.16400
H  45.68100 12.49400 28.06400
H  45.80000 10.79500 27.57100
H  42.92800 12.60200 33.38200
H  45.74600 10.36700 35.84400
H  44.14100 9.62100 36.08400
H  44.58600 11.09300 36.97200
Mg 46.90700 16.79400 28.37600
C  44.88000 16.25400 31.16600
C  49.06200 18.50800 30.29700
C  48.58000 17.59200 25.58400
C  44.54600 15.08900 26.43900
N  46.94800 17.34800 30.46100
C  46.09600 16.90200 31.45100
C  46.52900 17.43100 32.81200
C  47.83900 18.13400 32.43300
C  47.97500 17.96400 30.99000
C  48.05800 19.57700 32.90100
C  46.71200 16.25200 33.85700
C  46.24800 16.63900 35.25600
H  46.09300 18.14600 35.67900
N  48.56000 17.93100 27.91100
C  49.36500 18.47200 28.91800
C  50.50900 19.14200 28.27000
C  50.40500 18.90900 26.88700
C  49.13000 18.13800 26.71300
C  51.57700 19.92700 29.05800
C  51.19400 19.41100 25.68700
O  50.85200 19.39400 24.49400
C  52.47600 20.17900 25.99500
N  46.49500 16.55500 26.31100
C  47.39600 16.91000 25.36600
C  46.97100 16.30000 23.93700
C  45.50700 15.70300 24.31300
C  45.57700 15.67400 25.81600
C  46.82900 17.38600 22.84700
C  45.31800 14.23700 23.66500
C  46.14800 13.01200 24.23200
N  45.13900 15.76900 28.69700
C  44.23400 15.20800 27.78300
C  43.09400 14.78200 28.56200
C  43.32400 15.10200 29.88600
C  44.52900 15.79600 29.89900
C  41.89400 14.10600 27.97800
C  42.74300 15.13800 31.18800
O  41.62100 14.90900 31.53000
C  43.77200 15.88300 32.11900
C  43.07400 17.03000 32.76000
O  42.91900 18.13800 32.31200
O  42.46400 16.61700 33.91700
C  41.66100 17.64400 34.67400
H  49.83200 18.95800 30.92700
H  49.16100 17.76900 24.67600
H  43.78900 14.57900 25.84000
H  45.73500 18.13800 33.05700
H  48.75300 17.69400 32.83200
H  48.00000 20.22400 32.02600
H  48.98200 19.74100 33.45600
H  47.19200 19.82600 33.51500
H  47.78500 16.08700 33.94500
H  46.38600 15.24800 33.58500
H  46.89400 16.25000 36.04300
H  45.23600 16.25700 35.39000
H  51.61100 20.99800 28.85600
H  52.52300 19.49400 28.73200
H  51.54100 19.84800 30.14500
H  52.23700 21.17900 26.35800
H  52.94500 20.38300 25.03300
H  53.12500 19.52600 26.57800
H  47.67500 15.49500 23.72700
H  44.63200 16.32200 24.11700
H  47.57100 18.16600 23.01600
H  45.84400 17.82900 22.69700
H  47.14300 17.06500 21.85400
H  45.68800 14.33300 22.64500
H  44.27100 13.96600 23.52800
H  46.85300 13.34000 24.99600
H  46.73400 12.70200 23.36700
H  45.50700 12.19300 24.55900
H  41.94200 14.42100 26.93500
H  41.01500 14.55900 28.43600
H  41.86900 13.02300 28.09900
H  44.14700 15.15000 32.83300
H  40.77100 17.90300 34.10100
H  42.19200 18.58600 34.80900
H  41.42700 17.23000 35.65500

