158

Mg 54.81800 24.18100 44.28000
C  52.37500 26.67900 43.93400
C  52.46300 21.85500 43.36900
C  57.30700 22.03200 43.98800
C  57.16000 26.75900 44.87100
N  52.77100 24.27700 43.61100
C  51.95000 25.37600 43.46400
C  50.45900 25.02000 43.15600
C  50.50000 23.47100 43.42900
C  51.97200 23.10900 43.52700
C  49.69800 22.83500 44.65200
C  50.00200 25.40700 41.68700
C  51.11100 25.36300 40.62900
H  50.64000 25.12600 39.17300
N  54.83300 22.17900 43.86800
C  53.80000 21.37400 43.52200
C  54.22500 20.04800 43.51300
C  55.66300 20.08400 43.68400
C  56.00000 21.47100 43.89200
C  53.33000 18.85600 43.16400
C  56.56600 18.78900 43.79500
O  56.05200 17.67800 43.57100
C  58.02600 18.85000 44.12400
N  56.96000 24.36400 44.31800
C  57.77000 23.33500 44.11700
C  59.26200 23.72200 44.25100
C  59.16200 25.18600 44.51000
C  57.69000 25.48300 44.59700
C  60.11200 22.92100 45.35000
C  59.91600 26.04600 43.44800
C  59.10900 26.44100 42.14800
N  54.81400 26.25900 44.55900
C  55.78700 27.20500 44.84800
C  55.25800 28.49900 45.01800
C  53.88400 28.30700 44.66500
C  53.66700 26.99600 44.34800
C  56.02200 29.72800 45.32900
C  52.62800 28.98600 44.56600
O  52.32600 30.14500 44.79200
C  51.57200 27.96600 44.04100
C  50.98100 28.46600 42.76900
O  51.60500 28.54000 41.70000
O  49.67500 28.83200 42.95900
C  49.12900 29.40100 41.72700
H  51.60100 21.18900 43.29700
H  58.11400 21.32200 43.79300
H  57.90100 27.55600 44.96400
H  49.74300 25.48000 43.83800
H  50.23100 22.99300 42.48800
H  49.25100 23.63100 45.24700
H  50.34800 22.34600 45.37700
H  48.89200 22.18500 44.31100
H  49.59600 26.41800 41.66500
H  49.33200 24.62900 41.32100
H  51.90400 24.71000 40.99300
H  51.66700 26.30000 40.65200
H  53.67900 18.18700 42.37800
H  52.26600 19.07600 43.07500
H  53.39900 18.20400 44.03500
H  58.31300 17.90400 44.58400
H  58.14100 19.63100 44.87500
H  58.71600 19.05000 43.30400
H  59.71900 23.62200 43.26700
H  59.59600 25.49000 45.46300
H  60.99300 22.52100 44.84700
H  59.53200 22.04600 45.64200
H  60.26400 23.46900 46.28000
H  60.75200 25.42200 43.13300
H  60.44500 26.91000 43.85100
H  59.46800 27.46500 42.04600
H  58.02200 26.50600 42.20400
H  59.39600 26.03600 41.17700
H  55.44600 30.57600 44.95700
H  56.97900 29.77400 44.81000
H  56.32100 29.80100 46.37400
H  50.77900 27.87200 44.78300
H  48.09600 29.05200 41.74500
H  49.36300 29.00800 40.73800
H  49.23500 30.48200 41.63700
Mg 50.10300 47.05700 42.61700
C  46.76900 46.93500 41.41200
C  50.70100 44.12500 40.83900
C  53.40100 47.58500 42.88900
C  49.43800 50.37400 43.51200
N  48.85900 45.87800 41.00800
C  47.47400 45.92800 40.79300
C  47.06600 44.77600 39.91100
C  48.34400 43.87100 39.72700
C  49.43600 44.66200 40.58700
C  48.15500 42.37300 40.07800
C  46.35700 45.24200 38.56300
C  44.94900 44.57000 38.12300
H  45.00400 43.77700 36.88600
N  51.74500 45.91400 42.19100
C  51.80500 44.73400 41.40200
C  53.13600 44.24800 41.37700
C  53.91100 45.13200 42.16000
C  53.00100 46.31600 42.48300
C  53.51500 42.97800 40.68000
C  55.37700 44.99200 42.59400
O  56.14200 44.13400 42.06200
C  55.96500 45.74200 43.66600
N  51.27700 48.65300 43.17900
C  52.56500 48.61300 43.30100
C  53.13000 49.97300 43.68100
C  51.89100 50.80600 44.04800
C  50.72900 49.90500 43.57100
C  54.20300 49.89900 44.77300
C  51.80800 52.27300 43.38800
C  51.52100 52.47400 41.83800
N  48.40100 48.31000 42.68000
C  48.32000 49.66400 43.08800
C  46.88500 50.08100 42.99600
C  46.25900 48.98300 42.41500
C  47.20700 47.97200 42.18800
C  46.23400 51.38600 43.44200
C  44.96200 48.52100 41.90900
O  43.86000 49.08300 41.90400
C  45.23300 47.14700 41.25800
C  44.38500 46.05500 41.80000
O  44.80100 45.34600 42.69800
O  43.08500 46.01200 41.26200
C  42.10400 45.29000 42.13600
H  50.84400 43.15100 40.36800
H  54.45200 47.86000 42.78100
H  49.21100 51.29000 44.06100
H  46.25500 44.34000 40.49300
H  48.75700 44.02400 38.72900
H  48.33900 41.71300 39.23100
H  47.21300 42.00100 40.48300
H  48.92600 42.13900 40.81100
H  47.03000 45.09200 37.71900
H  46.26100 46.32600 38.63000
H  44.13300 45.29200 38.11900
H  44.70400 43.87300 38.92400
H  53.70800 42.22800 41.44700
H  54.49100 43.05300 40.20100
H  52.63400 42.60800 40.15700
H  55.16400 46.05000 44.33800
H  56.50200 46.57100 43.20500
H  56.61200 45.06400 44.22100
H  53.53900 50.45400 42.79200
H  51.84600 50.97100 45.12500
H  54.56200 48.93500 45.13500
H  53.76000 50.43600 45.61200
H  55.03700 50.46500 44.35800
H  52.78700 52.72500 43.54500
H  51.05300 52.86600 43.90200
H  50.95200 51.62700 41.45500
H  52.39000 52.79200 41.26200
H  50.88200 53.35300 41.75700
H  46.19600 52.20100 42.71900
H  46.85400 51.70600 44.27900
H  45.20200 51.14300 43.69400
H  44.87900 47.12100 40.22700
H  41.20800 44.94200 41.62200
H  41.87300 45.95200 42.97100
H  42.44700 44.37600 42.62100

