158

Mg 44.31200 3.79700 48.26000
C  42.07200 6.43000 47.27300
C  41.84400 1.47400 47.53900
C  46.64000 1.42900 48.12600
C  46.93100 6.27700 48.03200
N  42.26200 3.98600 47.28000
C  41.45800 5.10200 47.17200
C  40.00700 4.76300 46.87500
C  40.00800 3.26000 47.19800
C  41.48200 2.85700 47.35400
C  39.04900 2.71800 48.36100
C  39.47900 5.18200 45.43600
C  38.01300 5.66700 45.34900
H  37.32900 5.34400 43.94900
N  44.23700 1.69800 48.08900
C  43.11000 0.95100 47.88400
C  43.46400 -0.46400 48.14000
C  44.85000 -0.49500 48.37300
C  45.33200 0.91200 48.20600
C  42.49900 -1.62300 47.94800
C  45.63500 -1.67900 48.76400
O  45.14100 -2.80600 48.87300
C  47.15000 -1.53900 49.08500
N  46.51000 3.88300 48.05500
C  47.18300 2.73000 48.15800
C  48.71000 2.99400 48.07600
C  48.77000 4.43300 47.53700
C  47.36000 4.93600 47.84300
C  49.47400 2.69300 49.42900
C  49.09100 4.57200 46.05200
C  50.44300 5.22400 45.66200
N  44.48000 5.93900 47.88600
C  45.60800 6.75900 47.84700
C  45.10400 8.10100 47.64800
C  43.75700 7.97000 47.46800
C  43.41000 6.67100 47.64500
C  45.95800 9.32000 47.61200
C  42.54500 8.78700 47.30200
O  42.42500 10.01300 47.17600
C  41.39500 7.74300 47.10100
C  40.28300 7.95500 48.06800
O  40.21600 7.50700 49.22200
O  39.37200 8.87300 47.52600
C  38.06900 9.10200 48.34200
H  40.96300 0.82900 47.53300
H  47.48000 0.73300 48.08100
H  47.60000 7.10300 47.78000
H  39.27400 5.20000 47.55300
H  39.70000 2.64400 46.35200
H  38.63100 3.55400 48.92200
H  39.63000 2.12700 49.06800
H  38.30300 2.16000 47.79500
H  39.60700 4.31800 44.78300
H  40.15300 5.93900 45.03600
H  38.19600 6.73700 45.44800
H  37.40800 5.23500 46.14600
H  41.53000 -1.40400 47.50000
H  42.34100 -2.18500 48.86800
H  42.86800 -2.34500 47.22000
H  47.51700 -0.76100 49.75400
H  47.59200 -1.39000 48.10000
H  47.52900 -2.44200 49.56400
H  49.18300 2.39000 47.30200
H  49.41100 5.04100 48.17700
H  50.19100 3.44000 49.76900
H  50.13000 1.86600 49.15900
H  48.82100 2.24200 50.17600
H  48.35800 5.15100 45.49000
H  49.23200 3.59500 45.59000
H  50.86900 5.89400 46.40800
H  50.21600 5.79300 44.76000
H  51.14500 4.45100 45.35100
H  45.46700 10.04000 48.26700
H  45.90300 9.69900 46.59200
H  47.03200 9.24400 47.78500
H  40.80800 7.85100 46.18800
H  37.98500 8.32300 49.10000
H  37.24200 9.14300 47.63200
H  38.30600 10.02800 48.86500
Mg 0.28500 44.37000 27.33000
C  2.62300 43.68200 29.67400
C  -2.22000 43.34300 29.50500
C  -2.16800 44.85200 24.86700
C  2.73600 44.84000 24.84500
N  0.23100 43.58900 29.20200
C  1.28700 43.63100 30.10900
C  0.86600 43.65700 31.61000
C  -0.57200 43.08400 31.44900
C  -0.89600 43.37100 29.99500
C  -0.80100 41.56300 31.94900
C  0.96800 45.07100 32.25800
C  1.34800 45.17600 33.77100
H  1.20200 43.88400 34.63100
N  -1.89400 44.16700 27.17000
C  -2.69700 43.69600 28.20100
C  -4.07800 43.59700 27.74500
C  -4.07100 44.07900 26.39000
C  -2.67700 44.43400 26.09200
C  -5.23000 43.05900 28.61900
C  -5.22800 44.33700 25.48100
O  -5.16800 45.05400 24.50300
C  -6.61700 43.74100 25.75300
N  0.32200 44.92600 25.17800
C  -0.83400 45.06000 24.48200
C  -0.48800 45.27400 22.97500
C  1.03600 45.36800 22.89800
C  1.42500 45.03000 24.36100
C  -1.14100 44.17800 22.07200
C  1.42200 46.71700 22.27800
C  1.33600 48.03700 23.09300
N  2.29100 44.31900 27.22000
C  3.22300 44.50300 26.17700
C  4.48100 44.24200 26.78200
C  4.28800 43.99400 28.14900
C  2.93700 43.94000 28.36400
C  5.73600 44.21100 25.99500
C  5.00500 43.91700 29.39700
O  6.20400 43.83300 29.64600
C  3.85800 43.79600 30.48700
C  4.04700 42.62500 31.32800
O  3.55800 41.53600 31.22200
O  4.88100 42.99700 32.35300
C  5.19600 41.95400 33.36800
H  -2.94000 42.90000 30.19600
H  -2.93500 44.93400 24.09400
H  3.49500 45.17000 24.13400
H  1.46000 42.97700 32.22100
H  -1.26500 43.74500 31.97000
H  0.13700 41.10100 32.25400
H  -1.30200 40.91400 31.23000
H  -1.51000 41.58300 32.77600
H  -0.01500 45.50700 32.07700
H  1.87300 45.43300 31.77100
H  0.85700 46.04900 34.20100
H  2.41100 45.41600 33.75000
H  -5.90600 42.29700 28.23200
H  -5.84700 43.87800 28.98900
H  -4.85000 42.57500 29.51900
H  -6.60600 42.66700 25.56400
H  -7.34500 44.32000 25.18600
H  -6.87300 43.83700 26.80900
H  -0.94000 46.21100 22.65200
H  1.43900 44.65800 22.17600
H  -1.52500 43.40100 22.73200
H  -0.39100 43.72300 21.42400
H  -1.91200 44.71200 21.51700
H  0.90100 46.87200 21.33300
H  2.48800 46.61000 22.07700
H  0.78000 48.87300 22.66900
H  2.37800 48.31500 23.24800
H  0.99800 47.71300 24.07700
H  6.42700 43.77000 26.71300
H  5.84000 45.26000 25.71500
H  5.61600 43.46800 25.20700
H  3.89900 44.70400 31.08900
H  5.93500 41.30300 32.90100
H  4.34100 41.40700 33.76600
H  5.59800 42.33000 34.30900

