158

Mg 36.36000 49.67500 24.19800
C  36.38600 48.35500 27.35700
C  35.23200 52.74000 25.69900
C  36.07500 51.18700 21.08700
C  37.52200 46.78900 22.82800
N  35.85400 50.41800 26.28000
C  35.95000 49.69000 27.36000
C  35.58800 50.50000 28.62000
C  35.07600 51.84900 28.06300
C  35.44200 51.63700 26.55500
C  33.53500 52.11200 28.24100
C  36.80300 50.57700 29.61400
C  36.53400 50.09800 31.06300
H  35.07700 49.89500 31.67600
N  35.76600 51.62500 23.46900
C  35.34100 52.73500 24.32300
C  35.08300 53.85600 23.55200
C  35.10200 53.43600 22.17300
C  35.64300 51.99700 22.16100
C  34.63500 55.16900 24.26600
C  34.68600 54.26600 21.04100
O  34.72600 53.77800 19.91700
C  34.11300 55.59900 21.15500
N  36.82000 49.12600 22.26200
C  36.58900 49.91000 21.12900
C  37.04000 49.16000 19.90600
C  37.60300 47.78300 20.44900
C  37.22200 47.88200 21.93000
C  35.96400 49.09400 18.82100
C  39.12700 47.60600 20.19900
C  40.22900 48.25100 21.12800
N  36.80700 47.88500 24.85900
C  37.34700 46.78900 24.20200
C  37.63200 45.74300 25.11500
C  37.31800 46.30700 26.38100
C  36.78500 47.58600 26.18300
C  38.16400 44.33900 24.77900
C  37.31900 46.12900 27.80100
O  37.76300 45.14000 28.44800
C  36.56900 47.28000 28.47000
C  35.28500 46.86100 29.00500
O  34.22100 47.21000 28.57000
O  35.56000 46.14000 30.13100
C  34.42200 45.79700 31.01100
H  34.91100 53.61300 26.27200
H  36.02600 51.65700 20.10300
H  38.04500 45.99700 22.28800
H  34.79000 49.93600 29.10400
H  35.63700 52.72000 28.40400
H  33.08100 51.55200 29.05900
H  33.02200 51.56200 27.45100
H  33.34000 53.18200 28.30000
H  37.23300 51.57000 29.74500
H  37.61800 49.93900 29.27400
H  37.09300 50.82500 31.65300
H  37.06700 49.14800 31.12000
H  35.08800 55.32400 25.24500
H  33.56700 55.09700 24.47100
H  34.77200 55.98800 23.56000
H  34.90200 56.26700 21.50200
H  33.23800 55.66700 21.80100
H  33.78300 55.99800 20.19600
H  37.83000 49.78700 19.49300
H  37.09700 46.90800 20.04200
H  36.15700 49.59500 17.87200
H  34.94500 49.37000 19.09300
H  35.93200 48.09000 18.39900
H  39.21200 47.95300 19.16900
H  39.30200 46.53800 20.06900
H  40.23900 47.63500 22.02700
H  39.83000 49.24100 21.34900
H  41.21000 48.28700 20.65400
H  39.09500 44.47900 24.22900
H  37.41900 43.73000 24.26700
H  38.50000 43.72700 25.61600
H  37.15700 47.78200 29.23900
H  33.78700 45.02500 30.57600
H  33.80200 46.69300 31.04900
H  34.74600 45.52100 32.01400
Mg -2.03500 34.50600 27.20200
C  -3.26400 32.06000 29.54800
C  -0.91100 36.27100 29.90500
C  -0.52800 36.63800 24.97700
C  -3.05600 32.52900 24.59100
N  -1.88800 34.07000 29.46500
C  -2.41700 33.01200 30.16800
C  -2.31700 33.21600 31.64600
C  -1.66900 34.61800 31.75200
C  -1.45900 35.05200 30.23700
C  -2.52400 35.68600 32.53900
C  -1.49800 32.11300 32.31600
C  -2.01500 31.47600 33.62500
H  -1.14800 31.71700 34.96200
N  -0.92100 36.23500 27.41300
C  -0.59300 36.80900 28.60300
C  0.32200 37.86700 28.30400
C  0.32400 38.08600 26.88900
C  -0.38300 36.94600 26.36500
C  1.10200 38.70500 29.36300
C  0.90800 39.24200 26.07900
O  0.79400 39.46700 24.90900
C  2.06500 40.11300 26.67300
N  -2.06900 34.69300 25.15500
C  -1.31800 35.63600 24.47600
C  -1.30800 35.40300 22.99000
C  -2.13000 34.08400 22.81100
C  -2.46800 33.74300 24.24900
C  -1.87700 36.62900 22.13000
C  -1.42200 32.89500 21.97000
C  -0.39400 31.92500 22.65800
N  -3.05500 32.73100 27.09300
C  -3.45800 32.10200 25.95600
C  -4.17300 30.85900 26.31900
C  -4.09700 30.80900 27.69800
C  -3.42400 31.95100 28.16600
C  -4.74200 29.88400 25.36400
C  -4.49600 30.07800 28.88900
O  -5.24100 29.12100 28.93200
C  -3.88100 30.73900 30.09300
C  -4.90800 31.06300 31.05600
O  -5.69600 32.02000 30.89600
O  -4.94900 30.19600 32.12500
C  -5.68100 30.83600 33.16100
H  -0.53500 36.76900 30.80100
H  0.05800 37.22700 24.26800
H  -3.34600 31.88800 23.75600
H  -3.31400 33.20900 32.08600
H  -0.64800 34.59600 32.13200
H  -2.77100 35.26900 33.51500
H  -3.41200 36.03300 32.01100
H  -1.93700 36.59300 32.68700
H  -0.53800 32.54200 32.60300
H  -1.15300 31.42100 31.54800
H  -2.14000 30.39400 33.58600
H  -2.91100 31.98500 33.98100
H  1.05900 38.29200 30.37100
H  0.63500 39.68500 29.27300
H  2.17300 38.76000 29.17000
H  1.59300 40.88800 27.27600
H  2.77400 40.47500 25.92800
H  2.68700 39.60800 27.41200
H  -0.29000 35.21800 22.64800
H  -3.05000 34.28800 22.26300
H  -2.94400 36.75300 21.94500
H  -1.36400 36.63700 21.16800
H  -1.36800 37.49400 22.55400
H  -0.93300 33.26000 21.06600
H  -2.24700 32.26600 21.63500
H  -0.14300 32.28100 23.65700
H  0.47100 31.93600 21.99400
H  -0.86100 30.94000 22.65700
H  -4.69700 28.87800 25.78200
H  -4.43700 29.87600 24.31800
H  -5.79100 30.17700 25.31900
H  -3.12200 30.16900 30.62900
H  -5.06300 31.62600 33.58800
H  -5.76500 30.05700 33.91800
H  -6.70100 31.09000 32.87100

