158

Mg 35.98000 49.18200 25.72400
C  36.10200 47.15400 28.53000
C  34.47000 51.58700 27.61400
C  35.78300 51.00600 22.96500
C  36.79800 46.39100 23.79600
N  35.18500 49.22800 27.86900
C  35.52300 48.46900 28.86800
C  35.18200 49.00900 30.22700
C  34.41600 50.32700 29.89500
C  34.66300 50.42800 28.35700
C  32.98900 50.46600 30.33300
C  36.39900 49.02600 31.10200
C  36.18500 48.72900 32.54000
H  34.79000 48.92700 33.13600
N  35.37900 51.08800 25.39200
C  34.76200 51.92000 26.30400
C  34.57200 53.20200 25.69000
C  35.02200 53.10400 24.31300
C  35.48000 51.70300 24.17100
C  34.03700 54.37000 26.36700
C  35.06700 54.15100 23.27800
O  35.51700 53.87300 22.16500
C  34.62300 55.49000 23.49900
N  36.03900 48.66500 23.66300
C  36.03700 49.64700 22.71800
C  36.11100 49.05100 21.30500
C  36.53500 47.61800 21.62100
C  36.52300 47.53200 23.14000
C  34.81100 49.05900 20.42800
C  37.91600 47.17000 20.90900
C  39.21300 47.87400 21.41400
N  36.33600 47.17200 26.03100
C  36.72200 46.20700 25.22600
C  37.10000 44.99200 25.95500
C  36.91000 45.33300 27.27100
C  36.42300 46.62500 27.25900
C  37.66800 43.68000 25.38100
C  37.03200 44.87600 28.69700
O  37.49900 43.84000 29.16900
C  36.62700 46.07300 29.57800
C  35.50800 45.66600 30.43300
O  34.31700 45.46400 30.09200
O  35.92900 45.32500 31.68300
C  35.00100 44.83000 32.71300
H  33.93600 52.33100 28.20800
H  35.74400 51.52100 22.00200
H  37.12600 45.54900 23.18400
H  34.44600 48.29200 30.59200
H  35.03900 51.12400 30.30000
H  32.81000 51.37100 30.91300
H  32.75000 49.54700 30.86800
H  32.30200 50.50900 29.48700
H  36.82700 50.02400 31.01400
H  37.21400 48.46300 30.64800
H  36.87400 49.47000 32.94400
H  36.53900 47.71700 32.74100
H  33.47400 53.99200 27.22000
H  33.35300 54.99800 25.79600
H  34.91500 54.94300 26.66700
H  35.29300 55.94400 24.22900
H  33.57500 55.44200 23.79400
H  34.74400 56.11400 22.61300
H  36.92500 49.49700 20.73200
H  35.74000 46.92100 21.35600
H  34.59800 48.11800 19.92100
H  34.98400 49.82900 19.67600
H  33.90700 49.30300 20.98500
H  37.93300 47.36600 19.83600
H  38.04600 46.09100 20.99500
H  39.74900 47.05700 21.89600
H  38.99700 48.52900 22.25800
H  39.77900 48.40000 20.64400
H  38.59100 43.27500 25.79700
H  37.84000 43.71400 24.30500
H  36.97900 42.88100 25.65400
H  37.50300 46.34300 30.16900
H  34.59600 43.87300 32.38500
H  34.24300 45.60400 32.83200
H  35.60000 44.74400 33.62000
Mg -0.42000 43.13200 26.60800
C  1.47000 43.45700 29.42000
C  -3.06300 41.89600 28.60400
C  -2.21600 42.32900 23.85800
C  2.43200 43.56100 24.66100
N  -0.66000 42.29000 28.77900
C  0.11300 42.96700 29.67400
C  -0.47400 43.15800 31.04600
C  -1.82300 42.33200 30.88500
C  -1.88200 42.08500 29.35600
C  -1.94800 41.07100 31.76400
C  -0.75100 44.65800 31.37300
C  -0.88000 45.04800 32.77900
H  -1.31300 43.93900 33.76900
N  -2.36900 42.26500 26.26900
C  -3.27300 42.02500 27.24100
C  -4.57300 41.73000 26.58000
C  -4.36900 41.81200 25.20300
C  -2.93900 42.11200 24.99200
C  -5.80100 41.64700 27.35100
C  -5.41400 41.77400 24.08200
O  -5.08800 41.89700 22.90600
C  -6.89300 41.42900 24.30800
N  0.04600 43.11900 24.66000
C  -0.90700 42.80700 23.68600
C  -0.29700 42.77800 22.22900
C  1.05200 43.58800 22.54600
C  1.21400 43.40000 24.04000
C  -0.19800 41.27600 21.69900
C  1.13300 45.11400 22.31200
C  2.37000 45.52200 21.53200
N  1.50500 43.46200 26.96500
C  2.64200 43.58800 26.07900
C  3.86300 43.74200 26.83200
C  3.41300 43.83400 28.14900
C  2.02700 43.59700 28.20800
C  5.20400 43.91300 26.37700
C  3.83200 44.03800 29.44600
O  4.92500 44.32600 29.86500
C  2.51000 43.90900 30.37700
C  2.86600 42.85700 31.34300
O  2.79100 41.66300 31.13600
O  3.21000 43.31700 32.54800
C  3.49300 42.31100 33.60700
H  -3.87500 41.53800 29.24100
H  -2.76000 42.00400 22.96900
H  3.31400 43.82700 24.07400
H  0.21100 42.72200 31.77300
H  -2.69200 42.96500 31.06200
H  -2.58800 40.35600 31.24700
H  -2.28800 41.29400 32.77500
H  -0.93700 40.66800 31.82800
H  -1.67800 45.03800 30.94300
H  0.09200 45.25200 31.02100
H  -1.61900 45.84900 32.79500
H  0.04000 45.39100 33.25300
H  -6.74200 41.94100 26.88600
H  -5.75700 42.36700 28.16800
H  -5.81700 40.64900 27.78800
H  -6.74900 40.51700 24.88800
H  -7.35100 41.26100 23.33300
H  -7.36300 42.24500 24.85700
H  -0.95400 43.27100 21.51300
H  1.79100 43.03400 21.96700
H  -1.02500 41.29300 20.98800
H  -0.43200 40.44300 22.36200
H  0.78300 41.07800 21.26800
H  1.10400 45.72900 23.21200
H  0.22200 45.36700 21.77100
H  2.98400 44.72500 21.11300
H  3.01300 46.20700 22.08500
H  1.99700 46.02100 20.63800
H  5.47000 42.89900 26.08000
H  5.94000 44.23100 27.11600
H  5.23600 44.65500 25.57900
H  2.54700 44.86000 30.90800
H  2.64100 41.75600 33.99900
H  3.88700 42.76500 34.51600
H  4.23100 41.60900 33.21800

