158

Mg 9.20300 47.33600 27.13300
C  7.09500 46.82800 29.92000
C  11.80600 47.95000 29.08600
C  10.92100 48.22300 24.31000
C  6.27100 47.15000 25.15300
N  9.41300 47.35600 29.24900
C  8.45300 47.07800 30.25800
C  9.09600 47.27200 31.64000
C  10.62200 47.52300 31.30100
C  10.65000 47.72700 29.78200
C  11.25100 48.62800 32.07600
C  8.77400 46.16200 32.65800
C  9.84100 45.70400 33.62800
H  9.34100 45.01800 34.95200
N  11.15700 47.76700 26.75500
C  12.10300 48.02400 27.69400
C  13.47000 48.11700 27.10500
C  13.13900 48.16700 25.69100
C  11.67700 48.02600 25.47800
C  14.77900 48.10200 27.90800
C  14.13400 48.17500 24.53800
O  13.79900 47.81500 23.43500
C  15.63400 48.40700 24.87800
N  8.62000 47.89100 25.01200
C  9.51000 48.17600 24.09600
C  8.83300 48.47300 22.75200
C  7.34100 47.85000 22.94900
C  7.36700 47.65900 24.47700
C  8.82900 50.01800 22.51400
C  7.11200 46.52100 22.14900
C  6.37900 46.61900 20.77000
N  7.07500 47.17200 27.43000
C  6.09400 47.00800 26.51400
C  4.84600 46.64900 27.15500
C  5.17400 46.62300 28.49900
C  6.51200 46.95000 28.61200
C  3.45400 46.36700 26.49700
C  4.64200 46.43300 29.78100
O  3.49000 46.18400 30.26500
C  5.86400 46.49500 30.77100
C  5.96300 45.13400 31.31300
O  6.60800 44.17600 30.90000
O  5.28700 45.11200 32.53400
C  5.11700 43.80300 33.14500
H  12.66200 48.19000 29.72000
H  11.44700 48.53300 23.40500
H  5.47800 47.02300 24.41300
H  8.78400 48.21200 32.09600
H  11.16300 46.58500 31.42400
H  12.24700 48.29500 32.36800
H  10.68900 49.05800 32.90500
H  11.36200 49.48100 31.40600
H  8.60500 45.36300 31.93600
H  7.84800 46.28400 33.21900
H  10.39600 46.61400 33.85400
H  10.51200 45.01500 33.11700
H  15.64100 47.66000 27.40900
H  14.62600 47.85900 28.96000
H  15.00900 49.16600 27.96800
H  15.65800 49.12000 25.70300
H  16.20300 48.72800 24.00600
H  16.17500 47.53600 25.24700
H  9.40400 48.01000 21.94800
H  6.52500 48.53000 22.70600
H  7.84100 50.46600 22.61900
H  9.13600 50.18700 21.48200
H  9.54200 50.46300 23.20700
H  6.56700 45.81200 22.77300
H  8.10800 46.09100 22.04500
H  7.05300 46.11400 20.07800
H  6.24700 47.61800 20.35500
H  5.40900 46.12800 20.68600
H  3.02700 45.56300 27.09600
H  3.50000 46.15500 25.42900
H  2.78700 47.22400 26.59300
H  5.66500 47.28500 31.49500
H  4.96300 44.03600 34.19900
H  5.98900 43.15300 33.08100
H  4.25100 43.16900 32.95500
Mg -5.20700 24.99200 26.47900
C  -3.76900 26.40100 29.37600
C  -6.36700 22.41100 28.55600
C  -6.19800 23.34200 23.69200
C  -3.61900 27.29600 24.58200
N  -5.07400 24.45400 28.74500
C  -4.46200 25.21700 29.68500
C  -4.84100 24.71600 31.08800
C  -5.37200 23.31600 30.76500
C  -5.69500 23.39300 29.26200
C  -4.24300 22.32500 31.02300
C  -5.90800 25.69500 31.63600
C  -5.67200 26.28500 33.00200
H  -5.52600 25.26000 34.11400
N  -6.29900 23.30300 26.17700
C  -6.66700 22.35100 27.13500
C  -7.26700 21.19900 26.53200
C  -7.42700 21.48400 25.16800
C  -6.63300 22.80400 24.92600
C  -7.72800 20.14200 27.40500
C  -8.15300 20.78500 24.01700
O  -8.18300 21.25600 22.89200
C  -9.01700 19.57900 24.32800
N  -4.97300 25.24000 24.40100
C  -5.52900 24.50500 23.38900
C  -5.14000 24.95400 21.98800
C  -4.53600 26.41800 22.36300
C  -4.44600 26.40400 23.90800
C  -4.01800 24.05400 21.36000
C  -5.32800 27.75300 21.97300
C  -6.28900 27.76400 20.81100
N  -3.81300 26.41500 26.85000
C  -3.24800 27.31800 25.93400
C  -2.33700 28.22700 26.65400
C  -2.65500 27.96000 28.03400
C  -3.51100 26.84600 28.06000
C  -1.45300 29.32400 26.10800
C  -2.40100 28.36800 29.37200
O  -1.64400 29.27400 29.74200
C  -3.11300 27.34400 30.31800
C  -2.03600 26.80500 31.14100
O  -1.12300 26.01700 30.87500
O  -2.33300 27.21400 32.40000
C  -1.47500 26.81100 33.48800
H  -6.73100 21.59600 29.18500
H  -6.34900 22.62700 22.88100
H  -3.15000 28.03400 23.92700
H  -3.99300 24.84800 31.75900
H  -6.13400 23.02400 31.48800
H  -3.98000 21.91400 30.04800
H  -4.61300 21.51400 31.65100
H  -3.28700 22.68700 31.40000
H  -6.83200 25.11900 31.64600
H  -6.03400 26.51900 30.93400
H  -6.55300 26.91500 33.12600
H  -4.72100 26.81600 33.04400
H  -8.46500 20.58300 28.07700
H  -6.89300 19.85400 28.04300
H  -8.21100 19.32700 26.86600
H  -9.56100 19.93000 25.20600
H  -8.36100 18.73300 24.53200
H  -9.61200 19.10700 23.54600
H  -5.96300 24.99900 21.27400
H  -3.55600 26.42700 21.88700
H  -3.19500 24.65900 20.97900
H  -4.54600 23.51100 20.57600
H  -3.66300 23.28700 22.04800
H  -4.50800 28.45200 21.81100
H  -5.92200 28.09800 22.81900
H  -6.02900 27.10200 19.98500
H  -6.30200 28.75000 20.34500
H  -7.27700 27.52000 21.20200
H  -1.83700 29.61400 25.13100
H  -0.39300 29.10000 25.98700
H  -1.39100 30.23900 26.69700
H  -3.82400 27.84400 30.97500
H  -0.82300 27.67900 33.58800
H  -0.88100 25.93900 33.21700
H  -2.02500 26.63900 34.41400

