158

Mg 46.86200 34.90700 26.21800
C  45.37700 33.77600 29.00400
C  47.59100 37.91400 27.74200
C  48.12400 36.06800 23.25100
C  46.10800 31.85400 24.59000
N  46.46000 35.74600 28.09500
C  46.04500 35.00300 29.13000
C  46.12200 35.80900 30.43300
C  46.65900 37.23000 29.97100
C  46.95900 36.88100 28.53800
C  45.67500 38.46600 30.05400
C  47.10900 35.11000 31.40600
C  46.81400 35.09700 32.89000
H  45.95800 36.21200 33.49000
N  47.77200 36.79400 25.57200
C  47.88100 37.88900 26.33700
C  48.49400 38.92900 25.56600
C  48.72900 38.41200 24.25000
C  48.27700 37.02200 24.33100
C  48.83900 40.24600 26.13600
C  49.34000 39.12000 23.01900
O  49.52400 38.60300 21.87600
C  50.04700 40.41900 23.22200
N  46.94600 34.14300 24.16200
C  47.68700 34.78800 23.18100
C  47.73700 33.93200 21.92400
C  46.95700 32.59000 22.29100
C  46.74700 32.80100 23.78400
C  47.25700 34.57800 20.63200
C  47.87500 31.34100 22.08300
C  48.56700 31.18100 20.71300
N  45.91200 33.14100 26.63800
C  45.66600 31.98200 25.88800
C  44.95100 31.11400 26.69000
C  44.72600 31.75500 27.87700
C  45.39100 32.99700 27.83300
C  44.62100 29.73800 26.27700
C  44.14400 31.58600 29.17500
O  43.46000 30.70800 29.64700
C  44.59900 32.95400 29.97600
C  45.17800 32.37500 31.20100
O  46.26700 31.81300 31.35700
O  44.20900 32.54000 32.16100
C  44.40900 31.69300 33.33800
H  47.89400 38.78600 28.32400
H  48.42500 36.52300 22.30400
H  45.88500 30.92800 24.05600
H  45.13400 35.83100 30.89200
H  47.53700 37.60800 30.49500
H  44.69300 38.25500 30.47700
H  45.51100 38.91200 29.07300
H  46.08000 39.25100 30.69300
H  48.10100 35.56200 31.38100
H  47.18200 34.09100 31.02700
H  47.81200 35.16100 33.32500
H  46.36100 34.15400 33.19400
H  48.38800 41.11700 25.66000
H  49.89700 40.47900 26.25200
H  48.38000 40.34800 27.12000
H  49.31500 41.22500 23.16700
H  50.84700 40.64800 22.51800
H  50.50000 40.48800 24.21100
H  48.80700 33.81100 21.75200
H  46.05300 32.44200 21.70000
H  46.63400 35.42700 20.91100
H  46.62700 33.81400 20.17400
H  48.08300 34.87400 19.98600
H  47.30300 30.44000 22.30600
H  48.64600 31.30900 22.85200
H  49.28900 30.36800 20.78800
H  49.18900 32.03900 20.45900
H  47.79800 31.03700 19.95400
H  43.60000 29.77500 25.89900
H  44.62800 28.97700 27.05800
H  45.35200 29.40500 25.54000
H  43.67400 33.49100 30.18500
H  44.63100 32.48400 34.05400
H  45.12200 30.86800 33.31000
H  43.40500 31.31700 33.53500
Mg 40.36000 41.20400 26.80300
C  39.72400 43.52000 29.38900
C  41.58500 39.06500 29.15700
C  41.63000 39.21700 24.28000
C  39.74000 43.69700 24.46500
N  40.71700 41.33100 28.95500
C  40.27100 42.32100 29.87200
C  40.48300 41.93800 31.36000
C  41.14300 40.53500 31.19200
C  41.17400 40.29600 29.65700
C  42.50400 40.37200 31.86300
C  39.18400 41.97700 32.16700
C  39.10400 42.74600 33.53200
H  38.69800 42.00400 34.79200
N  41.45100 39.39300 26.69700
C  41.81200 38.63900 27.81700
C  42.39000 37.45800 27.39100
C  42.38900 37.40100 25.97200
C  41.83200 38.71600 25.59000
C  42.96900 36.40800 28.26400
C  42.84600 36.30900 25.02500
O  42.83700 36.39000 23.78100
C  43.40200 34.98400 25.49400
N  40.73700 41.45900 24.67100
C  41.13100 40.47500 23.86300
C  40.88900 40.70300 22.33900
C  40.04900 42.03000 22.42200
C  40.17200 42.44300 23.97600
C  42.06000 40.65800 21.29600
C  38.57100 42.03700 21.96100
C  37.61400 41.27900 22.87600
N  39.84900 43.19000 26.84400
C  39.49800 44.07500 25.80800
C  38.97000 45.25200 26.42300
C  39.02800 45.04600 27.83100
C  39.56600 43.78400 28.00400
C  38.56100 46.43500 25.57100
C  38.81800 45.75300 29.04200
O  38.33800 46.90600 29.22800
C  39.24100 44.75100 30.14000
C  40.38000 45.31000 30.99900
O  41.50100 45.62700 30.63300
O  39.91300 45.47500 32.25300
C  40.85700 45.95100 33.23300
H  41.85800 38.28900 29.87500
H  42.06500 38.65700 23.45000
H  39.41500 44.51900 23.82400
H  41.18200 42.66800 31.76700
H  40.56900 39.71100 31.61600
H  42.60300 41.28800 32.44600
H  43.30600 40.37800 31.12400
H  42.60700 39.51800 32.53200
H  38.97300 40.92300 32.34900
H  38.34300 42.33500 31.57400
H  38.39300 43.57200 33.52900
H  40.09200 43.19100 33.65500
H  42.34500 35.52000 28.16300
H  42.99800 36.76400 29.29400
H  44.02400 36.26500 28.03300
H  44.13200 35.17400 26.28000
H  43.99600 34.63300 24.65000
H  42.62000 34.28000 25.78100
H  40.20900 39.88300 22.10600
H  40.61000 42.87300 22.01900
H  42.91900 40.19100 21.77600
H  42.29600 41.66200 20.94300
H  41.78300 40.10000 20.40100
H  38.58500 41.46800 21.03200
H  38.23200 43.05300 21.75800
H  36.96100 42.03300 23.31700
H  38.21600 40.65000 23.53200
H  37.07000 40.57500 22.24700
H  38.10800 47.19100 26.21400
H  37.91100 46.06600 24.77800
H  39.50100 46.77900 25.13900
H  38.53100 44.35600 30.86700
H  40.37700 46.66100 33.90700
H  41.77700 46.35000 32.80500
H  41.08200 45.08400 33.85500

