158

Mg 29.61100 57.36100 40.97400
C  26.74000 55.42800 39.95000
C  31.51200 54.84100 39.61500
C  32.02200 59.59300 40.80000
C  27.24100 59.94900 41.68300
N  29.14700 55.34700 39.86200
C  27.92000 54.77100 39.60100
C  28.02400 53.54100 38.62200
C  29.57600 53.19300 38.89100
C  30.11600 54.51300 39.44600
C  29.92500 52.10700 39.97000
C  27.88400 53.97300 37.15800
C  26.76700 53.25300 36.34900
H  25.96400 54.14800 35.48000
N  31.54400 57.24300 40.39700
C  32.15500 56.07100 39.95300
C  33.52900 56.39700 39.74500
C  33.77800 57.75600 40.17400
C  32.38900 58.28300 40.47700
C  34.54400 55.28600 39.26500
C  35.14500 58.45900 40.29300
O  36.14600 57.90900 39.87300
C  35.27600 59.73100 40.92300
N  29.63400 59.56100 41.05000
C  30.76600 60.19900 41.04200
C  30.59600 61.68400 41.40400
C  29.02900 61.77900 41.63600
C  28.55200 60.38400 41.46600
C  31.53700 62.26000 42.49600
C  28.23900 62.69900 40.65200
C  27.42800 63.90000 41.22700
N  27.44700 57.62100 41.09800
C  26.69300 58.70700 41.39100
C  25.28400 58.36400 41.17600
C  25.22200 57.06900 40.65300
C  26.59200 56.70500 40.52100
C  24.13100 59.29400 41.26100
C  24.42300 55.98000 40.15900
O  23.23200 55.79100 40.11800
C  25.33300 54.91500 39.59300
C  25.04000 53.67900 40.26000
O  25.19900 53.32600 41.45400
O  24.48400 52.89200 39.37700
C  23.66000 51.69000 39.82600
H  32.13000 53.98400 39.34000
H  32.82900 60.31200 40.64200
H  26.60600 60.77200 42.01700
H  27.35800 52.77900 39.02800
H  30.25300 52.85100 38.10900
H  30.47600 52.61000 40.76400
H  30.49600 51.22100 39.69300
H  28.98600 51.77600 40.41300
H  28.87600 53.83100 36.73000
H  27.60000 55.02300 37.22700
H  26.05500 52.72100 36.97900
H  27.28400 52.52600 35.72200
H  34.36000 54.87200 38.27300
H  34.52300 54.41100 39.91500
H  35.56100 55.65800 39.38200
H  35.20000 60.62500 40.30400
H  36.26800 59.75800 41.37300
H  34.66600 59.86200 41.81700
H  30.77300 62.31800 40.53500
H  28.85600 62.10500 42.66100
H  31.09000 63.06300 43.08100
H  32.54600 62.47600 42.14300
H  31.72900 61.46600 43.21800
H  27.52200 62.11800 40.07200
H  28.86600 63.16900 39.89500
H  27.25800 63.60000 42.26100
H  26.41400 63.93900 40.82800
H  27.88400 64.88300 41.11200
H  24.29300 59.70100 40.26200
H  24.03400 60.01500 42.07100
H  23.21300 58.71300 41.17500
H  25.31500 54.80700 38.50800
H  22.68400 51.99700 39.45100
H  23.53000 51.47500 40.88700
H  23.94600 50.77700 39.30400
Mg 16.20800 52.22500 26.69400
C  18.24100 51.03400 29.31800
C  14.00000 53.37000 28.94100
C  14.49600 53.57700 24.17700
C  18.54200 51.01000 24.36000
N  16.11500 52.09300 28.89800
C  17.03400 51.71500 29.85500
C  16.64900 52.04700 31.29100
C  15.13700 52.52600 31.00500
C  15.06500 52.71000 29.52900
C  13.94100 51.83000 31.64000
C  17.51800 53.06000 31.96800
C  17.71500 52.89900 33.46000
H  16.61200 52.04700 34.20400
N  14.46100 53.18100 26.56800
C  13.70600 53.60800 27.62200
C  12.45000 54.30900 27.12100
C  12.61700 54.33700 25.73900
C  13.87000 53.69100 25.43800
C  11.31800 54.74300 27.95400
C  11.70800 54.89800 24.77200
O  11.93900 54.88100 23.57000
C  10.27800 55.43300 25.17900
N  16.39100 52.09900 24.56200
C  15.59600 52.86900 23.74000
C  16.16400 52.93800 22.26800
C  17.58400 52.24900 22.43200
C  17.49100 51.67200 23.82800
C  15.25700 52.22600 21.23600
C  18.82900 53.08400 22.08300
C  20.01800 52.33400 21.52500
N  17.92700 51.13500 26.81600
C  18.76900 50.67500 25.73500
C  19.79700 49.94400 26.34000
C  19.60900 50.06300 27.69300
C  18.53100 50.83800 27.99500
C  20.96700 49.20900 25.64100
C  20.21500 49.60100 28.90000
O  21.19100 48.94600 29.22300
C  19.32600 50.26000 30.06200
C  18.70200 49.18800 30.93800
O  18.24100 48.16300 30.53000
O  18.96000 49.55300 32.20500
C  18.78900 48.50200 33.25300
H  13.35500 53.75000 29.73600
H  13.98700 54.03300 23.32600
H  19.30700 50.69000 23.65000
H  16.64400 51.08200 31.79700
H  15.09300 53.47000 31.54800
H  13.19500 51.56200 30.89300
H  13.53000 52.45400 32.43400
H  14.23500 50.90000 32.12700
H  17.16400 54.05300 31.68900
H  18.52900 52.97500 31.57100
H  17.68100 53.84400 34.00200
H  18.66300 52.45100 33.75800
H  10.93300 55.70800 27.62700
H  11.45400 54.79300 29.03500
H  10.41400 54.14100 27.86500
H  9.73800 54.82000 25.90100
H  9.54500 55.50300 24.37500
H  10.47300 56.41700 25.60500
H  16.25900 54.00100 22.04600
H  17.56200 51.47700 21.66300
H  15.81500 51.66600 20.48600
H  14.65800 52.99700 20.75200
H  14.54700 51.52500 21.67500
H  19.30200 53.55200 22.94600
H  18.58500 53.92500 21.43300
H  20.81700 52.28000 22.26400
H  20.45200 52.92100 20.71600
H  19.80500 51.29100 21.29100
H  21.00700 48.17200 25.97800
H  21.87500 49.77600 25.84400
H  20.89500 49.18400 24.55400
H  19.85000 51.03700 30.62000
H  19.27900 47.53300 33.15900
H  17.74200 48.26000 33.43300
H  19.18300 48.99400 34.14300

