158

Mg 16.74900 -1.87500 27.92200
C  15.81200 0.08400 30.71200
C  19.28200 -3.16600 29.89500
C  18.17000 -3.20300 25.18600
C  14.56500 0.05900 25.87900
N  17.46500 -1.48500 30.00500
C  16.85800 -0.80200 30.98700
C  17.28000 -1.18000 32.45700
C  18.59400 -2.01600 32.12000
C  18.50100 -2.21100 30.58000
C  19.85500 -1.27600 32.45400
C  16.14000 -1.73500 33.35900
C  16.07200 -1.17200 34.72300
H  17.31600 -0.46500 35.41100
N  18.35600 -3.06600 27.61100
C  19.20500 -3.62500 28.57000
C  20.14000 -4.57500 27.90400
C  19.80800 -4.57400 26.55600
C  18.73800 -3.58800 26.42900
C  21.19800 -5.34300 28.67700
C  20.46700 -5.27800 25.38500
O  20.16800 -5.09500 24.24400
C  21.56500 -6.31000 25.69700
N  16.41700 -1.56500 25.83100
C  17.10400 -2.33100 24.89300
C  16.68300 -1.93200 23.45300
C  15.33100 -1.10000 23.72600
C  15.41500 -0.86500 25.24700
C  17.66100 -1.16800 22.50600
C  14.00900 -1.87800 23.45500
C  13.57400 -1.72100 21.99900
N  15.39900 -0.34000 28.19400
C  14.60600 0.37700 27.26400
C  13.84800 1.39600 27.98300
C  14.28900 1.30300 29.32800
C  15.24600 0.27400 29.40600
C  12.83100 2.34700 27.43900
C  14.02200 1.86600 30.63600
O  13.16700 2.73600 31.00300
C  15.02500 1.03700 31.63800
C  15.81300 1.98900 32.44900
O  16.91800 2.53000 32.14100
O  15.14700 2.28300 33.62300
C  15.73400 3.25800 34.51700
H  20.11800 -3.56100 30.47600
H  18.37700 -3.70500 24.23900
H  13.99800 0.76000 25.26400
H  17.57200 -0.21700 32.87800
H  18.59800 -3.01100 32.56500
H  19.57900 -0.68700 33.32900
H  20.13000 -0.60400 31.64100
H  20.67500 -1.93800 32.73400
H  16.32700 -2.80700 33.42800
H  15.18900 -1.69800 32.82800
H  15.77100 -2.01300 35.34800
H  15.16300 -0.57700 34.80300
H  20.89600 -6.38800 28.60200
H  21.12300 -5.34900 29.76500
H  22.17300 -5.04500 28.29200
H  21.32800 -6.88500 26.59300
H  22.44500 -5.67300 25.78000
H  21.57200 -6.93600 24.80500
H  16.35400 -2.87500 23.01600
H  15.31800 -0.14900 23.19300
H  17.99300 -1.70100 21.61600
H  18.55600 -1.07600 23.12100
H  17.25800 -0.18700 22.25100
H  13.28400 -1.69400 24.24800
H  14.28100 -2.93200 23.50200
H  12.49900 -1.56300 21.91500
H  13.70500 -2.64900 21.44100
H  14.01800 -0.81000 21.59700
H  12.84400 3.25500 28.04200
H  11.89400 1.81300 27.59400
H  13.14900 2.62700 26.43400
H  14.34600 0.38200 32.18400
H  15.48300 4.25800 34.16400
H  16.79000 3.11900 34.74700
H  15.18800 3.03200 35.43300
Mg 9.65900 48.35400 26.15900
C  7.54700 48.31900 29.01200
C  12.12900 49.75800 28.06800
C  11.59800 48.47100 23.38200
C  6.84300 47.83000 24.21900
N  9.70000 49.03900 28.28900
C  8.84300 48.70200 29.29000
C  9.29500 49.21600 30.59700
C  10.70900 49.94400 30.19100
C  10.88600 49.60900 28.73500
C  10.81200 51.48100 30.49000
C  9.35000 48.17000 31.70700
C  10.01100 48.63700 33.01200
H  9.28200 48.42000 34.36100
N  11.64200 48.89400 25.79400
C  12.55000 49.37500 26.73600
C  13.92000 49.33000 26.15100
C  13.61500 49.12700 24.78500
C  12.22600 48.93000 24.57800
C  15.20500 49.68300 26.92100
C  14.56900 49.19500 23.64600
O  14.21400 49.20300 22.48200
C  16.06200 49.30300 23.96200
N  9.24700 48.24900 24.09900
C  10.23700 48.25900 23.12800
C  9.58700 47.83100 21.76500
C  8.15800 47.46100 22.11700
C  8.09000 47.77400 23.59800
C  9.72400 48.82300 20.54900
C  7.84600 46.00400 21.77600
C  8.47500 45.04100 22.72300
N  7.51000 48.14700 26.49900
C  6.51700 47.90700 25.57200
C  5.31800 47.59400 26.26300
C  5.64700 47.68900 27.61900
C  7.00500 48.02600 27.70700
C  3.93300 47.10000 25.79000
C  5.16300 47.60700 28.98700
O  4.03800 47.29100 29.36600
C  6.37300 47.99600 29.96900
C  6.55900 46.69200 30.60500
O  7.49000 45.93900 30.26300
O  5.65300 46.55900 31.60700
C  5.86600 45.36900 32.52400
H  12.90300 49.87600 28.82900
H  12.05000 48.42300 22.38900
H  5.99600 47.48000 23.62400
H  8.57900 49.98400 30.89000
H  11.51200 49.45200 30.74000
H  11.83100 51.63800 30.84200
H  10.11100 51.78100 31.26900
H  10.70100 51.95700 29.51500
H  9.92000 47.33300 31.30400
H  8.33800 47.85600 31.96100
H  10.14200 49.71900 32.98300
H  10.96900 48.14000 33.16600
H  15.96100 48.89800 26.93900
H  14.89300 49.87400 27.94800
H  15.55800 50.61000 26.46900
H  16.30800 48.58200 24.74100
H  16.32100 50.29300 24.33800
H  16.60100 49.07800 23.04200
H  10.04000 46.90200 21.41700
H  7.46500 48.03300 21.50000
H  10.15000 49.76600 20.89200
H  8.73300 49.01300 20.13900
H  10.41200 48.33200 19.86000
H  8.35600 45.71500 20.85700
H  6.75800 45.96700 21.83700
H  7.71300 44.55300 23.33100
H  9.20400 45.48100 23.40500
H  8.92700 44.24100 22.13800
H  4.02700 46.54800 24.85600
H  3.43800 48.05300 25.60500
H  3.29100 46.49700 26.43200
H  6.22200 48.84900 30.63200
H  5.96200 45.52600 33.59900
H  6.61600 44.63300 32.23500
H  4.99700 44.73600 32.34200

