158

Mg 8.95000 2.92200 27.57500
C  10.59400 1.47700 30.29400
C  7.61400 5.14900 29.68400
C  7.41900 4.21000 24.91300
C  10.29800 0.47800 25.54500
N  8.92000 3.14400 29.79900
C  9.73600 2.54900 30.70800
C  9.52800 3.15000 32.14700
C  8.53600 4.30900 31.89500
C  8.25000 4.14300 30.41800
C  7.26800 4.39600 32.76700
C  10.78100 3.72000 32.82600
C  10.53400 4.52600 34.09400
H  11.40100 4.22900 35.31900
N  7.77400 4.45900 27.28400
C  7.41200 5.32800 28.31100
C  6.58200 6.35600 27.75600
C  6.52400 6.17400 26.35900
C  7.17000 4.89200 26.10500
C  6.05900 7.55300 28.61100
C  5.90100 7.04600 25.28300
O  6.05100 6.81500 24.13200
C  5.14300 8.24200 25.72100
N  8.86200 2.49000 25.50600
C  8.05700 3.07700 24.58000
C  8.25100 2.51000 23.22400
C  9.33200 1.42000 23.40900
C  9.62100 1.50900 24.93000
C  6.99100 2.09000 22.56400
C  10.61500 1.45400 22.44400
C  10.75000 0.40500 21.32900
N  10.20500 1.29900 27.83100
C  10.61100 0.40700 26.90400
C  11.38500 -0.59200 27.47300
C  11.47200 -0.21300 28.83100
C  10.72800 0.95500 28.96300
C  12.03000 -1.74600 26.81800
C  11.94800 -0.53100 30.16100
O  12.57900 -1.42700 30.71200
C  11.36700 0.58100 31.11400
C  10.45100 -0.07600 32.14000
O  9.44700 -0.71800 31.93400
O  10.90000 0.31300 33.36400
C  10.20300 -0.27400 34.49500
H  7.14100 5.91000 30.30700
H  6.98700 4.71000 24.04400
H  10.48400 -0.42700 24.96200
H  9.16200 2.37800 32.82400
H  9.03200 5.27900 31.87000
H  6.33100 4.34100 32.21200
H  7.25800 5.37800 33.23900
H  7.23500 3.68100 33.58800
H  11.31800 4.28800 32.06700
H  11.53500 2.97800 33.08800
H  9.47600 4.39700 34.32100
H  10.50600 5.60300 33.92700
H  6.50200 8.52800 28.40700
H  5.86700 7.30100 29.65300
H  5.01100 7.70900 28.35600
H  5.90100 8.74400 26.32200
H  4.25800 7.96800 26.29500
H  4.66500 8.74300 24.88000
H  8.64800 3.34900 22.65300
H  8.84800 0.45200 23.27700
H  7.01200 1.08200 22.15100
H  6.78400 2.77100 21.73800
H  6.18000 2.20100 23.28400
H  11.49800 1.36100 23.07600
H  10.80500 2.43500 22.00900
H  9.79000 -0.05900 21.10800
H  11.42600 -0.38700 21.65300
H  11.19300 0.68500 20.37300
H  12.85900 -1.33500 26.24200
H  11.45200 -2.34000 26.11000
H  12.32600 -2.30800 27.70400
H  12.15000 1.14200 31.62600
H  9.28700 -0.82500 34.27800
H  9.93100 0.40200 35.30600
H  10.85700 -0.99100 34.99300
Mg 29.68400 60.10000 40.13100
C  26.64700 58.60800 39.01900
C  31.25900 57.23000 38.85800
C  32.66500 61.69400 40.08800
C  27.99000 62.85400 40.88800
N  29.02500 58.19800 39.01800
C  27.75000 57.79500 38.64100
C  27.67000 56.41200 37.92600
C  29.09900 55.85700 38.40700
C  29.84900 57.18700 38.71400
C  29.05700 54.88200 39.60700
C  27.47800 56.46500 36.35900
C  26.21600 55.69400 35.92500
H  25.68400 55.98300 34.54200
N  31.75100 59.47800 39.64800
C  32.11100 58.27300 39.20400
C  33.54600 58.15500 39.22900
C  34.03100 59.49600 39.63600
C  32.86800 60.28800 39.83300
C  34.30700 56.93700 38.95400
C  35.49700 59.90000 39.87200
O  36.42300 59.12700 39.49900
C  35.83200 61.16500 40.41500
N  30.25300 62.10900 40.25400
C  31.53500 62.51300 40.27800
C  31.54100 64.04500 40.62900
C  30.03400 64.40000 40.90700
C  29.38200 63.03800 40.68300
C  32.48900 64.37900 41.85700
C  29.40100 65.57400 40.10500
C  28.98800 66.75900 40.97400
N  27.78600 60.57300 40.06800
C  27.16400 61.74100 40.56500
C  25.77900 61.59300 40.59400
C  25.54300 60.34600 40.04700
C  26.73800 59.78100 39.73400
C  24.70500 62.54600 41.00800
C  24.46700 59.45600 39.60500
O  23.28900 59.56200 39.76700
C  25.13000 58.30100 38.81700
C  24.64900 57.12800 39.50700
O  25.09100 56.67400 40.56800
O  23.70200 56.53400 38.80100
C  23.06900 55.33300 39.39300
H  31.65600 56.25100 38.58300
H  33.60300 62.23800 40.21700
H  27.33800 63.66400 41.22200
H  26.89000 55.71300 38.22600
H  29.72500 55.31300 37.69900
H  28.04600 54.71400 39.97600
H  29.57500 55.30400 40.46800
H  29.46900 53.91300 39.32600
H  28.33300 56.06700 35.81300
H  27.27400 57.49100 36.05600
H  25.45300 56.11600 36.58000
H  26.29300 54.61500 36.06300
H  34.76900 56.77300 37.98100
H  33.87700 55.99200 39.28700
H  35.06500 56.99400 39.73600
H  36.89900 61.03500 40.59700
H  35.18900 61.17800 41.29400
H  35.58500 61.92600 39.67500
H  31.80400 64.54300 39.69600
H  29.82600 64.56200 41.96500
H  31.87600 64.84100 42.63100
H  33.15400 65.15100 41.46800
H  33.01800 63.48700 42.19400
H  28.60400 65.21800 39.45100
H  30.14800 66.07100 39.48600
H  28.03800 66.61100 41.48800
H  28.88200 67.67700 40.39700
H  29.66300 66.81000 41.82800
H  24.48200 63.29600 40.24900
H  25.07300 63.05900 41.89600
H  23.74800 62.12700 41.32000
H  24.86000 58.23200 37.76300
H  22.09900 55.67400 39.75500
H  23.47500 54.96900 40.33800
H  22.99800 54.53500 38.65400

