158

Mg 49.01300 34.60000 27.57700
C  47.17700 33.55900 30.24200
C  49.70000 37.45800 29.38500
C  50.92900 35.81600 24.98000
C  47.81500 32.18000 25.63300
N  48.64900 35.26000 29.62700
C  47.95100 34.62700 30.62600
C  48.21900 35.20000 31.98100
C  48.55800 36.66400 31.51000
C  49.01700 36.49500 30.06600
C  47.34100 37.68400 31.69300
C  49.44000 34.45600 32.71200
C  49.44500 34.64800 34.28200
H  48.50400 35.62800 34.95600
N  50.22500 36.32700 27.27300
C  50.33100 37.41500 28.16900
C  51.20200 38.38000 27.58500
C  51.66800 37.83500 26.36300
C  50.94000 36.62500 26.12500
C  51.43700 39.72000 28.22800
C  52.76100 38.37000 25.33700
O  53.01900 37.87100 24.25000
C  53.57300 39.58100 25.68400
N  49.23900 34.13200 25.52900
C  50.10800 34.75000 24.71900
C  50.36000 33.92200 23.47400
C  49.40200 32.70100 23.61600
C  48.74500 33.01300 24.99000
C  50.27000 34.74900 22.08900
C  50.17800 31.34400 23.68700
C  49.30400 30.14400 23.15300
N  47.76800 33.00500 27.89500
C  47.29000 32.09700 26.94300
C  46.36700 31.17400 27.52900
C  46.34800 31.65600 28.89000
C  47.13200 32.80700 29.05000
C  45.81200 29.89900 26.92800
C  45.75800 31.45300 30.19300
O  44.95000 30.61100 30.58700
C  46.16300 32.68400 31.08900
C  46.68100 32.04200 32.33900
O  47.47700 31.15500 32.37300
O  46.26000 32.74000 33.44600
C  46.65900 32.08300 34.70400
H  49.94200 38.29200 30.04800
H  51.66500 36.01400 24.19800
H  47.40400 31.43100 24.95200
H  47.34500 35.15700 32.63000
H  49.36400 37.08800 32.10900
H  46.59300 37.24700 32.35400
H  46.93200 37.95200 30.71900
H  47.69100 38.65000 32.05700
H  50.38500 34.90500 32.40700
H  49.48800 33.45300 32.28800
H  50.44700 34.98700 34.54700
H  49.36800 33.65000 34.71400
H  52.45300 39.78200 28.61800
H  50.86500 39.97000 29.12100
H  51.22200 40.51800 27.51700
H  52.87300 40.36200 25.98200
H  54.21600 39.86100 24.84900
H  54.06400 39.12700 26.54500
H  51.39400 33.57600 23.48700
H  48.58300 32.78100 22.90100
H  51.24100 35.01800 21.67300
H  49.75600 35.70200 22.21000
H  49.60800 34.26200 21.37300
H  50.53200 31.24300 24.71300
H  51.00800 31.30400 22.98200
H  49.87900 29.62500 22.38700
H  48.37200 30.45700 22.68100
H  49.04200 29.44400 23.94600
H  46.48200 29.06300 27.12800
H  45.58400 29.99300 25.86600
H  44.88500 29.74400 27.48000
H  45.27900 33.24300 31.39600
H  46.34700 32.59700 35.61300
H  47.71600 31.83000 34.78300
H  46.03200 31.19800 34.81000
Mg -12.73100 17.00700 41.31100
C  -9.63800 15.25500 41.20800
C  -11.36200 19.38000 39.20400
C  -15.86300 18.36500 40.90300
C  -14.23800 13.98200 42.04900
N  -10.74800 17.20900 40.26100
C  -9.56100 16.51500 40.58300
C  -8.41600 17.01800 39.64100
C  -9.00100 18.36500 39.11200
C  -10.50300 18.30200 39.54000
C  -8.20600 19.67600 39.60200
C  -7.97400 16.03900 38.49300
C  -6.44400 16.04100 38.25800
H  -5.96700 16.42000 36.90800
N  -13.43700 18.79000 40.44700
C  -12.72600 19.54200 39.54800
C  -13.56400 20.65000 39.19100
C  -14.88200 20.32700 39.60800
C  -14.75900 19.11800 40.33400
C  -13.14400 21.86100 38.32000
C  -16.07900 21.15400 39.39300
O  -16.09700 22.16800 38.69800
C  -17.33000 21.06100 40.21100
N  -14.76700 16.27900 41.40400
C  -15.89300 17.06400 41.37300
C  -17.17900 16.20000 41.67300
C  -16.59800 14.76500 41.79200
C  -15.08000 14.99900 41.78300
C  -17.86100 16.69600 43.01400
C  -17.09200 13.71900 40.68300
C  -17.18400 12.25500 41.00000
N  -12.04600 15.00200 41.67400
C  -12.81700 13.89500 41.93100
C  -12.00700 12.75900 42.15600
C  -10.68900 13.25700 41.96900
C  -10.78800 14.58200 41.69800
C  -12.45800 11.42100 42.57000
C  -9.29100 12.88200 41.92800
O  -8.73200 11.80300 42.12300
C  -8.51500 14.12500 41.40100
C  -7.49800 14.67500 42.31800
O  -7.60600 15.57800 43.14400
O  -6.32500 13.88400 42.09400
C  -5.13500 14.55500 42.64000
H  -10.76300 20.01300 38.54600
H  -16.82200 18.70400 40.50500
H  -14.81800 13.07400 42.22300
H  -7.54100 17.20200 40.26400
H  -8.87000 18.46700 38.03500
H  -8.10000 20.32600 38.73400
H  -7.23200 19.41600 40.01600
H  -8.77500 20.23500 40.34500
H  -8.38100 16.42200 37.55800
H  -8.37800 15.03200 38.59400
H  -6.12600 15.01800 38.45800
H  -5.92900 16.61000 39.03300
H  -13.93200 22.22700 37.66200
H  -12.28600 21.60100 37.70000
H  -12.83900 22.78600 38.81000
H  -17.08200 20.80800 41.24200
H  -18.00900 20.39900 39.67400
H  -17.89600 21.99000 40.28500
H  -17.85900 16.14800 40.82300
H  -16.70700 14.34800 42.79300
H  -17.32900 17.52600 43.47800
H  -17.91000 15.88000 43.73500
H  -18.85600 17.06000 42.75600
H  -16.38200 13.62300 39.86200
H  -17.94500 14.12100 40.13700
H  -16.49800 11.67300 40.38500
H  -18.14900 11.81300 40.75200
H  -16.86900 12.12500 42.03500
H  -13.36200 11.19000 42.00700
H  -12.61100 11.53700 43.64300
H  -11.59800 10.75800 42.47400
H  -7.98900 13.92500 40.46700
H  -4.27500 14.02500 42.23100
H  -5.17500 14.67000 43.72400
H  -5.09000 15.58300 42.27900

