158

Mg 17.38400 -0.77900 28.61400
C  15.80800 0.90200 31.35700
C  19.22300 -2.54100 30.88300
C  18.78300 -2.27600 26.06700
C  15.42800 1.14700 26.47500
N  17.53400 -0.84500 30.88800
C  16.82900 0.02300 31.76600
C  17.15400 -0.27800 33.25300
C  18.30500 -1.39800 32.99200
C  18.42800 -1.60400 31.49300
C  19.53100 -1.01000 33.80400
C  15.93200 -0.83600 34.01400
C  15.59100 -0.27600 35.40000
H  16.73800 0.22400 36.26600
N  18.78000 -2.28500 28.45700
C  19.40100 -2.88000 29.57400
C  20.25000 -3.97400 29.07800
C  20.15200 -3.94100 27.65300
C  19.26700 -2.78500 27.31100
C  21.08200 -4.91000 30.01100
C  20.68200 -4.84800 26.60500
O  20.33600 -4.71600 25.44900
C  21.60700 -6.00500 27.12500
N  17.08800 -0.69200 26.58300
C  17.85300 -1.33500 25.73500
C  17.53000 -0.92800 24.24600
C  16.34100 0.06900 24.39300
C  16.31000 0.20200 25.90100
C  18.80900 -0.47600 23.49900
C  15.04000 -0.34200 23.67500
C  13.93100 -1.06900 24.44000
N  15.99200 0.80600 28.84400
C  15.23700 1.39500 27.85500
C  14.31700 2.36900 28.54200
C  14.49200 2.10700 29.90800
C  15.51200 1.15300 30.02500
C  13.23800 3.20900 27.87700
C  14.06500 2.59200 31.16900
O  13.22200 3.31800 31.53500
C  15.00200 1.89200 32.21100
C  15.90300 2.86500 32.87100
O  16.99700 3.29200 32.46900
O  15.19400 3.33100 33.97600
C  15.82600 4.44700 34.63700
H  19.75300 -3.05500 31.68700
H  19.19600 -2.83300 25.22400
H  14.77900 1.72900 25.81700
H  17.61800 0.61100 33.67900
H  17.98500 -2.31100 33.49600
H  19.91600 -1.75500 34.49900
H  19.40500 -0.04500 34.29600
H  20.39100 -0.78200 33.17400
H  15.91800 -1.89100 34.28900
H  15.03600 -0.60000 33.44000
H  15.00700 -1.03100 35.92600
H  14.94600 0.60000 35.33300
H  20.84600 -5.97400 30.04600
H  21.05500 -4.62300 31.06200
H  22.06800 -4.83600 29.55300
H  21.13100 -6.54400 27.94400
H  22.47800 -5.55500 27.60100
H  22.02000 -6.67900 26.37500
H  17.19200 -1.87500 23.82500
H  16.60000 1.03100 23.94900
H  18.73900 0.46800 22.95700
H  19.11500 -1.29200 22.84500
H  19.56200 -0.28500 24.26300
H  15.29200 -0.88600 22.76500
H  14.63000 0.58700 23.27800
H  13.12600 -1.51500 23.85600
H  13.41600 -0.44900 25.17400
H  14.44600 -1.89300 24.93400
H  12.88500 2.56000 27.07600
H  13.57700 4.19700 27.56600
H  12.46300 3.11300 28.63800
H  14.36700 1.29700 32.86900
H  15.84600 5.34700 34.02300
H  16.84000 4.19300 34.94500
H  15.26500 4.81800 35.49500
Mg 47.86700 34.26100 25.47200
C  46.23200 32.75100 28.26200
C  48.24200 37.13000 27.21000
C  49.39000 35.45000 22.77600
C  47.21200 31.18600 23.73600
N  47.26900 34.84300 27.57000
C  46.71900 34.08200 28.50700
C  46.86400 34.81000 29.89700
C  47.28400 36.29500 29.51000
C  47.60600 36.12300 27.95600
C  46.35100 37.45300 29.93400
C  48.11500 34.19400 30.75200
C  47.81900 34.15800 32.30700
H  47.01700 35.29900 32.94800
N  48.69700 36.05100 25.04200
C  48.71200 37.14400 25.87300
C  49.45700 38.20600 25.20700
C  49.78100 37.79000 23.92900
C  49.30800 36.35700 23.85700
C  49.69800 39.59400 25.78200
C  50.50900 38.47300 22.87600
O  50.72400 37.93500 21.77400
C  50.78300 39.96100 22.87200
N  48.32600 33.36200 23.52300
C  48.98500 34.12400 22.64500
C  49.17100 33.31600 21.33100
C  48.59900 31.93300 21.69700
C  47.97800 32.11800 23.04600
C  48.54000 33.88500 20.06000
C  49.61200 30.74400 21.49800
C  50.59800 30.57200 22.68900
N  46.88600 32.41500 25.86900
C  46.66300 31.21900 25.06500
C  45.89800 30.24700 25.79700
C  45.66500 30.82400 27.05500
C  46.34700 32.09800 27.00700
C  45.47700 28.93600 25.35900
C  45.18300 30.57600 28.40700
O  44.72000 29.63600 29.01400
C  45.40000 31.92300 29.10900
C  45.79000 31.65500 30.54000
O  46.87500 31.30600 30.98800
O  44.65300 31.92800 31.29800
C  44.70100 31.78300 32.73700
H  48.29600 38.02200 27.83700
H  50.05500 35.72500 21.95500
H  46.84300 30.30600 23.20400
H  45.92300 34.90100 30.43900
H  48.22000 36.59300 29.98200
H  46.92400 38.28500 30.34200
H  45.54700 37.11500 30.58800
H  45.76300 37.82600 29.09500
H  49.04300 34.74100 30.58700
H  48.17700 33.14000 30.47900
H  48.84000 34.16200 32.69000
H  47.32800 33.20600 32.50800
H  49.43900 39.53600 26.83900
H  48.94900 40.29100 25.40600
H  50.71100 39.99300 25.83300
H  51.29100 40.17900 21.93200
H  51.45000 40.19900 23.70000
H  49.80900 40.43900 22.97400
H  50.25000 33.29000 21.18200
H  47.75900 31.61000 21.08200
H  47.96700 34.79000 20.26000
H  47.84400 33.16800 19.62400
H  49.34600 34.18200 19.39000
H  50.25800 30.93100 20.64100
H  48.98400 29.86900 21.32600
H  50.69600 29.51200 22.92600
H  50.33800 31.12600 23.59100
H  51.58600 30.92500 22.39300
H  46.16600 28.51700 24.62600
H  44.44000 28.94900 25.02500
H  45.52100 28.25300 26.20700
H  44.41200 32.37600 29.18400
H  45.28500 30.90500 33.01200
H  43.69700 31.65600 33.14300
H  45.05300 32.71400 33.18000

