158

Mg 41.38900 40.83400 27.38600
C  40.65200 43.32100 29.75700
C  42.41300 38.84900 29.95000
C  42.46500 38.62000 25.11500
C  40.59600 43.18200 24.91000
N  41.51700 41.09100 29.56100
C  41.15100 42.08800 30.30800
C  41.04900 41.69900 31.83300
C  41.82600 40.32400 31.86900
C  41.93400 40.05700 30.33400
C  43.19400 40.14300 32.70500
C  39.56600 41.63500 32.43600
C  39.22800 42.65000 33.54500
H  38.54000 42.04400 34.80800
N  42.21200 38.90900 27.49000
C  42.58000 38.26300 28.62900
C  43.17800 36.99200 28.34400
C  43.19700 36.92100 26.93900
C  42.63900 38.17400 26.45100
C  43.87600 36.19100 29.39700
C  43.78500 35.85500 26.06100
O  43.69700 35.87000 24.81100
C  44.48600 34.66400 26.65700
N  41.67800 40.97200 25.32700
C  42.08500 39.88800 24.58200
C  41.79300 40.18300 23.07200
C  41.01400 41.49700 23.05900
C  41.08700 41.90300 24.53400
C  43.16400 40.16900 22.17000
C  39.61700 41.33700 22.50200
C  38.52800 40.74300 23.43500
N  40.73700 42.84600 27.27800
C  40.40800 43.68400 26.18200
C  39.89900 44.93500 26.64200
C  40.05000 44.85100 28.03900
C  40.48900 43.56300 28.35600
C  39.49000 46.02500 25.73500
C  39.82100 45.60400 29.31500
O  39.53300 46.83500 29.56100
C  40.09500 44.52600 30.45400
C  41.07600 45.10800 31.42000
O  42.25900 45.27700 31.20800
O  40.37900 45.61100 32.48300
C  41.21200 46.43200 33.36000
H  42.71800 38.24900 30.81000
H  42.85300 38.01700 24.29100
H  40.32000 43.82600 24.07200
H  41.61400 42.43400 32.40600
H  41.30600 39.44800 32.25800
H  43.43200 41.14500 33.06400
H  44.05200 39.75200 32.15700
H  43.14800 39.52500 33.60200
H  39.39500 40.69100 32.95200
H  38.80900 41.73800 31.65900
H  38.55800 43.34300 33.03600
H  40.13400 43.19800 33.80600
H  44.90300 36.05500 29.05900
H  43.28400 35.28200 29.50200
H  43.84100 36.65900 30.38100
H  43.95900 34.28400 27.53100
H  45.52000 34.96300 26.82700
H  44.47500 33.95400 25.83000
H  41.11800 39.42300 22.68000
H  41.62400 42.23100 22.53400
H  43.29200 41.15300 21.71900
H  43.01500 39.39500 21.41700
H  44.09100 39.89500 22.67300
H  39.52100 40.77400 21.57400
H  39.25300 42.29700 22.13500
H  37.92400 40.03300 22.87000
H  37.85400 41.52500 23.78300
H  38.95900 40.20700 24.28000
H  39.05700 45.57100 24.84400
H  40.38200 46.60300 25.49000
H  38.79100 46.59500 26.34800
H  39.12500 44.33200 30.91000
H  41.87500 45.80600 33.95800
H  40.65400 47.05300 34.06100
H  41.78600 47.19300 32.83200
Mg -2.18700 35.03200 27.48600
C  -3.71500 33.17300 29.98600
C  -1.21100 37.33000 29.78600
C  -0.81500 36.80900 25.03800
C  -3.43600 32.75300 25.18200
N  -2.48000 35.27200 29.70500
C  -3.06800 34.33300 30.49200
C  -2.92500 34.75400 31.97300
C  -2.16400 36.08500 31.84100
C  -1.90500 36.26300 30.38300
C  -2.88100 37.32100 32.54200
C  -2.21200 33.64500 32.86500
C  -2.97200 33.23100 34.11400
H  -2.05700 33.07400 35.28700
N  -1.12200 36.77000 27.45200
C  -0.82000 37.60000 28.47200
C  -0.22600 38.82900 27.98300
C  0.12100 38.61800 26.64700
C  -0.61100 37.38200 26.31200
C  0.22700 39.99000 28.90100
C  0.89000 39.55900 25.65600
O  1.00200 39.32700 24.46400
C  1.51300 40.93700 26.13200
N  -2.29600 34.91900 25.36200
C  -1.42700 35.60000 24.67900
C  -1.17300 34.89200 23.25000
C  -1.78200 33.43400 23.48300
C  -2.63300 33.72000 24.70800
C  -1.99600 35.62300 22.07200
C  -0.66700 32.38100 23.63700
C  -0.26500 31.60900 22.30000
N  -3.33400 33.38600 27.47400
C  -3.74500 32.56600 26.52400
C  -4.49500 31.44500 27.06400
C  -4.65100 31.70900 28.41200
C  -3.84700 32.83800 28.63600
C  -5.10000 30.36300 26.27700
C  -5.24900 31.20700 29.68700
O  -6.08200 30.36500 29.87000
C  -4.59000 32.22600 30.74700
C  -5.74600 32.71200 31.58000
O  -6.48100 33.59000 31.18500
O  -5.82500 32.01100 32.82900
C  -6.75500 32.55800 33.82200
H  -0.80700 38.00800 30.54000
H  -0.28400 37.23500 24.18400
H  -3.60800 31.87700 24.55300
H  -3.94300 34.80800 32.35800
H  -1.19200 35.93600 32.31100
H  -2.91700 38.24000 31.95700
H  -2.42100 37.57800 33.49600
H  -3.92200 37.05400 32.72400
H  -1.20400 33.99700 33.08200
H  -2.20500 32.71900 32.29000
H  -3.28200 32.19000 34.02700
H  -3.77100 33.90800 34.41600
H  1.27100 40.26800 28.75700
H  -0.06300 39.76800 29.92800
H  -0.30800 40.89000 28.59800
H  2.14600 40.73000 26.99500
H  0.69600 41.61900 26.36800
H  2.16200 41.45400 25.42600
H  -0.10100 34.94700 23.05800
H  -2.46500 33.12500 22.69100
H  -1.58900 35.42200 21.08100
H  -2.14000 36.69600 22.19800
H  -3.01800 35.24500 22.08400
H  -1.12200 31.62600 24.27800
H  0.22600 32.73600 24.15100
H  -0.59900 31.98100 21.33200
H  -0.76900 30.64300 22.30300
H  0.82200 31.58900 22.22400
H  -6.08100 30.73700 25.98300
H  -5.35500 29.44900 26.81400
H  -4.55600 30.05700 25.38400
H  -4.01800 31.67100 31.49100
H  -7.42600 31.82900 34.27500
H  -7.48600 33.22800 33.37000
H  -6.32100 33.08800 34.67000

