158

Mg -12.21100 37.49500 41.84900
C  -10.32200 34.80800 40.45500
C  -10.11900 39.61100 40.36500
C  -14.46300 39.89400 42.66500
C  -14.55900 35.01000 42.86800
N  -10.48600 37.22600 40.64100
C  -9.85600 36.06300 40.07800
C  -8.66100 36.40000 39.12500
C  -8.52000 37.91800 39.33400
C  -9.79100 38.26000 40.23200
C  -7.15900 38.47600 39.84500
C  -8.71600 35.81300 37.68600
C  -7.41200 35.18000 37.00700
H  -6.71500 35.93600 35.96900
N  -12.23500 39.49900 41.62100
C  -11.23800 40.17000 41.03200
C  -11.58000 41.58300 41.11900
C  -12.73600 41.71500 41.85300
C  -13.22500 40.36700 42.07000
C  -10.75800 42.67100 40.50200
C  -13.53900 43.03900 42.18300
O  -13.18000 44.17400 41.74800
C  -14.71800 43.00200 43.07900
N  -14.34000 37.49500 42.35000
C  -15.02700 38.57100 42.85500
C  -16.34200 38.25200 43.45800
C  -16.26100 36.72200 43.62200
C  -15.02400 36.37200 42.78800
C  -16.74700 39.07700 44.71500
C  -17.50700 35.99200 43.09800
C  -18.19600 34.85700 43.98600
N  -12.42300 35.37300 41.71600
C  -13.36300 34.47100 42.32900
C  -12.87100 33.08000 42.31500
C  -11.72300 33.20500 41.48500
C  -11.46000 34.62000 41.22100
C  -13.45800 31.77300 42.84700
C  -10.65500 32.42200 40.93600
O  -10.52600 31.23100 40.99400
C  -9.72100 33.39600 40.16500
C  -8.23600 33.27200 40.47300
O  -7.44900 32.50900 39.89900
O  -8.05800 33.99800 41.65200
C  -6.80200 33.81200 42.41800
H  -9.38300 40.28400 39.92100
H  -15.22400 40.60300 43.00000
H  -15.24200 34.33600 43.38900
H  -7.76300 36.02200 39.61400
H  -8.66100 38.43300 38.38400
H  -6.50900 37.67000 39.50500
H  -7.26300 38.71400 40.90300
H  -6.99200 39.48500 39.46900
H  -9.11300 36.55900 36.99800
H  -9.34200 34.92000 37.68000
H  -7.58800 34.18200 36.60500
H  -6.65000 35.07200 37.78000
H  -10.63400 43.46900 41.23400
H  -11.21600 42.95400 39.55400
H  -9.74000 42.34700 40.28400
H  -15.57400 42.62300 42.52200
H  -14.85300 43.95800 43.58400
H  -14.53900 42.30800 43.90100
H  -17.18000 38.48200 42.80000
H  -15.97400 36.50400 44.65100
H  -16.11100 39.87800 45.09200
H  -16.89900 38.44300 45.58800
H  -17.76400 39.46200 44.64000
H  -17.14400 35.50100 42.19500
H  -18.25900 36.75800 42.90900
H  -19.27400 34.87700 43.82200
H  -17.97800 35.05600 45.03500
H  -17.71600 33.90300 43.76700
H  -14.49900 31.77300 42.52400
H  -13.37900 31.82800 43.93300
H  -12.91000 30.88800 42.52400
H  -10.02400 32.89100 39.24700
H  -6.78400 34.64500 43.12000
H  -6.03700 33.95500 41.65500
H  -6.62400 32.93000 43.03400
Mg -10.95300 15.61700 41.63400
C  -7.85700 14.07900 41.21800
C  -9.52100 18.51700 40.28700
C  -13.92800 16.82800 41.04700
C  -12.24900 12.48800 42.44400
N  -8.85000 16.27300 41.06100
C  -7.88500 15.39300 40.86000
C  -6.68000 16.14400 40.14600
C  -7.13500 17.63100 40.13000
C  -8.58000 17.49300 40.56200
C  -6.34100 18.71500 40.94100
C  -6.34400 15.58500 38.69000
C  -4.85700 15.42600 38.36600
H  -4.38000 16.26400 37.12200
N  -11.63900 17.43800 40.82700
C  -10.91200 18.44600 40.34000
C  -11.78100 19.57400 40.02200
C  -13.14100 19.13000 40.14100
C  -12.96500 17.74800 40.66800
C  -11.28600 21.00000 39.73000
C  -14.37200 19.95800 39.99000
O  -14.36900 21.14000 39.73000
C  -15.73200 19.31200 40.17100
N  -12.82800 14.73200 41.70000
C  -13.93700 15.45000 41.44300
C  -15.24300 14.68100 41.69100
C  -14.74900 13.37000 42.32400
C  -13.21400 13.43700 42.07700
C  -16.20000 15.51600 42.62000
C  -15.40300 12.03600 41.86600
C  -16.00400 11.06700 42.94300
N  -10.23100 13.75100 42.07400
C  -10.85900 12.62700 42.46900
C  -9.86500 11.62500 42.59200
C  -8.62700 12.14600 42.10800
C  -8.97200 13.40200 41.69900
C  -10.15900 10.22600 42.98200
C  -7.25100 11.77400 41.68100
O  -6.73000 10.65300 41.61400
C  -6.66900 13.06500 41.09200
C  -5.57700 13.42800 41.98700
O  -5.63200 13.65000 43.16600
O  -4.38000 13.25500 41.36300
C  -3.13800 13.57800 42.13300
H  -8.99500 19.32300 39.77100
H  -14.91900 17.27600 40.94800
H  -12.71200 11.50300 42.53600
H  -5.74300 15.93500 40.66400
H  -7.18400 17.96100 39.09200
H  -5.25900 18.59900 41.00000
H  -6.83400 18.81400 41.90800
H  -6.42600 19.70900 40.49900
H  -6.79700 16.21400 37.92400
H  -6.79400 14.60000 38.56100
H  -4.66800 14.41100 38.01600
H  -4.27200 15.70300 39.24300
H  -11.07000 21.26900 38.69600
H  -10.26400 21.01600 40.10800
H  -11.89000 21.81100 40.13700
H  -15.80600 18.46000 39.49500
H  -16.59600 19.89700 39.85600
H  -15.90500 19.05900 41.21700
H  -15.68700 14.51200 40.71000
H  -14.84400 13.40800 43.40900
H  -15.67600 16.40900 42.96300
H  -16.36400 14.89200 43.49800
H  -17.15400 15.71900 42.13300
H  -14.73000 11.49400 41.20100
H  -16.24100 12.38600 41.26300
H  -15.92400 11.54000 43.92100
H  -15.43400 10.14100 42.86800
H  -17.06500 10.87000 42.78900
H  -11.07400 9.85000 42.52500
H  -10.33300 10.28000 44.05700
H  -9.28900 9.69700 42.59200
H  -6.22300 12.76800 40.14300
H  -2.44300 13.61700 41.29400
H  -2.91200 12.82400 42.88800
H  -3.36900 14.49000 42.68200

