158

Mg 1.31300 7.10200 26.01300
C  1.57300 9.27900 28.71700
C  1.95800 4.43300 28.23500
C  0.91400 4.98500 23.47100
C  1.15100 9.85000 23.86000
N  1.38100 6.92000 28.25800
C  1.43200 7.96800 29.13200
C  1.38600 7.56500 30.63000
C  1.81500 5.97300 30.37000
C  1.72300 5.69900 28.82600
C  3.12800 5.59200 30.97500
C  -0.01700 7.84900 31.26800
C  -0.09000 7.78400 32.79500
H  1.17800 7.47200 33.58600
N  1.53700 4.97800 25.85300
C  1.67200 4.07500 26.90000
C  1.43200 2.70400 26.35900
C  1.26500 2.80900 24.93700
C  1.26600 4.31800 24.65000
C  1.28800 1.45300 27.31300
C  1.03200 1.73800 23.92300
O  0.62800 2.02800 22.78500
C  1.19500 0.35400 24.27100
N  0.92200 7.39300 24.03700
C  0.82600 6.37500 23.17500
C  0.52200 6.88000 21.65200
C  0.54200 8.38700 21.87400
C  0.84600 8.56900 23.33200
C  1.49600 6.49900 20.44900
C  -0.65900 9.14600 21.29500
C  -0.40600 10.08300 20.13900
N  1.40200 9.08700 26.15700
C  1.28300 10.12300 25.21700
C  1.61300 11.41400 25.83400
C  1.70900 11.09700 27.20800
C  1.56200 9.73300 27.33700
C  1.73700 12.74000 25.21700
C  1.82100 11.71200 28.47300
O  1.84700 12.89400 28.80900
C  1.79600 10.57800 29.48900
C  3.15200 10.59300 30.11500
O  4.17900 10.04800 29.76400
O  3.04700 11.20300 31.34200
C  4.14800 10.94600 32.30400
H  2.41900 3.64700 28.83700
H  0.72400 4.40100 22.56900
H  1.22300 10.72900 23.21600
H  2.15100 8.13700 31.15700
H  0.99400 5.37900 30.77000
H  2.96200 4.77700 31.67900
H  3.50800 6.50700 31.42800
H  3.75400 5.23400 30.15800
H  -0.71800 7.20100 30.74200
H  -0.32100 8.85800 30.98600
H  -0.81600 7.00100 33.01300
H  -0.44600 8.73100 33.20000
H  1.18200 1.54600 28.39400
H  1.99900 0.64300 27.15000
H  0.41000 0.94200 26.91800
H  0.31900 0.05100 24.84300
H  1.99300 0.32800 25.01400
H  1.36800 -0.27000 23.39400
H  -0.45500 6.48200 21.37700
H  1.43700 8.72100 21.35000
H  2.47700 6.13500 20.75200
H  1.57300 7.26000 19.67200
H  1.12400 5.55700 20.04600
H  -1.05800 9.82100 22.05300
H  -1.51700 8.49300 21.13200
H  -0.84200 9.72100 19.20800
H  0.65400 10.28100 19.97900
H  -0.88200 11.02800 20.40100
H  0.91900 12.75700 24.49700
H  2.71900 12.79600 24.74900
H  1.52600 13.51800 25.95000
H  1.00600 10.71800 30.22700
H  5.12100 10.87400 31.81900
H  3.83900 9.99700 32.74300
H  4.23500 11.83000 32.93600
Mg 16.56500 -2.59300 27.81000
C  15.49100 -0.35500 30.44500
C  18.65500 -4.03800 30.00500
C  18.25900 -3.94900 25.06200
C  14.62400 -0.69700 25.65400
N  16.99300 -2.19300 29.95800
C  16.41500 -1.35600 30.83700
C  16.98700 -1.51200 32.23800
C  18.18800 -2.55100 31.98000
C  17.91800 -2.97700 30.55700
C  19.63000 -2.11800 32.32400
C  15.93100 -1.98800 33.25100
C  16.17900 -1.70300 34.73100
H  17.51500 -1.20500 35.26200
N  18.17200 -3.93600 27.55400
C  18.84500 -4.45600 28.65200
C  19.66600 -5.58200 28.20200
C  19.59300 -5.49500 26.78800
C  18.59900 -4.47100 26.39500
C  20.33500 -6.57900 29.15800
C  20.45100 -6.24700 25.76600
O  20.42300 -6.04600 24.51400
C  21.29000 -7.52500 26.30500
N  16.47500 -2.34800 25.75900
C  17.27600 -2.98200 24.77100
C  16.92600 -2.56200 23.31800
C  15.66000 -1.58700 23.54000
C  15.56000 -1.54900 25.08700
C  18.04500 -1.89100 22.53700
C  14.31800 -2.01200 22.81000
C  13.68000 -0.96500 21.82700
N  15.30500 -0.90700 27.95700
C  14.56800 -0.27100 26.95800
C  13.77000 0.89200 27.56200
C  14.02700 0.82000 28.88400
C  14.98700 -0.21600 29.08300
C  13.01500 1.88100 26.85500
C  13.75200 1.47900 30.14300
O  13.00400 2.41900 30.45800
C  14.67500 0.73900 31.22100
C  15.67100 1.68900 31.81600
O  16.18100 2.62600 31.23100
O  15.90400 1.41000 33.18500
C  16.72600 2.48200 33.81000
H  19.12900 -4.61900 30.79900
H  18.62900 -4.31000 24.10000
H  13.89100 -0.16000 25.04800
H  17.42800 -0.55100 32.50200
H  18.01000 -3.46600 32.54500
H  19.73300 -1.03400 32.27200
H  20.33800 -2.67200 31.70800
H  19.96500 -2.40500 33.32100
H  15.89800 -3.07100 33.12900
H  14.96400 -1.56500 32.97900
H  15.97100 -2.68800 35.15000
H  15.28900 -1.19700 35.10700
H  21.40200 -6.36000 29.12000
H  20.27900 -7.60100 28.78300
H  20.02900 -6.53700 30.20300
H  20.54600 -8.19100 26.74300
H  22.12000 -7.20400 26.93300
H  21.71400 -8.15600 25.52400
H  16.58700 -3.48100 22.84200
H  15.96800 -0.54600 23.44300
H  18.27300 -2.54600 21.69600
H  18.92000 -1.76900 23.17600
H  17.80700 -0.87000 22.23800
H  13.58700 -2.15600 23.60600
H  14.39300 -3.02100 22.40300
H  13.64400 -1.48900 20.87200
H  14.42700 -0.19300 21.63900
H  12.71100 -0.54200 22.09100
H  13.41900 2.11200 25.86900
H  12.92200 2.80000 27.43500
H  12.03200 1.41200 26.81200
H  14.11100 0.29100 32.03900
H  16.59600 3.47600 33.38200
H  17.81200 2.39900 33.77500
H  16.47100 2.69200 34.84800

