158

Mg 25.57800 1.26200 30.06700
C  27.54200 0.85400 32.82000
C  22.86500 1.31600 32.04800
C  23.62600 0.76200 27.18700
C  28.38400 0.58700 27.97100
N  25.26100 0.99600 32.16800
C  26.21400 1.07800 33.10700
C  25.64600 1.50500 34.60500
C  24.13600 1.31100 34.28600
C  24.03800 1.17900 32.75200
C  23.54100 0.00700 34.98900
C  26.08400 2.96800 34.99400
C  27.07800 3.04900 36.11100
H  26.49500 3.61900 37.40000
N  23.51200 1.21900 29.65700
C  22.57200 1.26400 30.64200
C  21.28400 1.16600 29.98500
C  21.49200 0.89700 28.59700
C  22.94300 0.92600 28.40800
C  19.98600 1.33300 30.73700
C  20.48700 0.75200 27.46000
O  20.66300 0.59600 26.27800
C  19.08500 0.78700 27.73400
N  25.92500 0.74200 27.95300
C  24.97100 0.73500 27.03400
C  25.58100 0.98300 25.56500
C  27.10100 0.85200 25.78500
C  27.15800 0.73200 27.32700
C  25.09800 0.07000 24.42100
C  27.94200 2.09700 25.34500
C  29.23500 1.81400 24.65900
N  27.58400 0.87900 30.27300
C  28.55400 0.63900 29.41800
C  29.73700 0.21800 30.14600
C  29.44000 0.35300 31.52500
C  28.08300 0.67200 31.53000
C  30.99900 -0.23000 29.55500
C  29.88200 0.27700 32.82400
O  31.00600 -0.00900 33.20300
C  28.74300 0.74600 33.78700
C  28.58100 -0.32200 34.77400
O  28.05500 -1.44300 34.63400
O  29.17600 0.03700 35.93000
C  28.89400 -0.67500 37.15800
H  21.95100 1.33500 32.64500
H  23.12900 0.69100 26.21700
H  29.22300 0.45100 27.28500
H  25.93600 0.71200 35.29300
H  23.53400 2.11300 34.71100
H  24.03400 -0.14900 35.94800
H  23.60700 -0.84300 34.30900
H  22.46300 0.14900 35.06900
H  25.13900 3.44800 35.24900
H  26.44400 3.59200 34.17600
H  27.75900 3.85200 35.82900
H  27.54000 2.06900 36.23100
H  19.51200 0.36800 30.91600
H  19.36100 2.11000 30.29600
H  20.22300 1.69400 31.73800
H  18.55000 0.85800 26.78700
H  18.84900 1.68100 28.31200
H  18.77200 -0.15900 28.17500
H  25.34700 2.03300 25.39200
H  27.39200 -0.10300 25.34900
H  24.85400 -0.93300 24.77100
H  25.87400 -0.14500 23.68600
H  24.19500 0.61900 24.15500
H  28.11100 2.75900 26.19500
H  27.37100 2.64300 24.59400
H  29.38400 0.73600 24.60500
H  30.02500 2.41100 25.11500
H  29.23500 2.26700 23.66700
H  31.79700 -0.00900 30.26400
H  31.35200 0.27400 28.65500
H  30.78400 -1.27100 29.31200
H  29.10700 1.67800 34.22000
H  28.35000 -1.61800 37.10900
H  28.34500 -0.01900 37.83300
H  29.83500 -0.79000 37.69600
Mg 40.64100 9.15600 29.17200
C  42.80300 10.68800 31.50500
C  38.66300 7.95000 31.69100
C  38.82500 7.58100 26.77800
C  42.88100 10.31200 26.64800
N  40.92800 9.05400 31.41100
C  41.66100 10.01600 32.08800
C  41.12600 10.21100 33.46200
C  39.97600 9.14500 33.54800
C  39.81300 8.66100 32.09600
C  40.19400 7.98300 34.55100
C  40.65400 11.65300 33.87300
C  39.99500 11.80500 35.29000
H  40.82100 12.64100 36.33700
N  39.02500 7.77000 29.25900
C  38.23600 7.53900 30.37300
C  37.10600 6.75500 29.96300
C  37.20000 6.69000 28.48600
C  38.40000 7.34000 28.11500
C  36.03600 6.11200 30.89900
C  36.19500 6.16600 27.42400
O  36.49800 5.80100 26.29900
C  34.75400 5.86300 27.86200
N  40.96400 8.84500 27.12900
C  39.91800 8.33200 26.35100
C  40.18600 8.65000 24.81400
C  41.52400 9.41100 24.82700
C  41.83000 9.55300 26.25600
C  40.04300 7.36900 23.98400
C  41.47800 10.69400 23.91800
C  40.86400 11.91000 24.61800
N  42.48800 10.27400 29.03600
C  43.23600 10.68500 27.96200
C  44.29900 11.50200 28.40300
C  44.15800 11.48700 29.77200
C  43.09100 10.72500 30.10100
C  45.37900 12.17700 27.50200
C  44.79800 12.02600 30.92100
O  45.79100 12.74400 30.97600
C  43.85200 11.63100 32.18200
C  44.49200 11.12400 33.30600
O  44.95100 9.97700 33.48400
O  44.47300 12.08400 34.34200
C  45.13700 11.54100 35.53300
H  38.03500 7.81200 32.57400
H  38.22300 7.17300 25.96300
H  43.44800 10.79600 25.85000
H  41.95000 9.95000 34.12500
H  39.03500 9.62000 33.82400
H  41.25900 7.84800 34.73800
H  39.74300 6.99900 34.42900
H  39.73400 8.31300 35.48300
H  39.91200 11.99300 33.15000
H  41.52900 12.29600 33.77500
H  39.86600 10.80700 35.71000
H  38.98300 12.20000 35.20700
H  36.38900 5.84300 31.89500
H  35.52900 5.27200 30.42500
H  35.24100 6.85600 30.95300
H  34.52300 6.60400 28.62800
H  34.78600 4.83800 28.23300
H  34.04800 5.96000 27.03800
H  39.46200 9.36600 24.42200
H  42.21400 8.65500 24.45200
H  39.00600 7.24200 23.67300
H  40.51100 6.59200 24.58900
H  40.63500 7.49600 23.07800
H  40.91500 10.55900 22.99400
H  42.53300 10.86400 23.70300
H  41.50300 12.79300 24.60600
H  40.76900 11.71100 25.68500
H  39.95000 12.26700 24.14400
H  44.95700 12.65400 26.61800
H  46.17500 11.48700 27.21900
H  45.87900 12.99200 28.02700
H  43.27500 12.51000 32.47000
H  46.18400 11.26800 35.40100
H  44.59900 10.65600 35.87300
H  45.21000 12.20900 36.39200

