158

Mg 0.56500 8.67200 27.23400
C  1.33800 10.63700 29.93000
C  0.14400 5.97500 29.43400
C  0.04000 6.63200 24.59000
C  1.37800 11.33700 25.07100
N  0.92600 8.34500 29.43900
C  0.95900 9.38500 30.37600
C  0.85000 8.81700 31.82200
C  0.69800 7.26500 31.56400
C  0.54100 7.11100 30.02000
C  1.79300 6.34600 32.09700
C  -0.25100 9.44600 32.70200
C  0.09200 9.90500 34.12000
H  1.17800 9.20400 34.87800
N  0.04700 6.61300 27.06000
C  -0.12600 5.65500 28.03300
C  -0.57400 4.41600 27.51700
C  -0.73700 4.60400 26.10900
C  -0.26500 6.00500 25.80500
C  -0.52600 3.27300 28.50300
C  -1.23100 3.62500 25.12800
O  -1.58000 3.90900 23.98300
C  -1.30400 2.23500 25.55700
N  0.81100 8.89000 25.14700
C  0.51300 7.90300 24.29100
C  0.74800 8.43000 22.85900
C  0.74000 10.00200 23.03300
C  1.00800 10.05100 24.50100
C  2.08500 7.99600 22.15200
C  -0.68500 10.63400 22.79100
C  -1.24900 10.99200 21.37200
N  1.27300 10.66000 27.34400
C  1.48700 11.63800 26.43900
C  1.85200 12.83900 27.10300
C  1.79900 12.50700 28.45600
C  1.49800 11.11800 28.57500
C  2.23500 14.13800 26.41900
C  1.90900 13.08600 29.77600
O  2.07700 14.22100 30.12900
C  1.43400 11.90900 30.75400
C  2.59300 11.73800 31.75200
O  3.61300 11.11200 31.56500
O  2.26200 12.48900 32.85200
C  3.14900 12.55900 33.94400
H  0.16700 5.24200 30.24400
H  -0.14400 5.95800 23.75100
H  1.47200 12.09200 24.28700
H  1.78000 8.94700 32.37500
H  -0.26700 6.96400 31.97200
H  2.67300 6.86900 32.47100
H  2.04200 5.48800 31.47100
H  1.22800 5.92100 32.92700
H  -1.01800 8.71200 32.94900
H  -0.81200 10.29300 32.30800
H  -0.86100 9.75300 34.62700
H  0.25800 10.98200 34.09900
H  -0.54300 2.25800 28.10700
H  -1.42600 3.43900 29.09500
H  0.22600 3.27300 29.29100
H  -1.62200 1.56400 24.75800
H  -1.94000 2.03400 26.41900
H  -0.25200 2.06800 25.78900
H  -0.11400 8.13300 22.26100
H  1.50300 10.43400 22.38600
H  2.70000 8.74100 21.64800
H  1.75800 7.18100 21.50700
H  2.76700 7.58100 22.89400
H  -0.71100 11.58900 23.31400
H  -1.41100 10.01300 23.31500
H  -0.56300 10.59300 20.62500
H  -1.27700 12.08100 21.36900
H  -2.24100 10.55300 21.26700
H  1.32300 14.51900 25.96000
H  2.90200 13.84300 25.60800
H  2.80700 14.73100 27.13200
H  0.50600 12.25200 31.21200
H  3.06000 13.57400 34.33400
H  4.17700 12.26600 33.73000
H  2.67100 11.90300 34.67200
Mg 45.99100 3.74100 46.80500
C  43.95600 6.58200 46.71500
C  43.00000 1.78500 46.42900
C  47.84500 1.05900 46.61500
C  48.75400 5.84300 46.66500
N  43.69200 4.18100 46.44500
C  43.17600 5.45200 46.46600
C  41.69000 5.28700 46.25300
C  41.35400 3.78500 46.70200
C  42.75300 3.16200 46.51500
C  40.72700 3.62600 48.18000
C  41.16600 5.87600 44.90800
C  42.15300 5.99300 43.79000
H  41.57900 6.50200 42.49700
N  45.47500 1.71400 46.43700
C  44.24500 1.11800 46.36300
C  44.47800 -0.32900 46.34700
C  45.86400 -0.62000 46.37200
C  46.43300 0.77200 46.52800
C  43.36600 -1.44500 46.37500
C  46.49900 -1.99400 46.28300
O  45.84100 -3.03500 46.23200
C  47.89300 -2.23100 46.31900
N  47.98600 3.54400 46.29200
C  48.53800 2.29100 46.60700
C  50.09500 2.42000 46.76100
C  50.39200 3.91200 46.49400
C  48.99700 4.47200 46.45600
C  50.65900 1.82400 48.02800
C  51.19900 4.24600 45.23600
C  52.37000 5.19700 45.46500
N  46.32400 5.78300 46.80600
C  47.51500 6.46500 46.88600
C  47.21100 7.87000 47.09600
C  45.88200 7.97100 47.11700
C  45.36700 6.66400 46.90400
C  48.15200 9.00900 47.03700
C  44.75300 8.88500 47.10600
O  44.68500 10.11900 47.22800
C  43.46200 8.05500 46.80000
C  42.48000 8.36300 47.90500
O  42.46700 7.81900 49.00400
O  41.63400 9.34900 47.53100
C  40.46700 9.52400 48.42800
H  42.10000 1.16700 46.46400
H  48.43600 0.15100 46.75500
H  49.62800 6.48500 46.78500
H  41.25000 5.87700 47.05700
H  40.67700 3.28000 46.01300
H  41.47400 3.18600 48.84100
H  39.83200 3.00400 48.19600
H  40.45700 4.56000 48.67300
H  40.68400 6.83600 45.09400
H  40.28700 5.25400 44.73900
H  42.41400 4.94700 43.62500
H  43.08500 6.46200 44.10600
H  42.39900 -0.96300 46.23100
H  43.41700 -2.04800 47.28100
H  43.47200 -2.15100 45.55100
H  48.32500 -2.09100 47.31000
H  48.34200 -1.53500 45.61100
H  48.16000 -3.21700 45.94000
H  50.52700 1.84900 45.93900
H  50.89400 4.37500 47.34300
H  51.38800 1.02400 47.89400
H  49.79200 1.54000 48.62400
H  51.10100 2.56200 48.69700
H  50.63500 4.48300 44.33400
H  51.77700 3.37000 44.94000
H  53.30100 4.64700 45.33100
H  52.35100 5.52100 46.50600
H  52.22200 6.08300 44.84800
H  48.95800 8.93100 47.76600
H  47.65800 9.98000 47.07600
H  48.62400 9.22100 46.07700
H  43.14400 8.37300 45.80700
H  39.89900 8.62000 48.20600
H  39.96000 10.41500 48.05900
H  40.65600 9.61200 49.49800

