158

Mg 24.24900 -5.98700 45.06200
C  26.58700 -3.74200 43.82700
C  21.73500 -4.61400 43.24200
C  22.40100 -8.84000 45.56000
C  27.05100 -7.75600 46.62300
N  24.20600 -4.36400 43.69600
C  25.24500 -3.53600 43.37100
C  24.77500 -2.43500 42.42800
C  23.22600 -2.58700 42.51700
C  22.99800 -3.99900 43.09800
C  22.42500 -1.48600 43.23400
C  25.42300 -2.60000 40.96300
C  25.72400 -1.28200 40.30100
H  25.05000 -1.10000 38.91900
N  22.26500 -6.51500 44.67400
C  21.38200 -5.80000 43.89000
C  20.13700 -6.51800 43.81700
C  20.27000 -7.72900 44.53800
C  21.66500 -7.73900 44.94700
C  19.03900 -6.09200 42.91200
C  19.17000 -8.75000 44.62500
O  17.98800 -8.48300 44.35600
C  19.37700 -10.20900 45.16000
N  24.70000 -7.98800 45.88200
C  23.69300 -8.91200 45.95700
C  24.19300 -10.23200 46.52500
C  25.57400 -9.83500 47.12800
C  25.80300 -8.43400 46.58900
C  23.28500 -10.95600 47.61000
C  26.77800 -10.77200 46.77800
C  27.70100 -11.14500 48.01900
N  26.34300 -5.87700 45.23800
C  27.33400 -6.56400 45.97900
C  28.62200 -5.86000 45.91100
C  28.35100 -4.75000 45.06700
C  26.95400 -4.82300 44.69000
C  29.87500 -6.38100 46.58300
C  28.99700 -3.63400 44.41900
O  30.13200 -3.17000 44.42400
C  27.86800 -2.87900 43.65000
C  27.79500 -1.50000 44.08400
O  27.61100 -1.09300 45.23900
O  27.97500 -0.61100 43.00200
C  27.92300 0.79700 43.35300
H  20.91500 -4.25100 42.61800
H  21.79300 -9.73500 45.70900
H  27.94100 -8.25700 47.01100
H  24.99900 -1.45800 42.85600
H  22.73300 -2.40500 41.56300
H  21.56300 -1.12400 42.67400
H  23.02300 -0.58200 43.35300
H  22.17000 -1.77200 44.25500
H  24.63900 -3.13000 40.42300
H  26.34100 -3.17800 41.06400
H  26.78000 -1.19200 40.04900
H  25.38800 -0.45200 40.92300
H  18.62100 -6.92300 42.34300
H  19.27300 -5.21900 42.30400
H  18.27200 -5.70700 43.58500
H  18.35200 -10.57800 45.16300
H  19.83100 -10.02800 46.13400
H  20.09200 -10.70400 44.50300
H  24.25100 -10.90500 45.66900
H  25.50100 -9.74200 48.21100
H  24.04000 -11.40300 48.25700
H  22.68200 -11.73300 47.14000
H  22.59400 -10.22700 48.03400
H  27.30700 -10.30300 45.94800
H  26.38400 -11.66900 46.29900
H  27.78700 -12.22600 47.90600
H  27.20400 -10.88900 48.95500
H  28.63800 -10.58900 48.00300
H  30.02000 -7.45300 46.45200
H  29.81200 -6.24900 47.66300
H  30.70800 -5.79300 46.19800
H  28.22800 -2.84400 42.62200
H  28.73300 1.05000 44.03700
H  26.92900 1.06200 43.71500
H  28.10400 1.46500 42.51000
Mg 49.41200 35.22100 27.70100
C  47.27500 33.64600 29.86100
C  49.40300 37.92300 29.73000
C  50.90000 36.93600 25.27200
C  48.79300 32.63400 25.32700
N  48.30400 35.78100 29.51700
C  47.77300 34.84800 30.37700
C  47.65400 35.35500 31.81400
C  48.13800 36.87100 31.63900
C  48.60600 36.90900 30.23800
C  47.04900 38.00100 32.02500
C  48.43700 34.57700 32.86300
C  47.84800 34.25700 34.20400
H  46.89800 35.27900 34.77800
N  50.11200 37.16600 27.47600
C  50.13600 38.06900 28.48900
C  50.76100 39.33100 28.02000
C  51.08600 39.10400 26.59000
C  50.69100 37.66700 26.38900
C  50.92200 40.53700 28.87900
C  51.71000 40.13100 25.58900
O  52.06400 39.86100 24.45700
C  51.81700 41.66100 25.80400
N  49.77000 34.84200 25.52400
C  50.48900 35.65300 24.91500
C  50.83500 35.01600 23.52400
C  50.30200 33.58000 23.55400
C  49.60500 33.64500 24.88900
C  50.40500 35.94000 22.41600
C  51.40200 32.43400 23.50500
C  51.13300 31.11400 22.80800
N  48.26800 33.46700 27.55000
C  48.13700 32.50400 26.61100
C  47.09500 31.50900 26.99100
C  46.74300 31.89600 28.29500
C  47.44800 33.12300 28.54800
C  46.62800 30.39500 26.18000
C  46.01400 31.50400 29.53000
O  45.29700 30.56400 29.84800
C  46.36000 32.59500 30.55700
C  46.92300 31.84000 31.66800
O  48.07000 31.37800 31.68300
O  45.86900 31.59000 32.55800
C  46.28500 30.65400 33.61300
H  49.54500 38.74200 30.43800
H  51.30200 37.54900 24.46300
H  48.56700 31.75000 24.72700
H  46.61000 35.47800 32.10400
H  49.05300 36.97100 32.22300
H  46.34300 37.63000 32.76800
H  46.74200 38.47800 31.09500
H  47.65600 38.74200 32.54600
H  49.33100 35.12500 33.16200
H  48.76700 33.63900 32.41700
H  48.67900 34.28500 34.91000
H  47.32900 33.29900 34.18200
H  51.33200 41.41200 28.37500
H  51.59000 40.35000 29.72000
H  49.95500 40.73100 29.34300
H  52.10200 42.23900 24.92400
H  52.61200 41.87400 26.51800
H  50.85000 41.90800 26.24200
H  51.92400 35.01000 23.50800
H  49.53300 33.48200 22.78800
H  50.01400 35.34200 21.59300
H  51.35300 36.31000 22.02600
H  49.81800 36.81800 22.68600
H  51.47800 32.21000 24.56900
H  52.30200 32.99800 23.25900
H  52.00800 30.91600 22.18900
H  50.19700 31.10200 22.24800
H  51.11700 30.37300 23.60700
H  47.01300 30.42000 25.16000
H  45.55100 30.51100 26.05700
H  46.76800 29.43200 26.67100
H  45.53500 33.18300 30.95800
H  47.25700 30.94000 34.01500
H  46.33700 29.59400 33.36300
H  45.57300 30.83200 34.41900

