158

Mg 1.80500 -1.17600 45.01300
C  5.22100 -0.51300 44.61100
C  0.98500 1.31600 42.93200
C  -1.47300 -2.26600 45.06400
C  2.78100 -4.26400 46.42800
N  2.97800 0.07900 43.84000
C  4.33400 0.25700 43.80700
C  4.78200 1.41700 42.88800
C  3.39000 2.02400 42.47600
C  2.40300 1.07100 43.13600
C  3.16100 3.56800 42.91700
C  5.80800 1.00800 41.64600
C  7.11200 1.81100 41.43400
H  7.69400 2.22600 40.09200
N  -0.06200 -0.47000 44.22100
C  -0.16100 0.62100 43.40800
C  -1.52100 0.88500 43.16800
C  -2.29600 -0.17300 43.73000
C  -1.28800 -1.03100 44.38800
C  -2.10100 2.06700 42.29600
C  -3.76200 -0.40100 43.54300
O  -4.44200 0.42100 42.94300
C  -4.61100 -1.54100 44.13400
N  0.86900 -3.02100 45.47700
C  -0.53900 -3.16000 45.55100
C  -0.90500 -4.40400 46.34200
C  0.42300 -5.11600 46.63400
C  1.41000 -4.02400 46.28500
C  -1.84700 -4.38100 47.55200
C  0.68400 -6.41900 45.74300
C  1.29500 -7.70600 46.38100
N  3.67600 -2.23100 45.53100
C  3.88500 -3.46100 46.14000
C  5.36000 -3.55200 46.42100
C  5.90000 -2.38700 45.97100
C  4.84700 -1.65300 45.36700
C  5.95400 -4.67100 47.18500
C  7.16100 -1.58100 45.87200
O  8.27900 -1.75100 46.25500
C  6.72600 -0.36500 44.88100
C  7.11300 1.00600 45.39900
O  6.52100 1.53800 46.30300
O  8.09100 1.51600 44.60800
C  8.16700 2.97700 44.73700
H  0.67500 2.09600 42.23400
H  -2.48000 -2.68700 45.09600
H  3.04600 -5.08800 47.09400
H  5.26100 2.24100 43.41800
H  3.15700 1.90300 41.41800
H  2.73300 4.13400 42.08900
H  4.05200 4.10600 43.24300
H  2.44900 3.54000 43.74100
H  5.20900 0.95300 40.73700
H  6.12900 -0.03300 41.68300
H  7.80500 1.13200 41.93100
H  7.02600 2.70300 42.05400
H  -2.75500 1.74900 41.48500
H  -1.36900 2.70700 41.80200
H  -2.74300 2.65700 42.95000
H  -4.38300 -1.64200 45.19500
H  -4.62400 -2.45200 43.53600
H  -5.62000 -1.12800 44.13100
H  -1.47600 -5.10000 45.72800
H  0.45800 -5.30900 47.70700
H  -2.73200 -4.98300 47.34900
H  -2.01200 -3.31900 47.73600
H  -1.40000 -4.88300 48.41000
H  1.39800 -6.15900 44.96200
H  -0.25200 -6.64400 45.23200
H  0.50800 -8.45800 46.33400
H  1.47900 -7.57000 47.44700
H  2.27900 -7.89000 45.95000
H  5.88400 -5.51600 46.50000
H  5.35500 -4.85200 48.07800
H  6.94600 -4.47400 47.59100
H  7.41000 -0.42500 44.03500
H  8.93700 3.17300 45.48300
H  7.28700 3.57200 44.97800
H  8.63400 3.38000 43.83800
Mg 49.32000 35.40900 28.61200
C  47.21200 33.32800 30.57400
C  49.34800 37.70200 31.08300
C  50.66900 37.46800 26.40800
C  48.88400 32.87600 26.03500
N  48.39100 35.53800 30.57900
C  47.75100 34.51200 31.21200
C  47.74300 34.77000 32.77200
C  48.02100 36.34200 32.83200
C  48.68100 36.51400 31.44300
C  46.73600 37.25600 33.07200
C  48.88700 33.90100 33.47900
C  48.78000 33.84700 35.09300
H  47.89700 34.83900 35.90100
N  49.89700 37.29500 28.74800
C  49.89700 38.08100 29.88700
C  50.64300 39.34600 29.58700
C  51.16100 39.19700 28.25100
C  50.58700 37.91700 27.74100
C  50.86500 40.34300 30.68800
C  52.09200 40.02400 27.47200
O  52.51300 39.72500 26.33700
C  52.52800 41.28200 28.03200
N  49.82500 35.14500 26.58600
C  50.30400 36.22600 25.86000
C  50.52500 35.85900 24.36800
C  50.22000 34.29200 24.42300
C  49.60400 34.05900 25.78400
C  49.64500 36.70500 23.49500
C  51.36400 33.35300 23.91400
C  51.25000 32.81600 22.44800
N  48.50400 33.40300 28.35600
C  48.34900 32.50200 27.26100
C  47.57600 31.39200 27.62100
C  47.12500 31.69400 28.90400
C  47.65000 32.90000 29.32300
C  47.14900 30.22400 26.80200
C  46.22300 31.20900 29.94700
O  45.43500 30.21300 29.99900
C  46.24100 32.27900 31.11200
C  46.42600 31.69300 32.45700
O  47.26600 30.92300 32.82800
O  45.50800 32.20400 33.26100
C  45.36800 31.56600 34.57700
H  49.51000 38.34900 31.94800
H  51.08000 38.12900 25.64200
H  48.61400 32.19300 25.22600
H  46.75100 34.37600 32.99300
H  48.80900 36.45100 33.57700
H  46.74400 38.00100 33.86800
H  46.06400 36.45500 33.37900
H  46.36600 37.69300 32.14400
H  49.91700 34.21900 33.31300
H  48.71900 32.86900 33.17100
H  49.84500 33.83700 35.32500
H  48.38400 32.84700 35.27300
H  50.45300 41.26300 30.27500
H  51.84300 40.54700 31.12400
H  50.21700 40.19800 31.55200
H  51.68500 41.91700 28.30400
H  53.10000 41.86300 27.30900
H  53.20000 41.06200 28.86100
H  51.56500 36.08400 24.13300
H  49.40800 34.16900 23.70600
H  50.15900 37.65300 23.33900
H  48.75100 36.98600 24.05300
H  49.47400 36.22400 22.53200
H  51.31800 32.48300 24.57000
H  52.28800 33.92300 24.00400
H  50.38800 33.19900 21.90200
H  51.26500 31.72900 22.53000
H  52.14600 33.19000 21.95100
H  46.36700 30.61800 26.15300
H  46.61500 29.43800 27.33700
H  47.96100 29.76800 26.23500
H  45.25000 32.72800 31.17100
H  44.31500 31.61800 34.85400
H  45.96200 32.08300 35.33100
H  45.57800 30.49900 34.65900

