158

Mg 37.02700 48.96500 24.97500
C  37.30400 47.04100 27.83900
C  35.18300 51.25800 26.62300
C  36.29000 50.51900 21.97000
C  38.36600 46.27500 23.10600
N  36.19200 48.99300 26.96000
C  36.66900 48.28800 27.97500
C  36.15800 48.84100 29.28100
C  35.24000 50.04900 28.89700
C  35.44700 50.07400 27.39200
C  33.72300 50.02400 29.32400
C  37.39200 49.23200 30.15500
C  37.01500 49.72800 31.52900
H  35.62600 49.64500 32.12300
N  36.08800 50.75700 24.47300
C  35.40800 51.59000 25.30100
C  35.14000 52.80200 24.63300
C  35.21600 52.51500 23.23100
C  35.84200 51.19300 23.17200
C  34.61600 54.05400 25.37200
C  34.92000 53.43900 22.02600
O  34.95500 53.02300 20.89700
C  34.66700 54.87900 22.27500
N  37.09400 48.32800 22.79000
C  36.86400 49.24500 21.80600
C  37.33800 48.65100 20.46300
C  38.20700 47.43900 20.86500
C  37.86100 47.32600 22.38100
C  36.20500 48.30700 19.40800
C  39.71700 47.45700 20.52800
C  40.20400 46.92300 19.19300
N  37.79100 47.12700 25.37300
C  38.24600 46.11400 24.49100
C  38.69600 44.98600 25.33800
C  38.38900 45.33600 26.67700
C  37.70900 46.58900 26.60500
C  39.36200 43.68500 24.82700
C  38.36400 44.82600 28.05800
O  38.70900 43.78200 28.56800
C  37.78400 45.98900 28.87800
C  36.57800 45.50000 29.67000
O  35.41300 45.40600 29.30400
O  36.90000 45.66000 30.97900
C  35.89600 45.08600 31.92800
H  34.64800 52.02700 27.18500
H  36.30500 51.16700 21.09000
H  38.87000 45.60200 22.40800
H  35.64000 47.96500 29.67100
H  35.64500 51.01800 29.19000
H  33.46200 50.90900 29.90400
H  33.67200 49.16900 29.99800
H  33.10600 49.77400 28.46000
H  38.07200 49.97000 29.73000
H  37.95600 48.31600 30.32900
H  37.33500 50.76900 31.47400
H  37.68400 49.14600 32.16300
H  33.77500 54.57300 24.91100
H  35.42700 54.78100 25.39700
H  34.27600 53.80700 26.37800
H  33.70700 55.05200 22.76200
H  34.78600 55.43600 21.34500
H  35.44300 55.14400 22.99400
H  38.02400 49.43100 20.13200
H  37.69000 46.54300 20.52000
H  35.19200 48.28100 19.80800
H  36.63200 47.41300 18.95200
H  36.15100 49.02900 18.59300
H  40.28900 47.02000 21.34600
H  40.19300 48.43600 20.59000
H  39.32500 46.54500 18.67100
H  41.09000 46.29600 19.29500
H  40.47800 47.81600 18.63300
H  39.63600 43.88800 23.79200
H  38.65800 42.85300 24.84300
H  40.33900 43.49000 25.27000
H  38.62100 46.30400 29.50000
H  35.85700 45.56500 32.90700
H  36.24700 44.10100 32.23600
H  34.90400 44.94900 31.49700
Mg -12.06300 16.27400 41.14700
C  -9.14500 14.58000 40.33000
C  -10.85400 19.03500 39.62100
C  -15.12400 17.68800 41.29700
C  -13.46500 13.13900 42.11600
N  -10.17600 16.70900 39.98100
C  -9.09500 15.92400 39.94100
C  -7.95000 16.63800 39.29700
C  -8.42200 18.13900 39.15800
C  -9.92400 17.98900 39.53500
C  -7.66000 19.14900 40.13900
C  -7.40700 16.02000 37.93800
C  -6.10700 16.62100 37.55800
H  -5.61100 16.43900 36.12100
N  -12.80900 18.15600 40.70300
C  -12.14400 19.14000 40.09300
C  -13.03100 20.33500 39.97600
C  -14.26800 19.95900 40.58500
C  -14.11300 18.56400 40.94900
C  -12.54100 21.67500 39.43100
C  -15.45100 20.86600 40.80400
O  -15.45200 21.95700 40.29300
C  -16.50300 20.48900 41.72200
N  -14.00700 15.45300 41.55600
C  -15.14100 16.28800 41.54700
C  -16.41400 15.52200 41.88200
C  -15.87400 14.08900 42.22900
C  -14.36700 14.21000 41.92900
C  -17.34900 16.10100 43.01800
C  -16.46700 12.93900 41.30000
C  -16.79600 11.61900 41.93700
N  -11.47100 14.29800 41.40700
C  -12.08800 13.15600 41.80200
C  -11.05800 12.05200 41.85200
C  -9.97400 12.56300 41.28400
C  -10.23000 13.90800 40.98800
C  -11.21400 10.67100 42.49300
C  -8.57400 12.26800 41.00700
O  -7.96800 11.21900 41.26200
C  -7.95500 13.56000 40.48500
C  -6.87300 14.03200 41.39200
O  -7.06900 14.31400 42.58500
O  -5.65300 14.07600 40.77100
C  -4.52400 13.97000 41.70000
H  -10.42800 19.96900 39.24800
H  -16.16100 18.02200 41.21300
H  -13.88400 12.23900 42.57100
H  -7.12100 16.66300 40.00400
H  -8.53400 18.47400 38.12700
H  -7.35700 18.64400 41.05600
H  -8.22700 20.05800 40.34200
H  -6.77600 19.52900 39.62800
H  -8.03200 16.43200 37.14600
H  -7.42500 14.93100 37.89300
H  -5.36900 16.32900 38.30600
H  -6.22400 17.70000 37.66000
H  -13.38300 22.28700 39.10900
H  -11.97200 21.40600 38.54200
H  -11.89300 22.26400 40.08100
H  -17.37900 20.15000 41.17000
H  -16.73600 21.38400 42.29900
H  -16.25100 19.65900 42.38100
H  -16.94300 15.45300 40.93100
H  -15.98400 13.89800 43.29600
H  -17.66300 15.25200 43.62600
H  -18.33700 16.42000 42.68600
H  -16.90000 16.79700 43.72600
H  -15.82200 12.84100 40.42700
H  -17.38200 13.31300 40.84100
H  -16.49300 10.77500 41.31700
H  -17.86000 11.50000 42.14200
H  -16.29200 11.45300 42.88900
H  -11.49400 10.03000 41.65700
H  -11.93300 10.62800 43.31100
H  -10.23400 10.35300 42.84900
H  -7.48900 13.42000 39.51000
H  -4.49800 14.86100 42.32800
H  -3.73600 14.02100 40.95000
H  -4.42700 13.00000 42.18800

