158

Mg 40.14700 8.26900 29.97800
C  41.48200 9.45300 32.98500
C  37.61300 6.77200 31.69100
C  39.14800 6.93800 27.16100
C  43.09000 9.58200 28.35600
N  39.65300 8.09200 32.05900
C  40.23700 8.82600 33.09000
C  39.42300 8.64700 34.38500
C  38.14800 7.80700 34.00700
C  38.49500 7.50200 32.52300
C  37.89900 6.56600 34.83300
C  39.12100 10.03800 35.07700
C  38.96300 9.95000 36.57600
H  39.94700 10.76100 37.43900
N  38.49100 7.11100 29.47600
C  37.54900 6.62400 30.33300
C  36.67100 5.78400 29.58000
C  37.03300 5.89400 28.24200
C  38.32500 6.72000 28.23900
C  35.55800 4.88900 30.25600
C  36.36300 5.28700 27.02000
O  36.92000 5.19200 25.94900
C  34.94600 4.62500 27.12500
N  41.08200 8.10700 28.08400
C  40.37700 7.60900 27.09900
C  41.15500 7.70800 25.74800
C  42.21700 8.78200 26.07400
C  42.11400 8.81900 27.60500
C  41.77200 6.35200 25.33800
C  42.03300 10.15900 25.26000
C  40.68600 10.69500 24.81300
N  41.91000 9.27800 30.49400
C  42.98100 9.79000 29.73000
C  43.90300 10.53100 30.53600
C  43.38600 10.37700 31.80800
C  42.21700 9.60100 31.78600
C  45.13100 11.31700 30.14900
C  43.65900 10.64900 33.17800
O  44.65500 11.24100 33.68500
C  42.42800 10.11900 33.96400
C  42.86800 9.03600 34.91700
O  43.41700 7.92900 34.63300
O  42.54800 9.41500 36.26200
C  42.60500 8.25500 37.17100
H  36.73900 6.44900 32.26000
H  38.93500 6.32300 26.28400
H  43.89300 10.09900 27.82700
H  40.06600 8.00100 34.98300
H  37.27700 8.46000 34.05900
H  36.86800 6.50900 35.18100
H  38.48800 6.65600 35.74600
H  38.12800 5.57800 34.43500
H  38.13900 10.42800 34.80700
H  39.86400 10.81100 34.88100
H  38.98700 8.90900 36.89800
H  37.95200 10.24800 36.85400
H  35.76400 4.89600 31.32700
H  35.63600 3.85900 29.91000
H  34.56400 5.29900 30.07600
H  34.91700 3.83900 27.88100
H  34.77300 4.26000 26.11300
H  34.30100 5.46900 27.36900
H  40.49400 8.02500 24.94200
H  43.19200 8.36700 25.82200
H  42.72000 6.50300 24.82200
H  41.12500 5.87700 24.60100
H  41.90600 5.62400 26.13800
H  42.64700 10.14700 24.36000
H  42.50300 10.91100 25.89300
H  40.35100 10.14600 23.93300
H  40.75900 11.78100 24.75800
H  39.87100 10.40200 25.47400
H  44.81800 11.70900 29.18200
H  46.07300 10.77000 30.09800
H  45.19800 12.13700 30.86400
H  41.91000 11.00900 34.32200
H  43.63600 7.90500 37.12800
H  41.81900 7.57300 36.84800
H  42.38800 8.58200 38.18800
Mg 25.70300 51.36600 26.50000
C  23.59600 52.15600 29.28300
C  28.14600 50.53900 28.84600
C  27.88000 50.88300 24.00500
C  23.24600 52.43900 24.35200
N  25.81800 51.28000 28.83600
C  24.85900 51.72000 29.74800
C  25.46200 51.81700 31.17700
C  26.89100 51.15300 31.01200
C  26.95300 51.00200 29.44200
C  28.07400 52.05800 31.49900
C  24.60100 51.02400 32.22800
C  25.18600 50.76900 33.69200
H  24.41100 51.43800 34.81700
N  27.72100 50.82000 26.44800
C  28.53900 50.48400 27.48600
C  29.86000 50.09900 26.98300
C  29.85000 50.37600 25.58600
C  28.44200 50.68300 25.28900
C  30.92300 49.46100 27.81400
C  30.98600 50.16300 24.63700
O  30.79700 50.37300 23.44800
C  32.33700 49.97200 25.15800
N  25.66400 51.72800 24.47600
C  26.65000 51.41600 23.66200
C  26.16400 51.43400 22.17600
C  24.68400 51.95500 22.22400
C  24.46700 52.02300 23.77700
C  27.05300 52.19800 21.27200
C  23.75100 50.99200 21.43600
C  23.77700 49.43400 21.69800
N  23.82900 52.12900 26.71400
C  22.90400 52.48600 25.73900
C  21.62300 52.90600 26.47700
C  21.92300 52.75400 27.78900
C  23.22500 52.23500 27.91000
C  20.46000 53.39500 25.80600
C  21.30700 53.01600 29.04100
O  20.22000 53.38700 29.33900
C  22.46000 52.79300 30.07500
C  22.84000 54.12900 30.51400
O  23.65800 54.82900 29.97000
O  22.23500 54.38500 31.70000
C  22.55400 55.62700 32.46800
H  28.87700 50.38400 29.64200
H  28.49900 50.74600 23.11700
H  22.47100 52.74100 23.64500
H  25.48000 52.85100 31.52300
H  27.11000 50.16400 31.41500
H  28.81000 51.48900 32.06600
H  27.52000 52.74400 32.14100
H  28.66400 52.51500 30.70500
H  24.54000 49.99600 31.87000
H  23.62600 51.49700 32.34600
H  26.22500 50.99100 33.93500
H  25.03400 49.71600 33.92500
H  30.67400 49.28800 28.86100
H  31.80600 50.08900 27.68800
H  31.15700 48.56800 27.23500
H  32.37200 48.92100 25.44500
H  32.66100 50.64400 25.95400
H  33.02600 50.10400 24.32300
H  26.15800 50.41100 21.80100
H  24.62300 52.97100 21.83300
H  27.90500 51.53000 21.14800
H  27.22200 52.99900 21.99200
H  26.58500 52.72800 20.44200
H  24.07600 51.10500 20.40100
H  22.76600 51.45700 21.40900
H  22.75400 49.09800 21.86500
H  24.46700 49.15800 22.49500
H  24.17800 48.93500 20.81500
H  20.73000 53.86200 24.85900
H  20.09600 54.20400 26.43900
H  19.77400 52.54800 25.79100
H  22.18100 52.15800 30.91500
H  22.59300 56.47500 31.78500
H  23.47500 55.56200 33.04800
H  21.69400 55.87600 33.09100

