158

Mg 25.20200 1.80900 30.11900
C  27.40100 1.71400 32.85800
C  22.59000 2.17400 32.36800
C  23.18700 1.81700 27.40200
C  27.87600 0.97600 27.93500
N  25.09300 2.13300 32.32300
C  26.10100 2.10400 33.21500
C  25.67800 2.48700 34.63700
C  24.14700 2.42900 34.52100
C  23.86700 2.20100 33.02500
C  23.39400 1.39800 35.46100
C  26.28500 3.78900 35.17600
C  26.92400 3.65800 36.56700
H  26.63600 4.71800 37.59000
N  23.12500 1.85500 29.88000
C  22.29500 2.02300 31.00900
C  20.96700 1.99400 30.36600
C  21.07100 1.86600 28.92500
C  22.50900 1.78800 28.72800
C  19.64600 2.13100 31.16300
C  19.98900 1.80500 27.83500
O  20.25600 1.54800 26.66600
C  18.56400 1.98100 28.15100
N  25.53800 1.33300 28.00900
C  24.52700 1.64600 27.03500
C  25.04100 1.54500 25.56700
C  26.60900 1.38400 25.83700
C  26.71800 1.27600 27.34600
C  24.38100 0.50100 24.64500
C  27.54000 2.50800 25.14900
C  27.61600 3.81100 25.98000
N  27.17500 1.42400 30.31500
C  28.11300 1.01500 29.38100
C  29.31800 0.57600 30.07800
C  29.16600 0.99500 31.43300
C  27.78300 1.46400 31.51500
C  30.53200 -0.01200 29.42300
C  29.76100 1.13300 32.68300
O  30.92000 1.05000 33.01500
C  28.67300 1.65900 33.66500
C  28.56300 0.70500 34.75500
O  27.86000 -0.35500 34.79900
O  29.30100 1.22400 35.81800
C  29.28800 0.52300 37.11300
H  21.77200 2.36800 33.06500
H  22.54100 1.77500 26.52200
H  28.71900 0.82500 27.25700
H  26.01200 1.65800 35.26200
H  23.64900 3.35700 34.79800
H  22.87100 0.59500 34.94100
H  22.62800 1.99800 35.95200
H  24.00200 0.99600 36.27200
H  25.47400 4.51400 35.11200
H  27.09000 4.01100 34.47600
H  28.00600 3.60500 36.44400
H  26.62300 2.67300 36.92400
H  19.03100 3.01800 31.01500
H  19.73700 1.96800 32.23700
H  19.01000 1.30300 30.85000
H  18.56000 2.93800 28.67400
H  18.32200 1.16300 28.82900
H  17.91500 1.94100 27.27600
H  24.89300 2.56200 25.20200
H  26.85400 0.40900 25.41800
H  23.96400 0.98900 23.76400
H  23.57000 -0.00900 25.16500
H  25.09400 -0.28400 24.39500
H  27.38800 2.54900 24.07000
H  28.57000 2.16700 25.25100
H  27.37900 4.62900 25.29900
H  28.63800 3.99400 26.31100
H  26.89100 3.86400 26.79200
H  30.85000 -0.84100 30.05500
H  31.36400 0.68400 29.31400
H  30.47300 -0.50600 28.45300
H  28.97000 2.61700 34.09400
H  28.47500 0.82800 37.77300
H  30.16700 0.83200 37.67900
H  29.54200 -0.53400 37.04500
Mg -11.36700 37.23300 41.80900
C  -9.36800 34.41800 40.91800
C  -8.72500 39.11000 40.35100
C  -13.24900 39.85300 41.87300
C  -13.99000 35.22600 42.40400
N  -9.29500 36.75600 40.73300
C  -8.73500 35.54600 40.52800
C  -7.29200 35.66900 39.99100
C  -7.06800 37.25800 40.06200
C  -8.44600 37.76500 40.41400
C  -5.98900 37.65400 41.09500
C  -7.04700 34.97000 38.59800
C  -5.54700 35.08600 38.15800
H  -5.30800 35.59400 36.76300
N  -11.03300 39.17900 41.35200
C  -9.90500 39.73000 40.72300
C  -10.02900 41.10700 40.49100
C  -11.26400 41.44600 41.05700
C  -11.91700 40.14800 41.45600
C  -9.10000 42.01400 39.68200
C  -11.92400 42.90300 41.19400
O  -11.30800 43.91100 40.74200
C  -13.29500 43.13300 41.74100
N  -13.48400 37.44400 41.55200
C  -13.95900 38.67000 41.86900
C  -15.38300 38.59900 42.46600
C  -15.75000 37.04500 42.23000
C  -14.33500 36.56100 42.04500
C  -15.33500 39.13900 43.95600
C  -16.66600 36.82900 40.92100
C  -16.78600 35.43900 40.34600
N  -11.68000 35.24900 41.71900
C  -12.76200 34.53100 42.15500
C  -12.48000 33.13800 42.15500
C  -11.13800 33.02300 41.75600
C  -10.67400 34.37800 41.48400
C  -13.51600 32.14800 42.50000
C  -10.01100 32.12300 41.49900
O  -9.86500 30.95500 41.75900
C  -8.91900 32.99700 40.75500
C  -7.59300 32.70500 41.35000
O  -6.60400 32.27700 40.71800
O  -7.59700 33.12500 42.65000
C  -6.24300 32.92700 43.27100
H  -7.81200 39.56800 39.96400
H  -13.81300 40.75500 42.11800
H  -14.76100 34.61000 42.87200
H  -6.69400 35.04100 40.65100
H  -6.84000 37.58700 39.04800
H  -5.36600 36.77100 41.23800
H  -6.42300 37.96400 42.04600
H  -5.37100 38.43900 40.65800
H  -7.68300 35.24600 37.75700
H  -7.18400 33.94400 38.93800
H  -4.94400 34.18700 38.28500
H  -5.03500 35.84800 38.74500
H  -8.73000 42.71700 40.42700
H  -9.63500 42.60100 38.93500
H  -8.31600 41.50200 39.12400
H  -13.44600 44.20700 41.85300
H  -13.33800 42.67800 42.73000
H  -14.06800 42.78500 41.05500
H  -16.15300 39.14800 41.92400
H  -16.26800 36.48500 43.00800
H  -15.81800 40.09900 44.13800
H  -14.33800 39.30600 44.36200
H  -15.81500 38.36300 44.55200
H  -16.31200 37.59000 40.22500
H  -17.64100 37.19500 41.24400
H  -17.42400 34.81600 40.97300
H  -15.86400 34.86300 40.42100
H  -17.09600 35.40400 39.30100
H  -14.25200 32.63200 43.14300
H  -13.00700 31.36600 43.06400
H  -13.97900 31.64400 41.65200
H  -8.87900 32.68200 39.71200
H  -5.91500 33.92200 43.57000
H  -5.38300 32.54700 42.71900
H  -6.54500 32.38300 44.16600

