158

Mg 46.85000 16.68300 28.49600
C  44.98300 16.40900 31.46800
C  49.25300 18.44700 30.37100
C  48.46900 17.38500 25.66400
C  44.15900 15.37900 26.74900
N  47.04500 17.42000 30.66300
C  46.21600 17.03600 31.65300
C  46.87100 17.31900 32.97000
C  47.97300 18.30300 32.63500
C  48.16600 18.08000 31.11900
C  47.70800 19.73400 33.00200
C  47.32400 16.09200 33.75400
C  47.56700 16.33100 35.22600
H  47.16600 17.63100 35.90400
N  48.76800 17.61600 28.10100
C  49.60000 18.23600 28.99700
C  50.78000 18.71200 28.24600
C  50.44500 18.53800 26.88600
C  49.24500 17.79500 26.81800
C  51.96700 19.30600 28.92100
C  51.22700 19.06300 25.60900
O  50.81600 19.04100 24.48200
C  52.43000 19.86400 25.75700
N  46.41600 16.38200 26.52000
C  47.21200 16.78800 25.50400
C  46.55400 16.54900 24.10600
C  45.30800 15.66400 24.52300
C  45.25800 15.81600 26.04100
C  46.15200 17.71000 23.32600
C  45.32600 14.13700 24.05300
C  44.57300 14.03800 22.68200
N  44.89800 16.09400 28.97100
C  43.96900 15.49300 28.14700
C  42.84500 15.05200 28.97500
C  43.24900 15.34600 30.27300
C  44.45000 16.03900 30.21700
C  41.59200 14.43000 28.49500
C  42.91800 15.25800 31.67400
O  41.94400 14.78000 32.26300
C  43.93000 15.98500 32.41700
C  43.24200 17.12300 32.99700
O  43.20500 18.23400 32.45200
O  42.63000 16.89300 34.19100
C  42.28200 17.98700 35.02000
H  50.10100 18.90700 30.88400
H  48.83500 17.54100 24.64700
H  43.41500 14.81200 26.18500
H  46.20500 17.93200 33.57600
H  48.96600 18.06300 33.01400
H  47.24100 20.18100 32.12500
H  48.58800 20.25000 33.38700
H  46.98800 19.80700 33.81700
H  48.27700 15.82300 33.29800
H  46.70600 15.21500 33.56400
H  48.61000 16.10500 35.44400
H  46.84400 15.68800 35.72900
H  52.82100 19.54800 28.28800
H  52.23200 18.52000 29.62900
H  51.70100 20.12300 29.59200
H  52.17800 20.75700 26.32900
H  52.78600 20.28300 24.81500
H  53.20500 19.22500 26.17900
H  47.19800 15.96400 23.44800
H  44.35000 16.11400 24.26400
H  45.15600 17.53200 22.92000
H  46.85100 17.78100 22.49300
H  46.30500 18.49500 24.06600
H  44.72300 13.50100 24.70200
H  46.28900 13.65000 23.89700
H  45.17200 13.46800 21.97200
H  44.24200 15.02800 22.36900
H  43.77500 13.32600 22.89500
H  41.37000 13.55100 29.10000
H  41.53700 14.23600 27.42400
H  40.75900 15.10200 28.69700
H  44.29900 15.41000 33.26700
H  42.01300 18.89100 34.47500
H  43.01800 18.23900 35.78300
H  41.35800 17.68000 35.51000
Mg -6.01900 25.35700 25.54800
C  -4.63900 26.30800 28.62300
C  -8.10700 23.30500 27.44500
C  -6.97400 23.94400 22.69600
C  -3.61600 27.17700 23.89600
N  -6.40100 24.89900 27.74400
C  -5.85400 25.64800 28.74400
C  -6.32800 25.09300 30.11300
C  -7.20300 23.96400 29.75500
C  -7.20400 24.02000 28.22200
C  -6.76300 22.58000 30.22800
C  -7.01400 26.16100 31.09000
C  -6.50000 26.20800 32.56400
H  -6.04100 25.02800 33.44100
N  -7.39900 23.82700 25.10700
C  -8.25100 23.25700 26.03000
C  -9.21400 22.34200 25.26400
C  -8.85400 22.52100 23.86600
C  -7.70300 23.42600 23.81200
C  -10.35300 21.53900 26.01300
C  -9.50500 21.92000 22.68900
O  -8.96600 21.86200 21.59800
C  -10.85900 21.35800 22.85500
N  -5.23000 25.27200 23.68000
C  -5.89500 24.72900 22.62000
C  -5.17000 25.02000 21.20900
C  -4.26200 26.20600 21.56500
C  -4.36700 26.22800 23.17400
C  -4.41700 23.82700 20.60900
C  -4.33400 27.50200 20.78300
C  -3.08800 27.92300 20.00300
N  -4.41800 26.49100 26.06100
C  -3.51200 27.23100 25.31100
C  -2.62400 28.00100 26.20600
C  -2.96600 27.55200 27.45700
C  -4.01600 26.65600 27.40700
C  -1.51100 28.91900 25.80700
C  -2.67300 27.68000 28.89500
O  -1.83300 28.39600 29.46000
C  -3.76900 26.91100 29.74200
C  -3.11400 25.97100 30.68200
O  -2.89800 24.77700 30.48000
O  -2.83600 26.65100 31.86800
C  -2.34100 25.84500 32.96700
H  -8.60900 22.61900 28.12900
H  -7.33000 23.65800 21.70400
H  -2.84800 27.72200 23.34300
H  -5.46400 24.68500 30.63800
H  -8.21600 24.15100 30.11300
H  -7.57700 22.12700 30.79400
H  -5.81400 22.62600 30.76300
H  -6.73500 21.89000 29.38500
H  -8.06500 25.87600 31.15400
H  -7.08700 27.17900 30.70800
H  -7.30200 26.73200 33.08200
H  -5.66100 26.89400 32.44400
H  -11.34900 21.96900 25.90800
H  -10.30600 21.54100 27.10200
H  -10.42000 20.48100 25.75700
H  -11.61300 22.04600 23.23800
H  -10.90200 20.40900 23.38800
H  -11.24100 21.17600 21.85000
H  -5.95000 25.33900 20.51900
H  -3.25200 25.80500 21.48900
H  -4.13700 23.14700 21.41300
H  -3.62100 24.30600 20.03900
H  -5.08800 23.22300 19.99800
H  -4.56000 28.33000 21.45500
H  -5.24400 27.46700 20.18500
H  -2.82200 27.05600 19.39900
H  -2.29300 28.17800 20.70500
H  -3.11700 28.82300 19.39000
H  -1.82800 29.92500 25.53200
H  -1.04300 28.48500 24.92300
H  -0.72700 29.07500 26.54700
H  -4.43700 27.58200 30.28300
H  -1.27400 26.03500 33.08800
H  -2.33100 24.76400 32.82700
H  -2.83400 26.13100 33.89600

