158

Mg 25.42400 1.05400 29.32800
C  27.46500 1.00600 32.17000
C  22.68700 1.91700 31.30800
C  23.40100 1.31200 26.57200
C  28.06700 0.12600 27.31100
N  25.10700 1.32400 31.50500
C  26.12200 1.35300 32.48100
C  25.60000 1.67700 33.90200
C  24.03900 1.84700 33.61200
C  23.87100 1.64000 32.06600
C  23.11900 0.83200 34.39400
C  26.16800 2.93600 34.67300
C  26.76600 2.74300 36.08000
H  26.61200 3.84000 37.11200
N  23.32000 1.48000 28.94100
C  22.39000 1.84200 29.88500
C  21.10800 2.17600 29.33000
C  21.36000 1.99600 27.88600
C  22.74400 1.57600 27.72400
C  19.79700 2.43600 30.12600
C  20.24500 2.08000 26.70800
O  20.59700 1.88900 25.59700
C  18.91100 2.50500 26.96900
N  25.62500 0.62600 27.24200
C  24.68800 0.85500 26.31400
C  25.31100 0.87200 24.85000
C  26.75900 0.42700 25.11400
C  26.83700 0.38600 26.65000
C  24.45200 0.08600 23.87400
C  27.85200 1.40900 24.57600
C  29.00800 0.73300 23.86700
N  27.41300 0.61900 29.62000
C  28.39100 0.26100 28.70800
C  29.66600 0.05000 29.43500
C  29.34600 0.37300 30.79500
C  27.96100 0.67400 30.89500
C  30.90400 -0.45500 28.95300
C  29.86800 0.39600 32.15300
O  30.97200 0.16200 32.60400
C  28.63500 0.87200 33.07400
C  28.50300 -0.17600 34.15100
O  28.36600 -1.35400 33.88900
O  28.71500 0.34500 35.45200
C  29.02300 -0.65100 36.55300
H  21.89500 2.17000 32.01500
H  22.80800 1.43700 25.66300
H  28.81900 -0.34700 26.67500
H  25.80000 0.83000 34.55800
H  23.65300 2.85800 33.74200
H  22.62200 0.13000 33.72400
H  22.44300 1.36700 35.06100
H  23.65300 0.20600 35.10900
H  25.39100 3.69900 34.72900
H  26.98400 3.41200 34.12900
H  27.83400 2.74800 35.86400
H  26.67200 1.76600 36.55400
H  19.94500 2.52900 31.20200
H  19.06600 1.67200 29.86000
H  19.26000 3.34400 29.85100
H  18.35100 2.73800 26.06300
H  18.82200 3.47800 27.45200
H  18.33100 1.79200 27.55500
H  25.35600 1.94300 24.65200
H  26.98200 -0.60100 24.82900
H  23.61100 -0.44600 24.31800
H  25.23600 -0.55800 23.47800
H  24.09800 0.78600 23.11700
H  28.32000 1.96500 25.38800
H  27.24800 2.09700 23.98600
H  29.99700 1.16500 24.02100
H  28.73900 0.78300 22.81200
H  29.15800 -0.30900 24.14700
H  30.86400 -1.53500 28.80700
H  31.59900 -0.09100 29.71000
H  31.02700 0.03400 27.98700
H  28.72400 1.68400 33.79500
H  28.23300 -0.58200 37.30100
H  29.97600 -0.42100 37.03000
H  29.07500 -1.64000 36.09700
Mg 45.62000 3.70600 46.97800
C  43.26300 6.25900 46.55000
C  43.09500 1.47600 46.91500
C  47.86200 1.30400 47.17500
C  48.09400 6.08800 46.46300
N  43.47400 3.90400 46.67100
C  42.67800 4.99500 46.69700
C  41.23000 4.58800 46.63000
C  41.26500 3.09000 47.15600
C  42.71200 2.80000 46.85700
C  40.78200 2.91900 48.59200
C  40.64900 4.64100 45.18300
C  39.51700 5.63600 44.81700
H  39.82500 6.52500 43.60500
N  45.47600 1.67300 47.01300
C  44.37400 0.91700 47.02600
C  44.69400 -0.48700 47.16300
C  46.11500 -0.56800 47.26600
C  46.54800 0.83500 47.08700
C  43.63300 -1.57700 46.99200
C  46.98700 -1.91500 47.32800
O  46.39200 -3.00600 47.27600
C  48.52700 -1.88200 47.45100
N  47.61200 3.68300 46.68100
C  48.33400 2.65200 47.02800
C  49.83600 2.85800 47.30300
C  49.88900 4.29800 46.68000
C  48.48600 4.77800 46.53600
C  50.15400 2.69100 48.80600
C  50.77000 4.58900 45.40600
C  49.95900 4.74300 44.10200
N  45.71700 5.77400 46.62500
C  46.76200 6.62600 46.44400
C  46.33900 8.02400 46.36700
C  44.96000 7.91600 46.35200
C  44.65000 6.52100 46.52400
C  47.32100 9.20200 46.26000
C  43.64000 8.63600 46.41700
O  43.47200 9.81900 46.33600
C  42.56800 7.67300 46.53500
C  41.75000 7.91300 47.84900
O  42.03200 7.44500 48.94500
O  40.61500 8.52900 47.49600
C  39.61800 8.89200 48.48600
H  42.26600 0.79300 47.11300
H  48.65700 0.61600 47.47100
H  48.84200 6.87400 46.58400
H  40.74800 5.17200 47.41300
H  40.59400 2.46700 46.56400
H  39.89100 2.29600 48.50700
H  40.46100 3.85000 49.06000
H  41.49100 2.45000 49.27400
H  40.33400 3.64800 44.86200
H  41.54300 4.96300 44.64900
H  39.38000 6.25000 45.70700
H  38.67500 4.94800 44.74500
H  43.65700 -1.87300 45.94400
H  42.69600 -1.16400 47.36700
H  44.00600 -2.39300 47.61100
H  48.72800 -1.40400 48.40900
H  49.02800 -1.37100 46.62800
H  48.84800 -2.92300 47.41400
H  50.42000 2.14500 46.72100
H  50.30000 4.86700 47.51400
H  50.81300 1.82300 48.83100
H  49.21000 2.55700 49.33400
H  50.80700 3.54200 48.99900
H  51.50500 3.80600 45.22000
H  51.25900 5.55000 45.57000
H  50.61900 4.68900 43.23600
H  49.52000 5.74000 44.14400
H  49.21000 3.96000 43.98900
H  47.44500 9.51100 47.29800
H  46.71800 9.91200 45.69500
H  48.17800 9.30200 45.59400
H  41.79500 7.73400 45.76900
H  39.67800 9.96600 48.65900
H  39.64900 8.35900 49.43600
H  38.67600 8.67900 47.98000

