158

Mg 43.71000 4.40100 47.42400
C  41.58200 7.08200 46.90600
C  41.00900 2.20300 47.11700
C  45.85600 1.80200 47.24300
C  46.44900 6.58700 47.26400
N  41.55600 4.64600 46.88800
C  40.85900 5.87100 46.72400
C  39.36000 5.56500 46.34800
C  39.30500 4.02100 46.53900
C  40.69800 3.58400 46.77400
C  38.25300 3.57600 47.66200
C  39.07700 5.98900 44.87600
C  37.85300 6.89100 44.59500
H  37.21200 6.64100 43.21000
N  43.43400 2.37000 47.27600
C  42.26000 1.65900 47.34400
C  42.50400 0.24500 47.20600
C  43.89100 0.09900 47.21100
C  44.47200 1.48000 47.19200
C  41.41500 -0.69600 47.20100
C  44.63000 -1.19600 47.03600
O  44.07300 -2.26700 46.76100
C  46.11800 -1.36200 47.14600
N  45.79100 4.19300 47.25600
C  46.44000 3.03700 47.30000
C  47.94100 3.16100 47.56600
C  48.15200 4.68500 47.51000
C  46.75200 5.19700 47.29400
C  48.71800 2.36500 48.72100
C  49.20500 5.13900 46.37800
C  50.68100 5.28500 46.73000
N  43.94000 6.42700 47.25200
C  45.10700 7.13800 47.16200
C  44.75300 8.51900 47.06400
C  43.36600 8.56600 47.02700
C  42.94400 7.24900 47.07900
C  45.72800 9.67800 46.83400
C  42.23000 9.43000 46.88800
O  42.19500 10.62900 46.89600
C  41.00500 8.49300 46.82000
C  40.07800 9.06000 47.88100
O  40.00800 8.66800 49.04200
O  39.16700 9.94600 47.27800
C  38.14600 10.62200 48.08300
H  40.16700 1.55800 46.85900
H  46.55000 0.96900 47.36800
H  47.17800 7.40000 47.23700
H  38.79500 6.15800 47.06600
H  38.86700 3.56900 45.64900
H  37.55000 4.37500 47.89600
H  38.85300 3.34000 48.54000
H  37.79400 2.67800 47.24800
H  39.10200 5.13300 44.20300
H  39.90100 6.66100 44.63800
H  38.06900 7.95900 44.64000
H  37.12900 6.67700 45.38000
H  41.72300 -1.64400 46.76000
H  40.55600 -0.41400 46.59300
H  41.12100 -0.78900 48.24700
H  46.51600 -0.82000 46.28800
H  46.43400 -2.39900 47.26100
H  46.38100 -0.95400 48.12200
H  48.42800 2.81800 46.65300
H  48.49000 5.02500 48.48800
H  49.34600 1.62300 48.22800
H  48.05900 1.92100 49.46700
H  49.48600 3.03200 49.11300
H  48.95400 6.16400 46.10700
H  49.11100 4.45000 45.53900
H  50.97900 4.27500 47.01100
H  50.80300 5.83300 47.66400
H  51.25300 5.76800 45.93800
H  45.09000 10.54500 47.00300
H  46.08000 9.76200 45.80600
H  46.50800 9.82200 47.58200
H  40.64700 8.59000 45.79500
H  37.82400 9.95500 48.88300
H  37.24500 10.65400 47.47100
H  38.59700 11.55500 48.41900
Mg 46.79300 15.81700 27.85900
C  44.48400 15.72800 30.70700
C  48.92700 17.60100 29.81800
C  48.62400 16.51100 25.13100
C  44.13800 14.72500 25.84600
N  46.57400 16.70300 29.97100
C  45.67800 16.46400 30.97400
C  46.11600 17.02700 32.32900
C  47.42000 17.83500 31.98900
C  47.70600 17.29900 30.50600
C  47.27800 19.35500 31.92500
C  46.28700 15.85400 33.35400
C  45.62200 15.97600 34.75900
H  45.63100 17.31400 35.34300
N  48.48900 16.90800 27.56700
C  49.31300 17.47300 28.53300
C  50.55400 18.05000 27.86600
C  50.40800 17.83100 26.47900
C  49.11300 16.98900 26.35400
C  51.66600 18.75900 28.59000
C  51.24200 18.36500 25.35500
O  50.88300 18.26000 24.21000
C  52.54700 19.16900 25.65900
N  46.39200 15.82600 25.74200
C  47.39100 15.96200 24.87500
C  46.94900 15.49200 23.46300
C  45.58800 14.78900 23.71600
C  45.30200 15.14100 25.16900
C  46.77700 16.75900 22.47300
C  45.45800 13.29600 23.49100
C  46.11800 12.36800 24.51900
N  44.76900 15.19100 28.17900
C  43.84300 14.84600 27.24900
C  42.60200 14.44700 27.90100
C  42.81000 14.66900 29.31600
C  44.09300 15.22100 29.37300
C  41.35800 13.84500 27.22200
C  42.27200 14.59200 30.65400
O  41.20900 14.13300 31.05600
C  43.31700 15.28800 31.61500
C  42.60600 16.43200 32.17300
O  42.70200 17.60100 31.84600
O  41.98100 15.99100 33.29800
C  41.55700 17.01400 34.18900
H  49.51900 18.27400 30.44200
H  49.25200 16.53800 24.23900
H  43.39600 14.26300 25.19200
H  45.27900 17.55500 32.78500
H  48.25000 17.61000 32.65900
H  46.47900 19.62500 32.61500
H  47.07500 19.62800 30.88900
H  48.22400 19.79000 32.24500
H  47.34300 15.75100 33.60500
H  45.87300 14.94700 32.91300
H  46.28700 15.35000 35.35400
H  44.59800 15.60900 34.81700
H  52.47500 18.02900 28.59600
H  51.40500 19.14600 29.57500
H  51.94300 19.63000 27.99600
H  53.19800 18.63900 26.35400
H  52.16700 20.11300 26.04900
H  53.05000 19.44200 24.73100
H  47.62700 14.75800 23.02600
H  44.81200 15.28000 23.12900
H  45.79700 16.85000 22.00400
H  47.46600 16.63000 21.63900
H  47.03900 17.69800 22.96000
H  46.11100 13.12900 22.63400
H  44.43300 13.00300 23.26500
H  46.56600 12.93600 25.33400
H  46.90700 11.75200 24.08900
H  45.40700 11.66100 24.94800
H  41.40200 14.19500 26.19100
H  40.43300 14.29900 27.57900
H  41.33400 12.75500 27.20900
H  43.58500 14.69600 32.49100
H  41.44400 16.68500 35.22200
H  40.61700 17.31900 33.73000
H  42.16700 17.89400 34.39800

