158

Mg 26.05100 0.23900 29.53500
C  28.08900 -0.24100 32.32700
C  23.39300 0.89000 31.52500
C  24.16200 0.31300 26.77000
C  28.84000 -0.77500 27.57300
N  25.84700 0.32400 31.78200
C  26.77000 0.00900 32.73900
C  26.12100 0.11200 34.09900
C  24.62300 0.35200 33.78900
C  24.60100 0.67400 32.27800
C  23.62300 -0.66400 34.32700
C  26.82600 1.20700 34.99100
C  26.00100 1.70700 36.26800
H  26.78400 2.06600 37.52700
N  24.04600 0.63800 29.13400
C  23.07800 0.91500 30.13200
C  21.85600 1.25100 29.44100
C  22.05600 1.15000 28.06300
C  23.46900 0.67300 27.91500
C  20.62300 1.58200 30.21400
C  21.17000 1.49700 26.91100
O  21.43200 1.19700 25.71400
C  19.85900 2.09200 27.23800
N  26.40400 -0.46100 27.42800
C  25.42300 -0.19500 26.48900
C  26.03000 -0.39300 25.07400
C  27.56300 -0.66200 25.31700
C  27.62000 -0.58200 26.82600
C  25.31200 -1.48500 24.25700
C  28.50200 0.38100 24.56400
C  29.74600 -0.18300 23.89400
N  28.03500 -0.30800 29.82300
C  29.02900 -0.70900 28.96900
C  30.32500 -0.83700 29.63500
C  29.94800 -0.74200 30.97600
C  28.62100 -0.36900 31.01100
C  31.64700 -1.06000 29.05100
C  30.45200 -0.85400 32.29800
O  31.55000 -1.05300 32.81300
C  29.26300 -0.45000 33.28800
C  28.97600 -1.57600 34.29500
O  28.26100 -2.54500 34.12200
O  29.61400 -1.32800 35.43100
C  29.58300 -2.46800 36.31700
H  22.59600 0.87200 32.27100
H  23.49300 0.29100 25.90700
H  29.70600 -1.12400 27.00700
H  26.17100 -0.88300 34.54100
H  24.21700 1.25400 34.24700
H  24.12100 -1.23600 35.11000
H  23.49200 -1.32200 33.46800
H  22.66100 -0.30100 34.69000
H  27.10300 1.97400 34.26700
H  27.73900 0.75000 35.37200
H  25.13400 1.08400 36.48800
H  25.57500 2.65700 35.94500
H  19.88200 0.83100 29.94100
H  20.20600 2.53600 29.89000
H  20.69800 1.50600 31.29900
H  19.30900 1.18400 27.48700
H  19.46900 2.60600 26.35900
H  19.95200 2.92800 27.93200
H  25.84500 0.57700 24.61100
H  27.87600 -1.67600 25.06700
H  24.65600 -2.04200 24.92600
H  26.07100 -2.11600 23.79500
H  24.75500 -1.11500 23.39600
H  28.72600 1.05600 25.39000
H  28.03800 0.97300 23.77500
H  30.52600 0.34100 24.44600
H  29.70600 0.04300 22.82800
H  29.84900 -1.25600 24.05400
H  31.82100 -2.12100 28.87200
H  32.39800 -0.56400 29.66400
H  31.64300 -0.45000 28.14800
H  29.57200 0.48500 33.75500
H  30.43100 -2.20500 36.94900
H  29.82100 -3.45300 35.91600
H  28.66000 -2.39800 36.89200
Mg 47.91400 34.41800 26.52400
C  46.15000 33.10400 29.44200
C  48.38400 37.34800 28.34100
C  49.42700 35.70300 23.76400
C  47.21600 31.46800 24.84500
N  47.55200 35.03800 28.67900
C  46.84300 34.34700 29.65500
C  46.88200 35.18200 30.88900
C  47.05700 36.63500 30.40200
C  47.67400 36.37600 29.04600
C  45.78600 37.53500 30.39400
C  47.96100 34.63400 31.90200
C  47.55700 34.64600 33.46500
H  46.51000 35.67400 33.99800
N  48.79500 36.23400 26.12400
C  48.90100 37.31000 27.00200
C  49.48800 38.42200 26.32400
C  49.86200 37.99800 25.03400
C  49.28500 36.61800 24.89200
C  49.75900 39.79800 26.97000
C  50.70600 38.82000 24.03200
O  51.07800 38.22100 23.05900
C  51.31100 40.20700 24.29600
N  48.07600 33.72600 24.39400
C  48.88900 34.44300 23.56900
C  49.31100 33.54300 22.37000
C  48.85200 32.10800 22.87100
C  47.97500 32.43600 24.07000
C  48.76800 34.12700 20.98300
C  49.96600 31.12100 23.25900
C  49.76600 29.73600 22.68400
N  46.80300 32.70100 26.97000
C  46.57100 31.58700 26.12200
C  45.88600 30.61600 26.95900
C  45.62600 31.20800 28.17200
C  46.19300 32.48400 28.16300
C  45.53800 29.17800 26.50700
C  44.94200 30.95900 29.38500
O  44.18800 30.03500 29.66800
C  45.24900 32.19100 30.26800
C  45.99200 31.60300 31.52500
O  47.20000 31.37400 31.65400
O  45.05300 31.45600 32.51400
C  45.45500 30.72600 33.68300
H  48.41400 38.30000 28.87500
H  49.97800 35.97600 22.86200
H  47.19700 30.45300 24.44300
H  45.98100 35.09200 31.49600
H  47.79800 37.18100 30.98700
H  44.91200 37.20400 30.95500
H  45.44700 37.71400 29.37400
H  45.92900 38.48900 30.90100
H  48.85400 35.24600 31.77700
H  48.28200 33.66900 31.51000
H  48.46100 34.91900 34.01000
H  47.23900 33.64400 33.75100
H  50.83600 39.96800 26.96800
H  49.42100 39.80600 28.00600
H  49.24300 40.59900 26.44000
H  50.43500 40.84500 24.41700
H  51.87400 40.52000 23.41700
H  52.05300 40.21900 25.09400
H  50.39600 33.55600 22.27500
H  48.35100 31.75200 21.97100
H  48.30600 33.40700 20.30800
H  49.50000 34.58300 20.31600
H  47.91500 34.80000 21.06400
H  49.95100 30.93900 24.33400
H  50.86900 31.66300 22.97800
H  48.69800 29.54400 22.79500
H  50.39100 29.04700 23.25300
H  50.04800 29.60400 21.64000
H  45.02300 29.25300 25.55000
H  44.76200 28.71200 27.11500
H  46.47000 28.64600 26.31400
H  44.38100 32.76100 30.60100
H  45.76800 29.69800 33.50000
H  44.74000 30.69900 34.50500
H  46.35900 31.20300 34.06100

