158

Mg 47.02800 34.44800 27.61000
C  45.18300 32.88800 30.12200
C  47.18100 37.14800 29.82500
C  47.99600 36.31800 25.07200
C  46.24500 31.81300 25.46300
N  46.27800 34.89500 29.68000
C  45.67100 34.08700 30.56800
C  45.71800 34.58900 31.96300
C  45.95800 36.09700 31.73400
C  46.52300 36.04300 30.31700
C  44.78500 37.06400 31.86600
C  46.91700 33.84000 32.61400
C  46.88800 33.55400 34.07200
H  46.07700 34.65000 34.91400
N  47.51600 36.53200 27.43400
C  47.67600 37.36500 28.50900
C  48.31200 38.56700 27.92800
C  48.56000 38.40500 26.58800
C  47.99500 37.06400 26.30100
C  48.46400 39.82900 28.85200
C  49.31400 39.29700 25.62500
O  49.63400 38.84400 24.51700
C  49.77600 40.62900 25.95500
N  47.09000 34.11800 25.49900
C  47.57500 35.05400 24.68400
C  47.64500 34.50100 23.23900
C  47.14800 33.00600 23.36500
C  46.84100 32.91200 24.87300
C  46.70900 35.27900 22.32500
C  48.26900 31.87200 23.01000
C  47.63900 30.60200 22.38200
N  46.13900 32.59900 27.73900
C  45.80300 31.66100 26.81400
C  45.07000 30.59400 27.44200
C  44.88100 31.03200 28.78500
C  45.40700 32.27400 28.88200
C  44.75600 29.29800 26.78500
C  44.16600 30.73600 29.94900
O  43.46000 29.71400 30.18200
C  44.19700 31.91400 30.88600
C  44.47300 31.45100 32.23600
O  45.44000 30.82000 32.67200
O  43.37600 31.66400 32.98700
C  43.33900 31.32100 34.35900
H  47.28800 38.06300 30.41200
H  48.30600 36.97700 24.25800
H  45.99200 30.98100 24.80400
H  44.79300 34.29900 32.46100
H  46.62600 36.64700 32.39800
H  44.77500 37.76300 31.02900
H  44.87600 37.84800 32.61800
H  43.77700 36.66500 31.97600
H  47.78600 34.46000 32.39800
H  47.06900 32.88200 32.11800
H  47.91300 33.37800 34.39700
H  46.49300 32.56100 34.28600
H  47.52900 40.38200 28.94400
H  49.26400 40.47600 28.49100
H  48.71500 39.41000 29.82700
H  49.92700 41.11900 24.99300
H  50.67900 40.59800 26.56500
H  49.03100 41.11300 26.58700
H  48.59300 34.63100 22.71800
H  46.22300 32.86500 22.80400
H  46.19500 36.09200 22.83700
H  45.84500 34.78500 21.88000
H  47.28500 35.71300 21.50700
H  48.82100 31.55400 23.89500
H  49.01200 32.24000 22.30200
H  47.54900 29.89800 23.20900
H  48.34000 30.11400 21.70300
H  46.69000 30.77900 21.87600
H  45.08600 29.27900 25.74700
H  43.66600 29.26700 26.79500
H  45.18200 28.43700 27.30000
H  43.23100 32.41800 30.86400
H  43.98800 32.00600 34.90500
H  43.74200 30.33400 34.58900
H  42.35000 31.51000 34.77500
Mg -8.35700 40.26400 42.87700
C  -7.35700 36.88700 41.62500
C  -5.92700 41.55700 40.83300
C  -9.70500 43.29900 43.31700
C  -11.22500 38.75100 44.05000
N  -6.94600 39.29400 41.34700
C  -6.61700 37.93300 41.04600
C  -5.36500 37.79900 40.17500
C  -5.09100 39.32100 39.79600
C  -6.01400 40.14200 40.76500
C  -3.58200 39.79300 39.74400
C  -5.68300 36.82000 39.04700
C  -4.75200 35.60800 38.83700
H  -3.82000 35.59800 37.64400
N  -7.63800 42.21500 42.46100
C  -6.64500 42.46300 41.58400
C  -6.44300 43.93700 41.46700
C  -7.49400 44.47900 42.33500
C  -8.33900 43.31500 42.82500
C  -5.27400 44.56200 40.73900
C  -7.71900 45.91900 42.68900
O  -6.95800 46.69500 42.16000
C  -8.67700 46.41100 43.61800
N  -10.16000 40.99200 43.72800
C  -10.50200 42.28100 43.80800
C  -11.91400 42.53700 44.41100
C  -12.45200 41.03300 44.61900
C  -11.25200 40.22000 44.05500
C  -12.09100 43.58500 45.57500
C  -13.76200 40.57700 43.92300
C  -14.66700 39.72400 44.80300
N  -9.16300 38.20700 42.93500
C  -10.29900 37.76600 43.54200
C  -10.30400 36.42600 43.64100
C  -9.15000 36.07200 42.95500
C  -8.52400 37.16800 42.46800
C  -11.45000 35.51700 44.17700
C  -8.35100 34.92300 42.61800
O  -8.50300 33.74200 42.85500
C  -7.23000 35.39500 41.63800
C  -5.94800 34.94500 42.24800
O  -5.32300 35.47200 43.17300
O  -5.50300 33.79200 41.53000
C  -4.23200 33.22400 42.06600
H  -5.14700 41.98500 40.19900
H  -10.16200 44.29000 43.33000
H  -12.03500 38.23800 44.57200
H  -4.60100 37.52700 40.90400
H  -5.43800 39.49700 38.77800
H  -2.88200 38.98200 39.54300
H  -3.29400 40.26400 40.68400
H  -3.50800 40.43800 38.86800
H  -5.48000 37.46900 38.19500
H  -6.74400 36.58100 39.12000
H  -5.41900 34.75200 38.73100
H  -4.18300 35.49000 39.76000
H  -5.59400 44.72600 39.71000
H  -4.48400 43.82500 40.59000
H  -4.74400 45.40900 41.17400
H  -8.41700 47.43200 43.89900
H  -8.70100 45.72500 44.46400
H  -9.67900 46.54600 43.21200
H  -12.50300 42.94700 43.59100
H  -12.49100 40.84300 45.69200
H  -11.11700 44.07500 45.56700
H  -12.36100 43.08000 46.50200
H  -12.75700 44.41800 45.35400
H  -13.41800 40.00900 43.05800
H  -14.28400 41.49200 43.64300
H  -15.64700 40.19500 44.87900
H  -14.30800 39.93700 45.81000
H  -14.54200 38.67100 44.55000
H  -12.18400 35.41400 43.37800
H  -11.99700 35.80700 45.07400
H  -10.87500 34.59200 44.23400
H  -7.41100 34.94200 40.66400
H  -3.73100 32.76300 41.21500
H  -4.33600 32.45300 42.83000
H  -3.52700 33.95900 42.45300

