158

Mg 24.11600 -6.84600 45.76900
C  26.44100 -4.54400 44.40900
C  21.83700 -5.86800 43.59900
C  22.58500 -9.84900 46.36600
C  27.10000 -8.29900 47.38500
N  24.20300 -5.40500 44.15300
C  25.20000 -4.51500 43.78200
C  24.76000 -3.53000 42.71100
C  23.21200 -3.78900 42.72500
C  23.05400 -5.10800 43.61600
C  22.15600 -2.70800 43.23400
C  25.48800 -3.91100 41.35500
C  25.86700 -2.77500 40.42100
H  25.60500 -2.97100 38.93800
N  22.39300 -7.62700 45.07400
C  21.52400 -7.05000 44.24400
C  20.41600 -7.88800 43.98700
C  20.54800 -9.07200 44.81000
C  21.90200 -8.91800 45.44200
C  19.27900 -7.57900 43.10900
C  19.58900 -10.31900 44.84500
O  18.56200 -10.25700 44.21400
C  19.73800 -11.60100 45.63800
N  24.72300 -8.71800 46.75200
C  23.86700 -9.79700 46.96300
C  24.43900 -10.83100 47.93800
C  25.88100 -10.39100 48.14300
C  25.94300 -9.02500 47.37300
C  23.63000 -11.22000 49.20300
C  26.94200 -11.48500 47.75800
C  28.05400 -11.73000 48.80100
N  26.32600 -6.52700 45.95700
C  27.36600 -7.11600 46.68900
C  28.68100 -6.43100 46.49500
C  28.32600 -5.35100 45.61000
C  26.89300 -5.47300 45.35100
C  29.99600 -6.84500 47.03500
C  28.89000 -4.28100 44.88400
O  29.99400 -3.82400 44.83900
C  27.74200 -3.68000 43.99600
C  27.50600 -2.21800 44.18000
O  27.55400 -1.32900 43.36000
O  27.37400 -1.89700 45.49600
C  27.17100 -0.43000 45.84700
H  21.13800 -5.52000 42.83700
H  21.90300 -10.62300 46.72400
H  27.94700 -8.76000 47.89800
H  24.88000 -2.46400 42.90100
H  22.79700 -4.16600 41.79000
H  21.56600 -3.05600 44.08200
H  21.55800 -2.53600 42.33900
H  22.62100 -1.76800 43.53200
H  24.78200 -4.52000 40.79000
H  26.35700 -4.54500 41.52700
H  26.93900 -2.59400 40.48800
H  25.32300 -1.89400 40.76100
H  19.09800 -8.38200 42.39500
H  19.41600 -6.63400 42.58400
H  18.50800 -7.48100 43.87300
H  19.59300 -11.42100 46.70300
H  20.77600 -11.85700 45.42600
H  19.07300 -12.41400 45.34600
H  24.34700 -11.72300 47.31900
H  26.05400 -10.14700 49.19100
H  22.98500 -12.07200 48.98600
H  23.05300 -10.36600 49.55800
H  24.24700 -11.58100 50.02500
H  27.51400 -11.08900 46.91800
H  26.43900 -12.36500 47.35700
H  28.25200 -10.77000 49.27800
H  28.97000 -12.05500 48.30900
H  27.73500 -12.49300 49.51100
H  30.05500 -7.92000 46.86500
H  29.89000 -6.71100 48.11200
H  30.83600 -6.26000 46.65900
H  28.01600 -3.84300 42.95400
H  26.09300 -0.27500 45.79700
H  27.64000 0.25000 45.13700
H  27.69100 -0.17200 46.77000
Mg 43.11500 4.39100 47.07500
C  40.70400 7.09700 47.04700
C  40.34200 2.29800 47.09600
C  45.17600 1.87500 46.29900
C  45.60300 6.65500 46.55700
N  40.75300 4.64500 47.26800
C  40.03100 5.86400 47.17500
C  38.52500 5.58800 47.20600
C  38.45900 4.02900 47.44500
C  39.89400 3.57800 47.29900
C  37.79600 3.55500 48.75300
C  37.74100 6.13400 46.01000
C  38.45100 6.09400 44.61500
H  37.58000 6.12500 43.32200
N  42.79900 2.36400 46.80600
C  41.59200 1.65200 46.76000
C  41.82000 0.22800 46.70400
C  43.18600 0.12900 46.37900
C  43.83000 1.48400 46.46600
C  40.67700 -0.83100 46.70800
C  43.86400 -1.12700 45.92800
O  43.29000 -2.19700 45.90000
C  45.25500 -1.08600 45.40300
N  45.11600 4.27400 46.48200
C  45.81600 3.09900 46.33400
C  47.37100 3.30800 46.21100
C  47.43200 4.81500 46.60700
C  45.97200 5.27200 46.59700
C  48.39600 2.23100 46.80500
C  48.30300 5.67000 45.50800
C  49.14700 6.64800 46.20000
N  43.17600 6.43400 46.83400
C  44.24400 7.21600 46.65900
C  43.78300 8.59500 46.61400
C  42.45800 8.57700 46.77900
C  42.12600 7.25900 46.89000
C  44.71400 9.66300 46.24900
C  41.27700 9.41500 46.83800
O  41.16500 10.59800 46.70600
C  40.08300 8.44200 47.12400
C  39.68800 8.84100 48.39700
O  39.90900 8.30800 49.46800
O  38.77800 9.84700 48.21500
C  37.81600 10.05900 49.38100
H  39.53500 1.56300 47.07000
H  45.93800 1.09500 46.24700
H  46.44600 7.34600 46.50100
H  38.19200 6.11600 48.09900
H  37.89800 3.52000 46.66100
H  38.59200 3.19800 49.40600
H  37.06400 2.77400 48.54700
H  37.35900 4.42900 49.23700
H  37.47800 7.17700 46.18400
H  36.81000 5.56900 46.04300
H  38.95500 5.12900 44.54900
H  39.22600 6.83900 44.43500
H  39.90600 -0.48500 47.39700
H  41.01300 -1.81000 47.04900
H  40.21800 -1.01400 45.73600
H  45.94700 -0.99100 46.23900
H  45.12700 -0.15200 44.85500
H  45.55100 -1.97000 44.83700
H  47.50800 3.41800 45.13500
H  47.72000 4.89800 47.65500
H  47.81800 1.57000 47.45200
H  49.13500 2.81900 47.34900
H  48.78900 1.69000 45.94500
H  47.53900 6.18900 44.92900
H  48.91800 5.07700 44.83100
H  48.87400 7.64500 45.85300
H  50.21500 6.57700 45.99500
H  49.16600 6.63100 47.29000
H  44.21200 10.63000 46.25100
H  44.99500 9.58100 45.19900
H  45.63500 9.59400 46.82900
H  39.39000 8.63400 46.30400
H  36.83000 9.61800 49.23400
H  37.74800 11.14300 49.46200
H  38.14900 9.57800 50.30100

