158

Mg 25.51100 1.87600 29.15900
C  27.63800 1.48200 31.85100
C  22.88500 2.17800 31.32000
C  23.35100 1.62500 26.58500
C  28.21800 1.13300 27.09400
N  25.33700 1.87400 31.26800
C  26.34200 1.76700 32.19200
C  25.87800 1.83800 33.66600
C  24.35000 2.09100 33.49600
C  24.17200 1.93700 31.94200
C  23.39800 1.07800 34.28600
C  26.55700 2.89600 34.63200
C  25.67400 3.58200 35.70700
H  26.24100 4.02100 37.07600
N  23.36500 2.06500 28.97300
C  22.41000 2.14900 30.01700
C  21.07900 2.21400 29.48300
C  21.24900 1.86100 28.09300
C  22.72300 1.83400 27.81800
C  19.84700 2.53100 30.38500
C  20.25100 1.58800 27.07800
O  20.42600 1.11200 25.92900
C  18.80000 1.87600 27.41500
N  25.78400 1.53600 27.07100
C  24.70900 1.56700 26.23100
C  25.17700 1.26300 24.77400
C  26.71800 1.27100 24.88900
C  26.92900 1.25300 26.41300
C  24.50600 -0.04000 24.15000
C  27.45200 2.47300 24.37300
C  28.12000 2.17000 22.97800
N  27.55300 1.40500 29.34800
C  28.50800 1.10700 28.46700
C  29.72400 0.86400 29.12900
C  29.43600 1.03700 30.47700
C  28.08900 1.30000 30.55300
C  31.05100 0.37600 28.56000
C  29.99700 0.92600 31.81100
O  31.10500 0.72000 32.21000
C  28.76100 1.24400 32.76500
C  28.62000 0.12500 33.72700
O  27.92900 -0.85300 33.42400
O  29.05200 0.40700 34.98700
C  28.85300 -0.53400 36.04800
H  22.12400 2.22300 32.10200
H  22.70500 1.50200 25.71400
H  29.08000 1.03100 26.43200
H  25.98300 0.81200 34.02100
H  23.98900 3.06100 33.83500
H  23.20000 0.16000 33.73300
H  22.42900 1.57500 34.23600
H  23.76400 0.82100 35.28000
H  27.11600 3.59400 34.01000
H  27.38000 2.46100 35.19900
H  24.86500 2.95900 36.08700
H  25.11700 4.46400 35.38900
H  20.06600 2.55500 31.45200
H  19.09900 1.74300 30.30300
H  19.38400 3.47200 30.08600
H  18.26800 2.16900 26.51000
H  18.80800 2.71200 28.11500
H  18.26800 1.04100 27.87000
H  24.73500 2.12900 24.28200
H  27.13500 0.31900 24.56000
H  25.31500 -0.56600 23.64400
H  23.87600 0.25300 23.31100
H  24.00400 -0.70500 24.85300
H  28.22000 2.76700 25.08800
H  26.81300 3.33800 24.19700
H  27.61100 2.69900 22.17200
H  27.96700 1.14400 22.64200
H  29.18000 2.42200 22.97800
H  30.80100 -0.35300 27.78900
H  31.61200 -0.22500 29.27500
H  31.59500 1.15900 28.03100
H  28.93000 2.15800 33.33500
H  28.96900 -1.57400 35.74100
H  27.89400 -0.33100 36.52400
H  29.62600 -0.45400 36.81300
Mg 40.81800 9.89600 28.80800
C  42.73400 10.83000 31.60700
C  38.64300 8.36800 30.97300
C  39.03200 8.92900 26.10700
C  43.36600 11.14100 26.73200
N  40.72500 9.64200 31.06300
C  41.51100 10.20600 31.96700
C  40.95700 10.02500 33.43700
C  39.83000 9.00300 33.11200
C  39.64000 9.03500 31.63700
C  39.98900 7.54000 33.60900
C  40.68800 11.44400 34.15300
C  39.79300 11.38800 35.36500
H  40.32900 11.99100 36.78000
N  39.09100 8.85300 28.57400
C  38.38800 8.29300 29.62300
C  37.25600 7.49300 28.98400
C  37.26400 7.73100 27.55500
C  38.45700 8.61000 27.38200
C  36.20200 6.76600 29.73900
C  36.20800 7.28200 26.50300
O  36.30900 7.62100 25.31500
C  34.92900 6.45400 26.89400
N  41.26100 9.87100 26.72400
C  40.27100 9.49300 25.81800
C  40.66800 9.87400 24.35500
C  41.99800 10.73300 24.56100
C  42.27400 10.55800 26.06600
C  40.75400 8.63300 23.39700
C  41.92100 12.29100 24.17600
C  40.76400 13.04300 24.80900
N  42.70300 10.63700 29.04300
C  43.67100 11.18700 28.19300
C  44.72800 11.78700 28.93700
C  44.37500 11.59900 30.27200
C  43.15600 10.89900 30.27200
C  45.94000 12.47900 28.38300
C  44.81900 11.98600 31.56800
O  45.83700 12.53700 31.97300
C  43.72900 11.50300 32.44500
C  44.27800 10.67700 33.50100
O  44.83400 9.58700 33.38000
O  44.14100 11.28600 34.71100
C  44.50700 10.54500 35.91700
H  38.08800 7.73400 31.66700
H  38.47500 8.75000 25.18500
H  44.08000 11.74700 26.17200
H  41.62200 9.48000 34.10700
H  38.93900 9.40600 33.59300
H  40.03500 6.80300 32.80700
H  39.29700 7.32600 34.42400
H  40.94100 7.42200 34.12800
H  40.22700 12.08000 33.39800
H  41.58000 11.92300 34.55700
H  39.40500 10.40200 35.62200
H  38.98000 12.06200 35.09500
H  36.62700 6.63400 30.73500
H  36.19100 5.80300 29.22900
H  35.24100 7.27500 29.66300
H  34.31400 6.31700 26.00500
H  34.26700 6.93500 27.61300
H  35.32800 5.50100 27.24300
H  39.88000 10.56000 24.04100
H  42.80200 10.29100 23.97300
H  40.49100 7.69700 23.89000
H  41.75200 8.57200 22.96500
H  40.03100 8.79600 22.59700
H  41.94600 12.48400 23.10300
H  42.90700 12.67000 24.44500
H  40.21000 13.41900 23.94900
H  41.20400 13.92500 25.27400
H  40.07000 12.47800 25.43100
H  45.71600 12.91600 27.41000
H  46.76000 11.77500 28.24800
H  46.30100 13.25100 29.06300
H  43.22000 12.32300 32.95200
H  45.58800 10.41000 35.96100
H  44.15700 9.51300 35.91500
H  44.12500 11.07500 36.79000

