158

Mg 43.85000 4.91500 47.41100
C  42.05600 7.96500 47.46000
C  40.77000 3.27700 47.43900
C  45.46200 2.05700 46.69800
C  46.74900 6.77300 46.59900
N  41.67100 5.57000 47.30200
C  41.21000 6.86900 47.30400
C  39.68900 6.98200 47.51500
C  39.27800 5.44300 47.67100
C  40.58800 4.74300 47.50800
C  38.51000 5.11000 49.04200
C  38.93300 7.57600 46.32400
C  39.61900 8.05300 45.01600
H  39.25200 7.21500 43.79700
N  43.26000 2.92400 47.20300
C  41.95300 2.44400 47.24600
C  42.05100 1.04600 47.04900
C  43.38000 0.65600 46.94200
C  44.11400 1.84700 46.94200
C  40.76800 0.14400 46.88500
C  43.87200 -0.75100 46.89900
O  43.07300 -1.70100 46.90300
C  45.29300 -1.12600 46.81400
N  45.80000 4.43200 46.75900
C  46.28400 3.15500 46.68900
C  47.86900 3.16100 46.31800
C  48.19000 4.71900 46.24400
C  46.81400 5.36400 46.50800
C  48.64000 2.34500 47.38500
C  48.95700 5.20600 44.98100
C  50.46200 5.04100 45.00400
N  44.35300 6.95800 47.11100
C  45.57200 7.51500 46.96900
C  45.42300 8.96600 46.99300
C  44.09900 9.20500 47.31200
C  43.40800 7.99200 47.24700
C  46.61000 9.96800 47.01900
C  43.04800 10.21700 47.55400
O  43.25700 11.43400 47.64300
C  41.65200 9.52900 47.58800
C  40.86700 9.81500 48.86400
O  40.99500 9.19600 49.96000
O  40.20300 10.99800 48.77700
C  39.19400 11.13600 49.82500
H  39.79400 2.78800 47.47400
H  46.08900 1.19600 46.45700
H  47.66000 7.37300 46.56600
H  39.37400 7.51800 48.41000
H  38.78000 5.03400 46.79200
H  38.14000 6.02000 49.51400
H  39.31400 4.70100 49.65500
H  37.74200 4.35600 48.87200
H  38.51400 8.48200 46.76300
H  37.98600 7.03700 46.29800
H  40.70300 8.05300 45.13000
H  39.30500 9.03500 44.66300
H  39.87000 0.75400 46.98000
H  40.65600 -0.69400 47.57300
H  40.80100 -0.29400 45.88700
H  45.73200 -0.52200 47.60800
H  45.65800 -0.85100 45.82400
H  45.54600 -2.17300 46.97900
H  48.00300 2.76200 45.31200
H  48.83000 4.96500 47.09100
H  49.50600 1.84900 46.94700
H  47.93500 1.58900 47.73000
H  49.01500 2.99000 48.18000
H  48.66300 6.16600 44.55800
H  48.56300 4.59000 44.17200
H  50.76200 4.25400 45.69600
H  51.03900 5.94200 45.21500
H  50.78200 4.63800 44.04300
H  47.49200 9.43300 47.36900
H  46.28000 10.81100 47.62700
H  46.73100 10.26400 45.97700
H  41.03500 9.84100 46.74600
H  39.57800 11.43900 50.79900
H  38.58200 10.23500 49.87100
H  38.54300 11.92500 49.45000
Mg 10.78300 46.76700 25.88200
C  8.61400 47.04300 28.45200
C  13.23100 48.46300 27.83700
C  13.02600 46.35300 23.41900
C  8.11300 45.91300 23.66000
N  10.86000 47.66000 27.88800
C  9.87500 47.51700 28.90100
C  10.32600 48.15100 30.24900
C  11.51200 49.07000 29.71500
C  11.94800 48.35100 28.40800
C  11.11100 50.58400 29.52300
C  10.86900 47.02300 31.21600
C  10.08300 47.02400 32.53900
H  10.23800 45.69400 33.37400
N  12.86700 47.13800 25.79200
C  13.57200 47.78100 26.68700
C  14.93600 47.63800 26.37600
C  15.04300 47.03200 25.09200
C  13.60600 46.87900 24.72500
C  16.03800 48.21200 27.27900
C  16.27600 46.61700 24.17100
O  16.11000 46.13900 23.08600
C  17.63900 46.87000 24.66200
N  10.55100 46.20700 23.78200
C  11.69700 46.08000 23.00000
C  11.28400 45.51900 21.60600
C  9.75800 45.41800 21.67300
C  9.40000 45.92500 23.09900
C  11.77200 46.45300 20.42800
C  9.13900 44.07500 21.17200
C  9.13400 43.03400 22.25700
N  8.79900 46.48400 26.00000
C  7.80700 46.15000 25.06100
C  6.54900 46.14400 25.74100
C  6.84300 46.53000 27.03900
C  8.21100 46.62600 27.17500
C  5.22700 46.07000 25.04200
C  6.17000 46.81400 28.25000
O  4.98500 46.85800 28.54800
C  7.35200 46.96500 29.23700
C  7.45100 45.87900 30.16900
O  8.24500 44.94200 30.08200
O  6.60700 46.13800 31.24300
C  6.50300 45.11700 32.27600
H  13.88800 49.19700 28.30900
H  13.71000 46.10200 22.60600
H  7.26600 45.83000 22.97600
H  9.49600 48.71900 30.66900
H  12.33300 49.05600 30.43200
H  11.52200 51.12300 30.37600
H  10.02200 50.55600 29.57600
H  11.15200 50.90700 28.48300
H  11.89100 47.28000 31.49300
H  10.77900 45.99200 30.87500
H  9.01800 47.06700 32.31100
H  10.46900 47.80900 33.19000
H  15.72600 48.39700 28.30700
H  16.48900 49.12000 26.88000
H  16.67500 47.33500 27.39500
H  17.70600 47.90800 24.98700
H  18.36700 46.58900 23.90100
H  17.64500 46.18600 25.51000
H  11.91400 44.64900 21.41800
H  9.34700 46.25300 21.10500
H  11.72600 47.50300 20.71800
H  11.01500 46.23700 19.67400
H  12.80300 46.28200 20.11900
H  9.72200 43.62300 20.36900
H  8.15300 44.31200 20.77200
H  9.78200 43.33600 23.08000
H  9.65900 42.13800 21.92400
H  8.13500 42.68200 22.51500
H  4.44900 45.84100 25.77000
H  5.25900 45.33200 24.23900
H  4.94400 46.97300 24.50200
H  7.28000 47.88200 29.82100
H  6.60500 44.08300 31.94900
H  5.49900 45.32700 32.64500
H  7.19900 45.21000 33.11000

