158

Mg 0.41000 7.88200 26.02000
C  0.90700 9.82500 28.99400
C  0.30000 5.10400 27.98900
C  0.14700 6.27100 23.24200
C  0.29700 11.00500 24.26800
N  0.51000 7.53800 28.30300
C  0.76700 8.46400 29.30300
C  0.76400 7.75100 30.65400
C  0.66600 6.24600 30.28500
C  0.48400 6.28200 28.77300
C  1.76500 5.30700 30.85000
C  -0.34400 8.24300 31.68200
C  0.16800 8.65600 33.13500
H  -0.55600 8.09200 34.42500
N  0.42900 6.01800 25.67700
C  0.30400 4.96800 26.57500
C  0.20600 3.69200 25.90200
C  0.11000 4.06700 24.48400
C  0.23700 5.49000 24.40300
C  0.10100 2.39100 26.60600
C  0.08200 3.08500 23.24000
O  0.24600 3.42000 22.09800
C  0.12400 1.60300 23.55200
N  0.50400 8.66600 23.96300
C  0.19500 7.68900 23.01400
C  0.04300 8.30200 21.58800
C  -0.21200 9.82600 21.95900
C  0.18200 9.85800 23.50300
C  1.34200 8.03000 20.78800
C  -1.66800 10.32400 21.75600
C  -1.77200 11.57600 20.87000
N  0.60800 9.94800 26.46600
C  0.58700 11.12300 25.65800
C  0.84000 12.32400 26.42300
C  1.01400 11.82100 27.68100
C  0.83400 10.41300 27.68900
C  0.90500 13.63100 25.85200
C  1.31300 12.19100 29.04500
O  1.56800 13.28000 29.55500
C  1.16000 10.94800 29.86100
C  2.27900 10.76600 30.74400
O  3.35300 10.17900 30.54000
O  1.92600 11.34000 31.97300
C  2.84800 10.97600 33.06800
H  0.16400 4.25200 28.65800
H  -0.08700 5.65000 22.37400
H  0.11100 11.90200 23.67300
H  1.75300 7.84700 31.10100
H  -0.16700 5.71500 30.74500
H  2.34000 5.81300 31.62600
H  2.51600 5.27400 30.06100
H  1.46400 4.30700 31.16300
H  -1.05600 7.42200 31.76300
H  -1.02200 8.96900 31.23400
H  0.04800 9.71900 32.92600
H  1.23200 8.46500 33.27900
H  -0.92500 2.06200 26.43500
H  0.37100 2.44800 27.66000
H  0.71800 1.65400 26.09200
H  0.22600 1.09900 22.59200
H  -0.72800 1.32700 24.17400
H  1.12000 1.45900 23.97300
H  -0.81200 7.85300 21.08300
H  0.50800 10.53500 21.55000
H  1.80800 8.96800 20.48700
H  0.96300 7.43000 19.96100
H  2.07400 7.55700 21.44400
H  -2.26600 10.51500 22.64600
H  -2.29700 9.58300 21.26200
H  -0.89000 11.62900 20.23200
H  -1.78700 12.45300 21.51700
H  -2.63300 11.39600 20.22600
H  0.58200 13.68100 24.81200
H  1.93200 13.98800 25.93700
H  0.17500 14.29300 26.31700
H  0.25700 11.17200 30.42900
H  2.23400 10.82500 33.95500
H  3.67300 11.68600 33.13600
H  3.26800 9.97400 32.98200
Mg 54.36200 24.23100 45.37400
C  51.86100 26.20900 44.32800
C  52.50200 21.39800 44.37200
C  57.12200 22.21000 45.82500
C  56.03200 27.00100 46.67800
N  52.56000 23.92200 44.27200
C  51.64600 24.89000 43.94700
C  50.35700 24.34700 43.32700
C  50.36400 22.85900 43.95000
C  51.89100 22.67500 44.25000
C  49.46000 22.49200 45.16500
C  50.41600 24.48300 41.76800
C  49.18300 23.98300 41.07500
H  48.94900 24.20700 39.62100
N  54.80200 22.14200 45.06400
C  53.88900 21.17400 44.64100
C  54.58700 19.87900 44.55200
C  55.99100 20.08200 44.92400
C  56.02000 21.49700 45.26800
C  53.82800 18.61700 44.18600
C  57.05000 19.00000 44.91200
O  56.83900 17.88100 44.47400
C  58.38300 19.31200 45.46200
N  56.33500 24.50500 45.86800
C  57.23600 23.53800 46.10800
C  58.58800 24.23000 46.61800
C  58.10900 25.73700 47.03800
C  56.71800 25.79800 46.47300
C  59.40300 23.64000 47.78200
C  59.04200 26.88200 46.41200
C  58.88600 27.15200 44.93200
N  54.07600 26.25800 45.55800
C  54.77400 27.32200 46.14300
C  54.01200 28.53400 46.05800
C  52.84900 28.09800 45.38300
C  52.96400 26.73100 45.02800
C  54.31900 29.88700 46.48300
C  51.55500 28.55400 44.96500
O  51.06600 29.64100 45.15400
C  50.87800 27.36300 44.26600
C  50.53700 27.84500 42.91100
O  51.35200 28.36200 42.19500
O  49.23400 27.56900 42.57100
C  48.72000 28.04600 41.35900
H  51.93400 20.46600 44.33300
H  58.07200 21.69800 45.99100
H  56.50500 27.72900 47.34000
H  49.52100 24.83300 43.82900
H  50.09800 22.18400 43.13700
H  50.03400 21.93400 45.90400
H  48.66800 21.87800 44.73600
H  49.05000 23.40900 45.58800
H  51.23900 23.87800 41.38800
H  50.49900 25.54100 41.52000
H  48.26100 24.33600 41.53800
H  49.21500 22.90300 41.21200
H  53.51000 18.63800 43.14300
H  52.95900 18.51900 44.83700
H  54.23600 17.62000 44.35200
H  59.00900 18.42300 45.38400
H  58.46200 19.37300 46.54700
H  58.89600 20.03300 44.82600
H  59.27900 24.09500 45.78600
H  58.03600 25.77600 48.12500
H  60.38200 23.29600 47.45000
H  58.87500 22.75300 48.13300
H  59.61000 24.25900 48.65500
H  60.00300 26.39200 46.56800
H  59.06200 27.70500 47.12600
H  57.86500 27.35200 44.60900
H  59.23500 26.27700 44.38400
H  59.45200 28.03000 44.62100
H  53.47800 30.42900 46.91700
H  54.58900 30.52400 45.64100
H  54.94600 29.90400 47.37500
H  49.93100 27.03600 44.69600
H  48.78600 27.35200 40.52100
H  49.19800 28.97500 41.05000
H  47.73100 28.38000 41.67200

