158

Mg 24.28400 -6.43300 47.47100
C  26.96700 -4.37900 46.55400
C  22.26200 -4.90700 45.14100
C  22.03200 -8.73900 48.06700
C  26.67500 -8.34100 49.38100
N  24.66600 -4.89100 46.02500
C  25.80600 -4.12500 45.83300
C  25.54500 -3.15900 44.59700
C  23.97400 -3.13400 44.51200
C  23.53100 -4.42000 45.29000
C  23.37500 -1.90800 45.15000
C  26.33300 -3.73100 43.34800
C  26.76500 -2.60100 42.47700
H  25.99600 -2.36100 41.20300
N  22.33000 -6.71300 46.76300
C  21.65300 -5.98300 45.85200
C  20.27800 -6.38100 45.80100
C  20.12800 -7.59400 46.70800
C  21.50900 -7.77400 47.18500
C  19.14900 -5.63300 45.06500
C  18.92200 -8.44700 46.86600
O  17.94200 -8.18600 46.21900
C  18.88500 -9.53200 47.79700
N  24.34400 -8.32000 48.43500
C  23.25800 -8.96700 48.67800
C  23.47000 -10.26100 49.61700
C  24.96400 -10.02600 50.18400
C  25.37300 -8.84900 49.24400
C  22.34500 -10.54500 50.65400
C  25.79700 -11.28700 50.36100
C  26.60500 -11.73500 49.14600
N  26.33500 -6.36700 48.04000
C  27.15400 -7.19900 48.77900
C  28.53500 -6.69900 48.72900
C  28.45200 -5.52300 47.97600
C  27.13900 -5.45500 47.47700
C  29.65900 -7.29800 49.49100
C  29.23300 -4.44100 47.50900
O  30.42800 -4.17900 47.71300
C  28.28300 -3.59200 46.50700
C  28.08800 -2.22000 46.93600
O  27.37400 -1.81100 47.86100
O  28.68300 -1.42500 45.98100
C  28.03100 -0.14300 45.91000
H  21.74200 -4.20400 44.48800
H  21.36900 -9.54400 48.39000
H  27.36200 -8.87400 50.04100
H  25.99800 -2.20400 44.86300
H  23.65400 -3.27400 43.48000
H  24.00700 -1.51700 45.94800
H  22.36300 -1.93700 45.55300
H  23.32000 -1.20500 44.31800
H  25.67600 -4.40800 42.80200
H  27.24000 -4.25800 43.64300
H  27.74900 -2.92900 42.14300
H  26.99000 -1.68900 43.02900
H  18.60500 -6.25700 44.35600
H  19.45900 -4.72200 44.55400
H  18.36300 -5.28300 45.73500
H  19.22700 -9.24900 48.79300
H  19.48200 -10.40800 47.54700
H  17.83800 -9.82400 47.87800
H  23.35900 -11.10100 48.93100
H  24.81800 -9.69800 51.21300
H  22.70900 -10.71300 51.66700
H  21.85000 -11.50900 50.53900
H  21.59800 -9.75100 50.68600
H  25.14600 -12.12500 50.60900
H  26.34600 -11.08600 51.28100
H  26.25200 -11.19600 48.26700
H  26.36600 -12.76100 48.86600
H  27.66600 -11.49800 49.22400
H  30.62200 -6.85400 49.23900
H  29.70500 -8.38200 49.39100
H  29.34600 -7.10900 50.51800
H  28.67200 -3.59300 45.48900
H  28.39800 0.42500 46.76400
H  26.95000 -0.21100 45.78800
H  28.32600 0.30900 44.96300
Mg 25.90400 -0.34700 28.98500
C  27.83600 -0.30500 31.93600
C  23.12400 -0.07800 30.93400
C  24.09100 -0.33700 26.17700
C  28.72900 -1.39300 27.19800
N  25.56400 -0.37300 31.29400
C  26.46500 -0.07700 32.25900
C  25.88200 0.17800 33.68400
C  24.36900 0.16000 33.27000
C  24.34400 -0.10900 31.68800
C  23.47400 -0.96800 34.02500
C  26.48500 1.36900 34.42300
C  27.09200 1.24100 35.72700
H  26.78200 2.22800 36.86700
N  23.84900 -0.22800 28.62100
C  22.88100 -0.08900 29.55800
C  21.62800 0.11500 28.88000
C  21.86500 0.17700 27.48500
C  23.28200 -0.16800 27.36900
C  20.32700 0.16900 29.67800
C  20.98700 0.39300 26.27800
O  21.39600 0.41300 25.11200
C  19.52700 0.61500 26.48800
N  26.35900 -0.87700 26.92700
C  25.42900 -0.66400 25.91400
C  26.05900 -0.92700 24.58900
C  27.56200 -1.22600 24.96600
C  27.55400 -1.17600 26.43400
C  25.49000 -1.87900 23.53700
C  28.63700 -0.37600 24.16900
C  28.97900 1.01600 24.69400
N  27.90000 -0.79000 29.39500
C  28.91400 -1.22300 28.56700
C  30.19800 -1.26000 29.37500
C  29.77500 -0.87900 30.62200
C  28.41300 -0.67000 30.63600
C  31.58400 -1.58300 28.85100
C  30.31200 -0.65200 31.93000
O  31.46300 -0.82400 32.28700
C  29.05100 -0.30600 32.80200
C  28.83800 -1.35400 33.81300
O  28.32200 -2.45500 33.64000
O  29.41400 -0.93400 35.00400
C  29.31600 -1.77800 36.20700
H  22.34200 0.00400 31.69100
H  23.59500 -0.23000 25.21000
H  29.59200 -1.58700 26.55900
H  26.07900 -0.79200 34.13900
H  23.83400 1.10900 33.30000
H  23.98300 -1.32300 34.92200
H  23.40900 -1.80900 33.33600
H  22.43100 -0.73000 34.23600
H  25.78400 2.20300 34.44600
H  27.27700 1.83300 33.83500
H  28.17100 1.11900 35.63700
H  26.85400 0.23600 36.07500
H  20.58100 0.39600 30.71300
H  19.83800 -0.79100 29.50600
H  19.80700 1.01500 29.22800
H  19.05800 0.66500 25.50500
H  19.32100 1.48400 27.11300
H  19.21600 -0.33700 26.91800
H  26.18500 0.02900 24.08100
H  27.80500 -2.28200 24.84900
H  26.29400 -2.37500 22.99300
H  24.88900 -1.29900 22.83700
H  24.81000 -2.60100 23.98700
H  28.37400 -0.41200 23.11200
H  29.53000 -1.00100 24.18500
H  29.97300 0.99200 25.14300
H  28.27600 1.20100 25.50600
H  28.95300 1.81800 23.95700
H  32.26500 -1.00000 29.47000
H  31.69200 -1.39000 27.78400
H  31.70100 -2.63000 29.13200
H  29.07600 0.70900 33.19800
H  29.34300 -2.84400 35.98500
H  28.39200 -1.62300 36.76300
H  30.26800 -1.57600 36.69800

