158

Mg -3.13500 16.94200 26.85400
C  -3.79800 14.73300 29.38400
C  -3.65700 19.59300 29.07200
C  -2.76900 19.22000 24.36300
C  -3.19200 14.40400 24.51600
N  -3.67800 17.09400 28.94900
C  -3.79600 16.05500 29.79300
C  -3.92600 16.56300 31.29100
C  -4.01300 18.14400 31.14100
C  -3.72000 18.34800 29.60500
C  -5.41400 18.75600 31.57900
C  -2.65300 16.16600 32.15000
C  -2.07400 17.01100 33.29400
H  -1.57600 16.19100 34.49000
N  -3.02700 19.06100 26.73600
C  -3.29900 19.94600 27.78700
C  -3.09300 21.32300 27.30500
C  -2.55700 21.21200 26.00400
C  -2.78500 19.78100 25.60600
C  -3.27000 22.51700 28.23400
C  -1.99300 22.26400 25.04300
O  -1.73900 22.06400 23.88200
C  -1.69600 23.57100 25.63900
N  -3.01100 16.75500 24.73400
C  -2.78200 17.86500 23.94000
C  -2.76900 17.47700 22.46100
C  -2.73500 15.91300 22.54900
C  -2.95200 15.63000 24.02200
C  -3.89900 18.15100 21.68300
C  -1.44700 15.14300 22.12100
C  -0.19600 15.54700 22.91700
N  -3.52100 15.02500 26.87300
C  -3.54400 14.08300 25.87000
C  -3.88800 12.80300 26.41500
C  -4.00300 13.00500 27.83100
C  -3.79000 14.38900 28.02500
C  -4.17700 11.56100 25.70000
C  -4.08200 12.29800 29.08200
O  -4.10200 11.12100 29.31800
C  -3.98600 13.45300 30.17700
C  -2.82200 13.09500 31.01400
O  -1.61700 13.11200 30.78900
O  -3.37700 12.52500 32.15100
C  -2.42100 11.94300 33.10400
H  -3.78000 20.39800 29.79900
H  -2.56800 19.86600 23.50600
H  -3.29200 13.56000 23.83100
H  -4.78000 16.01100 31.68400
H  -3.30600 18.75300 31.70300
H  -5.40900 19.64600 32.20900
H  -6.15000 17.99200 31.83000
H  -5.91600 19.26000 30.75200
H  -1.75000 16.02400 31.55500
H  -2.99700 15.22200 32.57300
H  -2.77400 17.77200 33.64000
H  -1.18200 17.51800 32.92600
H  -2.35400 22.70600 28.79400
H  -4.07700 22.41000 28.96000
H  -3.49300 23.38800 27.61700
H  -1.22400 23.35500 26.59800
H  -2.53300 24.26400 25.72200
H  -1.02800 24.21300 25.06500
H  -1.83600 17.90500 22.09400
H  -3.63400 15.56100 22.04200
H  -4.11800 19.10200 22.16800
H  -4.73800 17.46300 21.78500
H  -3.54900 18.22900 20.65400
H  -1.28200 15.38200 21.07100
H  -1.72200 14.08900 22.12000
H  0.38100 16.35400 22.46400
H  0.31800 14.60100 22.75000
H  -0.41000 15.85300 23.94100
H  -3.25900 10.99000 25.55700
H  -4.53400 11.67300 24.67600
H  -4.90300 11.02300 26.30900
H  -4.84400 13.64500 30.82100
H  -1.65800 11.36600 32.58100
H  -2.97500 11.18500 33.65900
H  -1.92700 12.59500 33.82300
Mg 24.13700 -5.56000 45.33900
C  26.19600 -3.13900 43.86200
C  21.41700 -4.28400 43.55500
C  22.50900 -8.36600 45.83400
C  26.98900 -6.76700 47.03900
N  23.84500 -3.86500 43.93200
C  24.84400 -3.03300 43.47600
C  24.34700 -2.10400 42.34300
C  22.78700 -2.29500 42.48000
C  22.62100 -3.58200 43.40700
C  21.97700 -0.96900 42.92600
C  24.91400 -2.49300 40.94400
C  25.39800 -1.31000 40.07100
H  25.07900 -1.44000 38.56100
N  22.18000 -6.16900 44.94300
C  21.16800 -5.49300 44.23000
C  20.05600 -6.28200 44.09000
C  20.32000 -7.45400 44.75900
C  21.71700 -7.35200 45.20900
C  18.72800 -5.83900 43.36500
C  19.31800 -8.61600 44.99200
O  18.19900 -8.49300 44.46700
C  19.59300 -9.69300 45.97100
N  24.66700 -7.32700 46.39500
C  23.76900 -8.31100 46.44900
C  24.44700 -9.49700 47.18100
C  25.90000 -9.00500 47.63000
C  25.90200 -7.59900 47.00800
C  23.52600 -10.07100 48.36600
C  27.01400 -9.93300 47.10100
C  28.19300 -10.28400 47.96400
N  26.18900 -4.93700 45.57200
C  27.15600 -5.55900 46.33500
C  28.49800 -4.85900 46.20600
C  28.16800 -3.87700 45.16400
C  26.71100 -4.02800 44.83300
C  29.80500 -5.38900 46.70000
C  28.71500 -2.86900 44.15000
O  29.91400 -2.51400 43.88300
C  27.49200 -2.34300 43.39200
C  27.45400 -0.88100 43.60800
O  26.87300 -0.35500 44.57000
O  27.98100 -0.23900 42.55800
C  27.85100 1.22900 42.61800
H  20.61000 -3.91800 42.91600
H  22.01700 -9.32900 45.98800
H  27.81600 -7.18500 47.61600
H  24.57200 -1.08100 42.64500
H  22.38400 -2.63900 41.52800
H  22.64000 -0.11100 43.04100
H  21.70500 -1.24200 43.94500
H  21.11100 -0.76700 42.29500
H  24.12500 -2.89500 40.30800
H  25.70200 -3.22500 41.11600
H  26.46800 -1.12600 40.16600
H  24.97500 -0.44000 40.57400
H  18.79700 -6.02100 42.29200
H  18.74200 -4.76600 43.55700
H  17.76900 -6.24000 43.69200
H  18.62700 -10.02300 46.35200
H  20.17100 -9.26900 46.79200
H  20.16300 -10.44800 45.42900
H  24.48700 -10.30300 46.44900
H  25.83800 -8.89300 48.71300
H  24.13100 -10.39500 49.21200
H  23.16300 -11.03200 48.00100
H  22.68400 -9.41200 48.58000
H  27.34500 -9.50900 46.15300
H  26.56700 -10.87900 46.79600
H  28.13500 -11.32400 48.28800
H  28.17300 -9.63200 48.83800
H  29.01100 -10.12200 47.26100
H  30.13700 -4.90200 47.61700
H  30.55000 -5.36300 45.90500
H  29.86300 -6.40700 47.08400
H  27.63000 -2.48500 42.32000
H  27.83100 1.56300 41.58100
H  28.76700 1.66200 43.02100
H  26.99900 1.68400 43.12200

