158

Mg 49.20500 47.78100 42.75300
C  45.92300 48.38500 41.93700
C  49.22600 45.05300 40.65700
C  52.65500 47.52500 43.13200
C  49.26200 50.92500 44.39300
N  47.80500 46.98500 41.34200
C  46.47200 47.33600 41.19500
C  45.68000 46.32700 40.29400
C  46.75200 45.20400 40.01800
C  48.06900 45.81800 40.63300
C  46.32600 43.82600 40.67800
C  45.18700 47.03600 39.02300
C  43.66000 46.97100 38.70600
H  43.31400 46.42100 37.32500
N  50.67500 46.40400 42.11800
C  50.48500 45.32400 41.33100
C  51.74500 44.54700 41.20100
C  52.75300 45.29000 41.88100
C  52.04300 46.45300 42.43400
C  51.93200 43.21300 40.47600
C  54.21800 44.97300 41.85900
O  54.56800 43.90600 41.42700
C  55.31500 45.87700 42.30800
N  50.72000 49.05900 43.46000
C  52.06900 48.70100 43.58000
C  52.92300 49.87600 44.20400
C  51.75100 50.82900 44.65200
C  50.46000 50.22800 44.18800
C  53.92800 49.44700 45.36700
C  51.96300 52.26700 44.17200
C  51.62800 53.38600 45.16800
N  47.84500 49.33100 43.33400
C  48.00100 50.54600 43.90500
C  46.74300 51.30300 43.83100
C  45.84900 50.42200 43.21500
C  46.61900 49.33600 42.74700
C  46.52900 52.65200 44.47900
C  44.46600 50.21300 42.83300
O  43.46500 50.92900 43.18100
C  44.44100 48.77200 42.10300
C  43.79800 47.83800 43.03000
O  43.92200 47.73900 44.23600
O  42.84200 47.06900 42.44200
C  42.17700 46.07300 43.30200
H  49.10200 44.17000 40.02600
H  53.74400 47.53300 43.20700
H  49.16900 51.89500 44.88600
H  44.81600 45.93300 40.83000
H  47.01600 44.92100 38.99900
H  46.85600 43.64800 41.61300
H  46.47000 43.00600 39.97500
H  45.25000 43.80800 40.85600
H  45.71000 46.57300 38.18600
H  45.48300 48.08400 39.06400
H  43.14500 47.93200 38.71400
H  43.20900 46.21900 39.35300
H  52.46100 42.50100 41.10900
H  52.38600 43.33200 39.49200
H  50.98000 42.70500 40.32600
H  55.31900 46.77700 41.69300
H  56.17600 45.24000 42.10700
H  55.13600 46.13000 43.35300
H  53.40900 50.36300 43.35800
H  51.62100 50.88700 45.73300
H  54.25800 48.41800 45.22200
H  53.69000 49.68100 46.40400
H  54.82400 50.01600 45.11900
H  51.35200 52.45900 43.29100
H  53.02100 52.37400 43.93100
H  51.14000 52.97100 46.04900
H  51.11500 54.07700 44.49800
H  52.56600 53.88100 45.41900
H  47.12800 52.78200 45.38000
H  45.49100 52.75900 44.79400
H  46.71700 53.47800 43.79300
H  44.00400 48.83800 41.10700
H  41.54500 45.51200 42.61300
H  41.59400 46.41700 44.15700
H  42.92400 45.32500 43.56700
Mg 30.56200 57.86600 40.63000
C  27.92000 55.66600 39.22100
C  32.83600 55.41500 39.34600
C  32.83600 60.10700 40.83600
C  28.05000 60.29200 40.99300
N  30.37900 55.82500 39.34400
C  29.25100 55.10600 38.95400
C  29.63900 53.77400 38.23800
C  31.15700 53.67200 38.47200
C  31.53300 55.00700 39.07600
C  31.54400 52.45400 39.42900
C  29.24500 53.79900 36.68600
C  27.97600 53.07500 36.30600
H  27.04000 53.81600 35.33000
N  32.63300 57.75100 40.33000
C  33.33300 56.68300 39.80100
C  34.73000 57.10500 39.73400
C  34.80000 58.41900 40.19700
C  33.42900 58.82000 40.51400
C  35.88400 56.15600 39.32000
C  36.04800 59.24800 40.29900
O  37.20100 58.86800 40.02000
C  35.95300 60.77500 40.71100
N  30.46300 59.90500 40.88100
C  31.60200 60.58100 41.06100
C  31.34900 62.06300 41.48400
C  29.77600 62.13700 41.53200
C  29.37800 60.75300 40.98000
C  32.01800 62.50200 42.77800
C  29.22500 63.31500 40.78100
C  29.31300 63.35100 39.18000
N  28.33900 57.93900 40.48900
C  27.55400 58.95700 40.72100
C  26.15500 58.50600 40.43300
C  26.33800 57.22600 39.86700
C  27.64600 56.92600 39.85000
C  24.84500 59.18200 40.62900
C  25.55700 56.10800 39.35400
O  24.36700 56.02400 39.02100
C  26.60900 55.08800 38.97700
C  26.15300 53.80600 39.71900
O  26.02000 53.80500 40.91000
O  25.91900 52.76900 38.92300
C  25.20800 51.64000 39.45600
H  33.60600 54.70200 39.04100
H  33.60600 60.88200 40.84700
H  27.28300 61.05200 41.15900
H  29.22600 52.86200 38.66900
H  31.75200 53.62200 37.56100
H  32.44100 51.98600 39.02500
H  30.78200 51.68200 39.53600
H  31.80400 52.81900 40.42300
H  30.03100 53.22200 36.19900
H  29.44100 54.80100 36.30400
H  27.42000 52.70500 37.16800
H  28.36500 52.25000 35.71100
H  36.36200 56.40600 38.37300
H  35.56000 55.11600 39.31700
H  36.68400 56.25800 40.05300
H  35.35400 60.81800 41.62100
H  35.48100 61.35700 39.91900
H  36.89200 61.25000 40.99700
H  31.51400 62.76100 40.66400
H  29.43400 62.24700 42.56100
H  32.83300 63.18000 42.52400
H  32.46000 61.62600 43.25200
H  31.32300 62.94800 43.49000
H  29.73200 64.16900 41.23000
H  28.18800 63.49100 41.06500
H  28.30200 63.59800 38.85800
H  29.64200 62.45900 38.64700
H  30.00000 64.15100 38.90400
H  24.83300 60.27000 40.68600
H  24.21100 58.68800 41.36600
H  24.36000 58.77600 39.74100
H  26.43400 54.90100 37.91800
H  26.05100 51.16300 39.95700
H  24.84100 50.95500 38.69200
H  24.52300 51.92900 40.25300

