158

Mg 41.87300 40.87800 26.66300
C  40.99400 43.34900 28.88900
C  42.84100 38.92600 29.27800
C  43.14700 38.68600 24.34700
C  41.62200 43.23800 24.02700
N  42.00600 41.16200 28.89200
C  41.47700 42.21900 29.57300
C  41.32600 41.86100 31.09000
C  42.20300 40.54400 31.18200
C  42.32800 40.14200 29.70500
C  43.52500 40.69300 31.87600
C  39.90100 41.72700 31.53300
C  39.68700 42.53800 32.84700
H  39.22600 41.80200 34.13100
N  42.88000 38.96900 26.76400
C  43.14300 38.34400 27.95300
C  43.74500 37.02600 27.64600
C  43.79600 36.95800 26.24600
C  43.31700 38.21100 25.68900
C  44.23000 36.12900 28.74600
C  44.20800 35.82400 25.42500
O  44.17900 35.79900 24.18500
C  44.66000 34.61300 26.12500
N  42.33900 41.01500 24.50500
C  42.78700 39.92100 23.76200
C  42.77500 40.18400 22.22900
C  42.35000 41.66700 22.18900
C  41.99800 41.96900 23.69400
C  44.16400 39.91900 21.48900
C  41.16600 41.95100 21.27800
C  41.47500 42.80300 20.03300
N  41.34400 42.82300 26.49700
C  41.22900 43.67000 25.34200
C  40.63600 44.94500 25.77800
C  40.52800 44.84300 27.19600
C  41.04700 43.60200 27.55400
C  40.39200 46.10600 24.84700
C  40.17400 45.58400 28.38900
O  39.68200 46.70700 28.44800
C  40.40900 44.60000 29.54500
C  41.41500 45.22200 30.49900
O  42.60900 45.49100 30.29500
O  40.88000 45.42600 31.67600
C  41.73000 45.90300 32.77500
H  42.99700 38.18800 30.06800
H  43.47200 37.89500 23.66700
H  41.40800 43.95000 23.22800
H  41.80900 42.67400 31.63100
H  41.73200 39.69800 31.68400
H  43.29700 41.15900 32.83400
H  44.26100 41.28100 31.32600
H  44.05000 39.74700 32.00700
H  39.52000 40.71500 31.66900
H  39.41500 42.16000 30.65900
H  38.74300 43.07000 32.72500
H  40.52400 43.14800 33.18600
H  43.83500 35.11500 28.68500
H  43.98600 36.44300 29.76100
H  45.30500 35.95300 28.71200
H  43.77800 34.24100 26.64700
H  45.52300 35.04500 26.63100
H  45.10800 33.91500 25.41800
H  42.04300 39.51300 21.77800
H  43.27700 42.17600 21.92600
H  43.98400 39.07700 20.82000
H  44.91400 39.52100 22.17100
H  44.48300 40.81800 20.96100
H  40.30700 42.42700 21.75200
H  40.75500 41.04500 20.83100
H  42.53000 43.06100 19.94200
H  40.87200 43.71000 19.99100
H  41.24200 42.19400 19.16000
H  39.33600 46.06600 24.58100
H  41.04200 46.02700 23.97500
H  40.66500 47.06500 25.28700
H  39.49500 44.36900 30.09200
H  41.26200 45.51900 33.68100
H  41.79600 46.98700 32.87400
H  42.73900 45.49800 32.69000
Mg 10.38300 48.00400 26.91300
C  8.63200 47.95900 29.96000
C  12.96100 49.48100 28.42800
C  11.92500 47.83300 23.99000
C  7.38400 46.85400 25.35400
N  10.61600 48.81100 28.80600
C  9.90100 48.40500 29.93100
C  10.70000 48.78100 31.26100
C  11.85700 49.61900 30.68300
C  11.76500 49.37300 29.20700
C  11.86500 51.06200 31.00400
C  11.13800 47.44800 32.10600
C  10.81300 47.34400 33.63900
H  10.67600 46.00400 34.34000
N  12.17800 48.54200 26.27900
C  13.18500 49.03700 27.07300
C  14.41100 49.08400 26.35800
C  14.15400 48.63800 25.05300
C  12.65300 48.37700 25.03400
C  15.75200 49.49700 26.95600
C  15.03100 48.54700 23.82900
O  14.57100 48.22200 22.72800
C  16.45100 48.87200 23.91800
N  9.67200 47.75500 24.89900
C  10.49600 47.66900 23.88400
C  9.89100 46.96100 22.63800
C  8.54700 46.49400 23.10800
C  8.45600 47.14300 24.48900
C  9.89000 47.93700 21.41000
C  8.30000 45.02800 23.19300
C  8.97200 44.11000 22.20800
N  8.41700 47.60800 27.39900
C  7.31200 47.16100 26.65900
C  6.13800 47.07500 27.50800
C  6.62200 47.39900 28.86600
C  8.00700 47.65800 28.72800
C  4.70700 46.78800 27.11000
C  6.28200 47.50000 30.26800
O  5.17800 47.43700 30.79700
C  7.55000 47.77900 31.10300
C  7.77800 46.55500 31.93300
O  8.38800 45.59100 31.57400
O  7.05200 46.55900 33.09800
C  7.15300 45.37000 34.01800
H  13.81100 49.93000 28.94600
H  12.50300 47.49600 23.12700
H  6.49500 46.41600 24.89600
H  9.98000 49.31000 31.88500
H  12.80400 49.17700 30.99300
H  10.92300 51.34900 31.47000
H  12.04700 51.67000 30.11800
H  12.59000 51.23700 31.79900
H  12.22100 47.36000 32.02700
H  10.67700 46.66900 31.49800
H  9.90900 47.93200 33.80000
H  11.64800 47.89900 34.06700
H  15.56300 49.86700 27.96300
H  16.16700 50.28000 26.32100
H  16.31200 48.56400 26.89500
H  16.82300 48.22200 24.71000
H  16.54800 49.90600 24.25000
H  16.91000 48.67100 22.95000
H  10.54600 46.09300 22.56700
H  7.83300 46.95800 22.42700
H  10.40700 48.87300 21.62200
H  8.90700 48.28400 21.09000
H  10.35200 47.52300 20.51400
H  7.21900 44.89000 23.20600
H  8.59100 44.67200 24.18200
H  9.78900 43.56100 22.67600
H  9.37100 44.58400 21.31100
H  8.22200 43.39300 21.87300
H  4.38000 46.94600 26.08200
H  4.11300 47.47900 27.70900
H  4.47300 45.75000 27.34800
H  7.33400 48.62000 31.76200
H  6.93900 44.50000 33.39700
H  6.40400 45.50200 34.79900
H  8.10800 45.31200 34.54200

