158

Mg 36.08200 49.66300 25.81700
C  36.01100 47.67700 28.71800
C  34.43300 52.11400 27.31300
C  35.53100 51.07400 22.76600
C  37.73500 46.95300 24.24400
N  35.33000 49.83100 27.77900
C  35.52700 48.97700 28.87900
C  34.97700 49.68100 30.20900
C  34.42100 51.00400 29.66200
C  34.68500 50.95300 28.10100
C  32.89300 51.20300 29.92100
C  36.20200 49.87800 31.19300
C  36.00200 49.41300 32.65200
H  34.57000 49.20800 33.14700
N  35.26200 51.48800 25.14600
C  34.60500 52.37700 25.95000
C  34.13400 53.51100 25.09800
C  34.54100 53.24700 23.78100
C  35.14600 51.92000 23.82400
C  33.31300 54.64200 25.61800
C  34.55600 54.09800 22.55300
O  35.12700 53.78300 21.51600
C  33.85600 55.41700 22.59000
N  36.57700 49.08700 23.83900
C  36.27200 49.89500 22.78100
C  36.93400 49.42800 21.50400
C  37.73800 48.10900 21.90900
C  37.35800 48.07300 23.47500
C  36.05300 49.16200 20.23600
C  39.24500 48.11700 21.56600
C  40.17100 49.18100 22.13800
N  36.73200 47.75500 26.26400
C  37.39200 46.76400 25.52800
C  37.55200 45.57400 26.33800
C  37.06800 45.89500 27.61000
C  36.58500 47.20900 27.51400
C  38.14900 44.35400 25.85200
C  36.79400 45.34700 28.92300
O  36.91700 44.21200 29.32200
C  36.25700 46.54000 29.78000
C  35.06200 46.16600 30.60800
O  33.89700 46.41300 30.36300
O  35.47500 45.66200 31.80300
C  34.56200 45.23200 32.80700
H  33.90900 52.88200 27.88700
H  35.21000 51.52900 21.82700
H  38.31800 46.15100 23.78600
H  34.20500 49.03400 30.62500
H  34.90100 51.87300 30.11200
H  32.66600 52.08700 30.51700
H  32.38100 50.35500 30.37700
H  32.24100 51.27400 29.05100
H  36.42600 50.93800 31.07400
H  37.08300 49.32800 30.86400
H  36.49100 50.11500 33.32700
H  36.45100 48.42300 32.73900
H  33.05800 54.40100 26.65000
H  32.33400 54.86100 25.19100
H  33.85500 55.58800 25.61400
H  34.40000 55.98100 23.34800
H  32.78600 55.37000 22.79100
H  33.90700 56.01700 21.68100
H  37.74300 50.15600 21.44000
H  37.20200 47.28300 21.44200
H  36.28400 48.20300 19.77400
H  36.18100 49.91100 19.45500
H  34.98900 49.13700 20.47400
H  39.30300 48.28900 20.49100
H  39.55700 47.07600 21.65000
H  40.45000 49.73200 21.24000
H  41.03700 48.69200 22.58600
H  39.65600 49.80200 22.87100
H  37.41400 43.78600 25.28300
H  38.61000 43.76500 26.64500
H  38.99700 44.58300 25.20600
H  37.05100 46.86900 30.45000
H  33.54300 45.28800 32.42300
H  34.68600 45.90200 33.65800
H  34.79200 44.21900 33.13600
Mg -2.08100 34.15200 27.19000
C  -3.99600 32.17400 29.76000
C  -1.14900 36.10700 29.74000
C  -0.95000 35.98100 24.97100
C  -4.02000 32.25300 24.81800
N  -2.54700 34.08600 29.43500
C  -3.33000 33.30000 30.25500
C  -3.27100 33.75200 31.71100
C  -2.64200 35.22400 31.63200
C  -2.10700 35.15400 30.16600
C  -3.63800 36.39100 31.83600
C  -2.29000 32.76100 32.46400
C  -2.83700 31.70000 33.44100
H  -2.11600 31.73800 34.79600
N  -1.06300 35.82300 27.36200
C  -0.59800 36.41500 28.47200
C  0.37400 37.40400 28.10400
C  0.45900 37.33900 26.68300
C  -0.57800 36.39000 26.27500
C  1.14200 38.15300 29.12700
C  1.41300 38.00900 25.65300
O  1.40000 37.90400 24.47400
C  2.59900 38.80000 26.29900
N  -2.75700 34.31100 25.18900
C  -1.90600 35.05900 24.43900
C  -2.08000 34.92100 22.91800
C  -2.99800 33.65300 22.83000
C  -3.34600 33.37100 24.39700
C  -2.49600 36.14500 22.19100
C  -2.41900 32.36000 22.14200
C  -3.31000 31.85100 21.06000
N  -3.54400 32.45000 27.22400
C  -4.16100 31.82300 26.15400
C  -4.98700 30.75400 26.61200
C  -4.98100 30.90400 27.99600
C  -4.04500 31.90200 28.34200
C  -5.79200 29.85200 25.82900
C  -5.53700 30.36600 29.29900
O  -6.39000 29.50100 29.50600
C  -4.96400 31.20200 30.41100
C  -6.06700 31.96300 31.01600
O  -6.59800 32.96900 30.59800
O  -6.41100 31.35200 32.16100
C  -7.33400 32.13100 33.04700
H  -0.85000 36.79800 30.53100
H  -0.29200 36.45600 24.24000
H  -4.51900 31.64500 24.06100
H  -4.23800 33.73900 32.21500
H  -1.81000 35.29100 32.33300
H  -4.64700 36.03000 32.03900
H  -3.62900 37.10400 31.01200
H  -3.27800 36.93900 32.70700
H  -1.52900 33.23700 33.08200
H  -1.75600 32.12900 31.75500
H  -2.72200 30.65900 33.14000
H  -3.88900 31.93200 33.61000
H  2.19900 38.03500 28.88900
H  1.06900 37.70600 30.11900
H  0.88400 39.21100 29.09300
H  2.81900 39.54300 25.53300
H  3.40200 38.11900 26.58200
H  2.29700 39.45900 27.11200
H  -1.14300 34.50200 22.55200
H  -3.98600 33.89200 22.43800
H  -3.49100 35.98100 21.77600
H  -1.96200 36.29700 21.25300
H  -2.34700 37.00700 22.84100
H  -2.19200 31.54300 22.82700
H  -1.48600 32.64800 21.65700
H  -2.81900 31.91300 20.08900
H  -4.22500 32.44200 21.02000
H  -3.56400 30.83800 21.37300
H  -6.80300 30.23200 25.68200
H  -5.88600 28.90900 26.36700
H  -5.32700 29.67300 24.86000
H  -4.50900 30.65600 31.23800
H  -8.29700 32.18600 32.54100
H  -7.10500 33.14300 33.38200
H  -7.54000 31.60600 33.97900

