158

Mg 1.42600 -1.23800 44.03000
C  4.83600 -0.36500 43.78500
C  0.59300 1.59000 42.45900
C  -1.76000 -2.49100 43.93600
C  2.50400 -4.11800 45.95300
N  2.64100 0.37400 43.20000
C  4.00000 0.59700 43.25700
C  4.35500 2.00900 42.77100
C  2.96800 2.67100 42.57200
C  1.98100 1.52400 42.75000
C  2.67600 3.91300 43.50700
C  5.36500 2.15500 41.52400
C  5.45300 1.03700 40.49400
H  5.18600 1.36600 39.05400
N  -0.32800 -0.58300 43.14900
C  -0.45000 0.62100 42.50200
C  -1.81700 0.66800 41.99900
C  -2.58700 -0.45600 42.53500
C  -1.52800 -1.23700 43.18500
C  -2.28000 1.84800 41.12700
C  -4.05500 -0.76200 42.37000
O  -4.74300 0.11000 41.83600
C  -4.80100 -2.00800 42.82700
N  0.54000 -3.15200 44.69900
C  -0.87100 -3.25600 44.68000
C  -1.25500 -4.54800 45.47900
C  0.07500 -4.90300 46.32100
C  1.14300 -3.96700 45.66400
C  -2.57300 -4.43000 46.38800
C  0.53000 -6.36500 46.16000
C  0.89500 -6.85300 44.72800
N  3.27700 -2.07700 44.72900
C  3.53100 -3.29700 45.46800
C  4.89500 -3.39800 45.68600
C  5.50600 -2.25000 45.06100
C  4.45300 -1.53200 44.42600
C  5.59800 -4.56500 46.36500
C  6.75500 -1.59300 44.76400
O  7.91400 -1.93300 45.00300
C  6.35100 -0.30000 43.94100
C  6.78700 0.93200 44.65700
O  6.43800 1.30000 45.74100
O  7.74600 1.63800 43.96500
C  8.21000 2.87900 44.51200
H  0.29500 2.57300 42.08900
H  -2.83600 -2.61200 44.07800
H  2.75700 -4.92700 46.64100
H  4.83500 2.43500 43.65200
H  2.96500 3.10000 41.57000
H  2.64200 4.83200 42.92200
H  3.38000 4.04000 44.33000
H  1.70500 3.85900 43.99800
H  6.38400 2.12100 41.91100
H  5.19800 3.07800 40.96900
H  4.80600 0.19300 40.73400
H  6.45700 0.61400 40.45600
H  -2.77700 2.60400 41.73400
H  -3.08900 1.52700 40.47100
H  -1.50700 2.22700 40.45800
H  -5.80300 -2.22500 42.45600
H  -4.80400 -2.10900 43.91200
H  -4.35600 -2.93500 42.46600
H  -1.56100 -5.41000 44.88600
H  0.07200 -4.61500 47.37200
H  -3.20700 -5.29700 46.20000
H  -3.16900 -3.53500 46.21100
H  -2.38000 -4.37000 47.45900
H  -0.40600 -6.87700 46.37800
H  1.32500 -6.56200 46.88000
H  1.94900 -7.12700 44.77800
H  0.67900 -6.17700 43.90100
H  0.34000 -7.74600 44.44000
H  5.51300 -4.52500 47.45100
H  6.63700 -4.64900 46.04700
H  5.11400 -5.45100 45.95500
H  7.00300 -0.35800 43.06900
H  9.07500 3.17200 43.91700
H  8.45600 2.81700 45.57200
H  7.35600 3.55300 44.43900
Mg 40.22800 9.94900 29.39700
C  41.94200 10.76700 32.15300
C  37.45900 9.09800 31.32000
C  38.64300 8.82200 26.55200
C  42.91900 11.00000 27.33000
N  39.78400 9.95400 31.47000
C  40.63000 10.39800 32.40000
C  40.05400 10.20800 33.86100
C  38.55200 9.70400 33.46700
C  38.60100 9.54200 31.97300
C  38.08000 8.34100 34.19800
C  40.00500 11.36800 34.71800
C  40.82500 11.23000 36.07400
H  41.30400 12.41900 36.85400
N  38.24800 9.11900 28.99400
C  37.30700 8.92500 29.92600
C  36.11600 8.32500 29.23700
C  36.53500 8.13400 27.87500
C  37.89100 8.70000 27.77600
C  34.92300 7.86000 30.03800
C  35.70800 7.54700 26.74100
O  36.18500 7.27600 25.68000
C  34.25900 7.13800 27.01200
N  40.81800 9.72800 27.35900
C  39.91700 9.29200 26.38300
C  40.47300 9.42300 24.96500
C  41.79300 10.33200 25.19800
C  41.79600 10.35100 26.76600
C  40.74600 8.12700 24.15100
C  41.79500 11.71100 24.45900
C  41.30800 12.92100 25.22000
N  42.15300 10.67100 29.71700
C  43.12900 11.05200 28.80100
C  44.28400 11.49100 29.59800
C  43.90500 11.30300 30.96700
C  42.60500 10.78300 30.94200
C  45.58600 12.03300 29.03400
C  44.32200 11.59200 32.33500
O  45.37400 12.11700 32.79200
C  43.05500 11.14400 33.16600
C  43.46900 10.23400 34.24400
O  43.72900 9.06700 34.13400
O  43.79700 11.05000 35.35000
C  44.40900 10.30100 36.43400
H  36.63800 8.89300 32.01000
H  38.17900 8.50300 25.61600
H  43.67400 11.33600 26.61700
H  40.56700 9.35300 34.30200
H  37.77500 10.41700 33.74300
H  39.00000 8.02200 34.68900
H  37.73400 7.61100 33.46600
H  37.21400 8.52300 34.83300
H  38.97300 11.67900 34.88000
H  40.48900 12.21000 34.22300
H  41.60100 10.46600 36.03100
H  40.10500 10.82200 36.78400
H  34.98100 8.47800 30.93500
H  35.06800 6.83000 30.36400
H  33.95200 8.00000 29.56300
H  33.70700 8.07000 27.13300
H  34.03900 6.46900 27.84400
H  33.84700 6.62700 26.14200
H  39.80600 10.14700 24.49700
H  42.74500 9.90700 24.88100
H  40.02200 7.99700 23.34600
H  40.72100 7.31200 24.87400
H  41.74300 8.18700 23.71600
H  41.11600 11.61100 23.61300
H  42.80600 11.92100 24.11100
H  40.88900 12.74700 26.21100
H  40.49500 13.56100 24.87600
H  42.15900 13.60000 25.26100
H  45.36300 12.73300 28.22900
H  46.24900 11.23500 28.69800
H  46.16100 12.53300 29.81300
H  42.66500 11.97700 33.75100
H  45.44100 10.04800 36.19000
H  43.87800 9.36700 36.61500
H  44.31500 10.95800 37.29900

