158

Mg 42.79700 42.27300 26.13700
C  41.69300 44.52200 28.64400
C  44.35600 40.46600 28.54100
C  43.99500 40.28700 23.74400
C  41.84300 44.62200 23.76300
N  42.79500 42.39800 28.40900
C  42.27400 43.36800 29.21300
C  42.29700 42.93000 30.67000
C  43.29900 41.63700 30.57300
C  43.57800 41.51900 29.06000
C  44.65500 41.85700 31.40500
C  40.85100 42.64900 31.18500
C  40.69800 41.81100 32.43800
H  40.05900 42.68400 33.54900
N  43.89400 40.55700 26.07200
C  44.40100 39.89900 27.25600
C  45.08000 38.72200 26.81600
C  44.99100 38.64900 25.41400
C  44.30100 39.89100 25.03200
C  45.84900 37.82100 27.77000
C  45.49100 37.53300 24.46700
O  45.36900 37.66300 23.23500
C  46.10500 36.29100 25.10900
N  42.89500 42.50300 24.09900
C  43.38200 41.48800 23.29500
C  43.37900 41.82500 21.81700
C  42.55200 43.11300 21.77600
C  42.48800 43.50400 23.27800
C  44.79100 42.09200 21.12500
C  41.03400 42.99000 21.34600
C  40.40300 41.61500 21.58600
N  41.96900 44.23200 26.15000
C  41.63400 45.06300 25.13600
C  41.18300 46.30700 25.64600
C  41.03500 46.12700 26.98100
C  41.65700 44.86500 27.27800
C  40.90100 47.45900 24.73000
C  40.63800 46.74600 28.29600
O  40.10600 47.81200 28.55000
C  40.99100 45.65500 29.38100
C  41.87900 46.34300 30.38400
O  42.92800 46.82200 30.17500
O  41.33100 46.35200 31.65800
C  42.12000 46.94100 32.75300
H  44.72300 39.83700 29.35400
H  44.28000 39.70800 22.86300
H  41.56000 45.35200 23.00200
H  42.74600 43.74800 31.23400
H  42.81800 40.77200 31.03100
H  44.61500 42.79000 31.96700
H  45.48300 42.00000 30.71100
H  44.83200 41.01000 32.06700
H  40.15800 42.30900 30.41500
H  40.45100 43.64700 31.36300
H  41.71600 41.52800 32.70300
H  40.08200 40.97200 32.11400
H  46.88700 37.76600 27.44100
H  45.44800 36.80800 27.74200
H  45.95400 38.25000 28.76600
H  47.06500 36.60500 25.51800
H  46.26100 35.50800 24.36600
H  45.52000 35.87700 25.93000
H  42.78400 41.12900 21.22500
H  42.99400 43.94000 21.22100
H  44.81400 41.60100 20.15200
H  45.42000 41.48500 21.77600
H  45.08100 43.14100 21.06000
H  40.91700 43.42400 20.35300
H  40.49000 43.73900 21.92100
H  39.32400 41.74900 21.51900
H  40.57400 41.21900 22.58800
H  40.74100 40.97600 20.77000
H  40.27900 47.13900 23.89500
H  41.84200 47.76500 24.27400
H  40.48300 48.26900 25.32800
H  40.07600 45.37300 29.90300
H  41.64200 47.90500 32.92600
H  43.12500 47.26200 32.47900
H  42.03500 46.35700 33.67000
Mg 9.61300 47.80600 26.18800
C  7.38800 47.59100 29.10500
C  11.79800 49.36200 28.18800
C  11.33900 48.33500 23.43200
C  6.85900 46.54000 24.28300
N  9.58600 48.39800 28.41800
C  8.73400 48.10500 29.38500
C  9.29400 48.43700 30.81700
C  10.46400 49.37600 30.34700
C  10.63100 49.08500 28.87600
C  10.21000 50.86500 30.65600
C  9.79400 47.08300 31.59600
C  10.50400 47.54500 32.92600
H  9.76000 47.43200 34.31100
N  11.42600 48.69500 25.86000
C  12.18600 49.21300 26.82500
C  13.45600 49.65700 26.16900
C  13.36200 49.22600 24.84700
C  12.00200 48.70400 24.63900
C  14.55900 50.08800 27.06800
C  14.47500 49.11700 23.81100
O  14.19900 48.68600 22.67300
C  15.93000 49.64300 24.03800
N  9.10000 47.55000 24.15100
C  10.04600 47.82600 23.18100
C  9.64800 47.32700 21.80800
C  8.35200 46.51900 22.16800
C  8.04500 46.82800 23.63500
C  9.44400 48.48500 20.76800
C  8.36400 44.97800 21.81300
C  8.33500 43.90500 22.92200
N  7.47900 47.32600 26.54600
C  6.52900 46.82600 25.66900
C  5.27100 46.65200 26.37400
C  5.57200 46.86100 27.70100
C  6.89800 47.30500 27.81300
C  3.93500 46.15500 25.87000
C  5.01500 46.84500 29.03700
O  3.87900 46.61800 29.46000
C  6.23300 47.28100 30.00000
C  6.50900 46.05400 30.77000
O  6.97300 44.98000 30.31900
O  6.11900 46.27400 32.09200
C  6.43100 45.18100 33.02400
H  12.64900 49.67800 28.79400
H  11.87700 48.34900 22.48200
H  6.08300 46.05100 23.69100
H  8.49800 48.98100 31.32600
H  11.34100 48.90300 30.78800
H  10.96300 51.58000 30.32500
H  9.93100 50.92200 31.70800
H  9.29300 51.15700 30.14300
H  10.28600 46.45500 30.85300
H  8.88600 46.54700 31.87300
H  10.79100 48.59500 32.86700
H  11.41700 46.95500 32.99500
H  15.07200 49.16300 27.32800
H  14.29700 50.76800 27.87900
H  15.27700 50.67300 26.49200
H  15.89400 50.67700 24.38100
H  16.51600 49.62100 23.11900
H  16.51800 49.00100 24.69400
H  10.48900 46.72300 21.46600
H  7.45200 46.84300 21.64500
H  10.37800 48.68900 20.24400
H  9.01400 49.32200 21.31700
H  8.67600 48.27800 20.02200
H  9.34800 44.81100 21.37700
H  7.55400 44.80800 21.10400
H  8.13400 44.34300 23.90000
H  9.26700 43.35500 22.79900
H  7.54700 43.16800 22.77000
H  3.40800 45.55200 26.61000
H  4.10800 45.48300 25.02900
H  3.31400 47.01500 25.62100
H  6.05300 48.13300 30.65600
H  6.42400 45.57000 34.04200
H  7.35200 44.62700 32.84600
H  5.70700 44.37600 32.90000

