158

Mg 8.93200 3.81300 27.08900
C  10.02900 2.33800 30.01800
C  6.86700 5.81100 29.08700
C  7.68600 5.07400 24.27700
C  10.66100 1.39100 25.26000
N  8.41400 3.94300 29.30100
C  9.15200 3.34300 30.29900
C  8.73800 3.88800 31.66400
C  7.55200 4.78900 31.30700
C  7.57000 4.85600 29.86200
C  6.14100 4.27000 31.74700
C  9.97100 4.62300 32.25800
C  10.39700 4.05400 33.60000
H  10.84100 4.96500 34.73100
N  7.53800 5.25400 26.76800
C  6.86600 6.03700 27.67500
C  6.03900 7.03300 26.97700
C  6.48100 6.96800 25.64900
C  7.26600 5.73800 25.51700
C  5.11100 7.99300 27.62000
C  6.18600 7.93400 24.57000
O  6.55800 7.75000 23.41800
C  5.51500 9.16100 24.93500
N  9.18500 3.37200 25.05900
C  8.61700 4.05000 24.10200
C  9.10800 3.52800 22.75100
C  10.18900 2.54300 23.03700
C  9.96400 2.33900 24.58600
C  7.82100 3.01800 22.05500
C  11.68500 3.02600 22.70500
C  12.55900 2.08100 21.89800
N  10.05000 2.04500 27.51500
C  10.79400 1.23400 26.69500
C  11.67400 0.33800 27.44200
C  11.31000 0.64300 28.79900
C  10.37200 1.73500 28.78300
C  12.66200 -0.56200 26.88800
C  11.62300 0.46000 30.16700
O  12.48500 -0.30100 30.58600
C  10.85500 1.53300 31.03200
C  10.02800 0.69400 31.91700
O  8.83300 0.33000 31.72700
O  10.78200 0.51500 33.08900
C  9.99400 -0.30200 34.05300
H  6.33000 6.49900 29.74300
H  7.28400 5.51800 23.36400
H  11.12500 0.69300 24.56000
H  8.42100 3.11200 32.36200
H  7.68600 5.76900 31.76400
H  5.95500 4.69300 32.73400
H  6.37400 3.22200 31.93500
H  5.24400 4.39400 31.14000
H  9.83400 5.70400 32.22900
H  10.80200 4.43500 31.57800
H  11.30600 3.47200 33.44800
H  9.62700 3.37200 33.96100
H  4.86300 7.60200 28.60700
H  4.17400 8.10100 27.07400
H  5.55600 8.98200 27.73700
H  4.48600 8.91700 25.19900
H  5.49800 9.80700 24.05800
H  6.06100 9.70200 25.70800
H  9.39800 4.39600 22.15900
H  9.93600 1.56900 22.61700
H  6.92900 2.98000 22.68000
H  7.93300 2.06500 21.53900
H  7.63900 3.76500 21.28300
H  12.23800 3.29700 23.60400
H  11.58800 3.91500 22.08200
H  12.89000 2.59200 20.99300
H  11.99700 1.18700 21.62900
H  13.40900 1.73100 22.48400
H  12.21700 -1.22900 26.15000
H  13.06400 -1.20200 27.67300
H  13.48100 -0.02100 26.41300
H  11.51700 2.18200 31.60600
H  9.39700 -1.06900 33.55900
H  9.37700 0.29100 34.72800
H  10.75500 -0.75300 34.69000
Mg -5.40900 25.94000 26.46500
C  -4.27000 27.56100 29.24800
C  -7.28400 23.89500 28.39200
C  -6.28800 24.13600 23.63400
C  -3.32600 27.96900 24.45900
N  -5.69700 25.79400 28.55200
C  -5.19700 26.55600 29.55500
C  -5.74300 26.14800 30.90900
C  -6.46000 24.83200 30.60400
C  -6.42100 24.76000 29.09100
C  -5.89800 23.57400 31.24700
C  -6.66700 27.20900 31.50500
C  -6.72000 27.36000 33.03100
H  -6.22400 26.26600 33.93300
N  -6.68000 24.37000 26.05500
C  -7.33900 23.66400 26.98600
C  -8.20700 22.65400 26.35500
C  -7.93100 22.72600 24.95400
C  -6.84800 23.74900 24.80600
C  -9.17200 21.75000 27.20200
C  -8.46100 21.87100 23.80800
O  -8.11900 22.08000 22.68400
C  -9.48300 20.89600 24.07900
N  -4.78100 25.98900 24.36300
C  -5.31800 25.16400 23.37900
C  -4.79500 25.54900 21.97600
C  -4.14400 26.95600 22.17400
C  -4.09900 27.03000 23.76400
C  -3.85800 24.48600 21.32000
C  -4.83000 28.15300 21.39500
C  -3.86500 29.12500 20.63900
N  -4.05700 27.45500 26.73800
C  -3.25300 28.23300 25.84400
C  -2.51600 29.19900 26.62900
C  -2.95500 29.03300 27.94500
C  -3.84400 27.95900 27.97300
C  -1.52300 30.23700 26.09900
C  -2.74800 29.53100 29.28000
O  -2.02300 30.43700 29.71000
C  -3.56400 28.59400 30.22200
C  -2.65700 27.80100 31.13700
O  -2.05800 26.80000 30.84200
O  -2.63000 28.35300 32.43800
C  -1.72300 27.84900 33.47100
H  -7.93100 23.27200 29.01400
H  -6.52100 23.76200 22.63500
H  -2.75500 28.64600 23.82000
H  -4.92800 25.98800 31.61500
H  -7.48200 24.90100 30.97600
H  -5.16600 23.77900 32.02800
H  -5.49100 22.88600 30.50600
H  -6.63300 23.04300 31.85200
H  -7.66100 26.99300 31.11200
H  -6.32400 28.15600 31.08900
H  -7.77800 27.55700 33.20000
H  -6.17900 28.28900 33.21200
H  -10.20200 22.10800 27.19800
H  -8.79100 21.66500 28.22000
H  -9.19300 20.76600 26.73400
H  -9.15800 19.96800 24.54800
H  -9.90900 20.64500 23.10800
H  -10.27600 21.27100 24.72600
H  -5.71000 25.72200 21.41000
H  -3.12600 26.91800 21.78600
H  -2.83100 24.72300 21.04100
H  -4.40200 24.03400 20.49100
H  -3.69700 23.72800 22.08500
H  -5.42700 28.78200 22.05500
H  -5.53500 27.70000 20.69800
H  -4.24800 30.14500 20.59500
H  -3.55000 28.81100 19.64400
H  -2.96500 29.32800 21.21800
H  -0.97600 30.01000 25.18400
H  -0.86300 30.45400 26.93900
H  -1.97700 31.15500 25.72600
H  -4.16800 29.20500 30.89300
H  -0.81500 27.42700 33.04100
H  -2.17600 27.18800 34.20900
H  -1.29600 28.67900 34.03300

