158

Mg 47.12700 25.18100 28.12300
C  48.27000 27.47900 30.85100
C  46.29000 23.01800 30.51500
C  46.74000 23.01600 25.61500
C  48.55800 27.55000 25.96000
N  47.29500 25.23100 30.42500
C  47.73900 26.24100 31.30500
C  47.41400 25.88200 32.78000
C  47.11200 24.34300 32.63400
C  46.81200 24.21300 31.15300
C  48.15700 23.24200 33.08600
C  46.24000 26.70600 33.35400
C  46.51000 27.41000 34.64800
H  45.35600 27.58600 35.60600
N  46.56100 23.32200 28.05800
C  46.24900 22.54500 29.15300
C  45.83600 21.23200 28.68400
C  45.92400 21.23000 27.30400
C  46.41200 22.55000 26.90200
C  45.35600 20.15300 29.58300
C  45.60300 20.04900 26.27300
O  45.79700 20.17400 25.08100
C  45.20000 18.65800 26.81600
N  47.66200 25.24900 26.07600
C  47.24500 24.27600 25.22900
C  47.33600 24.74400 23.80100
C  47.79900 26.22900 23.91800
C  48.01600 26.38500 25.39800
C  48.42500 23.92300 23.03700
C  46.72400 27.26800 23.51200
C  46.67800 27.70000 22.06700
N  48.16600 27.09800 28.26000
C  48.69900 27.85400 27.32200
C  49.36000 28.93100 27.94600
C  49.17300 28.95300 29.29200
C  48.39500 27.77500 29.48000
C  50.15400 29.99900 27.13500
C  49.50200 29.59900 30.54100
O  50.14100 30.62500 30.79200
C  48.77000 28.73100 31.67800
C  49.76600 28.44800 32.71200
O  50.52300 27.51700 32.72800
O  49.74100 29.44500 33.70800
C  50.58100 29.21000 34.88400
H  45.98200 22.36100 31.33000
H  46.43200 22.53500 24.68400
H  48.94000 28.15800 25.13800
H  48.33300 25.99800 33.35500
H  46.22000 24.07400 33.20000
H  48.92300 23.60600 33.77100
H  48.69300 22.81300 32.24000
H  47.60200 22.42000 33.53900
H  45.33500 26.11200 33.47400
H  46.10300 27.46300 32.58100
H  46.75100 28.47000 34.55800
H  47.23900 26.80700 35.18900
H  44.29700 19.98000 29.39100
H  45.50300 20.47200 30.61500
H  45.79200 19.18200 29.34800
H  44.33400 18.65800 27.47700
H  46.15000 18.43000 27.30000
H  45.02400 18.02200 25.94800
H  46.40500 24.61500 23.24900
H  48.71500 26.59400 23.45400
H  48.04900 22.99600 22.60400
H  49.05600 23.48600 23.81100
H  49.12600 24.42800 22.37200
H  46.66000 28.09300 24.22200
H  45.77700 26.73200 23.58200
H  47.44700 27.13700 21.53900
H  46.76200 28.78400 21.99500
H  45.72000 27.52200 21.57900
H  49.91300 30.07300 26.07400
H  51.19800 29.68800 27.16700
H  49.93600 30.94100 27.63900
H  47.92100 29.24900 32.12300
H  50.39500 30.12600 35.44600
H  51.64600 29.04200 34.72800
H  50.16500 28.42900 35.52000
Mg 49.56400 46.52200 42.55500
C  46.19600 47.02800 41.63000
C  49.29200 43.37400 41.36800
C  52.91000 46.14000 42.98200
C  49.75300 49.82400 43.60900
N  47.89100 45.38300 41.50300
C  46.61600 45.73400 41.29600
C  45.78600 44.62000 40.69000
C  46.70700 43.40500 40.97500
C  48.06900 44.05600 41.31000
C  46.07900 42.38600 41.96300
C  45.51300 44.99100 39.21700
C  44.31000 44.29700 38.59600
H  44.47200 43.68300 37.22100
N  50.94300 44.93800 42.15100
C  50.64800 43.72800 41.63900
C  51.83900 42.89400 41.58000
C  52.89700 43.69000 42.08500
C  52.28000 45.00400 42.44100
C  51.93600 41.53100 40.96300
C  54.28000 43.17200 42.25000
O  54.55900 41.99300 42.09500
C  55.38500 44.07100 42.81900
N  51.12700 47.80300 43.28900
C  52.43200 47.43900 43.36100
C  53.33700 48.55900 43.81300
C  52.30800 49.71300 44.04100
C  50.97000 49.06300 43.65700
C  54.16800 48.26400 45.14600
C  52.70900 51.05600 43.43000
C  52.85200 52.10100 44.50100
N  48.28000 48.05900 42.70500
C  48.50200 49.32400 43.19600
C  47.28800 50.14200 43.09800
C  46.34600 49.18700 42.53700
C  46.98400 48.00500 42.21500
C  47.17400 51.56500 43.43400
C  44.97100 49.03800 42.18000
O  44.04900 49.86700 42.39400
C  44.82800 47.66200 41.49800
C  43.72100 46.93000 42.17800
O  43.64700 46.65200 43.37200
O  42.82700 46.62100 41.21200
C  41.57100 45.95200 41.69400
H  49.24800 42.32700 41.05800
H  53.99600 46.17300 43.09200
H  49.76400 50.89000 43.84600
H  44.84500 44.44700 41.21200
H  46.78900 42.82400 40.05600
H  44.99700 42.28700 41.87900
H  46.28900 42.77500 42.96000
H  46.53000 41.42500 41.71400
H  46.28100 44.84000 38.45800
H  45.36100 46.06900 39.15200
H  43.40300 44.89300 38.70100
H  44.12300 43.41600 39.21100
H  52.78700 41.41700 40.29100
H  51.02200 41.22700 40.45300
H  52.05600 40.73000 41.69200
H  56.21200 43.40700 43.07000
H  54.87200 44.34000 43.74200
H  55.44300 44.80600 42.01600
H  54.03800 48.65800 42.98400
H  52.22700 49.78700 45.12500
H  55.11600 48.78700 45.02300
H  54.45300 47.22400 45.31000
H  53.77300 48.64800 46.08700
H  52.11500 51.46300 42.61200
H  53.72600 50.97900 43.04800
H  53.89800 52.40600 44.53700
H  52.69100 51.82600 45.54300
H  52.19300 52.91300 44.19100
H  47.59100 52.08800 42.57300
H  47.73500 51.72700 44.35400
H  46.16200 51.84600 43.72600
H  44.58300 47.91700 40.46700
H  41.76100 44.98700 42.16600
H  40.96200 45.73400 40.81700
H  40.86300 46.58300 42.23000

