158

Mg 9.29900 4.17800 28.02600
C  10.52300 2.28200 30.79200
C  7.47100 5.99200 30.16200
C  7.87500 5.48200 25.42900
C  10.57800 1.42800 26.02100
N  8.97300 3.95600 30.25200
C  9.66000 3.30100 31.19900
C  9.29800 3.82000 32.62200
C  8.12500 4.87200 32.34200
C  8.13900 4.95500 30.85200
C  6.81100 4.50000 33.05000
C  10.51900 4.38400 33.45700
C  10.68000 3.82200 34.89200
H  10.96800 4.82700 35.98800
N  7.88900 5.63400 27.79000
C  7.34200 6.34900 28.77700
C  6.56300 7.46200 28.20400
C  6.77300 7.31200 26.77900
C  7.60800 6.17200 26.62900
C  5.86900 8.46500 29.03600
C  6.19200 8.12100 25.72700
O  6.39300 7.89700 24.52800
C  5.24100 9.34700 26.00000
N  9.23100 3.47700 25.96000
C  8.53500 4.29400 25.06300
C  8.74500 3.81900 23.60700
C  9.54400 2.48400 23.80700
C  9.80800 2.41000 25.35500
C  7.40500 3.65400 22.87700
C  10.77000 2.29700 22.93400
C  10.96300 0.98700 22.23200
N  10.44300 2.33900 28.26500
C  10.98600 1.43700 27.37100
C  11.92900 0.53700 28.10200
C  11.77700 0.83600 29.42200
C  10.86000 1.87900 29.49400
C  12.88500 -0.42300 27.43200
C  12.23300 0.44800 30.73700
O  13.09800 -0.38400 31.10100
C  11.47800 1.45100 31.70000
C  10.76400 0.62400 32.72900
O  9.69600 0.07900 32.51500
O  11.48300 0.57000 33.90300
C  10.76100 0.02200 35.07000
H  6.92500 6.68600 30.80500
H  7.48300 5.88000 24.49100
H  11.04300 0.74500 25.30700
H  8.94200 2.90100 33.08700
H  8.38800 5.81900 32.81400
H  6.05000 4.23600 32.31600
H  6.65800 5.48100 33.50000
H  6.87800 3.69600 33.78400
H  10.56200 5.47300 33.46500
H  11.37600 4.12000 32.83800
H  11.38600 2.99100 34.91000
H  9.69900 3.37600 35.05700
H  6.19800 8.47800 30.07500
H  4.84200 8.10300 29.06500
H  6.01600 9.53100 28.86400
H  4.35400 8.88700 26.43600
H  4.77500 9.76900 25.11000
H  5.62300 10.08500 26.70600
H  9.39200 4.60200 23.21100
H  8.86200 1.67700 23.53900
H  6.63500 3.67700 23.64900
H  7.35600 2.69900 22.35400
H  7.07500 4.45200 22.21100
H  11.65400 2.49400 23.54100
H  10.61800 3.00300 22.11700
H  10.03400 0.46300 22.00700
H  11.38200 0.33500 22.99900
H  11.47500 1.07600 21.27400
H  13.21800 0.17500 26.58400
H  12.52800 -1.36200 27.00800
H  13.74800 -0.73000 28.02100
H  12.19500 2.02200 32.28900
H  9.98400 -0.70700 34.84100
H  10.42600 0.77300 35.78600
H  11.56800 -0.57400 35.49700
Mg 36.24900 49.22300 24.29800
C  36.68600 47.53100 27.37400
C  34.74400 51.81500 25.96800
C  35.71100 50.66600 21.36600
C  37.46100 46.41700 22.64000
N  35.70600 49.54500 26.47800
C  36.14800 48.85600 27.53300
C  35.74700 49.56200 28.86200
C  34.95000 50.85100 28.36600
C  35.12400 50.75400 26.84200
C  33.57300 51.12000 28.92100
C  37.07400 49.84200 29.69300
C  37.23000 49.12000 31.04400
H  35.93100 48.80600 31.82600
N  35.36100 51.01900 23.75400
C  34.90100 52.02900 24.56800
C  34.42700 53.18500 23.75400
C  34.58900 52.80700 22.36500
C  35.26900 51.45700 22.46900
C  33.85800 54.43100 24.33400
C  34.38700 53.59500 21.12200
O  34.77700 53.12500 20.04400
C  33.83100 54.94300 21.18200
N  36.45200 48.61800 22.25300
C  36.25700 49.42200 21.16500
C  36.63800 48.79800 19.88300
C  37.51300 47.66000 20.35500
C  37.12900 47.54100 21.83700
C  35.43200 48.36200 18.96000
C  38.99000 47.97600 20.23800
C  39.77900 46.70300 19.84200
N  36.94000 47.35500 24.79000
C  37.36200 46.32200 24.00900
C  37.74800 45.20700 24.86700
C  37.51100 45.63000 26.16700
C  37.00400 46.99200 26.14400
C  38.30900 43.80700 24.47600
C  37.51700 45.19100 27.60300
O  37.83500 44.17700 28.20000
C  36.98400 46.47500 28.46000
C  35.80200 46.00800 29.17700
O  34.65300 46.04900 28.83000
O  36.22400 45.33500 30.24400
C  35.18200 44.51200 30.90200
H  34.30800 52.67700 26.47800
H  35.63300 51.11300 20.37300
H  38.09800 45.61600 22.25900
H  35.02500 48.90700 29.35100
H  35.49300 51.76900 28.58700
H  33.61100 52.04500 29.49600
H  33.26300 50.27600 29.53600
H  32.92400 51.24100 28.05400
H  37.24000 50.88300 29.96900
H  37.91900 49.44700 29.13100
H  37.89000 49.70500 31.68400
H  37.88200 48.26400 30.86900
H  33.77400 54.47400 25.42000
H  32.85300 54.63700 23.96700
H  34.57400 55.22700 24.12700
H  33.37400 55.16900 20.21900
H  34.73400 55.52400 21.37000
H  33.13200 55.08500 22.00600
H  37.09000 49.51700 19.20000
H  37.26000 46.70400 19.89800
H  34.95800 49.27100 18.58900
H  34.81300 47.77100 19.63600
H  35.78600 47.72400 18.15100
H  39.37800 48.31400 21.19900
H  39.18900 48.77600 19.52500
H  39.30700 45.78100 20.18100
H  40.66900 46.62300 20.46700
H  40.05000 46.69300 18.78600
H  39.03900 43.81100 23.66600
H  37.56200 43.08400 24.15200
H  38.81500 43.43900 25.36800
H  37.81800 46.65200 29.13900
H  35.52200 43.73100 31.58200
H  34.56700 43.96500 30.18700
H  34.54800 45.12100 31.54600

