158

Mg 8.99300 4.15700 27.63200
C  10.29300 2.42400 30.37100
C  7.07800 5.96100 29.69400
C  7.66200 5.49100 24.90800
C  10.70700 1.83500 25.55300
N  8.62700 4.02800 29.76100
C  9.35700 3.43000 30.72500
C  9.22600 4.00900 32.09900
C  8.02600 4.98400 31.91600
C  7.83200 5.01000 30.35200
C  6.69600 4.64100 32.65300
C  10.57300 4.77700 32.57700
C  10.50300 5.51200 33.88400
H  11.41300 4.95000 35.02000
N  7.63900 5.57900 27.34700
C  6.94900 6.26700 28.34800
C  6.07200 7.26500 27.75000
C  6.13100 7.08300 26.31900
C  7.18200 6.06700 26.14100
C  5.08900 8.08100 28.59300
C  5.38900 7.86300 25.27000
O  5.52300 7.57300 24.08500
C  4.63500 9.15700 25.63800
N  9.31000 3.85300 25.50700
C  8.55400 4.51700 24.63500
C  8.61800 3.96000 23.19000
C  9.81600 2.97100 23.39100
C  9.89900 2.81400 24.87800
C  7.28800 3.27100 22.78700
C  11.25400 3.36500 22.87100
C  11.81700 2.25500 21.98200
N  10.33400 2.59500 27.88000
C  10.87300 1.69800 26.95300
C  11.67500 0.74000 27.60300
C  11.56100 0.98800 29.00600
C  10.70000 2.05800 29.07700
C  12.18600 -0.47200 27.02000
C  11.95300 0.56100 30.22300
O  12.77100 -0.34100 30.61000
C  11.17700 1.55100 31.25000
C  10.38700 0.83000 32.27900
O  9.45400 0.04400 32.06800
O  10.70500 1.31100 33.53300
C  9.84900 1.00700 34.67600
H  6.55700 6.58700 30.42200
H  7.16500 5.95600 24.05500
H  11.18300 1.02700 24.99300
H  8.97700 3.23500 32.82500
H  8.34000 5.99100 32.19100
H  6.90500 4.00700 33.51400
H  5.99000 4.14800 31.98500
H  6.30000 5.53600 33.13500
H  10.75000 5.47800 31.76100
H  11.35600 4.02000 32.62400
H  9.48600 5.44300 34.27200
H  10.83800 6.53200 33.69600
H  4.06600 7.80000 28.34500
H  5.20100 9.16100 28.49800
H  5.04500 7.93800 29.67200
H  4.30000 9.73700 24.77800
H  5.31900 9.71600 26.27600
H  3.75100 8.86500 26.20400
H  8.87700 4.85000 22.61800
H  9.59300 1.97000 23.02200
H  6.58500 3.88300 22.22100
H  6.75900 3.13800 23.73100
H  7.45200 2.36200 22.20900
H  11.89000 3.55000 23.73700
H  11.17800 4.28800 22.29500
H  11.59200 2.39900 20.92500
H  11.58900 1.24800 22.33300
H  12.90000 2.33400 22.06900
H  12.94600 -0.22500 26.27800
H  11.39400 -1.01900 26.50900
H  12.60000 -1.15600 27.76100
H  11.96100 2.09900 31.77200
H  10.16200 0.01400 34.99900
H  8.80500 1.05700 34.36600
H  10.00900 1.75100 35.45600
Mg 17.53000 -0.66500 27.42200
C  16.21200 1.16800 30.22900
C  19.31700 -2.47000 29.70800
C  18.42600 -2.50900 24.84400
C  15.75300 1.48400 25.29800
N  17.82200 -0.53800 29.73400
C  17.15900 0.27600 30.63500
C  17.56100 -0.09400 32.03300
C  18.87500 -0.91400 31.74700
C  18.70800 -1.32900 30.30000
C  20.17000 -0.28600 32.08300
C  16.33000 -0.86500 32.79600
C  16.33200 -0.66300 34.33000
H  17.57400 -0.02200 35.02200
N  18.60600 -2.33200 27.30500
C  19.32300 -2.92500 28.35600
C  20.00300 -4.13000 27.80000
C  19.72400 -4.11400 26.39100
C  18.85500 -2.96300 26.12500
C  20.81100 -5.14000 28.61800
C  20.19700 -5.14100 25.41700
O  19.88600 -5.09700 24.23200
C  21.25600 -6.25000 25.73000
N  17.35000 -0.37000 25.29600
C  17.70200 -1.37500 24.46800
C  17.30700 -1.04800 23.02100
C  16.45700 0.30700 23.16900
C  16.56100 0.54100 24.66900
C  18.44000 -0.94500 21.88800
C  15.02300 0.27500 22.62000
C  14.05700 -0.48400 23.57000
N  16.25400 0.91300 27.66100
C  15.58300 1.71600 26.72700
C  14.68700 2.54800 27.34200
C  14.95100 2.40600 28.72300
C  15.92200 1.41100 28.88300
C  13.80700 3.49000 26.65200
C  14.59600 3.01300 30.10200
O  13.78700 3.86100 30.38500
C  15.30900 2.10600 31.08600
C  16.09100 3.03500 32.01600
O  17.16500 3.58200 31.73900
O  15.53900 3.14500 33.24900
C  16.21900 3.92600 34.29500
H  19.89800 -3.05100 30.42800
H  18.57300 -3.15300 23.97500
H  15.19000 2.11500 24.60800
H  17.87400 0.79100 32.58700
H  18.80200 -1.82800 32.33700
H  20.82900 -0.48300 31.23700
H  20.47600 -0.77200 33.00900
H  20.16000 0.80400 32.09700
H  16.57100 -1.90700 32.58700
H  15.35300 -0.68100 32.34900
H  16.20100 -1.57700 34.90900
H  15.47200 -0.01100 34.48300
H  21.87100 -5.10100 28.36600
H  20.42600 -6.14300 28.43300
H  20.50100 -4.97200 29.65000
H  21.59500 -6.62300 24.76300
H  20.76700 -7.01300 26.33700
H  22.15100 -5.82000 26.18100
H  16.55900 -1.77900 22.71400
H  17.00300 1.07800 22.62500
H  19.30900 -1.55500 22.13700
H  18.83800 0.05400 21.70700
H  18.03300 -1.46400 21.02100
H  14.90300 -0.24200 21.66800
H  14.66900 1.28800 22.42700
H  13.45800 0.20400 24.16600
H  14.44200 -1.36800 24.07900
H  13.36600 -0.95100 22.86900
H  14.33600 4.33800 26.21700
H  13.03800 3.75700 27.37800
H  13.41700 2.96100 25.78300
H  14.76400 1.47800 31.79100
H  17.10500 4.42800 33.90500
H  16.69600 3.32000 35.06500
H  15.57900 4.62700 34.83000

