158

Mg -1.42800 7.92500 26.91400
C  -0.37100 9.59000 29.78100
C  -1.82200 5.05700 28.72500
C  -1.87400 6.26700 23.98200
C  -0.64000 10.93100 25.03900
N  -1.08800 7.40300 28.99900
C  -0.81600 8.23300 30.01000
C  -0.88400 7.58200 31.39400
C  -1.03000 6.03800 30.93700
C  -1.39300 6.18900 29.47300
C  0.31100 5.21800 31.02300
C  -2.03000 8.16900 32.21000
C  -2.07600 7.79400 33.72100
H  -0.77300 7.35500 34.41900
N  -1.94600 5.94800 26.45300
C  -2.13400 4.92900 27.37900
C  -2.70200 3.80000 26.65800
C  -2.53100 4.04700 25.23000
C  -2.12700 5.50200 25.16500
C  -3.42400 2.65400 27.41200
C  -2.65100 3.16000 24.04600
O  -2.52700 3.58900 22.91300
C  -3.07100 1.67800 24.26000
N  -1.10500 8.51100 24.83700
C  -1.34400 7.59200 23.85400
C  -1.37000 8.18800 22.47200
C  -1.26000 9.77800 22.86000
C  -1.00500 9.79500 24.29800
C  -0.13500 7.68400 21.67100
C  -2.61800 10.48200 22.55500
C  -2.96400 10.69200 21.04400
N  -0.57200 9.84500 27.25500
C  -0.37700 10.96900 26.41200
C  0.06800 12.06000 27.22500
C  0.13000 11.65000 28.55100
C  -0.31600 10.30500 28.54200
C  0.49800 13.44800 26.76600
C  0.40300 11.96600 29.93200
O  0.90500 12.95400 30.40000
C  0.01900 10.65500 30.76500
C  1.21600 10.31900 31.71500
O  2.18200 9.66500 31.41300
O  1.01900 10.89600 32.88500
C  2.03200 10.88400 33.89700
H  -2.10300 4.18200 29.31500
H  -1.97600 5.75100 23.02500
H  -0.51200 11.84800 24.46000
H  0.04100 7.82600 31.91500
H  -1.79500 5.46300 31.45900
H  1.05600 5.74100 31.62300
H  0.76500 5.04700 30.04700
H  0.15900 4.28200 31.56000
H  -2.94900 7.76700 31.78300
H  -2.07900 9.25200 32.10200
H  -2.91600 7.10500 33.81200
H  -2.28000 8.70200 34.28800
H  -4.41700 2.53700 26.97900
H  -3.61600 2.91900 28.45100
H  -2.86000 1.72800 27.30100
H  -2.38100 1.32500 25.02700
H  -3.11300 1.13800 23.31400
H  -4.10600 1.74500 24.59300
H  -2.35900 7.98300 22.06200
H  -0.43700 10.35900 22.44300
H  0.15200 6.74700 22.14800
H  0.67500 8.39300 21.84500
H  -0.38700 7.57100 20.61700
H  -2.55000 11.50700 22.92000
H  -3.47400 10.00000 23.02800
H  -2.17000 10.41000 20.35300
H  -3.09900 11.76400 20.90200
H  -3.85400 10.27500 20.57300
H  0.71200 13.30300 25.70700
H  1.32700 13.90800 27.30500
H  -0.36500 14.10000 26.90200
H  -0.74400 10.96400 31.48000
H  2.26000 11.87300 34.29600
H  2.96200 10.45500 33.52600
H  1.69400 10.27800 34.73700
Mg 17.10200 52.36200 25.94400
C  19.04900 51.17400 28.53000
C  14.60900 52.97700 28.19400
C  15.41700 53.61900 23.39400
C  19.65900 51.38500 23.74800
N  16.83300 52.07900 28.10100
C  17.84600 51.72800 28.95800
C  17.39100 51.95000 30.44300
C  15.81800 52.12300 30.18900
C  15.70200 52.35300 28.71400
C  14.92100 51.07600 30.70100
C  17.90600 53.30100 30.99300
C  17.89500 53.55400 32.49300
H  16.70100 53.11100 33.41700
N  15.28500 53.20000 25.79300
C  14.40700 53.32500 26.82000
C  13.26700 54.10100 26.31600
C  13.46600 54.25500 24.94900
C  14.75400 53.66600 24.63900
C  12.16100 54.49900 27.20000
C  12.51800 54.86400 23.91600
O  12.84200 54.98400 22.73500
C  11.20300 55.35500 24.33600
N  17.39300 52.33000 23.83600
C  16.60700 52.98800 22.94200
C  17.11100 52.95800 21.53400
C  18.50500 52.22100 21.71800
C  18.58700 52.05600 23.24800
C  16.09900 52.31400 20.57100
C  19.68300 52.93900 21.03000
C  20.09800 54.22800 21.72600
N  18.81800 51.37100 26.02000
C  19.82600 51.02900 25.06100
C  20.92300 50.33800 25.65500
C  20.64700 50.39300 27.00000
C  19.38100 51.01400 27.18700
C  22.03800 49.63800 24.93500
C  21.26200 49.98000 28.23400
O  22.28900 49.36000 28.55800
C  20.30600 50.59500 29.31200
C  19.80400 49.60400 30.25300
O  19.24400 48.57600 29.93100
O  20.03100 50.04800 31.51700
C  19.49500 49.22600 32.57600
H  13.87300 53.35000 28.90900
H  14.95100 54.02700 22.49500
H  20.45400 51.10700 23.05300
H  17.57000 51.08800 31.08600
H  15.42900 53.01200 30.68400
H  15.46500 50.42500 31.38600
H  14.63800 50.48200 29.83200
H  14.04800 51.40800 31.26400
H  17.32000 54.14200 30.62300
H  18.94600 53.33500 30.66700
H  18.21300 54.55000 32.80100
H  18.64700 52.90400 32.94100
H  12.30600 54.16700 28.22800
H  11.19600 54.19400 26.79500
H  12.18200 55.56400 27.43000
H  10.58500 55.51300 23.45200
H  11.22800 56.33900 24.80400
H  10.64400 54.54300 24.80100
H  17.32600 53.95700 21.15700
H  18.60400 51.21600 21.30800
H  15.57100 53.15000 20.11300
H  15.39200 51.65400 21.07300
H  16.64400 51.71000 19.84500
H  19.28700 53.24700 20.06300
H  20.50400 52.25300 20.82000
H  21.18000 54.33200 21.81100
H  19.66900 54.23000 22.72800
H  19.54400 54.99500 21.18500
H  22.06300 48.56600 24.74000
H  22.90200 49.66600 25.59900
H  22.12600 50.06500 23.93600
H  20.82700 51.33500 29.92000
H  19.11100 49.79600 33.42200
H  20.42000 48.76200 32.91700
H  18.78500 48.41800 32.39700

