158

Mg 1.67100 -1.90800 44.50300
C  5.04300 -1.00400 44.39200
C  0.91000 0.76000 42.61900
C  -1.36200 -3.19300 44.25500
C  2.74300 -4.87100 46.16200
N  2.86500 -0.42500 43.48100
C  4.18600 -0.12300 43.64000
C  4.61900 1.09700 42.84000
C  3.26700 1.80900 42.50100
C  2.31400 0.57200 42.77700
C  2.85900 3.04500 43.29600
C  5.49200 0.82900 41.59200
C  6.68100 1.70000 41.16300
H  6.90100 2.09400 39.68400
N  -0.05900 -1.27200 43.68900
C  -0.20600 -0.11600 43.01300
C  -1.65500 0.16100 42.88100
C  -2.30700 -0.97100 43.28900
C  -1.26600 -1.87900 43.78800
C  -2.20900 1.40400 42.20200
C  -3.71300 -1.16700 43.18400
O  -4.38700 -0.37300 42.64300
C  -4.33400 -2.39800 43.73300
N  0.84500 -3.85900 44.99900
C  -0.47800 -4.03700 44.89900
C  -0.87600 -5.44700 45.28800
C  0.42000 -5.93000 45.94600
C  1.45100 -4.90200 45.69100
C  -2.06400 -5.59500 46.26000
C  0.89100 -7.33200 45.35300
C  0.05000 -8.52900 45.81600
N  3.48900 -2.80500 45.23400
C  3.81200 -3.94700 45.95100
C  5.19500 -3.90900 46.31100
C  5.71400 -2.79700 45.65800
C  4.66000 -2.14400 45.06200
C  5.87700 -4.92100 47.13700
C  6.93800 -2.01600 45.39300
O  8.10300 -2.23900 45.69000
C  6.58000 -0.80900 44.57000
C  7.04700 0.40000 45.30400
O  6.76500 0.75400 46.47400
O  7.87300 1.09100 44.45100
C  8.05800 2.50400 44.81400
H  0.70100 1.71000 42.12400
H  -2.32400 -3.70500 44.32500
H  3.02700 -5.78000 46.69600
H  5.13200 1.69800 43.59000
H  3.14000 2.07600 41.45200
H  3.60800 3.19500 44.07400
H  1.89300 2.92300 43.78600
H  2.88900 3.93500 42.66800
H  4.92700 0.95700 40.66800
H  5.84600 -0.20200 41.55900
H  7.59500 1.15300 41.39500
H  6.66200 2.53300 41.86600
H  -2.52400 1.17000 41.18500
H  -1.47500 2.20500 42.11800
H  -3.13100 1.60400 42.74800
H  -3.93200 -3.29900 43.26900
H  -5.41700 -2.42800 43.61400
H  -4.12900 -2.47700 44.80000
H  -1.12400 -5.95000 44.35300
H  0.40100 -6.06800 47.02700
H  -2.51800 -4.62000 46.43900
H  -1.65000 -5.90000 47.22100
H  -2.75000 -6.35400 45.88400
H  1.90400 -7.47500 45.72900
H  0.90100 -7.21800 44.26900
H  0.77100 -9.07500 46.42500
H  -0.29600 -9.14400 44.98600
H  -0.76000 -8.16700 46.44900
H  5.15700 -5.69000 47.41900
H  6.20600 -4.50300 48.08800
H  6.69600 -5.28700 46.51700
H  7.00500 -0.76700 43.56700
H  8.95100 2.85600 44.29600
H  8.13800 2.77000 45.86800
H  7.17100 3.04700 44.48900
Mg 44.55800 4.92600 46.25700
C  42.61600 7.85500 46.05100
C  41.52700 3.18100 45.72900
C  46.32400 2.24900 45.45300
C  47.45100 6.94800 45.80500
N  42.36400 5.43700 45.85500
C  41.86800 6.70600 45.85300
C  40.37000 6.69400 45.84900
C  39.96600 5.20500 45.83000
C  41.35900 4.52800 45.81700
C  39.09900 4.71700 47.01100
C  39.69100 7.58700 44.77500
C  40.43100 7.97400 43.48700
H  39.79400 7.71700 42.07100
N  43.93100 2.96900 45.87900
C  42.66900 2.41700 45.79400
C  42.77100 0.96600 45.72600
C  44.19900 0.65500 45.69800
C  44.93000 1.97000 45.64800
C  41.52300 0.04900 45.68900
C  44.74600 -0.77900 45.64700
O  43.99900 -1.73600 45.77600
C  46.18000 -1.13300 45.39800
N  46.62800 4.59100 45.67500
C  47.14700 3.37900 45.47100
C  48.66300 3.41200 45.22900
C  48.98200 4.87000 45.37600
C  47.63000 5.50900 45.65000
C  49.54800 2.35900 45.97200
C  49.75300 5.57200 44.27300
C  51.14200 5.99300 44.65700
N  45.00700 6.99600 46.17800
C  46.27900 7.62200 46.02000
C  46.04100 9.01000 46.12200
C  44.65400 9.11000 46.23800
C  44.03500 7.86800 46.12700
C  47.00600 10.17600 46.13900
C  43.50700 10.11800 46.32500
O  43.53800 11.36200 46.45700
C  42.19100 9.26500 46.23500
C  41.38300 9.37000 47.51500
O  41.49400 8.55600 48.42700
O  40.59500 10.51800 47.55600
C  39.81600 10.74600 48.73600
H  40.65300 2.58200 45.46400
H  47.05000 1.45100 45.28200
H  48.34300 7.57700 45.77600
H  40.10000 7.19600 46.77800
H  39.38800 4.88800 44.96200
H  39.54000 3.82900 47.46400
H  38.07200 4.61900 46.65700
H  38.97100 5.48500 47.77500
H  39.34800 8.50500 45.25000
H  38.73000 7.16300 44.48500
H  41.33900 7.37000 43.49100
H  40.58500 9.05400 43.49600
H  41.70400 -0.80100 45.03200
H  40.60000 0.53800 45.37700
H  41.36900 -0.44400 46.64900
H  46.27100 -2.21800 45.44700
H  46.63000 -0.75100 46.31500
H  46.56000 -0.77600 44.44100
H  48.71600 3.14700 44.17300
H  49.52200 5.02700 46.30900
H  48.95100 1.50400 46.29200
H  50.12400 2.84100 46.76200
H  50.28600 1.91200 45.30700
H  49.24800 6.37900 43.74100
H  49.92700 4.86500 43.46200
H  51.15200 6.38300 45.67600
H  51.52500 6.76600 43.99200
H  51.91300 5.22400 44.64300
H  47.79500 10.03500 46.87800
H  46.46200 11.11000 46.27900
H  47.47200 10.18200 45.15400
H  41.48600 9.54800 45.45300
H  39.22800 11.65800 48.64000
H  40.47300 10.87000 49.59700
H  39.08200 9.95500 48.88800

