158

Mg 34.80300 2.22400 29.94100
C  32.64900 3.31200 32.50300
C  37.45100 2.55900 32.03500
C  36.86800 1.66200 27.26900
C  32.20900 3.05800 27.64200
N  35.02400 3.01400 31.99700
C  33.99100 3.12000 32.89700
C  34.56000 3.15000 34.39800
C  36.11400 3.07500 34.21200
C  36.22300 2.92600 32.66400
C  36.93300 4.27700 34.75600
C  34.01100 1.92300 35.25700
C  33.83900 2.07300 36.72500
H  34.34600 3.33400 37.33000
N  36.85200 1.97600 29.69500
C  37.78100 2.17500 30.73800
C  39.07900 1.95800 30.17800
C  38.97500 1.65200 28.81200
C  37.51300 1.73200 28.54500
C  40.34300 2.10700 31.01200
C  40.03500 1.44000 27.81700
O  39.82500 1.12100 26.62700
C  41.46200 1.48300 28.29400
N  34.53300 2.23000 27.84500
C  35.57800 1.86900 26.94000
C  35.12900 1.85600 25.46200
C  33.55500 2.24000 25.64500
C  33.40000 2.50000 27.14900
C  35.88200 2.87300 24.57800
C  32.58700 1.09700 25.15000
C  32.61000 -0.17800 26.02400
N  32.76300 2.94900 29.99900
C  31.89200 3.22300 28.97800
C  30.55300 3.49300 29.50600
C  30.81100 3.47100 30.92000
C  32.15700 3.26300 31.16900
C  29.29800 3.67700 28.72700
C  30.23300 3.73100 32.25600
O  29.08100 4.03500 32.61500
C  31.30200 3.46900 33.32800
C  31.30500 4.66900 34.25000
O  31.81000 5.74500 34.03000
O  30.68600 4.29200 35.47500
C  30.46200 5.49300 36.32400
H  38.32400 2.66500 32.68300
H  37.46100 1.39500 26.39200
H  31.35900 3.08400 26.95700
H  34.28500 4.06600 34.92000
H  36.43400 2.11200 34.60800
H  36.30100 5.11200 35.05600
H  37.58900 4.59200 33.94500
H  37.60000 4.00700 35.57500
H  34.62800 1.03000 35.16100
H  33.05600 1.59100 34.85000
H  34.27300 1.18900 37.19200
H  32.75200 2.03000 36.77900
H  40.82900 3.00200 30.62400
H  40.95200 1.22400 30.82000
H  40.12000 2.27700 32.06600
H  41.70500 2.41900 28.79700
H  42.06100 1.43000 27.38500
H  41.60000 0.66100 28.99600
H  35.32900 0.82100 25.18500
H  33.18200 3.11000 25.10500
H  35.14800 3.24500 23.86300
H  36.61700 2.55300 23.84000
H  36.23300 3.69900 25.19700
H  32.70600 0.79900 24.10900
H  31.57700 1.44400 25.37200
H  31.58600 -0.54100 26.11400
H  32.95800 0.00100 27.04100
H  33.25000 -0.94300 25.58500
H  29.41100 2.80300 28.08500
H  29.16700 4.55600 28.09700
H  28.43000 3.48000 29.35700
H  31.01000 2.56900 33.86900
H  29.64300 6.04600 35.86500
H  31.42100 6.00000 36.43700
H  30.15500 5.17400 37.32000
Mg 27.16100 50.48200 26.07600
C  25.07900 51.51400 28.68600
C  29.50600 49.71700 28.40600
C  29.28300 49.98300 23.47200
C  24.69200 51.47300 23.82900
N  27.14900 50.42200 28.34500
C  26.27500 51.00400 29.17500
C  26.64700 50.76300 30.66200
C  28.24300 50.39900 30.48600
C  28.33600 50.19500 29.01100
C  29.09700 51.59900 30.99800
C  25.80300 49.64800 31.34800
C  25.22600 50.05800 32.71600
H  25.47800 49.17900 33.95300
N  29.07600 49.86600 25.93900
C  29.89000 49.60300 27.04300
C  31.20900 49.15800 26.57400
C  31.22000 49.23100 25.14500
C  29.80900 49.73700 24.81000
C  32.38100 48.83300 27.50200
C  32.27700 48.81700 24.14800
O  32.14000 49.00200 22.92600
C  33.61500 48.25800 24.55100
N  27.06600 50.77900 23.88500
C  28.01800 50.40600 23.06100
C  27.50200 50.19600 21.60900
C  25.99500 50.55800 21.81100
C  25.92800 51.00100 23.23800
C  28.22600 50.99200 20.51400
C  24.88800 49.60300 21.27200
C  23.99800 50.15200 20.13200
N  25.37400 51.41400 26.16900
C  24.39300 51.72700 25.20400
C  23.20900 52.32700 25.76000
C  23.40300 52.19800 27.09800
C  24.72500 51.62300 27.30900
C  22.00300 52.87700 25.05000
C  22.78600 52.48700 28.43100
O  21.69300 52.86100 28.85000
C  23.86100 52.02600 29.48700
C  24.26800 53.21200 30.37600
O  25.15900 53.95300 30.11500
O  23.69200 53.13800 31.60900
C  23.88000 54.29600 32.54500
H  30.36600 49.49200 29.04000
H  29.98200 49.72800 22.67400
H  23.86600 51.62800 23.13100
H  26.34600 51.62400 31.26000
H  28.43000 49.50400 31.07900
H  29.92400 51.76000 30.30700
H  29.40900 51.35900 32.01500
H  28.45000 52.46900 30.88700
H  26.44000 48.78000 31.51700
H  24.97100 49.30700 30.73200
H  24.14700 50.02900 32.56300
H  25.45300 51.07800 33.02500
H  33.13100 48.11900 27.16000
H  31.99000 48.63800 28.50000
H  32.94100 49.76700 27.54000
H  34.23300 48.80700 25.26100
H  34.14400 48.06500 23.61800
H  33.51300 47.27900 25.02100
H  27.56700 49.12000 21.44500
H  25.84000 51.49400 21.27500
H  29.06800 51.57400 20.89000
H  27.51700 51.49300 19.85400
H  28.62200 50.17200 19.91500
H  24.14700 49.45400 22.05700
H  25.36700 48.69700 20.89900
H  24.26800 51.10900 19.68600
H  22.93100 50.25000 20.32900
H  24.06800 49.51500 19.25000
H  22.34500 52.98600 24.02100
H  21.85000 53.87800 25.45200
H  21.12400 52.24300 24.94000
H  23.59900 51.24600 30.20100
H  24.12700 55.22600 32.03200
H  24.63600 54.15200 33.31700
H  22.95900 54.50900 33.08700

