158

Mg 24.26100 -5.99900 46.29300
C  26.38100 -3.63700 44.58800
C  21.66600 -4.75900 44.40400
C  22.60400 -8.62900 47.23300
C  27.14700 -7.04000 47.98800
N  24.12700 -4.55300 44.36200
C  25.07400 -3.59000 44.03600
C  24.53400 -2.60400 43.02700
C  22.98100 -2.92200 43.23200
C  22.87600 -4.14600 44.05300
C  22.28000 -1.72700 44.04700
C  25.06200 -2.73200 41.56500
C  25.48900 -1.39400 40.87500
H  25.53200 -1.34900 39.32300
N  22.38500 -6.69000 45.84300
C  21.42800 -6.02800 45.10600
C  20.23000 -6.85000 45.14900
C  20.41700 -8.02900 45.93600
C  21.79800 -7.81800 46.38900
C  19.08300 -6.42000 44.29400
C  19.47200 -9.14400 46.35300
O  18.35700 -9.10400 45.83800
C  19.80100 -10.13000 47.35700
N  24.84000 -7.68200 47.35300
C  23.95100 -8.55100 47.75500
C  24.52900 -9.57900 48.78000
C  26.01100 -9.11400 48.89100
C  26.05000 -7.90200 48.03000
C  23.72300 -9.55300 50.12700
C  27.01500 -10.18600 48.50200
C  28.28500 -10.08900 49.32900
N  26.33400 -5.40700 46.39200
C  27.37000 -5.94700 47.11900
C  28.59900 -5.23600 46.86200
C  28.25000 -4.29100 45.86600
C  26.87700 -4.47900 45.59300
C  29.90000 -5.45200 47.42400
C  28.84100 -3.25900 44.98300
O  29.97200 -2.87600 44.81100
C  27.62500 -2.77200 44.20000
C  27.32400 -1.33700 44.51600
O  26.79400 -0.95900 45.52300
O  27.87600 -0.57300 43.57100
C  27.84600 0.90600 43.90600
H  20.81600 -4.32700 43.87200
H  22.16400 -9.54200 47.64000
H  27.97000 -7.27000 48.66900
H  24.83200 -1.62400 43.39900
H  22.50800 -3.10100 42.26600
H  22.92700 -1.30200 44.81500
H  21.48800 -2.13700 44.67300
H  21.90900 -0.89100 43.45400
H  24.29700 -3.24100 40.97900
H  25.87100 -3.46300 41.54800
H  26.53400 -1.16200 41.08200
H  24.89800 -0.56500 41.26300
H  18.65100 -5.52900 44.74900
H  18.29800 -7.16800 44.18900
H  19.53400 -6.15100 43.33900
H  18.99000 -10.82500 47.57300
H  20.16300 -9.59000 48.23200
H  20.53200 -10.69100 46.77600
H  24.54100 -10.62900 48.48600
H  26.20800 -8.78400 49.91200
H  23.37500 -10.53100 50.46000
H  22.80300 -8.97300 50.05700
H  24.30300 -9.10600 50.93400
H  27.32200 -10.12100 47.45800
H  26.51600 -11.15200 48.57400
H  28.83500 -11.03000 49.30200
H  27.99100 -9.90400 50.36200
H  28.97400 -9.34700 48.92500
H  30.60200 -5.99500 46.79100
H  29.92800 -5.84000 48.44300
H  30.30200 -4.43900 47.44100
H  27.84800 -2.91900 43.14300
H  28.11900 1.49900 43.03300
H  28.68000 1.01300 44.59900
H  26.88600 1.29800 44.24300
Mg 25.41100 1.40700 30.20700
C  27.71800 0.94300 32.92200
C  22.87600 1.72300 32.51300
C  23.27600 1.53700 27.65700
C  28.02600 0.55400 28.07100
N  25.33500 1.28700 32.51100
C  26.40400 1.26300 33.37500
C  25.92900 1.57300 34.84900
C  24.39700 1.70500 34.68100
C  24.14500 1.59000 33.14300
C  23.79600 0.48500 35.41100
C  26.68300 2.87100 35.49000
C  27.10300 2.85700 36.98700
H  26.39500 3.93300 37.88300
N  23.37200 1.59900 30.11500
C  22.52400 1.76600 31.18700
C  21.15200 1.93900 30.65000
C  21.23400 1.69000 29.27900
C  22.65900 1.54700 28.95500
C  19.86700 2.27600 31.37800
C  20.20000 1.66000 28.23900
O  20.45700 1.28900 27.13800
C  18.77100 1.91900 28.62600
N  25.49000 0.85800 28.12200
C  24.55600 1.30700 27.24400
C  25.11200 1.20600 25.77200
C  26.67000 1.06100 25.93900
C  26.78300 0.86400 27.47700
C  24.50200 0.22600 24.72900
C  27.52400 2.14600 25.31300
C  27.59400 3.59100 26.02700
N  27.43100 0.88300 30.38200
C  28.41700 0.56000 29.40900
C  29.72600 0.35100 29.99200
C  29.44500 0.51100 31.37400
C  28.11600 0.80800 31.52700
C  31.07400 -0.00200 29.31200
C  30.12600 0.46500 32.63600
O  31.29700 0.34800 32.92800
C  29.03800 0.91400 33.68200
C  28.89100 -0.14600 34.88100
O  28.10300 -1.06300 34.90500
O  29.64000 0.22800 35.96300
C  29.22300 -0.49900 37.18300
H  21.97900 1.88400 33.11400
H  22.61500 1.83000 26.83800
H  28.90100 0.49600 27.42000
H  26.14700 0.69000 35.45000
H  23.84300 2.51200 35.16200
H  24.36400 0.36900 36.33400
H  23.80900 -0.30700 34.66200
H  22.77100 0.67100 35.73400
H  25.98800 3.71000 35.51100
H  27.60300 3.21900 35.02000
H  28.14200 3.17800 37.05000
H  26.95600 1.89800 37.48500
H  19.29600 1.35100 31.29200
H  19.40000 3.17100 30.96800
H  19.93000 2.38200 32.46100
H  18.22300 1.85800 27.68500
H  18.74300 2.90400 29.09100
H  18.35600 1.14900 29.27600
H  24.94600 2.20800 25.37600
H  27.21700 0.21400 25.52300
H  24.00800 0.67800 23.86900
H  23.73700 -0.44800 25.11400
H  25.22000 -0.51200 24.37100
H  27.26800 2.32000 24.26700
H  28.57500 1.85600 25.32300
H  26.94800 3.55400 26.90400
H  27.19100 4.25400 25.26100
H  28.61900 3.86100 26.27900
H  31.00400 -0.46700 28.32800
H  31.50700 -0.71200 30.01700
H  31.74600 0.84300 29.16300
H  29.32400 1.90100 34.04300
H  29.68300 -1.47900 37.31400
H  28.14900 -0.63700 37.30400
H  29.56200 0.09400 38.03200

