158

Mg 1.14000 7.78900 28.16800
C  1.66500 9.93100 30.91300
C  1.52000 5.19000 30.36900
C  1.30100 5.76200 25.54000
C  1.30300 10.54900 26.00100
N  1.54400 7.58400 30.41700
C  1.54400 8.59500 31.28400
C  1.24200 8.06800 32.69600
C  1.54500 6.51600 32.56500
C  1.53800 6.43500 31.02900
C  2.89700 6.07400 33.09100
C  -0.21800 8.25000 33.17400
C  -0.57100 8.84100 34.62500
H  0.47400 8.59000 35.74000
N  1.12200 5.80000 27.95200
C  1.29100 4.85500 29.02000
C  1.18900 3.51500 28.47300
C  1.05100 3.65000 27.04400
C  1.19300 5.07300 26.80800
C  1.27300 2.39500 29.34900
C  0.84500 2.57200 25.97200
O  0.83200 2.85200 24.76300
C  0.58800 1.17100 26.42800
N  1.24000 8.12400 26.05900
C  1.30400 7.13000 25.19200
C  1.28000 7.62900 23.69000
C  0.99000 9.18400 23.87300
C  1.14100 9.26900 25.39000
C  2.59400 7.36200 22.95100
C  -0.30600 9.83000 23.20200
C  -1.41700 10.46600 24.00300
N  1.44700 9.82300 28.30300
C  1.44300 10.83700 27.41000
C  1.69300 12.12300 28.10300
C  1.74300 11.75700 29.41200
C  1.62900 10.41000 29.54200
C  1.79800 13.35800 27.43100
C  1.95000 12.29500 30.70200
O  2.20400 13.45200 31.03600
C  1.79200 11.16300 31.71400
C  2.81600 11.23100 32.74100
O  3.96700 10.85100 32.52300
O  2.39800 11.85800 33.84600
C  3.51800 12.14800 34.86100
H  1.79600 4.36900 31.03500
H  1.23800 5.12100 24.65900
H  1.33700 11.35500 25.26500
H  2.04300 8.48800 33.30400
H  0.77700 5.87900 33.00400
H  3.60600 5.87800 32.28700
H  2.58300 5.15000 33.57700
H  3.40700 6.74900 33.77800
H  -0.78100 7.32200 33.27200
H  -0.73800 8.83600 32.41600
H  -1.53500 8.45100 34.95300
H  -0.78400 9.88900 34.41600
H  1.80700 1.63800 28.77500
H  0.28600 2.02800 29.63100
H  1.92100 2.50400 30.21800
H  1.40800 0.63300 26.90300
H  0.26700 0.46200 25.66500
H  -0.29300 1.23900 27.06700
H  0.50200 7.09700 23.14200
H  1.86400 9.75900 23.56800
H  3.28200 6.90900 23.66400
H  3.00800 8.27100 22.51400
H  2.43600 6.60300 22.18500
H  -0.67800 9.02400 22.57000
H  -0.01700 10.65800 22.55500
H  -1.09900 10.31500 25.03400
H  -2.33400 9.88000 23.94700
H  -1.59800 11.51300 23.76000
H  0.78700 13.76100 27.36400
H  2.24800 13.18900 26.45400
H  2.39700 14.00100 28.07600
H  0.86800 11.41500 32.23400
H  4.43100 12.56000 34.43300
H  3.79400 11.23200 35.38300
H  3.26800 12.82000 35.68100
Mg 8.96900 4.12800 27.86400
C  10.32700 2.39300 30.58700
C  7.14000 6.01000 30.10900
C  7.30000 5.73800 25.25200
C  10.21400 1.78200 25.68500
N  8.68100 4.07000 30.08900
C  9.47800 3.41800 30.99000
C  9.17200 3.94200 32.43500
C  8.12400 5.01300 32.19900
C  7.97000 5.08200 30.68400
C  6.69600 4.77300 32.93400
C  10.44900 4.39200 33.26900
C  10.28600 5.44400 34.41400
H  10.83900 5.24400 35.78600
N  7.58300 5.81100 27.72800
C  7.03100 6.45500 28.74900
C  6.22300 7.54200 28.24100
C  6.21200 7.42200 26.82500
C  7.06100 6.29700 26.49900
C  5.47500 8.61000 29.16400
C  5.51100 8.26600 25.84100
O  5.75000 8.06200 24.66800
C  4.77500 9.51200 26.27300
N  8.74600 3.74300 25.74900
C  8.01400 4.56400 24.91900
C  8.05100 4.04800 23.47500
C  8.94000 2.78700 23.55300
C  9.36500 2.75200 25.02300
C  6.62800 3.80900 22.83800
C  10.12500 2.81100 22.59900
C  10.42400 1.42000 22.03400
N  10.02900 2.46300 28.07400
C  10.58200 1.66100 27.06500
C  11.54100 0.78200 27.71100
C  11.48200 1.06900 29.04700
C  10.50100 2.04900 29.22900
C  12.22400 -0.35300 26.88200
C  12.00300 0.72900 30.36200
O  12.92700 -0.06200 30.68300
C  11.28900 1.66100 31.42400
C  10.82400 0.89900 32.58900
O  9.87200 0.08800 32.59700
O  11.77300 0.97200 33.58600
C  11.50200 0.26100 34.79300
H  6.72700 6.81000 30.72600
H  6.91500 6.20600 24.34300
H  10.66400 1.07600 24.98400
H  8.69500 3.13600 32.99300
H  8.46800 6.03400 32.36500
H  6.70000 4.32200 33.92700
H  6.11300 4.19100 32.22000
H  6.21000 5.73500 33.09900
H  11.21300 4.79500 32.60400
H  10.81000 3.56400 33.88000
H  9.21200 5.48700 34.59400
H  10.77000 6.32800 33.99800
H  4.41800 8.68900 28.91200
H  5.87000 9.62100 29.06400
H  5.59800 8.19300 30.16400
H  3.74000 9.43500 26.60800
H  4.76800 10.15600 25.39300
H  5.41000 10.06500 26.96500
H  8.54500 4.87500 22.96500
H  8.36300 1.89000 23.32800
H  5.88200 3.75400 23.63200
H  6.55400 2.85000 22.32600
H  6.38900 4.66700 22.21000
H  10.97800 3.07300 23.22500
H  9.94500 3.48800 21.76400
H  11.30200 1.09000 22.58900
H  10.65000 1.48400 20.97000
H  9.65600 0.64800 22.07900
H  13.15200 -0.58800 27.40300
H  12.53600 -0.16300 25.85500
H  11.53100 -1.19400 26.90100
H  12.06400 2.29600 31.85200
H  10.90100 0.97500 35.35500
H  12.39800 0.06400 35.38200
H  10.97700 -0.69400 34.81000

