158

Mg 9.07500 3.06100 27.69700
C  10.42800 1.77100 30.67300
C  7.09200 5.14000 29.67400
C  7.52300 4.02000 25.06300
C  10.56800 0.29000 26.10700
N  8.60000 3.16400 29.93300
C  9.49300 2.75500 30.90400
C  9.20800 3.40300 32.27800
C  7.91400 4.21700 31.95300
C  7.88000 4.20900 30.38900
C  6.63100 3.58400 32.52400
C  10.43200 4.27600 32.75500
C  10.88900 4.12800 34.21200
H  9.90400 3.65100 35.20800
N  7.60500 4.54600 27.37400
C  7.01100 5.32200 28.29000
C  6.25200 6.26600 27.57000
C  6.24300 5.96000 26.19900
C  7.13000 4.80300 26.10800
C  5.58600 7.50700 28.27100
C  5.50500 6.62200 25.06000
O  5.63100 6.16100 23.91600
C  4.49800 7.86300 25.31700
N  9.23900 2.41700 25.81300
C  8.38800 2.90100 24.89500
C  8.61700 2.29700 23.48200
C  9.44500 1.10800 23.92100
C  9.77700 1.21900 25.38800
C  7.32300 1.87600 22.71800
C  10.68500 0.87400 23.06900
C  10.65600 -0.40400 22.23700
N  10.45000 1.52800 28.22100
C  10.94000 0.52600 27.44000
C  11.81400 -0.31700 28.25500
C  11.69500 0.12900 29.52000
C  10.73000 1.16100 29.45800
C  12.70600 -1.37600 27.70300
C  12.14300 -0.00500 30.86700
O  13.06300 -0.68900 31.29800
C  11.27000 1.03800 31.65800
C  10.46400 0.30000 32.75100
O  9.30300 -0.12500 32.65300
O  11.27200 0.04800 33.85400
C  10.59700 -0.65600 34.86700
H  6.46600 5.88000 30.17700
H  7.16100 4.35000 24.08700
H  10.76500 -0.64900 25.58600
H  8.93900 2.62100 32.98900
H  7.95100 5.22700 32.36100
H  6.37500 4.15900 33.41400
H  6.98200 2.58400 32.78000
H  5.89300 3.39600 31.74500
H  10.12100 5.31200 32.61700
H  11.18700 4.17700 31.97600
H  11.24700 5.12700 34.45600
H  11.79900 3.52900 34.24400
H  6.01600 7.78300 29.23400
H  4.51100 7.34300 28.33700
H  5.68400 8.38300 27.62900
H  3.89900 8.11500 24.44200
H  5.12700 8.72400 25.54400
H  3.84400 7.59600 26.14700
H  9.25500 3.00800 22.95700
H  8.81400 0.22000 23.90800
H  6.49100 2.02500 23.40600
H  7.23800 0.88200 22.27900
H  7.26500 2.47100 21.80700
H  11.58700 0.96200 23.67500
H  10.72400 1.58300 22.24200
H  11.32600 -0.30800 21.38300
H  9.69700 -0.68600 21.80300
H  11.09400 -1.27000 22.73400
H  13.55500 -1.58400 28.35400
H  13.01700 -1.20900 26.67100
H  11.98100 -2.18900 27.65900
H  12.02500 1.71600 32.05600
H  11.14700 -0.52100 35.79800
H  10.56300 -1.72500 34.65600
H  9.58000 -0.31800 35.06400
Mg 5.57000 56.72500 42.98700
C  5.03100 53.16300 42.83200
C  8.50600 56.17500 41.38400
C  5.77300 60.05100 42.46400
C  2.30000 57.02100 44.10500
N  6.45400 54.86200 42.00800
C  6.15400 53.52600 42.15300
C  7.10800 52.62300 41.38400
C  8.42600 53.57500 41.47200
C  7.77300 54.96600 41.55300
C  9.33500 53.35900 42.81000
C  6.66100 52.33800 39.81700
C  7.08600 51.04100 39.24800
H  6.12000 50.33400 38.29800
N  7.02800 57.93100 42.13400
C  8.19100 57.53000 41.55900
C  8.91400 58.62300 40.94100
C  8.08900 59.79200 41.16100
C  6.86900 59.28800 41.90900
C  10.36000 58.49200 40.31900
C  8.40800 61.21700 40.69600
O  9.52000 61.41200 40.17000
C  7.45700 62.33600 40.81300
N  4.20500 58.23000 43.08200
C  4.57600 59.57200 42.99700
C  3.57600 60.45000 43.73200
C  2.37600 59.49600 44.16900
C  3.03500 58.14500 43.75100
C  4.22900 61.35300 44.77300
C  0.98100 59.84300 43.56800
C  -0.14500 60.21300 44.65300
N  3.94000 55.42900 43.41400
C  2.68700 55.70900 43.92800
C  1.97200 54.49700 44.16500
C  2.87000 53.50500 43.84000
C  4.06000 54.06700 43.35700
C  0.64300 54.33800 44.69800
C  3.13500 52.06000 43.93300
O  2.45100 51.18100 44.41000
C  4.57300 51.77000 43.32800
C  4.52200 50.70600 42.30300
O  3.77900 50.62300 41.32700
O  5.31900 49.59300 42.67900
C  5.23100 48.36200 41.92200
H  9.55400 55.99900 41.13000
H  5.96300 61.12300 42.54400
H  1.31700 57.23300 44.53000
H  7.24300 51.71000 41.96400
H  9.01700 53.44800 40.56600
H  10.38900 53.40700 42.53700
H  9.10400 52.31200 43.00800
H  9.10400 54.03300 43.63500
H  7.17200 53.08000 39.20400
H  5.58100 52.46700 39.74300
H  7.44400 50.23500 39.88800
H  8.04500 51.31400 38.80600
H  10.21200 58.85900 39.30400
H  10.60800 57.44000 40.17800
H  11.12200 58.91600 40.97300
H  6.58500 61.82200 40.41000
H  7.81000 63.16300 40.19600
H  7.24200 62.80200 41.77400
H  3.18100 61.09200 42.94500
H  2.30200 59.44100 45.25500
H  5.31800 61.36000 44.73500
H  3.82300 61.12100 45.75700
H  3.98100 62.34100 44.38500
H  0.68000 58.94500 43.02900
H  0.88700 60.73500 42.94800
H  0.21300 60.21200 45.68200
H  -0.75800 59.31400 44.71900
H  -0.78100 61.09300 44.55400
H  -0.06200 54.40000 43.86900
H  0.53900 55.09800 45.47200
H  0.68500 53.35100 45.15900
H  5.19200 51.44800 44.16500
H  4.31800 48.13600 41.37100
H  5.37400 47.53600 42.61900
H  6.03900 48.34700 41.19100

