158

Mg 1.05400 41.84100 25.78300
C  2.52300 42.15400 28.99200
C  -1.78900 40.72100 27.29800
C  -0.11400 41.06700 22.78800
C  4.07100 42.97800 24.44200
N  0.48000 41.54300 27.88900
C  1.19500 41.74300 29.05400
C  0.30300 41.77500 30.29900
C  -1.06200 41.12900 29.81800
C  -0.80900 41.10600 28.24400
C  -1.46900 39.75800 30.49600
C  0.16100 43.15500 30.90800
C  0.42700 43.30800 32.40000
H  0.03600 42.10000 33.20200
N  -0.76400 41.03800 25.10600
C  -1.76900 40.61500 25.87900
C  -2.81500 40.11500 24.98500
C  -2.35700 40.34600 23.61300
C  -1.02400 40.88500 23.79900
C  -4.08300 39.29900 25.41600
C  -2.98500 39.96600 22.36800
O  -2.42800 40.00100 21.29300
C  -4.50500 39.62200 22.32900
N  1.83100 42.01800 23.93200
C  1.20300 41.43300 22.88900
C  2.00100 41.44200 21.59100
C  3.19100 42.50000 21.97700
C  3.06900 42.52100 23.57100
C  2.60600 40.02300 21.22900
C  3.00300 43.89400 21.31000
C  4.24300 44.52300 20.63800
N  2.88100 42.50300 26.50600
C  4.02200 42.89400 25.83500
C  5.09700 43.17100 26.75900
C  4.50900 42.90800 27.97400
C  3.20700 42.51600 27.81000
C  6.56900 43.53600 26.49200
C  4.81900 42.75200 29.40700
O  5.90200 42.83800 29.98200
C  3.49900 42.39200 30.10900
C  3.70000 41.15900 30.97200
O  3.31800 40.01800 30.55100
O  4.06500 41.46800 32.26900
C  4.22900 40.32100 33.25800
H  -2.66900 40.29800 27.78800
H  -0.44600 40.90800 21.76000
H  4.85800 43.45100 23.85000
H  0.84000 41.06100 30.92300
H  -1.92600 41.78300 29.93700
H  -1.20600 38.89000 29.89100
H  -2.54600 39.65100 30.62600
H  -1.04300 39.43000 31.44400
H  -0.84200 43.57000 30.80800
H  0.92100 43.73100 30.38000
H  -0.11300 44.18600 32.75500
H  1.51100 43.40700 32.44700
H  -4.01500 38.94700 26.44600
H  -4.23400 38.38700 24.83800
H  -4.91900 39.90200 25.06200
H  -4.71800 38.56800 22.50400
H  -4.81700 39.89300 21.32100
H  -4.95500 40.32900 23.02700
H  1.31800 41.80700 20.82300
H  4.21500 42.15900 21.82900
H  2.65500 39.27900 22.02400
H  3.61600 40.15800 20.84200
H  2.00000 39.58200 20.43700
H  2.69000 44.66100 22.01800
H  2.25200 43.83000 20.52200
H  4.54900 45.35100 21.27700
H  4.01800 44.88400 19.63500
H  5.07700 43.82400 20.57900
H  6.82300 44.53300 26.85400
H  6.75300 43.30300 25.44300
H  7.18200 42.81300 27.03000
H  3.32500 43.25100 30.75600
H  4.17100 40.61300 34.30600
H  5.24600 39.98600 33.05300
H  3.58700 39.47500 33.01300
Mg -5.58300 24.92900 26.06700
C  -3.98500 25.91600 29.16000
C  -7.30800 22.65100 28.04500
C  -6.38700 23.40400 23.25200
C  -3.25900 26.86900 24.39600
N  -5.75800 24.44800 28.46100
C  -4.99300 24.91100 29.44700
C  -5.52000 24.38500 30.81100
C  -6.55700 23.28800 30.41500
C  -6.62500 23.49000 28.90100
C  -6.10800 21.90300 30.71800
C  -6.25900 25.60300 31.60100
C  -5.91000 25.78700 33.08100
H  -5.08700 24.78600 33.79200
N  -6.77300 23.44400 25.71700
C  -7.51300 22.68500 26.60000
C  -8.41100 21.80300 25.89200
C  -8.16000 22.00200 24.49800
C  -7.04700 22.99600 24.46700
C  -9.42800 20.88500 26.58600
C  -8.85400 21.32700 23.26800
O  -8.41100 21.45400 22.14900
C  -9.92400 20.37400 23.43900
N  -4.89200 25.04500 24.16700
C  -5.33900 24.28400 23.13800
C  -4.82000 24.73500 21.81100
C  -3.97200 26.01500 22.14300
C  -4.06600 26.04600 23.67900
C  -3.91700 23.63200 21.07400
C  -4.43500 27.30800 21.46800
C  -3.38400 28.31900 21.10500
N  -3.99300 26.23400 26.62800
C  -3.21400 26.96800 25.78300
C  -2.32300 27.82000 26.61200
C  -2.60600 27.46800 27.96900
C  -3.60500 26.47500 27.91400
C  -1.57100 28.98600 26.21200
C  -2.18400 27.67200 29.35000
O  -1.21600 28.31600 29.70700
C  -3.23500 26.79600 30.21300
C  -2.34400 25.89000 31.06500
O  -1.98200 24.77100 30.72200
O  -1.97700 26.55600 32.21800
C  -0.89000 25.83200 32.89100
H  -7.99100 22.01700 28.61400
H  -6.81700 23.04700 22.31400
H  -2.60200 27.59700 23.91600
H  -4.68100 24.06100 31.42700
H  -7.52600 23.40300 30.90100
H  -5.28000 21.83400 31.42400
H  -5.72800 21.47800 29.78900
H  -6.91700 21.24200 31.02800
H  -7.34600 25.55800 31.53300
H  -5.99800 26.54200 31.11400
H  -6.81100 25.93600 33.67700
H  -5.45700 26.75900 33.27900
H  -9.44000 20.95700 27.67300
H  -9.21100 19.83400 26.39700
H  -10.37600 21.05000 26.07300
H  -10.89100 20.87000 23.51700
H  -9.60300 19.63700 24.17500
H  -10.14900 19.83100 22.52000
H  -5.69900 24.95400 21.20400
H  -2.94800 25.78600 21.84800
H  -3.85200 22.74600 21.70600
H  -2.86800 23.87300 20.90700
H  -4.38200 23.47800 20.10100
H  -5.25300 27.90100 21.87800
H  -4.81000 27.07100 20.47200
H  -2.43500 27.98200 21.52300
H  -3.44000 29.28700 21.60200
H  -3.36800 28.41100 20.01900
H  -2.20600 29.75200 25.76600
H  -0.77300 28.87100 25.47900
H  -1.22000 29.45700 27.13000
H  -3.87700 27.35200 30.89600
H  0.07800 25.95700 32.40600
H  -1.07900 24.78100 33.11300
H  -0.92300 26.22400 33.90800

