158

Mg 29.94900 58.58900 38.96900
C  27.06500 57.17200 38.05300
C  31.66000 55.72100 38.22200
C  32.83500 60.37300 38.81700
C  28.25200 61.63300 39.64200
N  29.47000 56.68000 38.20000
C  28.18300 56.33600 37.81000
C  28.21300 54.84700 37.28500
C  29.59200 54.36300 37.73200
C  30.31600 55.63600 38.00200
C  29.59800 53.37300 38.99500
C  28.04500 54.73100 35.68900
C  26.67600 54.10100 35.36900
H  25.81500 54.92900 34.33500
N  31.96800 58.08300 38.57200
C  32.45100 56.81700 38.36500
C  33.86400 56.78900 38.23600
C  34.33900 58.10900 38.42300
C  33.08900 58.90600 38.58100
C  34.63000 55.44800 38.08500
C  35.71300 58.59600 38.44000
O  36.63700 57.77400 38.42800
C  36.09700 60.03400 38.48400
N  30.42000 60.68400 39.08400
C  31.73200 61.09300 39.05200
C  31.78100 62.57400 39.21600
C  30.31400 63.02800 39.46900
C  29.61600 61.71900 39.38800
C  32.77600 63.19100 40.22100
C  29.87300 64.16000 38.59400
C  29.65500 65.47200 39.41200
N  28.04300 59.25500 38.98300
C  27.48600 60.43700 39.34100
C  26.07300 60.29200 39.34600
C  25.86400 59.03900 38.79600
C  27.08600 58.45400 38.61600
C  25.10100 61.39800 39.60700
C  24.79900 58.05000 38.37200
O  23.56700 58.21200 38.39900
C  25.57600 56.76200 37.93700
C  25.21900 55.65500 38.86900
O  25.69400 55.56800 39.97800
O  24.41900 54.60200 38.37900
C  24.29800 53.41300 39.34200
H  32.05700 54.70500 38.17100
H  33.64300 61.10400 38.74600
H  27.67300 62.53000 39.87300
H  27.48200 54.20000 37.76800
H  30.14100 53.86600 36.93200
H  30.02300 54.05200 39.73400
H  30.15900 52.45500 38.82200
H  28.56900 53.05000 39.15400
H  28.86400 54.11900 35.31100
H  28.01000 55.73100 35.25700
H  26.11900 53.94100 36.29200
H  26.82700 53.13700 34.88300
H  34.20700 54.70100 38.75700
H  35.60300 55.61800 38.54700
H  34.76600 54.98600 37.10700
H  37.17300 60.05600 38.30900
H  35.78100 60.36400 39.47400
H  35.48000 60.55600 37.75300
H  32.07500 62.85200 38.20400
H  30.26600 63.29500 40.52400
H  32.45100 63.68700 41.13600
H  33.28800 64.07400 39.84000
H  33.56100 62.47800 40.47400
H  28.90400 63.95800 38.13800
H  30.60400 64.33400 37.80400
H  28.98100 66.09100 38.81900
H  30.61600 65.96300 39.56300
H  29.12600 65.23200 40.33400
H  24.80900 61.98200 38.73400
H  25.62700 62.08700 40.26800
H  24.27800 60.97700 40.18500
H  25.32000 56.46300 36.92100
H  23.81700 52.54800 38.88500
H  23.66700 53.71300 40.17900
H  25.18900 53.13600 39.90500
Mg 7.07700 53.81000 40.95400
C  6.63800 50.24300 40.52400
C  10.13400 53.50000 39.73300
C  7.04400 57.05200 40.33500
C  3.45000 53.80900 41.57700
N  8.21400 52.06800 40.16600
C  7.91400 50.75800 40.16400
C  9.14700 49.87600 39.76900
C  10.29900 50.88800 40.00200
C  9.48300 52.27800 39.94600
C  11.15700 50.78200 41.25500
C  9.06000 49.28500 38.34900
C  8.81100 50.25100 37.23200
H  7.41700 50.31600 36.52100
N  8.41600 55.15800 40.20200
C  9.67100 54.81700 39.80500
C  10.36900 56.02800 39.40800
C  9.51100 57.15600 39.55500
C  8.28700 56.51000 40.10600
C  11.78600 56.01400 38.95100
C  9.81900 58.65600 39.26900
O  10.90300 59.02200 38.79800
C  8.80000 59.78600 39.54000
N  5.42800 55.16700 40.81900
C  5.77000 56.45900 40.71800
C  4.52500 57.31000 40.85200
C  3.36700 56.25100 41.11400
C  4.10400 54.92000 41.09500
C  4.64600 58.41700 41.89300
C  2.17400 56.35500 40.12600
C  0.87300 56.58000 40.94400
N  5.36500 52.35300 41.21200
C  4.01400 52.48900 41.52900
C  3.42300 51.21500 41.67200
C  4.36900 50.34900 41.32000
C  5.53600 51.00900 40.98100
C  2.00500 50.98500 42.12500
C  4.71400 48.94000 41.22000
O  4.04500 47.98900 41.58800
C  6.14300 48.74300 40.65600
C  5.94900 48.06900 39.34000
O  5.43000 48.55000 38.36400
O  6.50600 46.79300 39.40900
C  6.27600 45.88400 38.25500
H  11.13600 53.40500 39.30800
H  7.03400 58.13000 40.15500
H  2.41900 53.97700 41.89600
H  9.20400 49.03700 40.46300
H  10.94500 50.93800 39.12500
H  10.88600 49.89900 41.83300
H  10.97400 51.62700 41.91900
H  12.19900 50.68100 40.95000
H  8.24900 48.55700 38.30600
H  9.91300 48.64900 38.11000
H  9.54700 49.97200 36.47700
H  9.03900 51.28500 37.49000
H  12.24200 57.00400 38.98400
H  11.98900 55.43100 38.05300
H  12.30700 55.46900 39.73800
H  7.85200 59.68200 39.01100
H  9.26400 60.71100 39.19700
H  8.51300 59.85100 40.59000
H  4.35900 57.76400 39.87500
H  3.02400 56.31000 42.14700
H  3.94500 58.27000 42.71500
H  4.72000 59.36700 41.36500
H  5.64300 58.33700 42.32500
H  2.00000 55.44300 39.55400
H  2.32700 57.22300 39.48500
H  0.87000 56.16700 41.95300
H  0.05900 56.00400 40.50500
H  0.63800 57.64400 40.93200
H  1.52500 50.53100 41.25800
H  1.47200 51.90900 42.35300
H  2.00500 50.34200 43.00500
H  6.82400 48.12900 41.24600
H  7.20700 46.03500 37.70900
H  5.39000 45.98500 37.62700
H  6.38800 44.87100 38.64200

