158

Mg 2.38400 -1.23700 44.76100
C  5.54600 0.12300 44.25700
C  1.01400 1.41400 42.89200
C  -0.41100 -2.99000 44.48500
C  4.12400 -4.27000 45.85400
N  3.09800 0.47700 43.66300
C  4.46000 0.88800 43.67300
C  4.64000 2.13600 42.79800
C  3.18400 2.67400 42.52300
C  2.35300 1.44200 43.03900
C  2.82000 4.08300 43.18800
C  5.52900 1.88500 41.49200
C  6.47700 2.96200 41.14700
H  6.19100 3.55600 39.74800
N  0.54200 -0.85500 43.89400
C  0.08700 0.33200 43.27100
C  -1.37500 0.32400 43.23600
C  -1.71200 -0.97300 43.61800
C  -0.55200 -1.66500 44.03400
C  -2.18000 1.51400 42.71500
C  -3.18100 -1.48100 43.60100
O  -4.00800 -0.70300 43.19400
C  -3.62500 -2.76400 44.12300
N  1.97000 -3.39700 44.94400
C  0.66100 -3.76000 44.93700
C  0.47700 -5.15200 45.63900
C  1.89400 -5.65700 45.60800
C  2.76400 -4.36700 45.55200
C  -0.19800 -5.01700 47.05200
C  2.33700 -6.58000 44.42600
C  2.33100 -8.06100 44.68900
N  4.40100 -1.92600 45.19300
C  4.92200 -3.16800 45.52500
C  6.32400 -3.07800 45.70100
C  6.64300 -1.77300 45.24800
C  5.45000 -1.17300 44.83300
C  7.28500 -4.10400 46.19300
C  7.74200 -0.85300 45.08400
O  8.93500 -0.95700 45.28600
C  7.04100 0.41000 44.34600
C  7.32100 1.65700 45.16700
O  6.71000 2.03600 46.15500
O  8.43600 2.31800 44.67700
C  9.04000 3.40000 45.44700
H  0.46300 2.28800 42.53700
H  -1.37400 -3.49300 44.37800
H  4.64500 -5.15500 46.22400
H  5.23000 2.80700 43.42300
H  3.09400 2.69800 41.43700
H  3.64500 4.56000 43.71700
H  1.96600 3.91300 43.84400
H  2.64000 4.79000 42.37800
H  4.81500 1.77300 40.67600
H  6.09400 0.95300 41.46600
H  7.44100 2.48000 40.98800
H  6.57900 3.69000 41.95100
H  -1.86400 1.68000 41.68600
H  -1.75100 2.33900 43.28400
H  -3.27000 1.49500 42.72000
H  -4.70800 -2.66600 44.05400
H  -3.29600 -2.91900 45.15000
H  -3.26500 -3.47400 43.37800
H  -0.12700 -5.72000 44.93200
H  2.17200 -6.23400 46.49000
H  -0.57700 -3.99900 47.14500
H  0.54400 -5.38200 47.76200
H  -1.01400 -5.74000 47.04300
H  3.34200 -6.31200 44.10000
H  1.55700 -6.41200 43.68400
H  1.97900 -8.31600 45.68900
H  3.37500 -8.36600 44.61200
H  1.74300 -8.59200 43.94100
H  8.31000 -3.73400 46.22100
H  7.16000 -4.93000 45.49300
H  7.00900 -4.43000 47.19600
H  7.49500 0.56700 43.36800
H  10.05300 3.01700 45.56700
H  8.57000 3.52500 46.42200
H  9.17900 4.35400 44.93700
Mg 47.12900 24.27700 28.21700
C  48.20400 26.67300 30.54300
C  46.71000 22.14000 30.71200
C  46.54200 22.05800 25.81400
C  48.52300 26.54600 25.72700
N  47.09200 24.53600 30.39000
C  47.56200 25.56500 31.09800
C  47.59400 25.25400 32.60400
C  47.30200 23.67500 32.63200
C  46.92900 23.43500 31.15000
C  48.41100 22.67300 33.15700
C  46.66300 26.23800 33.38900
C  47.30800 26.86800 34.66000
H  46.49500 26.85400 36.03100
N  46.50300 22.47700 28.23400
C  46.39600 21.68800 29.37700
C  45.96300 20.36100 29.00800
C  45.87000 20.33800 27.56300
C  46.23900 21.67700 27.10200
C  45.74100 19.23900 30.03400
C  45.45200 19.22800 26.68800
O  45.29200 19.35600 25.49900
C  45.10800 17.86800 27.20100
N  47.46300 24.34600 26.06900
C  47.12800 23.24400 25.36000
C  47.22800 23.49300 23.88000
C  47.86100 24.91100 23.80100
C  47.94100 25.33300 25.28300
C  47.86600 22.40200 23.02200
C  47.15700 25.99400 22.90700
C  48.07800 26.36300 21.65800
N  48.10700 26.30200 28.11100
C  48.67500 27.01000 27.05600
C  49.16800 28.29400 27.54600
C  49.17800 28.14700 28.89700
C  48.45900 26.93500 29.17500
C  49.60000 29.49200 26.76500
C  49.57200 28.69300 30.14600
O  50.24100 29.70000 30.36000
C  49.01900 27.71700 31.23900
C  50.22800 27.14900 32.02000
O  51.00400 26.32200 31.55500
O  50.24100 27.64600 33.21800
C  51.55500 27.38500 33.92900
H  46.58100 21.38600 31.49200
H  46.34900 21.30300 25.05000
H  48.84200 27.29200 24.99600
H  48.63800 25.25600 32.91900
H  46.47100 23.49000 33.31300
H  48.82600 22.03300 32.38000
H  47.94900 22.06200 33.93300
H  49.22900 23.23400 33.60900
H  45.73000 25.71800 33.60600
H  46.35500 27.07800 32.76600
H  47.48100 27.92100 34.44000
H  48.24700 26.35700 34.87300
H  45.22900 18.35300 29.66000
H  45.07900 19.66500 30.78800
H  46.68000 19.02000 30.54200
H  44.25300 17.85700 27.87800
H  45.96800 17.39600 27.67600
H  44.87700 17.35400 26.26800
H  46.18700 23.65300 23.59700
H  48.89000 24.89800 23.44100
H  47.68400 21.34200 23.19600
H  48.93400 22.54600 23.18700
H  47.47200 22.47500 22.00900
H  47.10700 26.89900 23.51200
H  46.17500 25.58900 22.66200
H  48.61800 27.29000 21.84800
H  47.36500 26.61000 20.87200
H  48.82600 25.65400 21.30400
H  49.15800 30.42400 27.11600
H  49.33600 29.41300 25.71100
H  50.68900 29.51700 26.81600
H  48.51000 28.35100 31.96400
H  51.74500 26.31200 33.94400
H  51.69000 27.76600 34.94100
H  52.33200 27.84600 33.32100

