158

Mg 25.62500 0.61900 29.01200
C  27.72800 0.31500 31.98600
C  22.94900 1.00800 31.06600
C  23.84600 0.88300 26.26000
C  28.47500 -0.23300 27.11800
N  25.41000 0.60500 31.24400
C  26.38700 0.60400 32.27100
C  25.62200 0.89600 33.65800
C  24.09400 1.12600 33.30700
C  24.17500 0.85600 31.80200
C  23.05200 0.23300 34.03000
C  26.21900 2.14400 34.37100
C  25.57400 2.47100 35.80100
H  26.68400 2.50200 36.95200
N  23.67000 0.88900 28.70100
C  22.70800 0.95100 29.63900
C  21.45500 1.17900 28.98000
C  21.69300 1.18000 27.62500
C  23.13700 0.93500 27.44700
C  20.16000 1.28400 29.79300
C  20.71000 1.59800 26.43200
O  21.06100 1.58900 25.27100
C  19.22900 1.94300 26.65200
N  26.10000 0.41300 27.03800
C  25.21300 0.64600 26.03000
C  25.76500 0.64000 24.63600
C  27.22200 0.23000 24.90400
C  27.28400 0.08000 26.43500
C  24.97600 -0.18200 23.59800
C  28.25900 1.19800 24.26300
C  28.96700 0.81300 22.92800
N  27.64700 0.10600 29.39800
C  28.62900 -0.21700 28.50300
C  29.78900 -0.72100 29.25800
C  29.51000 -0.40900 30.60100
C  28.19200 0.09300 30.64100
C  30.99200 -1.35200 28.69200
C  30.06900 -0.40000 31.93700
O  31.17300 -0.78700 32.29200
C  28.92700 0.00200 32.87800
C  28.63900 -1.02300 33.88300
O  27.85400 -1.97300 33.68000
O  29.49800 -0.88700 34.96300
C  29.33700 -2.01200 35.98100
H  22.13600 1.26900 31.74700
H  23.36400 1.24800 25.35000
H  29.15200 -0.66400 26.37700
H  25.77800 0.01100 34.27300
H  23.70300 2.13400 33.45100
H  22.22700 0.90500 34.27000
H  23.42100 -0.07500 35.00800
H  22.78900 -0.61300 33.39600
H  26.13700 3.04200 33.75800
H  27.28700 2.02500 34.55400
H  24.84200 1.69500 36.02500
H  25.11800 3.45900 35.73800
H  19.81900 2.28500 29.52800
H  20.29400 1.18200 30.87000
H  19.40100 0.59900 29.41600
H  18.76500 2.48300 25.82700
H  19.09400 2.62200 27.49300
H  18.73500 0.98300 26.80300
H  25.71400 1.70600 24.41300
H  27.38700 -0.74500 24.44700
H  24.81100 0.51300 22.77500
H  24.04800 -0.61400 23.97300
H  25.59600 -1.02900 23.30500
H  29.12000 1.28600 24.92500
H  27.81900 2.19400 24.21300
H  28.64300 -0.12900 22.48600
H  30.05300 0.86400 23.00800
H  28.64000 1.63700 22.29400
H  31.19300 -0.87100 27.73500
H  30.60200 -2.35000 28.49000
H  31.83000 -1.23300 29.37800
H  29.27500 0.90000 33.38800
H  29.05400 -1.56400 36.93300
H  30.24600 -2.61200 36.02500
H  28.64600 -2.83800 35.81400
Mg 16.33600 52.44600 26.42800
C  18.09200 51.04600 29.20600
C  14.08200 53.68200 28.70200
C  14.36100 52.93300 23.90100
C  18.77100 50.95300 24.33500
N  15.98600 52.19800 28.66700
C  16.93200 51.75000 29.62400
C  16.46800 52.11000 31.06200
C  15.01500 52.53900 30.83900
C  14.98900 52.86800 29.31500
C  13.93300 51.48100 31.18600
C  17.32600 53.28100 31.69900
C  17.85100 53.04000 33.07100
H  17.01300 52.02100 33.92800
N  14.60300 53.33800 26.30100
C  13.82200 53.86600 27.31200
C  12.70600 54.66600 26.67000
C  12.64900 54.27300 25.30700
C  13.88700 53.45100 25.11500
C  11.73700 55.59700 27.43400
C  11.56800 54.65800 24.22800
O  11.61600 54.40200 22.99900
C  10.48100 55.60300 24.65800
N  16.64300 52.01400 24.39400
C  15.62000 52.27100 23.51200
C  15.98800 51.83500 22.10700
C  17.51300 51.47900 22.23000
C  17.65900 51.48200 23.73000
C  15.17800 50.65100 21.56200
C  18.38800 52.49700 21.44000
C  18.97700 53.77900 21.96300
N  18.11300 51.33600 26.70800
C  18.96300 50.78900 25.74600
C  20.05000 49.98800 26.35800
C  19.71100 50.11700 27.69000
C  18.53600 50.88800 27.82800
C  21.24100 49.35900 25.77000
C  20.22400 49.91300 29.03000
O  21.29500 49.44700 29.31700
C  19.20700 50.50900 30.06000
C  18.75600 49.34300 30.93000
O  17.79200 48.63800 30.64200
O  19.59200 49.22700 32.02200
C  19.39100 48.11300 32.87900
H  13.36500 54.19600 29.34500
H  13.85000 53.16100 22.96300
H  19.57500 50.56800 23.70300
H  16.60200 51.15300 31.56600
H  14.74400 53.49300 31.29200
H  13.55700 51.65200 32.19500
H  14.25600 50.45100 31.03600
H  13.10400 51.54400 30.48100
H  16.78000 54.22200 31.63700
H  18.19600 53.35100 31.04600
H  17.96200 53.94500 33.66900
H  18.82700 52.59900 32.87200
H  11.85900 56.60900 27.04900
H  12.05100 55.79500 28.45800
H  10.68800 55.30100 27.42900
H  9.66600 55.47100 23.94600
H  10.87600 56.60900 24.79600
H  10.05000 55.27000 25.60200
H  15.72000 52.62700 21.40800
H  17.80600 50.50800 21.83100
H  15.78800 49.74800 21.54600
H  14.95100 50.78800 20.50400
H  14.22000 50.46800 22.04900
H  17.96000 52.96100 20.55200
H  19.13400 51.90800 20.90600
H  18.47400 54.67000 21.58800
H  20.01600 53.75800 21.63300
H  18.98800 53.89600 23.04700
H  22.06400 49.26500 26.47800
H  21.53500 49.76200 24.80100
H  21.03200 48.29000 25.75100
H  19.73000 51.21700 30.70300
H  19.28900 47.21600 32.26700
H  18.40200 48.16100 33.33500
H  20.09500 48.06700 33.70900

