158

Mg 35.82900 0.79000 29.40900
C  33.55200 2.03400 31.97100
C  38.20500 0.65600 31.88100
C  38.06300 -0.09100 27.05900
C  33.51400 1.70900 26.98900
N  35.80600 0.98500 31.75800
C  34.82600 1.61300 32.50500
C  35.28300 1.70100 33.96900
C  36.84200 1.60600 33.84400
C  36.96500 1.08500 32.39700
C  37.52700 2.97100 34.11200
C  34.57400 0.68500 34.84900
C  34.38600 1.01200 36.36800
H  35.16400 2.21600 36.98300
N  37.80600 0.22300 29.48400
C  38.53900 0.17000 30.60200
C  39.82100 -0.38000 30.29500
C  39.85600 -0.54500 28.84700
C  38.50600 -0.18000 28.40400
C  40.89200 -0.63900 31.36600
C  40.95200 -1.15800 27.94800
O  40.87800 -1.25800 26.68900
C  42.20100 -1.73300 28.67000
N  35.92500 1.07200 27.35300
C  36.84900 0.53500 26.59100
C  36.50400 0.60100 25.01400
C  34.97200 1.00000 25.06700
C  34.81500 1.33600 26.56400
C  37.44400 1.58000 24.14200
C  34.03200 -0.22300 24.72400
C  32.81800 0.14700 23.87300
N  34.00900 1.63100 29.41000
C  33.18700 2.03700 28.37600
C  31.91100 2.55800 28.84800
C  32.08700 2.62600 30.23500
C  33.35300 2.11400 30.55200
C  30.66800 2.89600 28.16300
C  31.37600 2.90200 31.43000
O  30.21300 3.29000 31.55300
C  32.36100 2.66600 32.67500
C  32.60100 4.07600 33.21800
O  33.45600 4.82900 32.82000
O  31.62400 4.44100 34.11900
C  31.72700 5.62700 34.80900
H  38.83900 0.51400 32.75900
H  38.73100 -0.50100 26.29900
H  32.75700 1.96200 26.24400
H  35.07300 2.74300 34.21200
H  37.26500 0.83900 34.49300
H  38.15600 3.30000 33.28500
H  38.19200 2.77000 34.95200
H  36.94800 3.81900 34.47800
H  35.16300 -0.20600 34.63100
H  33.60100 0.44300 34.42100
H  34.59300 0.06200 36.86000
H  33.35100 1.35200 36.37300
H  41.72000 -0.01700 31.02500
H  41.35300 -1.62600 31.40800
H  40.80300 -0.40400 32.42600
H  42.78000 -0.86800 28.99200
H  42.74800 -2.41100 28.01400
H  41.81900 -2.21900 29.56800
H  36.67000 -0.41500 24.65800
H  34.80000 1.87200 24.43600
H  37.14000 2.60500 23.92800
H  37.58900 1.18100 23.13900
H  38.44700 1.76100 24.52900
H  33.66800 -0.53500 25.70300
H  34.59800 -0.98700 24.19100
H  33.02100 0.99500 23.21900
H  32.03000 0.49700 24.54000
H  32.48300 -0.68500 23.25300
H  29.90600 2.12600 28.03700
H  30.77300 3.41500 27.21100
H  30.17000 3.66700 28.75100
H  31.87500 1.97600 33.36400
H  31.07700 5.54000 35.67900
H  31.30900 6.48200 34.27800
H  32.71800 5.98700 35.08400
Mg 30.10000 59.08000 39.47700
C  27.29800 57.13200 38.45400
C  32.12700 56.45900 38.41600
C  32.76500 61.24500 39.46400
C  27.95200 61.83700 39.52900
N  29.77100 57.14500 38.34400
C  28.50600 56.58300 38.18100
C  28.65300 55.15100 37.83400
C  30.13700 54.75900 38.24700
C  30.72700 56.18600 38.27500
C  30.44700 54.08600 39.65500
C  28.34800 55.05800 36.31000
C  27.32200 53.94300 35.96000
H  26.42000 54.34400 34.85000
N  32.19900 58.86800 39.13300
C  32.75600 57.72700 38.68200
C  34.19400 57.93700 38.47500
C  34.47700 59.33700 38.79800
C  33.17800 59.89000 39.19800
C  35.14700 56.86600 37.87400
C  35.83600 60.05000 38.71100
O  36.77300 59.55200 38.13900
C  36.06900 61.44300 39.39500
N  30.25800 61.17500 39.52700
C  31.48800 61.72500 39.65300
C  31.35400 63.26800 39.85200
C  29.84500 63.54400 39.84200
C  29.29400 62.12400 39.58100
C  32.13700 63.89500 40.99400
C  29.36800 64.58900 38.87200
C  29.62300 66.05100 39.31000
N  28.01700 59.38700 39.35500
C  27.29900 60.58900 39.41200
C  25.80700 60.28300 39.31300
C  25.82300 58.95600 38.97100
C  27.16200 58.49400 38.82600
C  24.62700 61.29400 39.35500
C  24.96600 57.90700 38.48300
O  23.76200 57.88000 38.19700
C  25.88900 56.65200 38.11000
C  25.44000 55.58300 39.06800
O  25.51000 55.56900 40.31500
O  24.95000 54.49700 38.25500
C  24.48700 53.27100 38.99500
H  32.83200 55.63900 38.25900
H  33.46500 62.07500 39.57400
H  27.28500 62.70000 39.59300
H  27.94300 54.56200 38.41400
H  30.61700 54.22300 37.42800
H  29.49400 53.69800 40.01600
H  30.73600 54.89100 40.33100
H  31.20700 53.30800 39.57400
H  29.27500 55.03000 35.73700
H  27.75400 55.94200 36.07500
H  26.76100 53.70300 36.86300
H  27.83000 53.05300 35.58800
H  34.99600 56.70100 36.80700
H  34.86100 55.95200 38.39500
H  36.20400 56.95000 38.12500
H  37.12300 61.64500 39.58700
H  35.53000 61.29500 40.33000
H  35.55000 62.20900 38.81900
H  31.88800 63.63100 38.97400
H  29.52500 63.88500 40.82700
H  32.21000 63.19900 41.82900
H  31.72500 64.82000 41.39800
H  33.10200 64.17900 40.57400
H  28.28100 64.54900 38.81000
H  29.76500 64.47800 37.86300
H  30.13300 66.65000 38.55600
H  30.15200 66.04400 40.26200
H  28.63900 66.46800 39.52300
H  24.11900 61.00100 40.27400
H  23.97400 61.26100 38.48300
H  24.94800 62.32700 39.49200
H  25.73400 56.47200 37.04600
H  24.74500 52.37800 38.42500
H  23.44600 53.38700 39.29600
H  24.97200 53.16000 39.96500

