158

Mg 40.88500 8.36500 29.78900
C  42.69500 9.64800 32.52900
C  38.64400 7.01700 32.06900
C  39.21100 7.26600 27.18500
C  43.52200 9.36100 27.60200
N  40.69100 8.36300 32.10500
C  41.55900 9.00700 32.94700
C  40.97400 8.97500 34.40800
C  39.80800 7.90800 34.34300
C  39.69600 7.71600 32.78800
C  39.96200 6.62000 35.12700
C  40.67900 10.39100 35.01100
C  41.48900 10.81100 36.24600
H  40.98200 11.94000 37.18500
N  39.17400 7.26600 29.58400
C  38.35800 6.78700 30.66100
C  37.15700 6.19200 30.06100
C  37.25100 6.54600 28.62800
C  38.60200 7.03500 28.41100
C  36.11100 5.40200 30.82700
C  36.17900 6.47700 27.65000
O  36.33500 6.76100 26.45000
C  34.83800 6.13100 28.09900
N  41.33600 8.20100 27.73400
C  40.39600 7.78100 26.84000
C  40.88000 7.83900 25.38800
C  42.21200 8.76600 25.51500
C  42.38400 8.78300 27.03400
C  41.05500 6.42100 24.70100
C  42.15000 10.20200 24.82800
C  41.23300 11.25800 25.56200
N  42.78900 9.22200 29.95400
C  43.68600 9.60600 29.00300
C  44.80200 10.22200 29.63900
C  44.42000 10.29000 31.02500
C  43.18600 9.65800 31.15700
C  46.08900 10.71000 28.96100
C  44.92000 10.68400 32.31100
O  46.01700 11.13000 32.60600
C  43.76900 10.37600 33.39100
C  44.31000 9.42600 34.37000
O  44.28600 8.20700 34.27000
O  44.87400 10.15100 35.37800
C  45.46000 9.29900 36.42500
H  37.93500 6.65000 32.81400
H  38.58600 7.04300 26.31800
H  44.32100 9.57300 26.88800
H  41.74200 8.44400 34.97100
H  38.81200 8.22000 34.65700
H  40.93900 6.51400 35.59800
H  39.91000 5.74400 34.48200
H  39.19100 6.51700 35.89200
H  39.66600 10.40500 35.41500
H  40.84700 11.16400 34.26200
H  42.48600 11.14600 35.95800
H  41.70600 9.93300 36.85400
H  36.59800 5.25800 31.79200
H  35.94000 4.42200 30.38300
H  35.24600 6.06500 30.83600
H  34.84900 5.17100 28.61600
H  34.28400 6.00700 27.16800
H  34.39900 6.89800 28.73700
H  40.15600 8.43600 24.83300
H  43.09700 8.21700 25.19300
H  40.52800 5.65000 25.26300
H  42.08400 6.08100 24.58300
H  40.52800 6.47100 23.74800
H  41.94800 10.21200 23.75700
H  43.14000 10.65200 24.90400
H  40.40500 10.75600 26.06200
H  40.83500 12.04300 24.91800
H  41.85700 11.72900 26.32100
H  46.14300 11.69400 28.49400
H  46.42100 9.96900 28.23400
H  46.92900 10.62400 29.65000
H  43.47000 11.30300 33.88100
H  46.52700 9.51900 36.39900
H  45.31200 8.22300 36.32700
H  45.12900 9.64700 37.40300
Mg 16.66700 52.12100 26.39700
C  18.39400 50.64300 28.88300
C  14.26400 52.96700 28.69000
C  14.90500 53.39800 23.89200
C  19.07800 51.09900 24.09400
N  16.30700 51.62400 28.64600
C  17.29900 51.33500 29.43200
C  16.92500 51.34900 30.88600
C  15.37900 51.85400 30.82900
C  15.27800 52.18600 29.36300
C  14.27500 50.73800 31.33600
C  17.77100 52.22700 31.87900
C  17.86900 51.68200 33.27200
H  16.92100 52.33400 34.25400
N  14.96700 53.13000 26.38600
C  14.02600 53.29400 27.38600
C  12.83700 54.00300 26.85900
C  13.04900 54.28300 25.49300
C  14.33500 53.61600 25.19300
C  11.61000 54.28100 27.80700
C  12.21500 54.95600 24.41800
O  12.59700 55.18200 23.32200
C  10.90000 55.50400 24.81300
N  16.81700 51.94600 24.27900
C  15.96700 52.70100 23.53800
C  16.53100 52.78800 22.00500
C  17.97100 52.47900 22.25300
C  17.99300 51.88100 23.64700
C  15.68800 51.94000 21.03600
C  18.80400 53.79400 22.33600
C  19.83300 54.02100 21.22500
N  18.33900 50.97900 26.42100
C  19.25100 50.63000 25.42500
C  20.30200 49.92600 26.00700
C  19.99900 49.88300 27.34900
C  18.81000 50.59900 27.54700
C  21.56600 49.46800 25.31100
C  20.56800 49.46600 28.60300
O  21.62900 48.86100 28.85900
C  19.53400 50.01100 29.68000
C  19.25800 48.88300 30.61800
O  18.51100 47.93700 30.33700
O  19.78900 49.09100 31.80500
C  19.49900 48.26200 33.00000
H  13.54000 53.29800 29.43700
H  14.27600 53.84400 23.11900
H  19.87600 51.05800 23.35000
H  16.84500 50.31200 31.21300
H  15.30100 52.73700 31.46400
H  14.29300 50.32100 32.34300
H  14.51100 49.87800 30.70900
H  13.30700 51.09600 30.98700
H  17.24300 53.18000 31.90700
H  18.73500 52.44000 31.41800
H  18.91600 51.77000 33.56300
H  17.69200 50.60700 33.27000
H  11.34400 55.33500 27.73800
H  11.80200 54.05200 28.85600
H  10.67400 53.76000 27.60500
H  10.06100 54.80900 24.77500
H  10.58100 56.25400 24.08900
H  10.77000 55.93600 25.80600
H  16.45900 53.79900 21.60300
H  18.41600 51.89200 21.44900
H  14.95500 52.50100 20.45700
H  15.14500 51.17500 21.59300
H  16.34600 51.41000 20.34800
H  19.34900 53.80800 23.28000
H  18.19100 54.69500 22.33900
H  19.74200 55.00900 20.77300
H  19.74700 53.24500 20.46500
H  20.80500 54.00500 21.71700
H  21.63300 49.95600 24.33900
H  21.76200 48.40100 25.42300
H  22.42500 49.84000 25.86900
H  20.02100 50.79100 30.26500
H  19.90400 47.27500 32.77600
H  18.42900 48.11400 33.14600
H  20.12600 48.50600 33.85800

