158

Mg 16.96500 -2.59700 27.99600
C  16.08600 -0.66300 30.84400
C  18.22800 -4.96900 29.98600
C  17.89700 -4.33800 25.13900
C  15.47800 -0.18000 26.04600
N  17.17500 -2.74300 30.15200
C  16.74800 -1.86400 31.10900
C  17.02500 -2.45400 32.56200
C  17.88300 -3.78800 32.23500
C  17.85100 -3.83100 30.67400
C  19.30800 -3.75800 32.93600
C  15.74500 -2.72400 33.40600
C  15.84900 -2.22700 34.87900
H  17.20600 -1.65600 35.43700
N  17.70100 -4.51300 27.68200
C  18.05300 -5.37700 28.64400
C  18.39200 -6.60600 28.00400
C  18.45800 -6.37600 26.56700
C  18.08700 -5.00900 26.44300
C  18.71800 -7.86600 28.84800
C  18.85700 -7.33800 25.41900
O  18.84300 -7.07500 24.23900
C  19.41900 -8.68300 25.86100
N  16.87000 -2.25000 25.88400
C  17.35500 -3.04200 24.93800
C  17.05000 -2.51600 23.58900
C  16.10400 -1.27200 23.86400
C  16.12400 -1.24800 25.32600
C  18.32400 -2.26800 22.62000
C  14.66700 -1.20000 23.24600
C  13.58200 -2.02100 23.89700
N  16.20100 -0.63300 28.28700
C  15.50300 0.10200 27.44400
C  14.90800 1.17200 28.23100
C  15.12200 0.90700 29.52800
C  15.93600 -0.20800 29.55400
C  14.00300 2.32800 27.73000
C  14.77800 1.43000 30.80800
O  14.17200 2.41900 31.17500
C  15.41000 0.37700 31.73000
C  16.39800 0.97000 32.71000
O  17.61200 0.94700 32.59600
O  15.73100 1.65400 33.62800
C  16.50900 2.54500 34.54800
H  18.60500 -5.66100 30.74200
H  18.29300 -4.85800 24.26400
H  14.99900 0.50400 25.34200
H  17.63600 -1.65600 32.98200
H  17.39500 -4.70700 32.56000
H  19.96000 -4.19000 32.17700
H  19.22900 -4.33800 33.85600
H  19.66600 -2.79200 33.29300
H  15.45300 -3.77400 33.38900
H  14.88400 -2.22900 32.95700
H  15.50000 -2.99600 35.56900
H  15.10300 -1.48500 35.16600
H  17.96900 -8.61100 28.58000
H  18.72300 -7.71900 29.92800
H  19.74200 -8.14700 28.60200
H  20.18700 -8.76800 26.63000
H  19.92400 -9.12900 25.00300
H  18.59500 -9.28700 26.24000
H  16.48700 -3.33000 23.13200
H  16.71900 -0.47000 23.45700
H  18.27000 -1.26400 22.19900
H  18.36800 -3.01800 21.83000
H  19.24900 -2.37300 23.18700
H  14.80600 -1.45100 22.19400
H  14.37900 -0.15000 23.29600
H  13.91100 -2.69100 24.69200
H  13.14800 -2.68100 23.14700
H  12.79500 -1.32500 24.18900
H  13.02400 2.19000 28.19000
H  13.93700 2.33500 26.64200
H  14.27600 3.31400 28.10400
H  14.60400 -0.07900 32.30600
H  15.93400 3.47000 34.57200
H  17.48900 2.82100 34.15900
H  16.60900 2.24000 35.59000
Mg 30.52100 59.17900 39.53000
C  27.67800 57.32400 38.67500
C  32.49900 56.48900 38.80300
C  33.13600 61.23800 39.08800
C  28.50700 61.96200 39.90500
N  30.08700 57.21900 38.59800
C  28.90500 56.61500 38.40200
C  29.07000 55.23300 37.82600
C  30.53900 54.92900 38.35100
C  31.11100 56.31900 38.64300
C  30.52800 54.08800 39.59700
C  28.94600 55.28000 36.27500
C  28.07100 54.10300 35.74000
H  27.07400 54.45300 34.59900
N  32.56700 58.87200 39.08000
C  33.19300 57.69400 38.90200
C  34.59700 57.88900 38.76400
C  34.78900 59.30300 38.76900
C  33.43500 59.86000 38.87400
C  35.55000 56.73200 38.80600
C  36.14000 59.98900 38.60500
O  37.21800 59.39600 38.67600
C  36.24100 61.45200 38.41000
N  30.78500 61.31600 39.39000
C  31.94500 61.86500 39.31500
C  31.87600 63.40400 39.48700
C  30.44100 63.60800 39.85900
C  29.84400 62.20400 39.78700
C  32.96900 63.91900 40.55100
C  29.51100 64.47700 39.03700
C  29.86700 65.96000 38.75100
N  28.49600 59.58800 39.62600
C  27.84900 60.75500 39.68200
C  26.48400 60.54400 39.47000
C  26.32000 59.15400 39.13900
C  27.63200 58.65200 39.15800
C  25.47200 61.60100 39.43400
C  25.33700 58.09200 38.82900
O  24.08400 58.09000 38.62300
C  26.26200 56.81800 38.49500
C  25.85800 55.87400 39.63100
O  26.21300 55.87700 40.77800
O  24.94200 55.00300 39.17500
C  24.73200 53.92000 40.15800
H  33.02900 55.53800 38.71900
H  33.88200 62.01100 38.89400
H  27.82500 62.79700 40.07900
H  28.29700 54.56700 38.20900
H  31.12700 54.36800 37.62500
H  31.23500 54.44200 40.34800
H  30.62000 53.06200 39.24200
H  29.51700 54.14600 40.00000
H  29.92900 55.01400 35.88600
H  28.66000 56.25600 35.88200
H  27.40400 53.66400 36.48200
H  28.77200 53.29900 35.51600
H  36.08200 56.78100 39.75600
H  36.23100 56.81900 37.95800
H  35.12500 55.73400 38.69700
H  37.25800 61.71200 38.11700
H  35.97300 61.97500 39.32900
H  35.56300 61.80800 37.63400
H  32.06800 63.83700 38.50500
H  30.26100 63.91700 40.88800
H  33.43000 64.83800 40.19100
H  33.64600 63.13900 40.90000
H  32.39800 64.16300 41.44700
H  28.48500 64.63400 39.37000
H  29.52400 63.91100 38.10600
H  30.85800 66.19500 39.13700
H  29.17000 66.73000 39.08200
H  29.89100 66.10200 37.67000
H  25.10400 61.87100 40.42400
H  24.66200 61.32800 38.75800
H  25.99300 62.53300 39.21900
H  26.01700 56.36300 37.53500
H  24.55700 53.08200 39.48300
H  23.79100 54.10500 40.67500
H  25.50600 53.63000 40.87000

