158

Mg 8.13300 1.79900 27.80300
C  9.81700 0.46000 30.61000
C  6.47100 3.94100 29.91500
C  6.17500 2.57500 25.15900
C  9.56600 -0.80800 25.87100
N  8.07600 1.99600 30.03000
C  8.92300 1.44900 30.94700
C  8.60000 1.93100 32.33300
C  7.33100 2.82000 32.08500
C  7.32600 2.99700 30.56300
C  5.98200 2.38800 32.71400
C  9.89200 2.58600 32.96100
C  10.19200 2.42700 34.44200
H  9.07600 2.29900 35.50100
N  6.67500 3.14700 27.52300
C  6.23600 4.02700 28.49100
C  5.36700 5.02600 27.83200
C  5.15700 4.63000 26.53400
C  6.03600 3.46300 26.28900
C  4.72700 6.15300 28.62900
C  4.17900 5.18300 25.51300
O  4.08000 4.86900 24.34000
C  3.32700 6.32200 25.87900
N  7.90500 1.01600 25.80000
C  6.94600 1.46000 24.92400
C  6.85900 0.57300 23.66600
C  8.04700 -0.41400 23.90000
C  8.61200 -0.05900 25.25500
C  5.35000 0.01400 23.43300
C  9.10400 -0.45900 22.71600
C  9.47900 -1.85900 22.27200
N  9.50400 0.29300 28.01900
C  10.00000 -0.67600 27.19700
C  10.86200 -1.55200 27.91200
C  10.83000 -1.10500 29.25400
C  10.01500 0.00300 29.25900
C  11.59100 -2.82900 27.42000
C  11.34300 -1.39900 30.58400
O  12.21500 -2.18000 30.89600
C  10.64000 -0.38700 31.50700
C  9.76800 -1.18700 32.52700
O  8.67000 -1.61700 32.34000
O  10.35200 -1.17400 33.76400
C  9.70500 -1.90000 34.84800
H  5.85800 4.56600 30.56700
H  5.47300 2.77700 24.34700
H  9.96200 -1.64200 25.28700
H  8.51900 1.05500 32.97700
H  7.51600 3.80800 32.50500
H  5.75200 3.08700 33.51900
H  6.11900 1.49400 33.32200
H  5.24300 2.14800 31.94900
H  9.79700 3.64100 32.70300
H  10.77400 2.28800 32.39300
H  10.59000 3.40900 34.69700
H  10.94300 1.68800 34.72200
H  4.71200 7.11000 28.10700
H  5.16700 6.42200 29.58900
H  3.66200 5.93800 28.71400
H  2.88800 5.99600 26.82200
H  2.60300 6.45500 25.07500
H  3.79300 7.29000 26.06900
H  7.17900 1.18700 22.82400
H  7.60500 -1.39300 24.08600
H  4.73600 0.08300 24.33100
H  5.41100 -1.05200 23.21800
H  4.92200 0.59100 22.61300
H  10.00400 0.13300 22.88600
H  8.65800 0.04000 21.85500
H  9.11700 -1.78400 21.24700
H  8.84300 -2.62400 22.71800
H  10.56600 -1.86700 22.34900
H  12.67600 -2.79700 27.52700
H  11.29100 -3.06300 26.39900
H  11.18200 -3.57400 28.10300
H  11.46500 -0.00500 32.10700
H  9.34900 -2.84000 34.42600
H  8.88800 -1.33600 35.29900
H  10.41300 -2.13700 35.64200
Mg 10.41900 47.60900 26.10200
C  8.09100 47.41300 28.76100
C  12.75600 48.41900 28.58700
C  12.37500 48.49700 23.63200
C  7.77200 47.26000 23.84100
N  10.42400 47.94300 28.47700
C  9.29600 47.71800 29.29300
C  9.64200 47.95100 30.75400
C  11.16600 48.28600 30.73800
C  11.48000 48.32000 29.16700
C  11.52000 49.57700 31.54600
C  9.32900 46.75300 31.80700
C  10.14600 46.64200 33.12400
H  9.51200 45.84100 34.24000
N  12.35600 48.20800 26.07600
C  13.15500 48.43900 27.19100
C  14.45800 48.68100 26.70900
C  14.42200 48.73700 25.26000
C  12.97900 48.52000 24.93100
C  15.67400 48.91900 27.66000
C  15.53100 48.89500 24.29600
O  15.27900 49.17900 23.11800
C  17.01400 48.83000 24.68800
N  10.05400 47.99600 23.98800
C  11.09900 48.29400 23.15100
C  10.68000 48.42300 21.71500
C  9.29400 47.83600 21.80600
C  8.97200 47.70500 23.27500
C  10.80300 49.86300 21.20300
C  9.06000 46.50900 21.04400
C  8.20600 46.62900 19.71700
N  8.33100 47.19900 26.27200
C  7.42700 47.05100 25.21100
C  6.07400 46.81800 25.72800
C  6.30600 46.92800 27.17000
C  7.68300 47.17200 27.40900
C  4.76300 46.73500 24.99600
C  5.65900 46.89600 28.40300
O  4.53000 46.51300 28.76400
C  6.73700 47.25700 29.50700
C  6.65900 46.08500 30.39000
O  7.22500 45.02000 30.24500
O  5.72100 46.41300 31.39000
C  5.72700 45.44500 32.54300
H  13.49900 48.56300 29.37300
H  13.06700 48.57700 22.79100
H  6.93600 47.12200 23.15300
H  9.05300 48.85400 30.91500
H  11.86500 47.49700 31.01600
H  11.70400 50.50800 31.00900
H  12.38100 49.33500 32.16900
H  10.74300 49.66300 32.30600
H  9.41900 45.80200 31.28200
H  8.31700 46.90800 32.18100
H  10.53200 47.61600 33.42400
H  11.03400 46.11100 32.78000
H  16.66000 48.50600 27.44900
H  15.48000 48.84300 28.73000
H  15.85200 49.97700 27.46900
H  17.22500 49.59800 25.43100
H  17.71400 49.05600 23.88400
H  17.14200 47.82900 25.10100
H  11.39500 47.81400 21.16200
H  8.59900 48.55300 21.36800
H  11.14400 50.53100 21.99400
H  9.84500 50.28100 20.89200
H  11.36400 49.81800 20.27000
H  8.72500 45.77600 21.77900
H  10.05800 46.14400 20.79900
H  7.78400 47.62500 19.57900
H  7.42600 45.88200 19.86700
H  8.68400 46.26500 18.80800
H  4.66800 45.66000 24.84000
H  4.77100 47.32900 24.08200
H  3.87400 47.01200 25.56300
H  6.40800 48.05500 30.17200
H  5.52500 46.11500 33.37900
H  6.63300 44.84000 32.59500
H  4.86200 44.86200 32.23000

