158

Mg -1.60500 17.78300 27.48400
C  -1.84900 15.75400 30.33000
C  -1.93600 20.53800 29.64900
C  -1.95100 19.79200 24.81100
C  -1.71700 14.89100 25.50200
N  -1.78000 18.14100 29.79800
C  -1.80400 17.09000 30.67100
C  -1.93000 17.70700 32.07900
C  -1.95100 19.26000 31.85000
C  -1.77000 19.33900 30.32600
C  -3.19700 19.89600 32.51500
C  -0.85400 17.21100 33.12300
C  -0.17600 18.20500 34.07800
H  0.05700 17.66900 35.53600
N  -1.86800 19.87100 27.24800
C  -1.97200 20.82700 28.24900
C  -1.98000 22.12700 27.59300
C  -2.18100 21.93800 26.14900
C  -1.99400 20.45500 26.05800
C  -2.02200 23.45300 28.34800
C  -2.41500 22.93500 24.99000
O  -2.51000 22.58000 23.78500
C  -2.35100 24.46400 25.33200
N  -1.69600 17.40100 25.44400
C  -1.89500 18.36500 24.57400
C  -1.77600 17.76600 23.13800
C  -1.61100 16.23600 23.34700
C  -1.75100 16.14800 24.91500
C  -2.89400 18.21100 22.11400
C  -0.39500 15.55200 22.58700
C  0.99700 16.23100 22.84600
N  -1.84200 15.76800 27.83800
C  -1.84600 14.68200 26.94000
C  -2.00400 13.43700 27.61200
C  -2.01300 13.78900 28.96100
C  -1.83200 15.22000 29.02200
C  -2.04900 12.05600 27.02000
C  -2.26500 13.35700 30.39300
O  -2.44100 12.26600 30.84900
C  -1.91900 14.55500 31.26700
C  -0.61300 14.20100 31.95200
O  0.42000 13.87000 31.42900
O  -0.84100 14.02700 33.31200
C  0.27900 13.45700 34.13600
H  -1.95300 21.39900 30.32000
H  -2.07100 20.31100 23.85700
H  -1.65000 14.08200 24.77200
H  -2.83400 17.26500 32.49800
H  -1.07500 19.75100 32.27300
H  -3.73600 20.36700 31.69300
H  -2.78200 20.55300 33.27900
H  -3.77700 19.12400 33.02300
H  -0.03200 16.69100 32.63100
H  -1.22300 16.44300 33.80300
H  -0.71200 19.15300 34.13400
H  0.84800 18.28900 33.71400
H  -1.61400 23.28300 29.34400
H  -3.03800 23.84000 28.42900
H  -1.39800 24.18000 27.82800
H  -2.57000 25.06400 24.44800
H  -1.34400 24.68300 25.68800
H  -3.08600 24.86400 26.03000
H  -0.84100 18.21800 22.80800
H  -2.54900 15.86200 22.93800
H  -2.38800 18.68800 21.27400
H  -3.67000 18.82200 22.57400
H  -3.49800 17.43300 21.64600
H  -0.63500 15.77400 21.54700
H  -0.47500 14.46900 22.68500
H  0.89000 17.21600 23.30000
H  1.63700 16.21700 21.96300
H  1.50400 15.60900 23.58400
H  -1.16400 12.07200 26.38400
H  -2.98000 11.95100 26.46200
H  -1.77000 11.30500 27.75800
H  -2.60200 14.69900 32.10400
H  1.26400 13.69900 33.73700
H  0.05400 12.39000 34.15600
H  0.23700 13.81200 35.16600
Mg 6.53500 53.99400 41.24400
C  5.92100 50.58200 40.83100
C  9.71400 53.40100 39.79100
C  6.87300 57.24700 40.74400
C  3.16000 54.49300 42.12200
N  7.69300 52.21200 40.35300
C  7.30000 50.90900 40.44800
C  8.43200 49.90300 40.14200
C  9.67800 50.83900 40.06700
C  8.97400 52.20500 39.99000
C  10.59800 50.68600 41.32800
C  8.31800 48.91100 38.90900
C  8.01900 49.65300 37.59500
H  7.37200 48.93600 36.44900
N  8.06200 55.14400 40.31500
C  9.26600 54.74900 39.86400
C  10.09500 55.88200 39.58300
C  9.32500 57.02500 39.87800
C  8.03500 56.51500 40.39200
C  11.46200 55.75400 39.01000
C  9.72900 58.49400 39.56600
O  10.83500 58.71900 39.06900
C  8.82800 59.67600 39.84800
N  5.09900 55.59300 41.11500
C  5.57000 56.87500 41.09400
C  4.45100 57.95800 41.28100
C  3.32300 57.04100 41.85200
C  3.86600 55.62300 41.69600
C  4.87700 59.09600 42.20400
C  1.92800 57.20000 41.24200
C  1.32600 58.61100 41.39000
N  4.89200 52.75200 41.55100
C  3.60500 53.11600 41.94700
C  2.76600 51.91500 41.95200
C  3.62400 50.89600 41.53600
C  4.93200 51.45300 41.27900
C  1.33600 51.79300 42.32300
C  3.66400 49.47100 41.21200
O  2.82900 48.59000 41.27800
C  5.19900 49.19200 40.82500
C  5.14300 48.45800 39.57100
O  4.73300 48.84600 38.46600
O  5.45600 47.06200 39.86100
C  5.02200 46.10600 38.85200
H  10.78000 53.18000 39.70300
H  7.08700 58.31100 40.86100
H  2.14100 54.66700 42.47200
H  8.43600 49.20200 40.97600
H  10.21800 50.65400 39.13900
H  11.51100 50.19500 40.99000
H  10.10900 50.07200 42.08300
H  10.86100 51.70400 41.61700
H  7.49900 48.23100 39.14500
H  9.22300 48.30600 38.87600
H  8.93800 50.11500 37.23300
H  7.42800 50.52000 37.88900
H  11.81100 54.76300 38.72000
H  12.15000 56.09200 39.78400
H  11.40700 56.44200 38.16600
H  7.93200 59.38600 39.29800
H  9.27600 60.51200 39.31000
H  8.80200 59.88300 40.91800
H  4.11300 58.35100 40.32200
H  3.11400 57.03300 42.92200
H  5.76600 58.87800 42.79600
H  4.12700 59.29500 42.96900
H  5.08100 59.96100 41.57300
H  1.18000 56.59600 41.75600
H  2.00600 56.87800 40.20400
H  0.44900 58.65100 42.03500
H  1.08800 58.92800 40.37400
H  2.03000 59.35300 41.76700
H  0.96500 52.76400 42.65300
H  1.10900 51.13900 43.16400
H  0.74200 51.59800 41.43000
H  5.60100 48.53700 41.59800
H  5.31300 45.11300 39.19500
H  5.64400 46.37500 37.99900
H  3.96200 46.27200 38.66300

