158

Mg 24.42700 -4.93000 45.89500
C  26.88500 -2.62900 44.57600
C  22.34300 -3.86200 43.37800
C  22.45300 -7.59300 46.48300
C  27.07300 -6.26800 47.76900
N  24.73300 -3.55300 44.04600
C  25.75200 -2.68400 43.83000
C  25.45400 -1.87700 42.55900
C  23.96000 -2.00100 42.45300
C  23.63900 -3.21000 43.34300
C  23.14200 -0.81400 42.93400
C  26.15200 -2.41500 41.26700
C  26.44300 -1.31600 40.14800
H  25.80100 -1.48700 38.84400
N  22.56300 -5.51200 45.28100
C  21.88300 -4.89900 44.20200
C  20.58800 -5.48700 44.13400
C  20.58000 -6.71500 44.82900
C  21.85400 -6.61200 45.65000
C  19.43100 -4.90600 43.27100
C  19.57600 -7.82100 44.71300
O  18.56900 -7.67700 44.06900
C  19.75600 -9.22200 45.36200
N  24.82700 -6.77300 46.76100
C  23.76100 -7.66400 47.03700
C  24.25600 -8.94200 47.75500
C  25.66300 -8.37100 48.24300
C  25.89800 -6.99600 47.60000
C  23.25300 -9.48200 48.85000
C  26.77300 -9.42900 48.17100
C  27.94700 -9.32700 47.29000
N  26.56400 -4.52200 46.20600
C  27.50900 -5.21400 46.94700
C  28.82600 -4.58800 46.82400
C  28.56700 -3.48300 45.99600
C  27.21500 -3.58700 45.52100
C  30.04100 -5.00300 47.59400
C  29.14400 -2.39700 45.32200
O  30.29900 -2.04400 45.44600
C  28.14600 -1.91700 44.22900
C  28.16600 -0.44100 44.25200
O  27.46700 0.32800 44.86100
O  29.16600 -0.08900 43.38700
C  29.42300 1.34900 43.24200
H  21.55700 -3.57900 42.67400
H  21.85000 -8.47200 46.71700
H  27.77200 -6.57800 48.54900
H  25.77400 -0.84600 42.71000
H  23.66800 -2.21500 41.42500
H  22.43600 -0.27300 42.30400
H  23.70800 -0.02900 43.43600
H  22.55100 -1.16600 43.78000
H  25.61200 -3.31100 40.96400
H  27.13400 -2.78800 41.56000
H  27.53000 -1.31700 40.06600
H  26.04700 -0.36900 40.51400
H  18.44100 -5.24400 43.57800
H  19.54400 -5.25000 42.24300
H  19.45600 -3.81700 43.28300
H  19.79200 -9.01500 46.43100
H  20.65900 -9.61800 44.89800
H  18.91500 -9.85600 45.08300
H  24.51600 -9.64400 46.96200
H  25.46500 -8.23100 49.30500
H  22.25900 -9.05000 48.96000
H  23.74100 -9.36400 49.81700
H  23.03500 -10.53600 48.68000
H  26.35100 -10.39100 47.88000
H  27.26100 -9.59100 49.13200
H  27.63600 -8.91500 46.33000
H  28.43500 -10.28500 47.11400
H  28.67000 -8.65900 47.75900
H  30.69100 -5.25600 46.75600
H  29.83900 -5.88300 48.20500
H  30.32800 -4.11700 48.16000
H  28.50800 -2.21500 43.24500
H  29.03500 1.62100 42.26000
H  30.51000 1.41400 43.30100
H  29.05800 1.96400 44.06400
Mg -0.13800 44.30600 26.41900
C  2.25500 44.38500 29.10400
C  -2.50400 43.33000 28.73200
C  -2.07900 43.13900 23.88300
C  2.44700 44.74300 24.20100
N  -0.07900 43.87800 28.69700
C  0.98300 44.07400 29.55000
C  0.44800 44.03100 30.96400
C  -0.99200 43.39200 30.83800
C  -1.23200 43.60000 29.31600
C  -1.04800 41.87500 31.27300
C  0.47200 45.36400 31.80600
C  1.02200 45.10400 33.26800
H  0.52200 43.88000 34.07900
N  -2.09300 43.59600 26.30700
C  -2.87800 43.22900 27.35400
C  -4.20800 42.87200 26.83600
C  -4.11700 42.84000 25.42900
C  -2.75200 43.22700 25.14500
C  -5.41000 42.50400 27.69800
C  -5.15100 42.34700 24.35000
O  -4.86400 42.27700 23.18100
C  -6.57700 42.01700 24.77500
N  0.07300 43.91800 24.37800
C  -0.79600 43.41200 23.55700
C  -0.13900 43.11300 22.17100
C  1.06200 44.12700 22.13800
C  1.22400 44.29000 23.66500
C  0.27000 41.61100 21.96800
C  0.82600 45.40800 21.34300
C  1.70300 45.73000 20.11400
N  1.93400 44.50100 26.55200
C  2.84700 44.69200 25.54700
C  4.22200 44.90300 26.10300
C  3.95700 44.75300 27.48700
C  2.59600 44.52300 27.75300
C  5.49200 45.16400 25.36600
C  4.69400 44.76000 28.81900
O  5.88700 44.84700 29.07100
C  3.54800 44.54200 29.86000
C  4.01900 43.26200 30.60900
O  4.49600 42.27800 30.15600
O  3.84300 43.49600 31.95800
C  4.09800 42.30000 32.85700
H  -3.18600 42.99700 29.51800
H  -2.62400 42.83800 22.98600
H  3.16400 44.98100 23.41200
H  1.09600 43.31100 31.46400
H  -1.74800 43.94300 31.39700
H  -0.11400 41.55300 31.73200
H  -1.45300 41.29200 30.44600
H  -1.86300 41.84400 31.99600
H  -0.54000 45.75700 31.90000
H  1.00800 46.20600 31.36700
H  0.76300 46.02500 33.78900
H  2.10300 45.24600 33.25800
H  -6.24800 43.20100 27.69100
H  -5.15200 42.34800 28.74500
H  -5.87900 41.60300 27.30100
H  -7.17600 41.87000 23.87600
H  -7.03900 42.72700 25.46100
H  -6.42800 41.03700 25.22700
H  -0.88500 43.30800 21.40100
H  1.94700 43.62700 21.74300
H  0.08900 40.93800 22.80700
H  1.32300 41.47100 21.72200
H  -0.39900 41.20000 21.21300
H  0.87700 46.31900 21.93900
H  -0.18800 45.37700 20.94400
H  1.01500 45.61200 19.27700
H  2.59200 45.10000 20.11900
H  2.15500 46.71800 20.02400
H  5.37800 46.06800 24.76800
H  5.82400 44.28400 24.81600
H  6.23700 45.28200 26.15400
H  3.52100 45.30800 30.63400
H  3.49100 41.42600 32.62100
H  3.75700 42.51400 33.87000
H  5.18700 42.27500 32.88900

