158

Mg 41.57600 41.37000 26.53100
C  40.80800 43.81800 28.93000
C  42.98900 39.38700 28.98500
C  42.37600 39.00100 24.23900
C  40.47600 43.48600 24.13400
N  41.84400 41.54100 28.83800
C  41.42300 42.70300 29.59100
C  41.76700 42.38400 31.01600
C  42.65300 41.07100 30.94700
C  42.51600 40.58400 29.48700
C  44.10700 41.40700 31.36500
C  40.45100 42.11600 31.89100
C  40.74300 41.66700 33.38100
H  39.75400 42.22300 34.51100
N  42.48600 39.39400 26.62500
C  42.99200 38.82300 27.69000
C  43.72300 37.65700 27.28100
C  43.26200 37.34000 25.97200
C  42.71700 38.61400 25.55300
C  44.51400 36.76600 28.35800
C  43.20000 36.02200 25.13300
O  42.68200 35.90800 24.06300
C  43.72600 34.75400 25.70300
N  41.46100 41.26800 24.49900
C  41.85400 40.21700 23.71100
C  41.52200 40.37700 22.20000
C  40.83800 41.80800 22.14500
C  40.88000 42.17600 23.72400
C  42.83800 40.06100 21.36900
C  39.40800 41.77800 21.54000
C  38.40800 40.97400 22.44800
N  40.85100 43.23400 26.47400
C  40.51100 44.04600 25.44000
C  40.00300 45.35700 25.88500
C  40.08900 45.25000 27.28000
C  40.60300 43.98500 27.59100
C  39.45500 46.52500 25.02600
C  39.88800 45.99400 28.54900
O  39.43400 47.13100 28.72200
C  40.29200 45.03600 29.64800
C  41.21900 45.73100 30.58500
O  42.37400 46.01400 30.38500
O  40.52400 45.99000 31.78000
C  41.30000 46.70500 32.79300
H  43.63900 38.94300 29.74200
H  42.53400 38.31700 23.40200
H  40.26700 44.13100 23.27900
H  42.34700 43.23500 31.37400
H  42.29600 40.33400 31.66700
H  44.60300 40.44300 31.25100
H  44.15500 41.66900 32.42200
H  44.66900 42.04700 30.68500
H  39.98000 41.33400 31.29500
H  39.83100 43.01200 31.87700
H  41.77800 41.87200 33.65100
H  40.70300 40.58300 33.48000
H  44.75900 37.31800 29.26600
H  45.37000 36.16200 28.05600
H  43.72200 36.08300 28.66400
H  44.78700 34.77700 25.45500
H  43.17100 33.88600 25.34700
H  43.61100 34.69400 26.78500
H  40.81400 39.62100 21.85900
H  41.54100 42.37200 21.53300
H  43.76600 39.87500 21.91000
H  43.07300 40.82900 20.63200
H  42.56500 39.14400 20.84800
H  39.48300 41.15900 20.64600
H  39.02200 42.76300 21.27600
H  37.47300 41.49800 22.64600
H  38.76200 40.58700 23.40300
H  38.08300 40.05300 21.96500
H  38.95600 46.06600 24.17300
H  40.18500 47.20000 24.58000
H  38.77900 46.92400 25.78200
H  39.35100 44.83500 30.15900
H  42.16500 47.28900 32.48000
H  41.67100 45.99600 33.53300
H  40.69100 47.35500 33.42200
Mg 30.45200 57.92100 39.69200
C  27.95500 55.82800 38.62100
C  32.70500 55.31900 38.76600
C  32.88200 60.09800 40.09600
C  27.99600 60.39600 40.10700
N  30.38900 55.91500 38.42700
C  29.17600 55.30900 38.26600
C  29.33900 53.80700 37.89100
C  30.90300 53.59500 38.02400
C  31.36500 54.95700 38.44700
C  31.53900 52.44100 38.89100
C  28.78500 53.36700 36.47300
C  29.11800 54.24900 35.25000
H  27.83900 54.76900 34.53100
N  32.48900 57.73100 39.51200
C  33.21100 56.61100 39.11700
C  34.63200 56.94500 39.31200
C  34.69700 58.30900 39.65200
C  33.31900 58.73900 39.81800
C  35.73700 55.96100 39.10600
C  35.97300 59.02700 39.99900
O  37.05300 58.54000 39.65200
C  36.12000 60.32200 40.86400
N  30.46000 60.02000 39.87200
C  31.59500 60.69500 40.09200
C  31.34700 62.20100 40.31600
C  29.78400 62.25900 40.46500
C  29.36700 60.78000 40.25600
C  32.12700 62.87100 41.49800
C  29.21700 63.12100 39.38900
C  28.19700 64.27700 39.81500
N  28.39300 58.09500 39.48700
C  27.55400 59.19400 39.70400
C  26.19500 58.74600 39.48700
C  26.31700 57.43000 39.04800
C  27.65200 57.10100 39.12500
C  24.91500 59.47000 39.65100
C  25.54600 56.31500 38.71000
O  24.35800 56.13000 38.70900
C  26.61500 55.23400 38.33700
C  26.29900 54.02600 39.20100
O  26.74500 53.72400 40.32900
O  25.36400 53.29000 38.55400
C  24.62100 52.26100 39.38000
H  33.47500 54.55200 38.65800
H  33.59000 60.82400 40.49900
H  27.20500 61.10300 40.36600
H  29.02500 53.14100 38.69500
H  31.33500 53.54800 37.02500
H  30.77500 51.67500 39.02000
H  31.88300 52.82500 39.85200
H  32.34500 52.00200 38.30200
H  27.70100 53.25600 36.51400
H  29.06000 52.32200 36.33200
H  29.64200 53.63200 34.52100
H  29.70700 55.11500 35.55200
H  36.24200 56.08400 38.14800
H  35.43300 54.92000 39.21800
H  36.48500 56.14000 39.87900
H  35.49000 60.11400 41.72900
H  35.79400 61.09200 40.16500
H  37.13300 60.50300 41.22200
H  31.77300 62.66700 39.42700
H  29.47000 62.54300 41.46900
H  32.67500 62.16700 42.12400
H  31.34700 63.48500 41.94800
H  32.83900 63.61200 41.13600
H  28.63800 62.50800 38.69700
H  29.96600 63.59700 38.75600
H  27.13900 64.21200 39.56000
H  28.49300 65.14600 39.22700
H  28.19400 64.44600 40.89100
H  24.84100 60.55000 39.52300
H  24.51700 59.32200 40.65500
H  24.16200 59.07100 38.97000
H  26.48900 54.92700 37.29900
H  25.34000 51.44300 39.32300
H  23.84100 51.91400 38.70200
H  24.30200 52.61300 40.36100

