158

Mg 17.27100 -1.89500 27.69100
C  16.18400 0.22600 30.29000
C  19.19200 -3.58600 29.95300
C  18.71400 -3.51900 25.05300
C  15.47100 0.15700 25.42900
N  17.68600 -1.64000 29.87600
C  17.03600 -0.79000 30.75500
C  17.36300 -1.05100 32.22100
C  18.45400 -2.22400 32.16000
C  18.44100 -2.54100 30.60000
C  19.94200 -1.97000 32.72600
C  16.22100 -1.39600 33.15500
C  16.20100 -0.57100 34.43500
H  17.53900 -0.44800 35.15700
N  18.77700 -3.35600 27.58600
C  19.41000 -3.93600 28.61900
C  20.24600 -5.04800 28.14000
C  20.12400 -4.97300 26.67100
C  19.24800 -3.88900 26.35000
C  21.19900 -5.90700 29.03500
C  20.90600 -5.85400 25.65000
O  20.74800 -5.62900 24.44600
C  21.93700 -6.92200 26.05700
N  17.29100 -1.59800 25.58500
C  17.88000 -2.41200 24.71000
C  17.46900 -2.13600 23.24400
C  16.18800 -1.18000 23.42400
C  16.29900 -0.87400 24.95600
C  18.70500 -1.55700 22.47600
C  14.81100 -1.84200 22.99800
C  13.94600 -2.55500 24.02100
N  16.02000 -0.17400 27.74400
C  15.34000 0.53500 26.74200
C  14.50100 1.52500 27.32600
C  14.85900 1.54400 28.71500
C  15.78400 0.40900 28.89000
C  13.39500 2.29200 26.70100
C  14.68400 2.13400 30.06700
O  13.96900 3.11700 30.28500
C  15.53700 1.35500 31.09000
C  16.38200 2.26100 31.89600
O  17.61900 2.31900 31.91000
O  15.58600 2.82100 32.86800
C  16.29400 3.49600 33.93500
H  19.72500 -4.28500 30.60100
H  19.06400 -4.14900 24.23200
H  14.75200 0.75000 24.86000
H  17.83400 -0.12400 32.54900
H  18.21700 -3.15700 32.66900
H  20.70000 -2.00100 31.94300
H  20.29500 -2.67500 33.47900
H  20.04300 -0.96200 33.12600
H  16.26100 -2.44500 33.44900
H  15.34300 -1.11500 32.57200
H  15.53600 -0.99900 35.18500
H  15.92300 0.42900 34.10200
H  20.84800 -6.93200 28.91000
H  21.21700 -5.73500 30.11100
H  22.23100 -5.82700 28.69300
H  22.22500 -7.63400 25.28400
H  21.48100 -7.49300 26.86700
H  22.80300 -6.41900 26.48600
H  17.25100 -3.13300 22.86100
H  16.35400 -0.19100 22.99700
H  18.31000 -0.73700 21.87700
H  19.17900 -2.25300 21.78500
H  19.44700 -1.20400 23.19200
H  14.79600 -2.49200 22.12300
H  14.35300 -1.00200 22.47600
H  14.43200 -2.77300 24.97100
H  13.58900 -3.50000 23.61300
H  13.06900 -1.96800 24.29500
H  13.73900 3.25900 26.33300
H  12.52300 2.31600 27.35400
H  12.97200 1.67200 25.91100
H  14.74000 0.95500 31.71700
H  17.08100 4.12300 33.51800
H  16.71400 2.83700 34.69500
H  15.67300 4.21300 34.47200
Mg -11.87700 16.58600 41.36400
C  -8.70100 15.34600 40.90900
C  -10.89300 19.57000 40.16700
C  -15.25900 17.50400 41.14300
C  -12.96000 13.34300 42.13800
N  -9.93600 17.33100 40.48500
C  -8.78500 16.72600 40.55200
C  -7.59700 17.57900 40.01300
C  -8.25600 19.02900 40.05300
C  -9.83100 18.66400 40.26800
C  -7.72000 20.04300 41.11900
C  -7.07000 17.18000 38.64100
C  -5.61900 17.49800 38.42000
H  -5.10200 18.35800 37.27900
N  -12.94400 18.21400 40.73200
C  -12.34200 19.41800 40.32900
C  -13.36500 20.42300 40.10400
C  -14.63400 19.82900 40.26000
C  -14.34200 18.45400 40.72500
C  -13.02900 21.75500 39.63700
C  -16.02000 20.48300 40.04500
O  -16.02300 21.69200 39.77300
C  -17.29000 19.79200 40.24400
N  -13.82700 15.60100 41.66100
C  -15.02200 16.18500 41.60700
C  -16.14600 15.27800 42.03300
C  -15.43200 13.90800 42.19900
C  -13.94800 14.27500 42.01400
C  -17.01700 15.78200 43.20600
C  -15.86300 12.78300 41.24800
C  -16.56400 11.64600 41.97900
N  -11.01600 14.69700 41.67000
C  -11.59500 13.46700 41.92000
C  -10.49900 12.51700 41.96500
C  -9.35000 13.25600 41.58500
C  -9.75400 14.51500 41.34400
C  -10.66800 11.11300 42.26500
C  -7.97700 13.05000 41.35700
O  -7.24900 12.10600 41.52600
C  -7.43500 14.46700 40.99600
C  -6.45300 14.87700 42.07100
O  -6.70300 15.52300 43.10800
O  -5.18900 14.58800 41.67800
C  -4.14600 15.22700 42.47300
H  -10.60400 20.62000 40.09300
H  -16.33500 17.65800 41.24900
H  -13.24000 12.34200 42.47200
H  -6.82800 17.62200 40.78400
H  -8.15800 19.58500 39.12100
H  -6.99600 20.59500 40.52000
H  -7.23600 19.51000 41.93700
H  -8.44600 20.78200 41.45700
H  -7.67900 17.64900 37.86800
H  -7.25900 16.11200 38.53400
H  -5.09800 16.54000 38.39900
H  -5.24300 17.86300 39.37600
H  -13.72900 22.55400 39.88300
H  -12.92000 21.82600 38.55500
H  -12.14500 22.08700 40.18100
H  -18.07500 20.48300 39.93800
H  -17.53000 19.56300 41.28200
H  -17.39700 18.99100 39.51200
H  -16.69100 15.29600 41.08900
H  -15.48100 13.53100 43.22100
H  -17.09100 16.86200 43.33600
H  -16.74100 15.36200 44.17300
H  -18.06000 15.55800 42.98200
H  -14.94300 12.43900 40.77400
H  -16.63600 13.19200 40.59700
H  -16.44900 11.54800 43.05900
H  -16.27200 10.74600 41.43800
H  -17.64600 11.65000 41.84200
H  -9.70300 10.65800 42.03800
H  -11.47800 10.84100 41.58900
H  -11.06400 10.92100 43.26200
H  -6.99500 14.28800 40.01500
H  -3.19300 15.00200 41.99400
H  -4.05500 14.86500 43.49700
H  -4.34100 16.28600 42.64600

