158

Mg -2.53600 18.09100 26.23100
C  -2.87300 15.92900 28.88100
C  -3.32100 20.68400 28.28500
C  -2.73200 20.16500 23.53500
C  -2.35100 15.27600 24.03300
N  -3.12400 18.28000 28.36200
C  -3.17100 17.20700 29.29300
C  -3.43300 17.71200 30.75900
C  -3.45300 19.29600 30.46800
C  -3.33800 19.47400 28.92100
C  -4.72400 20.00000 31.01400
C  -2.40100 17.21800 31.75000
C  -2.29700 17.82700 33.16300
H  -2.13000 16.90100 34.40500
N  -2.85500 20.19900 25.90500
C  -3.12900 21.02700 26.92900
C  -3.21600 22.35800 26.35600
C  -3.39900 22.19600 24.95900
C  -2.94700 20.81300 24.71900
C  -3.36000 23.56900 27.23300
C  -3.73600 23.22400 23.96600
O  -3.73900 22.88000 22.80700
C  -4.08000 24.64300 24.27600
N  -2.41400 17.76600 24.07400
C  -2.42200 18.80400 23.19200
C  -2.54400 18.36000 21.74000
C  -2.47000 16.77300 21.89300
C  -2.45900 16.55700 23.44100
C  -3.73200 18.91900 20.92500
C  -1.30200 16.20700 21.03300
C  -1.71400 15.82700 19.64100
N  -2.48600 16.07400 26.36600
C  -2.36800 15.08600 25.40600
C  -2.12400 13.81700 26.13100
C  -2.42600 14.09000 27.50900
C  -2.57900 15.45100 27.55600
C  -1.83300 12.45300 25.48800
C  -2.60300 13.52200 28.80600
O  -2.63300 12.37500 29.15200
C  -2.70900 14.68700 29.78100
C  -1.39300 14.65500 30.45500
O  -0.34000 15.14400 30.00200
O  -1.48900 14.03600 31.62900
C  -0.24000 13.71000 32.34500
H  -3.49100 21.45300 29.04100
H  -2.76100 20.77100 22.62700
H  -2.28100 14.39900 23.38600
H  -4.43300 17.42200 31.08200
H  -2.58200 19.77100 30.91800
H  -5.38000 19.29800 31.52900
H  -5.40000 20.38100 30.24900
H  -4.33200 20.74400 31.70800
H  -1.39100 17.18000 31.34000
H  -2.81100 16.26100 32.07200
H  -3.16200 18.47500 33.30700
H  -1.43100 18.49000 33.16800
H  -4.39400 23.72900 27.54000
H  -3.00900 24.49100 26.76900
H  -2.68300 23.44600 28.07800
H  -4.20400 25.13600 23.31200
H  -3.17700 25.13800 24.63400
H  -4.92000 24.91500 24.91500
H  -1.60400 18.61000 21.24900
H  -3.45800 16.51100 21.51400
H  -3.30000 19.33100 20.01300
H  -4.26300 19.65400 21.52900
H  -4.43800 18.15400 20.60000
H  -1.04200 15.30400 21.58500
H  -0.50500 16.94700 20.96400
H  -1.28800 14.84400 19.43900
H  -1.16600 16.48500 18.96600
H  -2.78200 15.88000 19.43000
H  -1.08800 12.62900 24.71200
H  -2.72900 11.93800 25.14200
H  -1.41400 11.91700 26.34100
H  -3.55800 14.51100 30.44200
H  -0.40100 12.63200 32.36800
H  -0.28200 14.24100 33.29600
H  0.70700 13.83600 31.82100
Mg 17.08700 51.84200 26.34500
C  18.62900 50.14600 29.04300
C  14.73200 53.14900 28.52300
C  15.63200 53.28500 23.84100
C  19.22900 49.98400 24.14400
N  16.75100 51.55700 28.49200
C  17.50700 50.94000 29.42600
C  16.95600 51.26400 30.93700
C  15.60700 51.97700 30.62700
C  15.69000 52.28300 29.08500
C  14.28500 51.23600 31.13700
C  17.95600 52.27100 31.70500
C  18.08500 51.93500 33.26700
H  17.10000 51.09000 34.13700
N  15.33800 53.08700 26.19900
C  14.57700 53.57100 27.20700
C  13.70200 54.61300 26.66700
C  13.98300 54.71600 25.23300
C  14.96300 53.64300 25.00500
C  12.74600 55.34700 27.50400
C  13.45000 55.63200 24.16900
O  13.89600 55.55600 22.99000
C  12.45100 56.68900 24.56500
N  17.32900 51.54400 24.27800
C  16.61500 52.33800 23.44100
C  17.04500 52.15200 21.94000
C  18.18200 51.13200 22.09800
C  18.23300 50.81700 23.56000
C  15.89900 51.63100 21.00500
C  19.52200 51.54000 21.52200
C  20.32200 52.61100 22.19600
N  18.67800 50.43400 26.46500
C  19.43000 49.75500 25.52000
C  20.44700 49.06500 26.23900
C  20.13200 49.15900 27.63700
C  19.01200 49.93600 27.67700
C  21.62300 48.33400 25.66000
C  20.60100 48.77200 28.98000
O  21.63500 48.26100 29.40800
C  19.57700 49.42700 29.99000
C  18.96700 48.41700 30.83600
O  18.10900 47.59800 30.56600
O  19.59600 48.33400 32.12000
C  19.11800 47.33200 33.07700
H  14.12500 53.62000 29.30000
H  15.29200 53.75700 22.91700
H  19.85100 49.43900 23.43100
H  16.74200 50.32000 31.43700
H  15.61100 52.92500 31.16500
H  13.64600 51.29400 30.25600
H  13.72100 51.95000 31.73700
H  14.28400 50.26600 31.63600
H  17.65300 53.31000 31.57700
H  18.91200 51.90000 31.33400
H  18.14900 52.92000 33.72700
H  19.04400 51.44400 33.43400
H  13.05600 56.33700 27.83700
H  12.57200 54.94600 28.50200
H  11.76700 55.48300 27.04400
H  11.50700 56.20600 24.81600
H  12.36700 57.40500 23.74800
H  12.84800 57.18700 25.45000
H  17.45600 53.12500 21.66700
H  17.99300 50.18700 21.58700
H  16.03400 52.34600 20.19300
H  14.94300 51.62100 21.52900
H  16.17500 50.63800 20.65000
H  19.15700 51.99100 20.59900
H  20.02700 50.62200 21.22200
H  21.32700 52.21700 22.34600
H  19.99300 53.00200 23.15900
H  20.24500 53.39900 21.44700
H  21.25900 47.70400 24.84900
H  22.21400 47.73100 26.35000
H  22.28200 49.09100 25.23400
H  20.14700 50.13300 30.59500
H  19.37600 47.67500 34.07900
H  19.59600 46.35300 33.02700
H  18.03800 47.20700 33.00300

