158

Mg 2.34600 -0.44300 43.23600
C  5.71100 0.30000 42.82300
C  1.53200 2.49400 41.67600
C  -0.86700 -1.45500 43.24200
C  3.32200 -3.65000 44.37200
N  3.61000 1.16300 42.31600
C  4.95300 1.23800 42.16500
C  5.40100 2.60800 41.64500
C  4.02200 3.33600 41.42300
C  2.90400 2.30700 41.90200
C  3.86800 4.77100 42.06800
C  6.26000 2.46300 40.40000
C  5.84400 1.36300 39.32000
H  5.59000 1.91900 37.93200
N  0.55200 0.39500 42.51000
C  0.46400 1.64300 41.98500
C  -1.00000 1.90600 41.69400
C  -1.72400 0.80400 42.11700
C  -0.70200 -0.15500 42.67600
C  -1.43100 3.23700 41.07700
C  -3.28700 0.75200 42.02400
O  -3.96900 1.70400 41.52900
C  -4.09100 -0.42100 42.47300
N  1.42300 -2.32700 43.59400
C  0.05100 -2.38500 43.69200
C  -0.41900 -3.82100 44.23800
C  0.89500 -4.62200 44.34000
C  1.94500 -3.44200 44.10600
C  -1.44400 -3.82100 45.43000
C  1.17600 -5.88800 43.42400
C  1.50500 -7.22300 44.15700
N  4.15100 -1.47600 43.70200
C  4.38600 -2.72400 44.15600
C  5.75000 -2.97000 44.33900
C  6.37800 -1.76000 43.86600
C  5.32600 -0.91100 43.48600
C  6.46700 -4.21500 44.77300
C  7.66500 -1.00600 43.65400
O  8.85000 -1.33300 43.80600
C  7.21000 0.32500 42.97600
C  7.80500 1.47100 43.76400
O  8.88600 2.01700 43.55500
O  6.94300 1.73700 44.79700
C  7.39600 2.87000 45.60000
H  1.36600 3.49400 41.27000
H  -1.89900 -1.71900 43.48000
H  3.66100 -4.64100 44.68100
H  5.80800 3.08000 42.53900
H  3.85000 3.49500 40.35800
H  2.91000 4.87400 42.57700
H  3.93500 5.49000 41.25200
H  4.73500 4.92000 42.71300
H  7.29500 2.22500 40.64400
H  6.26000 3.50000 40.06400
H  4.97000 0.80500 39.65400
H  6.68000 0.66300 39.33100
H  -1.34700 3.21800 39.99000
H  -0.72000 3.99300 41.41100
H  -2.47500 3.49500 41.25900
H  -4.01300 -0.53700 43.55400
H  -3.75700 -1.33300 41.97900
H  -5.07700 -0.34900 42.01400
H  -1.01000 -4.21300 43.41000
H  0.98300 -4.86700 45.39800
H  -2.42300 -4.10600 45.04700
H  -1.41300 -2.80800 45.83300
H  -1.09900 -4.60700 46.10100
H  2.02500 -5.55100 42.83100
H  0.32800 -6.11800 42.77800
H  0.70300 -7.95700 44.07000
H  1.69800 -6.97100 45.20000
H  2.50900 -7.49200 43.82900
H  6.53900 -4.94500 43.96700
H  6.00100 -4.71900 45.62000
H  7.47300 -3.90000 45.04700
H  7.67300 0.44400 41.99600
H  7.20600 3.77800 45.02800
H  8.43700 2.66800 45.85300
H  6.84500 2.97900 46.53500
Mg 47.23300 44.85300 44.06800
C  43.92400 44.72600 43.26200
C  47.65100 41.55200 43.00000
C  50.60000 45.37500 44.20600
C  46.77000 48.21800 45.02300
N  45.97700 43.39300 43.20500
C  44.64100 43.49100 42.98900
C  44.01100 42.19300 42.36200
C  45.18700 41.13100 42.65200
C  46.36200 42.06900 42.94500
C  44.87500 40.18100 43.81500
C  43.71600 42.37400 40.82500
C  42.32400 42.01500 40.29900
H  42.40200 41.12000 39.12700
N  48.87100 43.68000 43.74600
C  48.82400 42.30000 43.29000
C  50.18200 41.86500 43.06600
C  51.08500 42.90500 43.57200
C  50.20100 44.04500 43.84000
C  50.54200 40.58100 42.46900
C  52.60800 42.81300 43.73200
O  53.25500 41.70500 43.55000
C  53.35400 43.81300 44.51500
N  48.53900 46.58800 44.42800
C  49.89600 46.47000 44.49500
C  50.49100 47.76800 44.95900
C  49.27100 48.60600 45.37800
C  48.10100 47.76400 44.98800
C  51.59200 47.56700 46.08600
C  49.17600 50.08700 44.93400
C  48.53100 51.06600 45.91400
N  45.67400 46.21700 44.12200
C  45.62500 47.48900 44.60300
C  44.32000 48.03900 44.65700
C  43.57900 46.96300 44.03300
C  44.48500 45.86600 43.77600
C  43.84000 49.34300 45.01400
C  42.31000 46.57400 43.49600
O  41.25400 47.21600 43.32800
C  42.45200 45.12500 42.89600
C  41.40100 44.17900 43.50200
O  40.57500 43.57300 42.85100
O  41.54400 44.06600 44.84800
C  40.97200 42.85600 45.47300
H  47.72400 40.49600 42.72900
H  51.67000 45.57200 44.30600
H  46.60100 49.18800 45.49600
H  43.17600 41.83200 42.96100
H  45.37000 40.46400 41.81000
H  43.81800 40.20400 44.08100
H  45.29700 40.48900 44.77200
H  45.13800 39.14700 43.59400
H  44.57700 41.98900 40.27800
H  43.83000 43.44000 40.63200
H  41.84200 42.94800 40.00500
H  41.84300 41.54400 41.15600
H  49.73300 39.85600 42.37700
H  51.25800 40.23800 43.21600
H  51.00400 40.61900 41.48300
H  54.26600 43.37500 44.92000
H  52.75600 43.94600 45.41700
H  53.51000 44.75900 43.99800
H  50.92900 48.21900 44.06900
H  49.29500 48.59000 46.46800
H  52.62600 47.72700 45.77700
H  51.46800 46.57000 46.50900
H  51.36300 48.03200 47.04400
H  48.70300 50.08600 43.95200
H  50.18400 50.38100 44.64400
H  49.20300 51.88700 46.16400
H  48.15400 50.52800 46.78400
H  47.69300 51.50500 45.37100
H  43.80900 49.50200 46.09200
H  42.83800 49.50700 44.61900
H  44.46600 50.07300 44.50000
H  42.28700 45.06000 41.82100
H  41.13700 41.94600 44.89600
H  39.91700 43.02300 45.69300
H  41.45900 42.67000 46.43000

