158

Mg 24.40400 -5.25600 45.61300
C  26.63500 -2.84700 44.18500
C  22.04900 -4.16200 43.50100
C  22.69100 -8.06600 46.29200
C  27.24300 -6.48200 47.36900
N  24.42600 -3.73300 44.01000
C  25.45600 -2.91100 43.49000
C  25.01700 -2.08400 42.34000
C  23.50700 -2.47700 42.18300
C  23.31200 -3.61000 43.20200
C  22.51500 -1.27000 42.42500
C  25.86800 -2.32800 41.01100
C  26.18300 -1.07800 40.23400
H  25.90700 -1.19000 38.69800
N  22.57500 -5.88100 45.11800
C  21.74000 -5.27200 44.27700
C  20.41700 -5.86900 44.39200
C  20.56400 -7.04300 45.14600
C  21.98400 -7.05400 45.56900
C  19.25200 -5.42200 43.53900
C  19.46800 -8.02700 45.40200
O  18.29900 -7.75700 45.08200
C  19.70600 -9.38000 45.98000
N  24.95300 -7.05400 46.65800
C  23.98900 -8.09900 46.79500
C  24.65900 -9.30500 47.53600
C  26.00500 -8.67400 48.07100
C  26.13500 -7.35800 47.26800
C  23.68100 -10.00600 48.58800
C  27.24800 -9.64900 48.18200
C  27.79600 -10.10500 49.51400
N  26.53000 -4.75700 45.83600
C  27.46000 -5.28000 46.71500
C  28.63100 -4.46100 46.67200
C  28.31800 -3.50300 45.74800
C  27.02700 -3.73500 45.23400
C  29.89500 -4.64100 47.35600
C  28.99100 -2.35100 45.00400
O  30.05700 -1.73900 45.08800
C  27.85200 -1.93100 44.01700
C  27.56500 -0.52100 44.41500
O  27.24600 -0.15100 45.49000
O  27.86000 0.31700 43.33800
C  27.95300 1.76700 43.69700
H  21.33000 -3.76400 42.78200
H  22.12200 -8.93400 46.63200
H  28.13200 -6.82400 47.90300
H  25.18100 -1.05300 42.65200
H  23.19700 -2.95700 41.25500
H  22.88100 -0.40000 41.88000
H  22.30800 -0.94700 43.44500
H  21.53100 -1.42900 41.98300
H  25.24700 -2.88700 40.31100
H  26.79900 -2.85200 41.22900
H  27.23300 -0.81200 40.35700
H  25.57900 -0.27900 40.66400
H  18.32800 -5.17100 44.06000
H  18.99700 -6.26200 42.89400
H  19.45000 -4.69000 42.75600
H  18.81000 -10.00000 45.96000
H  19.90100 -9.08900 47.01200
H  20.43800 -9.77700 45.27600
H  24.88700 -10.07300 46.79700
H  25.74800 -8.41300 49.09800
H  23.06100 -9.21600 49.01100
H  24.21100 -10.41700 49.44700
H  23.13700 -10.84400 48.15300
H  28.09500 -9.16900 47.69100
H  27.00400 -10.50600 47.55400
H  28.79500 -9.67500 49.59200
H  27.91900 -11.15800 49.77000
H  27.15500 -9.73900 50.31600
H  29.75400 -5.47500 48.04400
H  30.11600 -3.72100 47.89800
H  30.65800 -4.74600 46.58500
H  28.11800 -1.93300 42.96000
H  27.87300 2.26400 42.73000
H  28.96100 1.82200 44.10900
H  27.25200 2.14100 44.44300
Mg 5.76200 53.86400 41.26800
C  5.49800 50.44700 40.60200
C  8.99400 53.76700 40.24500
C  5.74900 57.14600 41.45600
C  2.32800 53.86800 42.05700
N  6.99400 52.32000 40.30500
C  6.72700 50.98900 40.18900
C  7.92300 50.31400 39.55300
C  9.11800 51.25700 39.89900
C  8.35000 52.52600 40.11000
C  10.11100 50.79300 40.98700
C  7.96500 49.94000 38.04200
C  7.18000 50.83800 37.05400
H  6.26400 50.12300 36.03200
N  7.13700 55.27000 40.63800
C  8.42400 55.00700 40.41100
C  9.15800 56.28200 40.21800
C  8.25500 57.27800 40.61500
C  6.96700 56.57900 40.91400
C  10.64700 56.36900 39.91200
C  8.55500 58.73400 40.73500
O  9.70200 59.11100 40.57600
C  7.52900 59.86100 41.21500
N  4.22700 55.25500 41.56000
C  4.55900 56.55200 41.79600
C  3.39200 57.29600 42.44200
C  2.24100 56.34700 42.03000
C  3.00300 55.05100 41.95600
C  3.54200 57.65700 43.93900
C  1.56200 56.62300 40.68300
C  -0.02100 56.84100 40.70000
N  4.22300 52.43600 41.44000
C  2.90400 52.60200 41.91500
C  2.29200 51.32100 41.93700
C  3.25500 50.44700 41.45100
C  4.38100 51.18000 41.11200
C  0.89400 50.92000 42.54600
C  3.52400 49.02200 41.22400
O  2.82600 48.04800 41.43700
C  4.98300 48.95800 40.75100
C  5.14700 47.96700 39.70400
O  4.67000 48.01700 38.61400
O  5.66600 46.80700 40.27000
C  5.60100 45.61200 39.38400
H  10.04700 53.59000 40.01700
H  5.75100 58.20200 41.73300
H  1.25300 53.90400 42.24000
H  7.93800 49.42600 40.18500
H  9.82900 51.46300 39.09900
H  9.70800 49.84100 41.33300
H  10.19300 51.38700 41.89700
H  11.07400 50.78100 40.47600
H  7.55600 48.92900 38.03000
H  8.96800 49.95500 37.61700
H  7.96800 51.22900 36.41000
H  6.76500 51.75700 37.46800
H  10.78100 57.21300 39.23500
H  11.02600 55.45400 39.45700
H  11.18600 56.53700 40.84400
H  6.87000 60.05800 40.36900
H  8.09800 60.75100 41.48400
H  7.01000 59.59700 42.13600
H  3.23100 58.26500 41.96800
H  1.46500 56.28500 42.79300
H  3.62500 58.73600 44.06900
H  4.51200 57.38100 44.35200
H  2.71200 57.19000 44.47000
H  1.58900 55.69400 40.11400
H  1.95200 57.49100 40.15200
H  -0.48900 55.87600 40.50700
H  -0.25300 57.46200 39.83500
H  -0.33300 57.37700 41.59700
H  0.51300 51.90300 42.82300
H  0.93800 50.14000 43.30600
H  0.21900 50.61800 41.74500
H  5.52000 48.54800 41.60600
H  6.10400 45.84200 38.44500
H  4.54400 45.40800 39.21200
H  6.15100 44.78900 39.84000

