158

Mg 47.76300 25.56400 28.41300
C  48.95000 27.78900 30.85400
C  46.63800 23.46500 30.82800
C  46.92900 23.50800 25.92600
C  49.63200 27.62900 26.01400
N  47.79500 25.64800 30.57300
C  48.34100 26.60000 31.38700
C  47.95000 26.28400 32.86100
C  47.44500 24.75700 32.80900
C  47.28300 24.57500 31.31100
C  48.38100 23.76500 33.46600
C  47.04100 27.42300 33.36500
C  47.69900 27.95400 34.74900
H  46.68400 28.29200 35.87600
N  46.75800 23.70500 28.36000
C  46.43400 23.01900 29.49800
C  45.84800 21.78700 29.05200
C  45.96800 21.74000 27.61600
C  46.59100 23.03800 27.22200
C  45.12800 20.81500 30.01700
C  45.66100 20.64400 26.62700
O  45.70500 20.78300 25.37900
C  45.09500 19.39900 27.10500
N  48.43300 25.50800 26.29500
C  47.77100 24.55400 25.51500
C  48.06300 24.83100 24.04800
C  48.85100 26.19500 24.01400
C  48.99200 26.49200 25.49500
C  48.87400 23.59100 23.29600
C  48.24600 27.38600 23.25100
C  49.24200 28.08200 22.30300
N  49.09800 27.29500 28.41700
C  49.72000 27.97600 27.39000
C  50.40600 29.14400 27.95300
C  50.12800 29.08600 29.32300
C  49.26900 28.00900 29.54300
C  51.31800 30.01700 27.24100
C  50.35300 29.70900 30.58500
O  51.08800 30.65400 30.81900
C  49.65600 28.85300 31.65400
C  50.55200 28.31300 32.68500
O  51.23700 27.30700 32.56100
O  50.50700 29.12700 33.83200
C  51.28500 28.70100 35.05200
H  46.30300 22.65700 31.48200
H  46.56800 22.88000 25.10800
H  50.18900 28.13600 25.22300
H  48.93700 26.32400 33.32300
H  46.47100 24.76400 33.29700
H  47.86200 23.21000 34.24700
H  49.28500 24.26100 33.81900
H  48.74400 22.96200 32.82500
H  45.99900 27.15700 33.54300
H  47.05200 28.18700 32.58800
H  48.22200 28.90500 34.64700
H  48.39500 27.25100 35.20600
H  44.12400 20.69500 29.61100
H  44.92200 21.20000 31.01600
H  45.77200 19.94000 30.10600
H  44.84900 18.68100 26.32300
H  44.18300 19.52100 27.68800
H  45.82400 18.87300 27.72200
H  47.07400 24.94700 23.60400
H  49.88000 26.05800 23.68100
H  49.11500 22.69400 23.86700
H  49.73200 24.10900 22.86800
H  48.16100 23.17600 22.58300
H  47.71000 28.10400 23.87200
H  47.52000 26.82200 22.66700
H  50.29000 27.81600 22.43900
H  49.09800 29.16300 22.29500
H  49.07700 27.85300 21.25000
H  50.69700 30.90600 27.12700
H  51.67900 29.55800 26.32000
H  52.17800 30.32100 27.83800
H  48.97000 29.54600 32.14000
H  52.26100 28.29300 34.78900
H  50.71100 27.86500 35.45100
H  51.25500 29.50900 35.78400
Mg 36.46600 49.47000 24.73100
C  36.38600 47.86900 27.83600
C  34.96400 52.14600 26.18100
C  35.94900 50.84700 21.61700
C  37.46900 46.42900 23.25600
N  35.74000 49.94900 26.80500
C  35.95200 49.20000 27.91400
C  35.63600 50.01200 29.15000
C  34.93000 51.35500 28.59300
C  35.29900 51.15900 27.11400
C  33.39700 51.43100 28.88100
C  36.94500 50.28800 30.02500
C  36.76100 49.83900 31.52100
H  35.38100 49.75700 32.15600
N  35.75800 51.37800 24.02900
C  35.23800 52.30900 24.76300
C  34.92400 53.51000 23.89500
C  35.16200 53.10100 22.54900
C  35.64900 51.70200 22.70800
C  34.44900 54.81400 24.45100
C  34.93600 53.91600 21.24000
O  35.30900 53.45400 20.19200
C  34.23300 55.30800 21.23600
N  36.61000 48.71500 22.84000
C  36.31100 49.46300 21.71500
C  36.54600 48.63700 20.47900
C  37.43600 47.53400 20.93000
C  37.23500 47.56700 22.41900
C  35.17200 48.08100 19.95700
C  38.91900 47.50100 20.54900
C  39.47000 46.07500 20.30100
N  36.86100 47.51300 25.37600
C  37.25500 46.42400 24.65200
C  37.59500 45.38800 25.64000
C  37.30800 45.95200 26.88700
C  36.76700 47.23300 26.66800
C  38.26400 44.15500 25.26900
C  37.38200 45.69500 28.31800
O  37.78400 44.75900 28.99000
C  36.82200 46.96200 29.06900
C  35.64000 46.58700 29.97600
O  34.46600 46.59900 29.69300
O  36.14500 46.19800 31.23600
C  35.15300 45.74500 32.22400
H  34.49700 53.00600 26.66500
H  35.78600 51.17300 20.58700
H  37.65700 45.50500 22.70400
H  34.94600 49.38800 29.71900
H  35.40800 52.22800 29.03700
H  33.02800 52.34300 29.35200
H  33.24300 50.69400 29.66900
H  32.81900 51.27200 27.97100
H  36.97900 51.37700 30.04500
H  37.80700 49.84300 29.52700
H  37.54500 50.40700 32.02200
H  37.13600 48.81500 31.54300
H  34.76500 54.78400 25.49400
H  33.36700 54.80100 24.58200
H  34.74900 55.69900 23.89000
H  33.69900 55.49500 20.30500
H  35.08200 55.99100 21.21000
H  33.50000 55.44800 22.03000
H  36.89200 49.28700 19.67600
H  37.04500 46.54900 20.67500
H  34.60100 47.47700 20.66200
H  35.35800 47.47400 19.07100
H  34.54300 48.89400 19.59500
H  39.45100 48.00700 21.35500
H  38.94000 48.05700 19.61200
H  39.77500 46.14300 19.25700
H  38.69900 45.31900 20.44900
H  40.39900 45.78800 20.79300
H  37.79200 43.73000 24.38300
H  37.90700 43.46200 26.03000
H  39.34700 44.16300 25.14600
H  37.63500 47.39200 29.65400
H  34.91500 44.71600 31.95500
H  34.18400 46.24100 32.28000
H  35.63800 45.64400 33.19500

