158

Mg 8.85100 47.68900 27.20700
C  7.29000 46.99300 30.13100
C  11.87100 47.99200 28.97000
C  10.45000 48.56400 24.29700
C  5.93400 47.74500 25.43700
N  9.61600 47.17400 29.34400
C  8.69200 47.07900 30.34800
C  9.42700 47.37000 31.74600
C  10.91500 47.62000 31.38900
C  10.84800 47.59300 29.85600
C  11.35900 48.99300 31.99500
C  9.36100 46.18100 32.73300
C  9.28000 46.59400 34.23800
H  9.96800 45.64700 35.26900
N  10.89900 48.11600 26.67400
C  11.97000 48.17700 27.57800
C  13.20500 48.60800 26.81200
C  12.82400 48.74500 25.48700
C  11.33600 48.40300 25.41500
C  14.47100 48.86700 27.46800
C  13.65800 49.16500 24.29300
O  13.15500 49.16400 23.16800
C  15.04900 49.79000 24.49900
N  8.24900 48.03300 25.17200
C  9.15300 48.36600 24.19900
C  8.46800 48.59000 22.80400
C  6.99700 48.21600 23.16700
C  7.02500 48.09800 24.70100
C  8.71900 50.01200 22.24800
C  6.55600 46.78800 22.51200
C  5.13100 46.66600 21.99800
N  6.92000 47.48700 27.66000
C  5.81400 47.44100 26.84300
C  4.69000 47.13200 27.71700
C  5.23400 47.02000 29.01700
C  6.58200 47.20600 28.90500
C  3.24200 47.06700 27.29700
C  4.78000 46.78900 30.38200
O  3.65300 46.65300 30.88300
C  6.16300 46.78000 31.18800
C  6.21400 45.43500 31.82700
O  6.36300 44.37400 31.23700
O  6.03300 45.55100 33.25100
C  6.50700 44.35100 33.96700
H  12.74800 48.24800 29.56800
H  10.85900 48.98000 23.37300
H  5.08100 47.67600 24.75800
H  8.90500 48.27400 32.05900
H  11.68500 46.93800 31.74800
H  12.39400 48.71400 32.19600
H  10.87300 49.17900 32.95300
H  11.19200 49.77300 31.25200
H  10.27700 45.59100 32.72300
H  8.49600 45.57100 32.47100
H  8.22200 46.58200 34.50300
H  9.56300 47.64500 34.28400
H  14.60000 49.94900 27.42100
H  15.23700 48.32300 26.91500
H  14.58300 48.69000 28.53700
H  14.90000 50.50100 25.31200
H  15.30600 50.29300 23.56700
H  15.81500 49.04000 24.69300
H  8.96900 47.92400 22.10100
H  6.32600 49.01300 22.84600
H  9.17100 50.50100 23.11100
H  7.82900 50.48000 21.82800
H  9.38900 50.01800 21.38900
H  6.56300 45.99300 23.25800
H  7.29300 46.62300 21.72600
H  5.05000 46.39300 20.94600
H  4.76200 47.69000 22.04500
H  4.41200 46.05600 22.54500
H  2.76800 46.20600 27.76800
H  3.12000 47.05800 26.21300
H  2.69000 47.86800 27.79000
H  6.22400 47.45700 32.04000
H  6.42700 44.55200 35.03500
H  7.55700 44.08300 33.85100
H  5.90800 43.50300 33.63300
Mg -2.35500 34.71200 26.64200
C  -3.42000 32.99800 29.56400
C  -1.08400 37.02600 28.61100
C  -2.14100 36.57800 23.91300
C  -4.20100 32.26200 24.73900
N  -2.17400 34.89900 28.83700
C  -2.63000 34.08400 29.83000
C  -2.18500 34.59000 31.23700
C  -1.43300 35.89700 30.82000
C  -1.62000 35.99100 29.34400
C  -1.77600 37.22500 31.61600
C  -1.38400 33.49700 32.06600
C  -1.96300 33.05100 33.46200
H  -1.03800 33.02800 34.66300
N  -1.50500 36.34100 26.26400
C  -1.03100 37.22700 27.17500
C  -0.34200 38.38300 26.60300
C  -0.74100 38.34700 25.21500
C  -1.50500 37.05300 25.05400
C  0.31900 39.40900 27.47300
C  -0.44400 39.32700 24.08200
O  -0.86900 39.27300 22.92500
C  0.50400 40.46500 24.42800
N  -3.13500 34.47100 24.60800
C  -2.96600 35.45300 23.74300
C  -3.64000 35.08300 22.38900
C  -3.99200 33.52000 22.56000
C  -3.72400 33.33900 24.06300
C  -4.86700 35.95800 21.90300
C  -3.20000 32.53600 21.67500
C  -1.90300 32.02400 22.24500
N  -3.52500 33.05500 27.01700
C  -4.14900 32.11100 26.14100
C  -4.78100 31.12500 26.93600
C  -4.52300 31.46600 28.25400
C  -3.72600 32.60400 28.24600
C  -5.50700 29.89800 26.47100
C  -4.80200 31.01700 29.56900
O  -5.44400 30.09100 29.99900
C  -4.01900 32.00300 30.47100
C  -4.95700 32.68000 31.29000
O  -5.78800 33.46400 30.84800
O  -5.03600 32.21700 32.59700
C  -5.96600 32.81000 33.52400
H  -0.62500 37.75900 29.27800
H  -2.19500 37.21500 23.02800
H  -4.71900 31.47000 24.19500
H  -3.11700 34.87000 31.72700
H  -0.38200 35.67500 31.00600
H  -0.90100 37.69900 32.06100
H  -2.43500 37.09100 32.47400
H  -2.15600 38.02100 30.97600
H  -0.36200 33.86200 32.16500
H  -1.30900 32.57400 31.49000
H  -2.43600 32.07600 33.34200
H  -2.84700 33.66200 33.64500
H  1.31500 39.04800 27.73100
H  -0.27300 39.59900 28.36800
H  0.43800 40.36100 26.95500
H  0.89800 40.90800 23.51300
H  1.30100 39.90900 24.92200
H  -0.12700 41.12100 25.02600
H  -2.83100 35.14300 21.66100
H  -5.05500 33.43700 22.33300
H  -5.11700 36.77900 22.57500
H  -5.73200 35.30600 21.78300
H  -4.76800 36.27100 20.86400
H  -2.93700 32.98100 20.71500
H  -3.83800 31.65300 21.71400
H  -1.59900 32.45700 23.19800
H  -1.03800 32.14100 21.59200
H  -1.97200 30.96000 22.47100
H  -5.20500 29.05200 27.08800
H  -5.12000 29.77500 25.45900
H  -6.56500 30.11300 26.31700
H  -3.20300 31.49600 30.98600
H  -6.49900 33.69900 33.18700
H  -5.38000 33.05500 34.40900
H  -6.71200 32.02700 33.66600

