158

Mg 47.89100 24.93900 29.56000
C  49.08100 27.11400 32.08000
C  46.96400 22.72100 32.16000
C  47.30300 22.59300 27.29000
C  49.37400 26.90500 27.17200
N  47.94700 25.03400 31.71400
C  48.42400 26.05600 32.55900
C  48.19800 25.73400 34.02900
C  47.78600 24.21000 34.08800
C  47.53300 23.96100 32.56700
C  48.72600 23.17100 34.78800
C  47.22200 26.73500 34.80800
C  47.82300 27.27300 36.18700
H  46.82400 27.65500 37.30100
N  46.99600 22.97400 29.68500
C  46.74500 22.23700 30.89800
C  46.08200 20.96000 30.44500
C  46.22900 20.88900 29.03400
C  46.81500 22.19600 28.59700
C  45.57200 19.93800 31.42200
C  45.67200 19.85200 28.02800
O  45.84000 19.91400 26.82200
C  44.87300 18.74600 28.48000
N  48.26500 24.78300 27.48300
C  47.98200 23.68500 26.81700
C  48.58500 23.79800 25.39900
C  49.00100 25.21000 25.35700
C  48.86300 25.65100 26.72400
C  49.80300 22.78100 25.21300
C  48.26900 26.08300 24.37100
C  46.74200 26.13100 24.47600
N  48.87900 26.74900 29.55800
C  49.47900 27.42000 28.46700
C  49.92800 28.74200 29.01200
C  49.82500 28.66600 30.38800
C  49.18800 27.45400 30.71300
C  50.51400 29.92100 28.21900
C  50.20800 29.27600 31.65100
O  50.75300 30.35300 31.87500
C  49.78600 28.25100 32.77200
C  50.97000 27.90000 33.61400
O  51.89700 27.18100 33.33700
O  50.88300 28.62200 34.79200
C  51.91400 28.39600 35.74800
H  46.53600 22.11600 32.96200
H  47.10100 21.88800 26.48000
H  49.83000 27.46200 26.35100
H  49.16700 25.94900 34.47900
H  46.83100 24.16200 34.61100
H  49.38700 23.68800 35.48300
H  49.31700 22.51800 34.14600
H  48.09600 22.58700 35.45900
H  46.27200 26.30600 35.12500
H  47.09500 27.49000 34.03200
H  48.33800 28.13500 35.76400
H  48.56700 26.56300 36.55100
H  45.85800 18.89800 31.26800
H  44.49700 19.96100 31.24600
H  45.81300 20.23100 32.44400
H  45.37700 17.95200 29.03100
H  44.26800 18.25600 27.71700
H  44.08200 19.07300 29.15400
H  47.86400 23.43500 24.66700
H  50.05500 25.25300 25.08300
H  50.77400 23.25300 25.06600
H  49.60500 22.44300 24.19600
H  49.88300 21.94700 25.91000
H  48.51300 25.72800 23.37000
H  48.64600 27.10200 24.45600
H  46.28600 25.77900 23.55000
H  46.55000 27.20400 24.46400
H  46.37000 25.59100 25.34800
H  50.45600 29.61300 27.17600
H  51.55300 30.13800 28.46900
H  49.97500 30.86500 28.30000
H  49.18700 28.83100 33.47400
H  51.44300 27.72200 36.46400
H  52.07200 29.28600 36.35600
H  52.86700 28.03700 35.36100
Mg 49.03300 34.76400 28.33900
C  47.33100 33.24700 31.03300
C  49.28500 37.61700 30.32000
C  50.28400 36.37000 25.53600
C  48.15200 32.03900 26.28300
N  48.38100 35.32400 30.44400
C  47.82700 34.58300 31.36500
C  48.09200 35.15700 32.77500
C  48.33800 36.67500 32.41800
C  48.75600 36.54700 30.96300
C  47.11300 37.60500 32.82900
C  49.38000 34.46100 33.38300
C  49.42700 34.27800 34.93200
H  48.73900 35.31400 35.85900
N  49.75000 36.65800 27.97700
C  49.81800 37.68000 28.96800
C  50.47700 38.86500 28.40600
C  50.63800 38.61200 27.00300
C  50.17000 37.15400 26.79100
C  50.93900 39.96900 29.30000
C  51.26100 39.49200 25.99100
O  51.46600 39.05600 24.90800
C  51.48400 40.87700 26.28500
N  49.26500 34.28600 26.21100
C  49.93300 35.01500 25.31300
C  50.45100 34.09100 24.16900
C  49.58800 32.82300 24.27100
C  48.98700 33.02700 25.67300
C  50.46200 34.79600 22.75400
C  50.21700 31.43200 24.03100
C  51.50400 31.35700 23.08500
N  47.98000 33.02400 28.56000
C  47.73700 31.97900 27.67100
C  47.01800 30.83200 28.33900
C  46.91200 31.29600 29.68000
C  47.39300 32.62700 29.72500
C  46.74800 29.42800 27.72400
C  46.35300 30.95300 30.97600
O  45.71900 29.98100 31.33400
C  46.47500 32.27800 31.82600
C  46.87900 31.91400 33.19900
O  47.85300 31.22700 33.51400
O  45.93900 32.25500 34.08000
C  46.19600 31.90200 35.49600
H  49.33100 38.52500 30.92500
H  50.80800 36.85600 24.71100
H  48.11400 31.10000 25.72700
H  47.19500 35.04600 33.38500
H  49.17000 37.06900 33.00200
H  47.39400 38.25600 33.65700
H  46.23000 37.03000 33.10700
H  46.82300 38.20500 31.96600
H  50.27000 34.98100 33.02900
H  49.43900 33.50600 32.86200
H  50.49100 34.25300 35.16600
H  49.20300 33.23600 35.16200
H  50.24800 40.80900 29.22700
H  51.93700 40.16900 28.91100
H  51.01000 39.76500 30.36800
H  52.32800 41.13000 26.92500
H  50.59100 41.26400 26.77700
H  51.56500 41.44300 25.35700
H  51.44100 33.82800 24.54300
H  48.74800 32.92000 23.58300
H  51.32600 35.43900 22.58300
H  49.54700 35.38100 22.65600
H  50.40700 34.12500 21.89700
H  49.47800 30.71200 23.68000
H  50.41500 31.06400 25.03800
H  51.21600 30.54100 22.42200
H  52.35200 31.21300 23.75500
H  51.74200 32.26700 22.53400
H  47.02600 28.65300 28.43900
H  47.24900 29.16500 26.79300
H  45.67100 29.30400 27.60300
H  45.46300 32.67900 31.88600
H  46.59900 30.89400 35.59500
H  45.25000 31.92200 36.03600
H  46.93700 32.59700 35.89200

