158

Mg 9.75300 4.32300 27.69400
C  10.96000 2.55700 30.43700
C  7.77900 6.10700 30.05000
C  8.13600 5.84800 25.20300
C  10.92000 1.87600 25.67700
N  9.59400 4.57100 29.98000
C  10.24900 3.68100 30.83600
C  9.91700 3.94900 32.23400
C  8.67800 4.86800 32.12500
C  8.66500 5.26000 30.62600
C  7.32300 4.13300 32.36500
C  11.18300 4.48700 33.02800
C  11.39100 3.85300 34.36700
H  11.76500 4.67700 35.54600
N  8.20800 5.79300 27.63800
C  7.54600 6.44100 28.66500
C  6.68700 7.43800 28.13800
C  6.83400 7.40000 26.70700
C  7.68700 6.28500 26.42800
C  5.75600 8.29700 28.99100
C  6.14100 8.32600 25.66000
O  6.32000 8.16300 24.43400
C  5.26900 9.43500 26.23800
N  9.54800 3.82100 25.74700
C  8.86000 4.66900 24.91300
C  9.18800 4.29500 23.42700
C  9.93000 2.94100 23.55900
C  10.18200 2.86400 25.04800
C  8.11900 4.35500 22.38600
C  11.31900 2.80100 22.85300
C  11.61200 1.42300 22.19600
N  11.07000 2.72300 27.95300
C  11.37500 1.79400 27.01100
C  12.09400 0.73900 27.60900
C  11.97300 0.99100 28.99700
C  11.30100 2.18700 29.11400
C  12.82600 -0.38500 26.92100
C  12.33200 0.42400 30.30800
O  12.97900 -0.57700 30.61500
C  11.67600 1.50300 31.29400
C  10.59600 0.77000 31.95000
O  9.45100 0.62500 31.53100
O  11.09700 0.37200 33.17900
C  10.03900 -0.31600 34.00700
H  7.32200 6.68600 30.85500
H  7.82800 6.39600 24.31000
H  11.17400 1.04900 25.01100
H  9.61300 3.03200 32.73800
H  8.79900 5.77600 32.71700
H  7.22500 3.56600 33.29100
H  7.16600 3.43600 31.54200
H  6.51400 4.86100 32.31300
H  11.04200 5.56600 33.09000
H  12.11100 4.42200 32.46100
H  12.18200 3.13300 34.15900
H  10.50700 3.24600 34.56400
H  6.04500 9.30300 29.29500
H  5.67400 7.77000 29.94100
H  4.70200 8.36700 28.72400
H  4.34000 8.99000 26.59400
H  4.91300 10.08400 25.43800
H  5.85900 10.04100 26.92600
H  9.84500 5.09700 23.08800
H  9.35800 2.03100 23.38000
H  7.31100 4.88700 22.88800
H  7.62400 3.42200 22.11700
H  8.39300 4.96100 21.52200
H  12.13100 2.87500 23.57700
H  11.36200 3.60400 22.11700
H  10.71600 0.80300 22.22300
H  12.38700 0.81900 22.66800
H  11.96800 1.57300 21.17700
H  13.87700 -0.46300 27.19900
H  12.72400 -0.41500 25.83600
H  12.20400 -1.22400 27.23100
H  12.28600 1.99800 32.04900
H  10.59000 -0.80900 34.80800
H  9.43100 -1.04400 33.46900
H  9.34300 0.35800 34.50700
Mg 48.02800 44.84800 43.30900
C  44.60800 44.77600 42.76700
C  48.14200 41.52000 42.35500
C  51.27100 45.17500 43.20400
C  47.69500 48.24400 44.29000
N  46.45900 43.35900 42.75200
C  45.15800 43.51100 42.50900
C  44.49400 42.24100 41.87100
C  45.63400 41.21300 42.21300
C  46.88400 42.07500 42.44500
C  45.43600 40.39200 43.49900
C  44.33300 42.48200 40.38400
C  43.11400 41.82300 39.66300
H  43.31600 40.62500 38.70300
N  49.55900 43.45400 42.93000
C  49.42000 42.17600 42.53300
C  50.76600 41.59400 42.31600
C  51.68700 42.60100 42.67200
C  50.87000 43.80500 42.93600
C  50.88600 40.12700 41.95100
C  53.13700 42.46400 42.64400
O  53.64800 41.38400 42.24300
C  54.06800 43.53500 43.05300
N  49.27600 46.53100 43.47200
C  50.58800 46.38800 43.45400
C  51.39800 47.75200 43.65900
C  50.20600 48.74200 43.89200
C  49.01500 47.79100 43.98000
C  52.58300 47.83100 44.68500
C  50.18300 49.98300 42.87300
C  51.26500 51.05700 43.07700
N  46.48500 46.30200 43.47800
C  46.49700 47.63000 43.95000
C  45.09400 48.11000 44.00800
C  44.33400 47.11500 43.39600
C  45.23100 46.02200 43.19500
C  44.70600 49.50900 44.47500
C  43.03600 46.69300 42.94800
O  41.98500 47.28000 42.93200
C  43.19300 45.29600 42.32900
C  41.97300 44.46500 42.79500
O  41.41700 43.65100 42.03700
O  41.71100 44.77400 44.07500
C  40.72100 43.89600 44.69200
H  48.13700 40.47700 42.03200
H  52.33400 45.40300 43.10400
H  47.70000 49.30600 44.54200
H  43.55900 42.02100 42.38700
H  45.79000 40.55000 41.36200
H  44.38600 40.10200 43.54700
H  45.70000 40.83500 44.45900
H  45.93400 39.42200 43.50800
H  45.20300 42.06900 39.87300
H  44.30000 43.55000 40.16900
H  42.64800 42.66200 39.14700
H  42.41000 41.52700 40.44100
H  49.92200 39.66200 41.74500
H  51.44100 39.52500 42.67000
H  51.41800 40.12600 40.99900
H  54.07400 44.24600 42.22600
H  55.09500 43.17700 43.11900
H  53.80500 44.03000 43.98800
H  51.95300 47.87100 42.72900
H  50.22100 49.08100 44.92800
H  52.89300 46.83500 44.99900
H  52.23900 48.33900 45.58600
H  53.43500 48.40500 44.32000
H  49.15500 50.31900 43.00800
H  50.04800 49.55800 41.87800
H  50.79500 52.02500 43.25000
H  51.70700 51.22500 42.09500
H  52.08800 50.87600 43.76900
H  44.42100 49.40700 45.52300
H  43.83400 49.85100 43.91800
H  45.52300 50.21000 44.30700
H  42.94700 45.47600 41.28300
H  40.78300 43.56100 45.72700
H  40.70100 42.94600 44.15800
H  39.77000 44.38700 44.48500

