158

Mg 48.60400 35.51500 27.90500
C  46.58200 34.29200 30.49500
C  49.33000 38.19600 30.05700
C  50.11800 37.00000 25.36300
C  47.49800 33.02300 25.82500
N  48.15800 36.03400 30.06600
C  47.39200 35.31400 30.93200
C  47.40900 35.88000 32.41600
C  48.05500 37.30900 32.15600
C  48.58400 37.14900 30.73000
C  47.12100 38.61300 32.23300
C  48.14100 35.01600 33.55300
C  49.52800 35.37600 34.15400
H  49.60600 36.16300 35.49300
N  49.70700 37.30600 27.69400
C  49.77200 38.28000 28.70800
C  50.34400 39.52800 28.08000
C  50.46500 39.28200 26.71500
C  50.04400 37.82400 26.52500
C  50.55100 40.89000 28.84500
C  50.99700 40.14300 25.59200
O  50.97900 39.74200 24.40700
C  51.55200 41.47900 25.92400
N  48.90500 35.02400 25.98500
C  49.63600 35.70400 25.10300
C  49.78300 35.07400 23.72100
C  48.83100 33.85600 23.82100
C  48.28700 33.97500 25.28700
C  49.34300 35.93400 22.64400
C  49.41800 32.42700 23.51200
C  49.16400 32.05200 22.06300
N  47.36900 33.93500 28.06700
C  47.05600 33.00700 27.16000
C  46.05600 32.10700 27.69800
C  45.74300 32.68600 28.99400
C  46.63000 33.70300 29.20900
C  45.37000 31.03500 27.02300
C  44.98400 32.53800 30.19700
O  44.18200 31.71200 30.49500
C  45.48300 33.59900 31.25100
C  45.82600 32.87400 32.47300
O  46.66400 32.05000 32.52300
O  44.93400 33.21300 33.51300
C  45.47000 32.54100 34.77800
H  49.64700 39.06400 30.64000
H  50.53900 37.47200 24.47300
H  47.06100 32.33200 25.10100
H  46.37900 35.94200 32.76800
H  48.98200 37.42400 32.71800
H  47.22500 39.18200 31.30900
H  47.34400 39.17300 33.14100
H  46.06100 38.36100 32.25700
H  48.46800 34.02700 33.23100
H  47.40700 34.75300 34.31400
H  50.18100 35.88300 33.44400
H  50.10500 34.45700 34.26400
H  50.32800 41.68900 28.13800
H  51.62200 40.72700 28.96100
H  49.93700 40.95900 29.74300
H  50.74700 42.14100 26.24400
H  51.88500 41.90000 24.97600
H  52.28500 41.32600 26.71600
H  50.80300 34.73700 23.53900
H  47.91800 33.97800 23.23800
H  48.89900 36.81600 23.10500
H  48.72600 35.47200 21.87300
H  50.23200 36.38000 22.19800
H  48.98600 31.70200 24.20100
H  50.50500 32.44800 23.44000
H  49.03400 32.86900 21.35400
H  48.36700 31.32000 21.93100
H  50.03100 31.58800 21.59200
H  45.16500 30.20900 27.70500
H  45.90500 30.71800 26.12800
H  44.34800 31.31400 26.76400
H  44.68700 34.28900 31.53100
H  45.56600 31.45500 34.77600
H  44.83200 32.90100 35.58500
H  46.47300 32.89700 35.01500
Mg -12.41800 15.83200 41.65500
C  -9.51200 14.26500 40.72200
C  -11.51400 18.66400 39.86300
C  -15.60700 16.91900 41.82700
C  -13.62400 12.61200 42.66800
N  -10.71100 16.38100 40.36000
C  -9.54800 15.59800 40.25000
C  -8.43700 16.40400 39.57500
C  -9.11700 17.87000 39.50700
C  -10.53000 17.70800 39.98100
C  -8.39400 18.93500 40.44700
C  -7.87800 15.79800 38.23500
C  -6.34700 15.94400 38.07100
H  -5.99700 16.42000 36.65200
N  -13.33200 17.63700 41.07700
C  -12.87300 18.63600 40.23200
C  -13.84600 19.70000 40.14500
C  -15.07000 19.20000 40.69700
C  -14.70800 17.88700 41.34000
C  -13.78200 21.02200 39.46600
C  -16.44700 19.92100 40.79200
O  -16.66200 20.97600 40.21900
C  -17.48700 19.42400 41.74200
N  -14.37000 14.88800 42.35100
C  -15.51400 15.56800 42.26200
C  -16.75400 14.76500 42.71800
C  -16.08300 13.30100 42.84200
C  -14.57500 13.60800 42.67400
C  -17.51000 15.34600 43.92500
C  -16.58700 12.35900 41.69000
C  -18.01500 11.99000 41.68300
N  -11.66500 13.86700 41.96200
C  -12.27300 12.70900 42.38400
C  -11.33700 11.64600 42.34800
C  -10.18400 12.21000 41.77000
C  -10.51600 13.56800 41.46000
C  -11.51400 10.25900 42.78000
C  -8.85600 11.84500 41.31200
O  -8.16300 10.79800 41.46600
C  -8.32600 13.27400 40.71100
C  -7.07000 13.72900 41.49200
O  -7.05900 14.21500 42.63200
O  -5.95300 13.79800 40.62900
C  -4.78600 14.31000 41.28300
H  -11.29400 19.57800 39.30700
H  -16.67400 17.14700 41.78000
H  -14.00500 11.59900 42.80700
H  -7.57100 16.37400 40.23700
H  -9.12800 18.25700 38.48800
H  -8.05200 18.42200 41.34500
H  -9.14200 19.66200 40.76500
H  -7.61000 19.41100 39.85800
H  -8.36500 16.39500 37.46400
H  -8.22700 14.77200 38.12400
H  -5.83600 15.01200 38.31100
H  -6.08600 16.78800 38.70900
H  -13.60300 21.74700 40.26000
H  -14.67700 21.13300 38.85500
H  -12.88900 21.04800 38.84200
H  -18.12400 20.28200 41.95600
H  -16.97900 19.09400 42.64800
H  -18.10200 18.63200 41.31500
H  -17.44500 14.93200 41.89200
H  -16.23400 12.93400 43.85800
H  -18.48100 15.64500 43.52900
H  -17.08900 16.25100 44.36100
H  -17.53300 14.67100 44.78000
H  -16.00600 11.43700 41.66000
H  -16.36900 12.86500 40.74900
H  -18.50100 12.32700 40.76800
H  -18.39200 12.53500 42.54900
H  -18.19400 10.91900 41.78500
H  -11.25400 9.54300 42.00000
H  -12.54800 10.15900 43.10800
H  -10.80300 10.14000 43.59800
H  -8.04600 13.01500 39.69000
H  -4.87300 15.38600 41.43300
H  -3.96800 14.35900 40.56500
H  -4.41000 13.66800 42.08000

