158

Mg 0.42800 7.90300 25.42400
C  0.81200 9.83100 28.39100
C  0.68200 5.27600 27.31300
C  -0.04500 6.13400 22.63800
C  0.41900 10.90700 23.58100
N  0.93000 7.62400 27.60000
C  0.80400 8.49300 28.63000
C  0.91700 7.87700 29.95500
C  1.08600 6.36800 29.54200
C  0.86900 6.42200 28.01900
C  2.52500 5.80700 29.95000
C  -0.36800 8.07000 30.75400
C  -0.30600 7.95000 32.31400
H  1.05200 7.68700 32.98200
N  0.31800 5.92800 25.06100
C  0.41000 4.97800 25.98700
C  0.13000 3.64400 25.35700
C  -0.20200 3.89900 23.97900
C  0.10400 5.36200 23.83000
C  0.30300 2.29200 25.99200
C  -0.71300 2.95800 22.99600
O  -0.85400 3.31900 21.80800
C  -1.03000 1.50200 23.28800
N  0.36400 8.40400 23.39400
C  0.11200 7.48600 22.41000
C  0.09900 8.16400 20.98100
C  -0.15400 9.66700 21.40000
C  0.22300 9.72300 22.90200
C  1.32500 7.97500 20.13800
C  -1.59000 10.24900 21.17300
C  -1.74400 11.22600 20.02500
N  0.80200 9.90100 25.79400
C  0.59800 11.06900 24.97700
C  0.86400 12.26200 25.72900
C  0.98200 11.81200 27.05500
C  0.88500 10.41600 27.07500
C  0.98700 13.68800 25.27500
C  1.24800 12.16700 28.41200
O  1.61300 13.22600 28.80700
C  1.04200 10.92600 29.34800
C  2.35500 10.76400 30.01700
O  3.32100 10.16300 29.55300
O  2.36200 11.49300 31.19400
C  3.51100 11.25300 32.04000
H  0.85300 4.40800 27.95200
H  -0.30100 5.62600 21.70600
H  0.24900 11.82700 23.01700
H  1.74500 8.28200 30.53800
H  0.24500 5.81700 29.96400
H  3.17700 6.48400 30.50200
H  3.11000 5.52000 29.07600
H  2.36200 4.88300 30.50400
H  -1.17100 7.42700 30.39500
H  -0.71400 9.08800 30.57200
H  -1.00300 7.12700 32.47000
H  -0.73900 8.91300 32.58300
H  0.88300 2.41200 26.90700
H  0.91300 1.69800 25.31100
H  -0.63900 1.80500 26.24600
H  -1.86000 1.47800 23.99400
H  -0.15300 1.03600 23.73800
H  -1.35800 0.94500 22.41100
H  -0.74500 7.84000 20.37300
H  0.53500 10.30500 20.84700
H  1.27000 8.71300 19.33800
H  1.42600 6.97700 19.71200
H  2.17500 8.24400 20.76500
H  -2.05600 10.58400 22.09900
H  -2.21600 9.42100 20.83900
H  -1.37000 10.59900 19.21600
H  -0.98400 12.00300 20.10900
H  -2.77300 11.50500 19.79600
H  0.43100 14.40600 25.87800
H  0.97500 13.78800 24.19000
H  2.01700 13.94700 25.52000
H  0.17900 11.04700 30.00300
H  3.36900 11.64300 33.04800
H  4.28500 11.93100 31.68000
H  3.78300 10.19900 32.10100
Mg 35.75300 49.97200 25.62800
C  35.76600 47.89600 28.50900
C  34.22100 52.30100 27.40700
C  35.78100 51.70600 22.83700
C  37.21000 47.23300 23.87000
N  35.13500 50.04200 27.77500
C  35.23000 49.11800 28.77600
C  34.91200 49.78600 30.14700
C  34.30300 51.17400 29.72100
C  34.60200 51.21000 28.16700
C  32.84900 51.52100 30.13900
C  36.15700 49.85700 31.15700
C  35.92300 49.31600 32.55700
H  34.43800 49.44700 33.08500
N  34.98500 51.66600 25.16000
C  34.37500 52.53600 26.02900
C  33.90600 53.69900 25.31100
C  34.27100 53.51500 23.96200
C  35.07700 52.29300 23.93000
C  33.09900 54.71700 25.95300
C  33.93800 54.31200 22.72600
O  34.39300 54.10100 21.63400
C  32.88500 55.35400 22.81400
N  36.40500 49.52100 23.63100
C  36.34200 50.42700 22.66100
C  36.54600 49.82500 21.24800
C  37.47200 48.59100 21.76800
C  36.99200 48.42300 23.15500
C  35.27500 49.46300 20.44400
C  38.99100 48.61300 21.34600
C  39.95600 49.04300 22.38000
N  36.34300 47.99900 26.04100
C  36.87700 47.00000 25.19900
C  36.99900 45.76800 25.94700
C  36.60000 46.13600 27.26000
C  36.17300 47.42600 27.23800
C  37.37600 44.43200 25.47400
C  36.43800 45.55800 28.54400
O  36.73800 44.42000 28.97000
C  35.86900 46.74200 29.45500
C  34.58400 46.29700 30.05800
O  33.49400 46.17300 29.55300
O  34.84900 45.88000 31.41200
C  33.63800 45.65300 32.18300
H  33.77600 53.17100 27.89500
H  35.78700 52.17800 21.85300
H  37.79300 46.52200 23.28100
H  34.13200 49.20200 30.63600
H  34.91600 51.87800 30.28300
H  32.13000 51.60900 29.32400
H  32.84200 52.40400 30.77800
H  32.47100 50.67500 30.71200
H  36.40000 50.91300 31.27400
H  37.03400 49.45000 30.65500
H  36.57200 49.85100 33.24900
H  36.36300 48.32000 32.59600
H  32.05200 54.66100 25.65500
H  33.31700 55.73000 25.61300
H  33.17400 54.77200 27.03900
H  33.21500 56.19300 23.42700
H  32.03600 54.93800 23.35700
H  32.62800 55.68000 21.80600
H  37.05900 50.60200 20.68100
H  37.14100 47.62400 21.38800
H  34.32800 49.71300 20.92300
H  35.28400 48.38300 20.30100
H  35.25800 50.04900 19.52500
H  39.12000 49.23200 20.45800
H  39.34300 47.61400 21.08900
H  40.62500 49.81200 21.99300
H  40.57800 48.24100 22.77700
H  39.46900 49.47500 23.25500
H  37.31600 44.54100 24.39100
H  36.66100 43.71400 25.87700
H  38.36000 44.27800 25.91800
H  36.61000 46.95300 30.22600
H  32.73800 46.21700 31.93800
H  33.84000 45.78200 33.24600
H  33.43100 44.58200 32.18100

