158

Mg 17.04600 -1.77100 28.07700
C  16.30600 0.26600 30.95000
C  18.88300 -3.73400 30.29400
C  18.31600 -3.44700 25.39700
C  15.73300 0.59500 26.02000
N  17.57500 -1.67500 30.37900
C  17.08200 -0.86000 31.33700
C  17.60600 -1.16200 32.72200
C  18.55100 -2.36600 32.44100
C  18.27500 -2.63200 30.96400
C  20.11600 -2.28500 32.73900
C  16.46400 -1.48000 33.79000
C  16.68200 -0.91800 35.19400
H  18.07000 -0.34600 35.55800
N  18.24100 -3.45300 27.86100
C  18.84800 -4.15200 28.90600
C  19.42200 -5.40000 28.38600
C  19.33000 -5.33400 26.95700
C  18.59200 -4.03800 26.69200
C  20.04800 -6.46600 29.29000
C  19.78900 -6.30100 25.97400
O  19.71000 -6.12500 24.76600
C  20.64700 -7.48400 26.38500
N  17.00000 -1.53800 26.05500
C  17.57400 -2.27700 25.11100
C  17.54800 -1.68700 23.72900
C  16.58500 -0.55000 24.04900
C  16.39700 -0.52400 25.46200
C  18.95300 -1.18500 23.26000
C  15.22500 -0.67800 23.23200
C  14.98600 0.54500 22.22800
N  16.14200 -0.02500 28.35800
C  15.63700 0.75500 27.41400
C  14.88100 1.85400 28.00600
C  15.11400 1.69800 29.42000
C  15.99900 0.60500 29.58200
C  14.06800 2.85000 27.31700
C  14.90700 2.32900 30.72700
O  14.38000 3.31600 31.07500
C  15.55400 1.34600 31.75200
C  16.55500 2.11000 32.51900
O  17.66500 2.40400 32.21500
O  15.98200 2.52500 33.74100
C  16.82400 3.51300 34.42900
H  19.46800 -4.25900 31.05200
H  18.50600 -4.04100 24.50000
H  15.23700 1.24900 25.30000
H  18.26200 -0.35500 33.04900
H  18.23800 -3.26900 32.96600
H  20.33800 -1.33800 33.23100
H  20.71900 -2.38500 31.83700
H  20.28500 -3.20600 33.29700
H  16.21600 -2.53900 33.72900
H  15.64900 -0.85800 33.42100
H  16.40000 -1.75700 35.83100
H  15.93200 -0.14600 35.36700
H  19.87300 -6.33500 30.35800
H  21.13400 -6.53100 29.35800
H  19.69800 -7.47700 29.08300
H  19.97100 -8.19300 26.86200
H  21.47600 -7.28500 27.06300
H  21.18600 -8.08300 25.65000
H  17.26700 -2.45800 23.01200
H  17.04000 0.36800 23.67600
H  19.03200 -0.09900 23.32200
H  19.02100 -1.50900 22.22200
H  19.74900 -1.71600 23.78200
H  14.43500 -0.79400 23.97400
H  15.11100 -1.52100 22.55000
H  14.60700 0.16400 21.27900
H  15.88400 1.14300 22.07200
H  14.18700 1.16000 22.64100
H  13.13300 2.45600 26.91700
H  14.56700 3.32000 26.47000
H  13.75600 3.70100 27.92300
H  14.89400 1.01400 32.55400
H  17.03000 4.27300 33.67600
H  17.74600 3.06300 34.79700
H  16.28100 4.03800 35.21500
Mg 0.08200 43.52400 26.63400
C  2.16100 42.73900 29.29500
C  -2.66400 42.50100 28.55800
C  -1.92400 44.03600 24.01100
C  2.84000 44.19900 24.61300
N  -0.20400 42.75800 28.70200
C  0.77500 42.68500 29.60400
C  0.23900 42.50300 30.98700
C  -1.29200 42.07800 30.70500
C  -1.41900 42.43100 29.24500
C  -1.71000 40.62000 30.94300
C  0.48100 43.79700 31.85700
C  1.22800 43.52700 33.17300
H  0.97500 42.26800 33.98000
N  -1.99600 43.30300 26.30000
C  -2.94300 42.82900 27.17200
C  -4.21900 42.77400 26.56700
C  -3.96000 43.15900 25.20700
C  -2.56100 43.48700 25.11700
C  -5.54300 42.47900 27.31300
C  -4.89800 43.26600 24.06100
O  -4.74600 43.76500 22.96900
C  -6.32300 42.65200 24.23700
N  0.49600 44.01900 24.52700
C  -0.57200 44.39700 23.83600
C  -0.14000 45.09200 22.56500
C  1.38600 45.42000 22.87000
C  1.61200 44.49100 24.02700
C  -0.31500 44.43500 21.25600
C  1.52100 47.00000 23.17600
C  1.68000 47.96800 22.06500
N  2.03800 43.49300 26.83000
C  3.08300 43.70900 25.93000
C  4.35400 43.67900 26.59800
C  4.03600 43.12100 27.86400
C  2.63000 43.07500 28.00700
C  5.65500 43.82600 25.92600
C  4.59500 42.70500 29.15000
O  5.80300 42.50500 29.39700
C  3.38200 42.58900 30.17700
C  3.50400 41.22800 30.75100
O  3.35600 40.22200 30.10900
O  3.95800 41.26600 32.03400
C  4.39700 39.99000 32.50700
H  -3.39600 41.97500 29.17400
H  -2.54800 44.08700 23.11700
H  3.72400 44.42700 24.01300
H  0.71000 41.61400 31.40700
H  -1.92400 42.69800 31.34200
H  -2.47100 40.56200 31.72100
H  -0.91000 40.04200 31.40800
H  -2.10000 40.09600 30.07100
H  -0.50600 44.19000 32.10100
H  1.06300 44.55100 31.32700
H  0.93200 44.30100 33.88100
H  2.28500 43.61400 32.92200
H  -5.98800 41.50500 27.10900
H  -6.38400 43.12300 27.05500
H  -5.33700 42.54800 28.38100
H  -6.84200 43.33500 24.90900
H  -6.28200 41.66500 24.69800
H  -6.68900 42.57000 23.21300
H  -0.74400 45.99900 22.52800
H  1.97000 45.16700 21.98400
H  -1.01100 45.03700 20.67100
H  -0.75700 43.43900 21.25600
H  0.57600 44.17500 20.68600
H  2.41200 47.11900 23.79300
H  0.64800 47.24500 23.78200
H  0.97600 48.77900 22.25300
H  1.31900 47.54400 21.12900
H  2.66600 48.41700 21.94300
H  5.83500 44.86500 25.65000
H  5.61300 43.20600 25.03000
H  6.44000 43.46900 26.59400
H  3.39100 43.40900 30.89500
H  3.61700 39.24900 32.68000
H  4.93900 40.09800 33.44700
H  5.11200 39.64800 31.75900

