158

Mg -0.41900 7.28900 26.30100
C  0.56000 9.29000 29.01600
C  -0.90600 4.72100 28.62900
C  -0.75100 5.22400 23.77500
C  0.38000 9.93600 24.21500
N  -0.08800 7.06100 28.55000
C  0.25700 8.01300 29.53300
C  0.19300 7.46600 31.00900
C  -0.09000 5.92400 30.68200
C  -0.45700 5.90600 29.15600
C  1.02600 4.95300 31.07800
C  -0.80900 8.16600 31.92600
C  -0.42000 8.07400 33.45900
H  0.73700 7.32200 33.99300
N  -0.76100 5.24400 26.19800
C  -1.05500 4.37700 27.25300
C  -1.56600 3.17500 26.72500
C  -1.49300 3.28700 25.29900
C  -1.00800 4.61700 25.01100
C  -1.97700 1.96200 27.66100
C  -1.72800 2.18500 24.27200
O  -1.43200 2.43200 23.11200
C  -2.38500 0.87800 24.63000
N  -0.17400 7.44200 24.30700
C  -0.37300 6.52700 23.37000
C  -0.42200 7.09900 21.95500
C  -0.44000 8.65900 22.24100
C  0.01500 8.71400 23.71000
C  0.79300 6.52500 21.05300
C  -1.87500 9.20500 21.86500
C  -1.88800 10.65800 21.19900
N  0.32200 9.20000 26.48600
C  0.60400 10.16700 25.59900
C  1.09400 11.38100 26.22000
C  1.07900 11.08700 27.53800
C  0.53300 9.75200 27.66800
C  1.48500 12.62400 25.59500
C  1.27400 11.64800 28.84900
O  1.60900 12.81900 29.11200
C  0.90700 10.51300 29.80300
C  2.01300 10.28400 30.81500
O  2.96500 9.59200 30.52600
O  1.69500 10.93600 31.97000
C  2.73900 10.90900 33.01400
H  -1.19300 3.93800 29.33400
H  -1.12200 4.65900 22.91800
H  0.69000 10.78900 23.60700
H  1.19200 7.47200 31.44500
H  -0.99200 5.60200 31.20400
H  0.55600 4.06500 31.50200
H  1.58400 5.42200 31.88900
H  1.65700 4.69300 30.22900
H  -1.74400 7.67000 31.66600
H  -0.94200 9.22900 31.72300
H  -1.34000 7.58800 33.78000
H  -0.44300 9.00600 34.02500
H  -1.97200 2.12500 28.73900
H  -1.40600 1.07100 27.40200
H  -2.97400 1.72000 27.29100
H  -3.39200 1.11600 24.97100
H  -1.83400 0.29000 25.36400
H  -2.45000 0.34000 23.68400
H  -1.35000 6.60500 21.66500
H  0.30600 9.23500 21.69400
H  1.35100 7.35200 20.61500
H  0.46100 5.73300 20.38100
H  1.49600 6.12700 21.78500
H  -2.47300 9.34000 22.76600
H  -2.47500 8.42000 21.40500
H  -2.35900 10.71200 20.21800
H  -0.85900 10.98300 21.04000
H  -2.46300 11.32800 21.83600
H  0.51000 13.09800 25.48500
H  1.87200 12.41300 24.59800
H  2.09300 13.22500 26.27100
H  0.01100 10.76300 30.37100
H  3.27200 9.95900 33.06300
H  2.25800 11.02700 33.98500
H  3.53200 11.57400 32.67400
Mg -12.28800 17.22600 42.16400
C  -9.46200 15.39600 41.80100
C  -10.63700 20.04500 40.96900
C  -15.23900 18.79700 41.74300
C  -14.03800 14.19800 42.78600
N  -10.26400 17.66600 41.28900
C  -9.26000 16.72700 41.35700
C  -7.87500 17.39500 40.96900
C  -8.28500 18.94200 41.03700
C  -9.82100 18.93300 41.16000
C  -7.68900 19.82400 42.17600
C  -7.30000 16.96300 39.60400
C  -5.91200 16.29500 39.60200
H  -5.82200 14.99600 38.72200
N  -12.87800 19.07900 41.53900
C  -12.05600 20.12900 41.08600
C  -12.86400 21.31400 40.86900
C  -14.17200 20.98300 41.16800
C  -14.17300 19.60200 41.53700
C  -12.30900 22.67900 40.41300
C  -15.28200 21.95300 40.95900
O  -15.09300 23.08700 40.57200
C  -16.65500 21.71500 41.47700
N  -14.35500 16.59300 42.36000
C  -15.38200 17.43400 42.10200
C  -16.76300 16.72800 42.30100
C  -16.37200 15.24600 42.62100
C  -14.83600 15.30700 42.53800
C  -17.85800 17.31100 43.27200
C  -17.01100 14.21400 41.69300
C  -17.95700 13.18400 42.36500
N  -11.87400 15.22700 42.43800
C  -12.66700 14.11000 42.66600
C  -11.86700 12.92200 42.70100
C  -10.63500 13.38700 42.38500
C  -10.70500 14.75900 42.11400
C  -12.19200 11.47800 43.11100
C  -9.27400 13.02000 42.22100
O  -8.72400 11.95000 42.38700
C  -8.42100 14.27000 41.85100
C  -7.39000 14.28200 42.92000
O  -7.58500 14.30600 44.10400
O  -6.16100 14.25200 42.36900
C  -5.00400 14.35000 43.19400
H  -10.17900 21.01200 40.75200
H  -16.20300 19.23100 41.46800
H  -14.63000 13.28100 42.82300
H  -7.17400 17.09800 41.74900
H  -8.05800 19.47700 40.11500
H  -6.86200 20.46300 41.86500
H  -7.25300 19.11500 42.88000
H  -8.39400 20.46900 42.70100
H  -7.31900 17.88300 39.02000
H  -8.01100 16.34500 39.05600
H  -5.57800 16.05700 40.61200
H  -5.16800 17.02300 39.27800
H  -12.86600 23.04400 39.55100
H  -11.27700 22.55200 40.08700
H  -12.24200 23.38500 41.24100
H  -16.70100 21.11400 42.38500
H  -17.25900 21.19300 40.73500
H  -17.15700 22.65300 41.71700
H  -17.26800 16.76400 41.33500
H  -16.47600 14.94300 43.66300
H  -18.66000 17.69400 42.64200
H  -17.39100 18.16700 43.75900
H  -18.27900 16.53700 43.91500
H  -16.14200 13.67900 41.31100
H  -17.51300 14.75400 40.89100
H  -18.93500 13.66400 42.32100
H  -17.65500 13.01700 43.39900
H  -17.96700 12.30200 41.72500
H  -11.50500 11.00800 43.81400
H  -12.26900 10.90800 42.18600
H  -13.12000 11.57900 43.67500
H  -8.00300 13.96900 40.89100
H  -4.32700 13.58500 42.81500
H  -5.15900 14.27600 44.27000
H  -4.52900 15.30300 42.96200

