158

Mg 7.80900 3.34500 27.79400
C  8.93300 1.73400 30.80300
C  6.21300 5.58900 29.70300
C  6.76900 4.61900 24.94800
C  9.69300 0.93500 25.98300
N  7.55000 3.50900 30.04700
C  8.17000 2.81000 31.04200
C  7.94000 3.49200 32.42700
C  6.77100 4.53600 32.07700
C  6.87100 4.64700 30.52700
C  5.38700 4.17700 32.51800
C  9.23600 4.17000 33.06500
C  8.98200 4.85900 34.39700
H  9.87100 4.63400 35.60100
N  6.60000 4.94500 27.36200
C  5.98600 5.70200 28.29200
C  5.17800 6.67400 27.59700
C  5.44300 6.48500 26.16500
C  6.30400 5.35500 26.10800
C  4.41300 7.74100 28.31500
C  4.93900 7.35500 25.01300
O  5.22400 7.12400 23.82400
C  3.97900 8.45100 25.31600
N  8.03700 2.71200 25.74600
C  7.44900 3.41100 24.81200
C  7.64300 2.75400 23.41300
C  8.81100 1.78800 23.70400
C  8.93700 1.82400 25.23900
C  6.35500 1.97000 22.90900
C  10.15400 1.96000 22.94800
C  10.88700 0.66100 22.59400
N  8.94500 1.70000 28.23500
C  9.74800 0.91800 27.39000
C  10.44500 -0.06200 28.21000
C  10.18100 0.22500 29.50500
C  9.20400 1.28900 29.49000
C  11.31800 -1.16500 27.70000
C  10.46800 -0.17200 30.75500
O  11.18500 -1.09000 31.12600
C  9.76500 0.85000 31.69900
C  9.02700 0.10400 32.67400
O  7.96300 -0.57800 32.50400
O  9.67800 0.27800 33.82000
C  9.16100 -0.34500 35.02300
H  5.77200 6.31500 30.38800
H  6.30800 5.02900 24.04700
H  10.24100 0.17400 25.42200
H  7.68300 2.69300 33.12300
H  7.14000 5.38000 32.66000
H  5.44400 3.27400 33.12600
H  4.70100 4.04900 31.68000
H  5.13700 5.01700 33.16500
H  9.59800 4.97400 32.42500
H  9.96100 3.37200 33.22400
H  7.94400 4.79100 34.72400
H  9.09200 5.90900 34.12800
H  4.74200 8.76200 28.12200
H  4.56700 7.58500 29.38300
H  3.35400 7.60100 28.09700
H  3.88600 9.04000 24.40300
H  4.43700 9.09200 26.07000
H  3.00400 8.15900 25.70600
H  7.93900 3.53200 22.71000
H  8.46900 0.76600 23.54100
H  5.42700 2.27000 23.39600
H  6.44700 0.89600 22.74400
H  6.15800 2.29400 21.88700
H  10.82300 2.40900 23.68200
H  10.02500 2.54400 22.03700
H  11.75400 0.50700 23.23600
H  11.09400 0.52100 21.53300
H  10.16800 -0.14400 22.74100
H  12.07200 -1.45500 28.43100
H  11.85300 -0.83100 26.81000
H  10.70100 -1.95900 27.28000
H  10.56800 1.38200 32.21000
H  9.74700 -1.20100 35.35800
H  8.20500 -0.81800 34.80000
H  9.11900 0.46400 35.75400
Mg 27.38400 50.60500 27.06400
C  24.84100 51.22600 29.50600
C  29.44100 49.73800 29.50900
C  29.50700 49.57500 24.62000
C  25.10800 51.64800 24.73500
N  27.06200 50.33600 29.22700
C  26.01000 50.70700 30.01000
C  26.39400 50.47400 31.51900
C  27.91000 50.13100 31.46700
C  28.14100 50.00500 29.93900
C  28.85000 51.16300 32.16000
C  25.40200 49.38900 32.10500
C  24.56200 49.80700 33.37600
H  24.53900 48.90300 34.58200
N  29.28000 49.93100 27.04700
C  29.92600 49.64800 28.20500
C  31.30700 49.27100 27.88300
C  31.40800 49.19900 26.39700
C  30.06700 49.55600 25.92300
C  32.39300 48.94700 28.85300
C  32.48900 48.67900 25.55800
O  32.41300 48.83000 24.35400
C  33.80800 48.16400 26.01800
N  27.27800 50.55700 24.94000
C  28.30500 50.06300 24.11200
C  27.91400 50.05300 22.62600
C  26.59400 50.94700 22.66500
C  26.26500 51.08400 24.18100
C  28.95300 50.47400 21.50700
C  25.43300 50.52700 21.74100
C  24.29500 49.75600 22.32600
N  25.48700 51.40500 27.05900
C  24.68400 51.74000 26.03100
C  23.42700 52.32600 26.45600
C  23.46800 52.18500 27.84400
C  24.67300 51.55900 28.11600
C  22.33100 53.05600 25.60800
C  22.76000 52.41600 29.11500
O  21.75200 53.07500 29.42900
C  23.64900 51.75800 30.21300
C  23.82100 52.80100 31.30600
O  24.52700 53.81800 31.17200
O  22.96600 52.65000 32.32700
C  23.00700 53.58100 33.46800
H  30.11300 49.47500 30.32900
H  30.28800 49.29000 23.91200
H  24.46200 52.02700 23.94000
H  26.28900 51.42800 32.03600
H  27.94600 49.17000 31.98000
H  29.83200 51.05200 31.70100
H  28.83500 50.95500 33.23000
H  28.44100 52.16800 32.05900
H  25.87000 48.44900 32.39600
H  24.64000 49.03500 31.41100
H  23.52100 50.08800 33.21400
H  25.00000 50.73100 33.75300
H  32.33500 47.88000 29.07100
H  32.31800 49.57900 29.73800
H  33.35500 49.04200 28.34900
H  34.32700 48.92600 26.59800
H  34.48300 47.71800 25.28800
H  33.46300 47.37800 26.69000
H  27.62900 49.00400 22.54900
H  26.92400 51.92900 22.32800
H  29.51400 49.63900 21.08700
H  29.57700 51.34100 21.72300
H  28.43200 50.92400 20.66200
H  25.87300 49.89200 20.97200
H  25.07400 51.47700 21.34500
H  23.95700 49.03200 21.58500
H  23.55800 50.50600 22.61400
H  24.64300 49.22800 23.21300
H  22.21000 54.03700 26.06800
H  21.33200 52.63200 25.50700
H  22.66400 53.25500 24.58900
H  23.10800 50.92500 30.66200
H  23.72900 53.17500 34.17600
H  22.07200 53.64300 34.02500
H  23.36000 54.59200 33.26200

