158

Mg 1.52400 -1.94300 44.16900
C  4.92100 -1.05900 43.70500
C  0.75300 1.06500 42.60500
C  -1.61000 -3.04700 43.94400
C  2.65600 -5.19700 44.98000
N  2.69000 -0.17900 43.27700
C  4.10500 -0.03200 43.23900
C  4.54600 1.26700 42.58900
C  3.15900 2.06100 42.51300
C  2.08000 0.95400 42.84500
C  2.93600 3.33100 43.36200
C  5.18800 0.96500 41.26500
C  6.64100 1.55700 41.11500
H  6.64800 2.54400 39.90800
N  -0.19800 -1.15700 43.34800
C  -0.31700 0.10300 42.73600
C  -1.61400 0.27500 42.17200
C  -2.41600 -0.90000 42.51700
C  -1.44300 -1.78100 43.31600
C  -1.94900 1.35700 41.23500
C  -3.80700 -1.15900 42.10500
O  -4.35500 -0.22800 41.48400
C  -4.49900 -2.46500 42.45300
N  0.71300 -3.84100 44.39200
C  -0.68000 -3.99500 44.42400
C  -1.14700 -5.48400 44.66500
C  0.27000 -6.11700 44.88500
C  1.27000 -4.96400 44.84400
C  -2.06400 -5.72500 45.93200
C  0.46200 -7.26600 43.80200
C  0.01100 -8.69200 44.23800
N  3.43700 -2.96100 44.52400
C  3.75500 -4.25800 44.83200
C  5.17800 -4.39700 44.89400
C  5.62800 -3.14500 44.62900
C  4.55200 -2.32700 44.26300
C  5.80600 -5.70600 45.20700
C  6.81900 -2.44000 44.48000
O  7.98400 -2.79600 44.70300
C  6.40600 -1.01700 43.96300
C  6.78000 0.09600 44.88600
O  6.10600 0.43800 45.78400
O  7.91000 0.76200 44.47900
C  8.37600 2.02100 45.17800
H  0.62200 2.06100 42.17700
H  -2.68100 -3.25100 43.88300
H  3.01200 -6.17500 45.31000
H  5.22200 1.81200 43.24800
H  2.85400 2.37800 41.51500
H  3.97600 3.62700 43.50500
H  2.47900 3.15800 44.33600
H  2.45000 4.18300 42.88700
H  4.57900 1.34000 40.44200
H  5.21300 -0.09200 40.99900
H  7.35100 0.74100 40.98000
H  6.89900 2.04800 42.05400
H  -2.30200 0.95400 40.28600
H  -1.13300 2.00700 40.91800
H  -2.67700 1.98700 41.74600
H  -5.45200 -2.54600 41.93100
H  -4.63900 -2.54900 43.53000
H  -3.92900 -3.28600 42.01700
H  -1.57400 -5.73700 43.69500
H  0.42400 -6.63800 45.83000
H  -3.09100 -5.53500 45.62200
H  -1.64800 -5.04500 46.67500
H  -2.08100 -6.71100 46.39500
H  1.51300 -7.28900 43.51500
H  -0.00900 -6.90000 42.89000
H  -0.71100 -9.07900 43.51900
H  -0.46100 -8.67500 45.22000
H  0.86100 -9.37000 44.31400
H  5.58200 -6.36300 44.36700
H  5.47500 -6.08200 46.17500
H  6.85300 -5.48200 45.41100
H  6.92700 -0.85600 43.01900
H  8.18900 2.94800 44.63700
H  9.45500 2.06300 45.32600
H  7.88400 2.07900 46.14900
Mg 26.16500 0.90500 29.36400
C  27.87600 0.55200 32.31300
C  23.16600 1.29200 31.18600
C  24.39600 0.94300 26.48500
C  29.14200 -0.03500 27.52900
N  25.62100 0.75900 31.57300
C  26.49500 0.73300 32.54300
C  25.78300 1.17100 33.88000
C  24.23900 1.07300 33.48100
C  24.32100 1.06200 31.92700
C  23.38200 -0.14100 34.05700
C  26.15200 2.56400 34.38000
C  27.03000 2.64400 35.64600
H  26.54600 3.63900 36.69300
N  24.06200 1.14300 28.84300
C  22.99600 1.27400 29.77700
C  21.74200 1.41900 29.03100
C  22.12100 1.42700 27.62500
C  23.54900 1.10900 27.58300
C  20.36800 1.50800 29.70500
C  21.21900 1.71700 26.43000
O  21.66000 1.67400 25.26200
C  19.79700 2.11800 26.52500
N  26.63400 0.45000 27.32700
C  25.74600 0.59800 26.31900
C  26.46900 0.23200 24.97800
C  27.88600 -0.25000 25.36300
C  27.90700 0.06700 26.83100
C  25.62000 -0.66400 24.02400
C  28.97900 0.30600 24.52200
C  29.27000 1.78500 24.79200
N  28.14500 0.43300 29.73700
C  29.25200 0.13100 28.97900
C  30.45500 0.14700 29.75700
C  29.93100 0.27900 31.07900
C  28.57000 0.47300 30.98100
C  31.81400 -0.30100 29.35100
C  30.25300 0.36200 32.44500
O  31.31300 0.16700 33.02400
C  28.97500 0.59600 33.30300
C  28.75600 -0.46800 34.39000
O  28.55900 -1.64500 34.21800
O  29.01200 0.13700 35.58400
C  28.85700 -0.73900 36.74500
H  22.21600 1.58100 31.64100
H  23.87600 0.99900 25.52700
H  30.07200 -0.00300 26.95800
H  26.09600 0.56500 34.72900
H  23.71100 2.00500 33.68400
H  22.75000 -0.60600 33.30100
H  22.73600 0.27400 34.83000
H  23.89100 -0.94000 34.59600
H  25.21900 3.06700 34.63700
H  26.70100 3.15000 33.64400
H  28.05900 2.89500 35.38900
H  27.02700 1.67300 36.14000
H  19.92800 2.48800 29.52300
H  20.49400 1.43000 30.78500
H  19.64500 0.77200 29.35200
H  19.82300 3.02400 27.13100
H  19.26700 1.27600 26.97100
H  19.44000 2.46000 25.55400
H  26.62300 1.15400 24.41900
H  27.85800 -1.33900 25.40400
H  26.11900 -1.58200 23.71300
H  25.38700 -0.08000 23.13400
H  24.70900 -1.01400 24.51000
H  28.76200 0.15700 23.46500
H  29.86300 -0.28700 24.75800
H  28.36500 2.29100 25.13000
H  29.70500 2.32900 23.95300
H  30.15200 1.78500 25.43200
H  31.88200 -0.45500 28.27400
H  31.89000 -1.27500 29.83300
H  32.51600 0.45800 29.69500
H  28.99900 1.62400 33.66600
H  27.84900 -1.15300 36.73100
H  29.20000 -0.28600 37.67600
H  29.65800 -1.47600 36.67900

