158

Mg 54.91200 23.60300 44.85100
C  53.05900 26.44800 44.39900
C  52.33900 21.68400 43.75500
C  57.13000 21.00500 44.55000
C  57.70500 25.67900 45.96100
N  52.92100 24.03400 44.23400
C  52.37100 25.27500 44.02900
C  50.90800 25.12000 43.54000
C  50.67100 23.60700 43.77000
C  52.01300 23.04600 43.91600
C  49.86000 23.37000 45.10000
C  50.59800 25.55600 42.07000
C  49.12500 25.73600 41.61000
H  48.61000 24.76400 40.54900
N  54.80800 21.59400 44.13300
C  53.61100 21.02000 43.82200
C  53.85300 19.67100 43.53400
C  55.26500 19.39700 43.73200
C  55.84300 20.68200 44.10800
C  52.65800 18.86700 42.98000
C  55.97600 18.06100 43.40400
O  55.35000 17.14500 42.89200
C  57.38300 17.70900 43.67100
N  57.15800 23.41400 45.01600
C  57.74100 22.21800 44.94700
C  59.18800 22.31600 45.50900
C  59.41900 23.83500 45.89500
C  58.01400 24.33300 45.61100
C  59.48900 21.31500 46.64000
C  60.44100 24.59100 44.95000
C  61.86700 24.53100 45.50900
N  55.29300 25.61400 45.26900
C  56.42700 26.27600 45.70900
C  56.14000 27.69600 45.87200
C  54.83000 27.83500 45.37500
C  54.41000 26.52100 44.96900
C  57.08700 28.78100 46.31300
C  53.73900 28.73900 45.04300
O  53.53400 29.93100 45.20500
C  52.61000 27.87600 44.30800
C  52.24700 28.46900 42.97200
O  52.87500 28.42200 41.91600
O  51.03300 29.05600 43.03900
C  50.35000 29.38800 41.78100
H  51.40300 21.14100 43.60800
H  57.86500 20.20000 44.48900
H  58.53500 26.33800 46.22300
H  50.26900 25.73000 44.17800
H  50.08000 23.27200 42.91800
H  49.05000 24.07200 45.29700
H  50.48300 23.21800 45.98100
H  49.36700 22.44400 44.80200
H  50.99400 24.72500 41.48600
H  51.27400 26.32500 41.69400
H  49.01400 26.71500 41.14200
H  48.46300 25.63600 42.47000
H  53.03800 18.07400 42.33500
H  51.91700 19.34800 42.34200
H  52.08800 18.50800 43.83700
H  57.99600 18.45700 43.16800
H  57.57100 16.75500 43.17800
H  57.52500 17.68200 44.75100
H  60.03300 22.16900 44.83500
H  59.73000 23.93200 46.93500
H  59.65600 21.68800 47.65000
H  60.46200 20.86600 46.44200
H  58.68300 20.58300 46.70300
H  60.11100 25.62700 44.88800
H  60.34900 24.29200 43.90600
H  62.45300 24.49400 44.59100
H  62.08100 23.62000 46.06700
H  61.96900 25.40400 46.15200
H  56.78600 29.22000 47.26400
H  57.12000 29.57200 45.56500
H  58.09700 28.42000 46.50900
H  51.72600 27.93000 44.94300
H  50.53200 28.69700 40.95700
H  50.70600 30.38900 41.53700
H  49.26500 29.39400 41.89000
Mg 9.97300 48.35400 24.01400
C  7.47000 49.01000 26.32100
C  12.23900 48.88900 26.52100
C  12.30200 47.26300 21.82400
C  7.51700 47.90700 21.46800
N  9.88700 48.79500 26.21500
C  8.77000 49.01600 26.85000
C  9.03300 49.22400 28.32300
C  10.53300 49.68400 28.23700
C  10.95800 49.01900 26.94600
C  10.67000 51.22500 28.10700
C  8.95500 47.91200 29.21300
C  8.33500 48.33500 30.66100
H  8.05600 47.18400 31.67500
N  11.88800 48.15600 24.08000
C  12.65700 48.48700 25.22900
C  14.06900 48.43000 24.87400
C  14.12700 47.95000 23.51800
C  12.73300 47.71100 23.08400
C  15.13100 48.91300 25.86500
C  15.38400 47.84100 22.54100
O  15.26700 47.51500 21.35000
C  16.72300 48.06300 23.13700
N  9.94200 47.81900 21.83000
C  11.04700 47.39000 21.19000
C  10.72200 46.89700 19.76800
C  9.18400 47.22500 19.61300
C  8.83300 47.73900 21.04400
C  11.59400 47.34000 18.61200
C  8.32300 45.96300 19.25700
C  7.77600 45.08700 20.32700
N  7.91800 48.47500 23.87400
C  7.04700 48.29900 22.79300
C  5.65800 48.54100 23.25700
C  5.79100 48.91300 24.59300
C  7.16700 48.78400 24.93000
C  4.42100 48.40600 22.50000
C  5.08900 49.42500 25.76700
O  3.94900 49.81800 25.93100
C  6.08400 49.26100 26.99900
C  5.70000 48.12700 27.80200
O  5.97200 46.96900 27.42100
O  4.96600 48.46000 28.93900
C  4.67300 47.25500 29.63100
H  12.97800 49.03300 27.31200
H  13.13300 46.67200 21.43200
H  6.74100 47.73500 20.72000
H  8.50200 50.08600 28.72500
H  11.16100 49.29100 29.03700
H  11.22300 51.45400 27.19600
H  11.24200 51.61800 28.94700
H  9.72700 51.76000 27.99800
H  9.91200 47.40700 29.34300
H  8.24200 47.28500 28.67800
H  7.33400 48.69100 30.41800
H  8.92100 49.13800 31.10800
H  14.91000 48.76100 26.92100
H  15.35700 49.95600 25.64100
H  16.09800 48.42600 25.74700
H  16.95400 47.20400 23.76700
H  16.68100 49.02500 23.64700
H  17.55500 47.99900 22.43600
H  10.78800 45.80900 19.73700
H  8.95500 48.03900 18.92400
H  11.07800 48.12900 18.06600
H  11.80100 46.45000 18.01700
H  12.49800 47.81900 18.98800
H  8.78600 45.40000 18.44600
H  7.40400 46.34500 18.81100
H  8.48100 45.26700 21.13900
H  7.85400 44.05800 19.97700
H  6.77700 45.39600 20.63400
H  4.60800 47.77300 21.63300
H  4.04300 49.39300 22.23200
H  3.63900 47.91700 23.08100
H  5.97500 50.18100 27.57200
H  3.62900 47.06200 29.38600
H  4.54400 47.56400 30.66800
H  5.33600 46.39500 29.53300

