158

Mg 8.38600 3.10300 27.58700
C  10.19100 1.78300 30.45500
C  6.53200 5.07700 29.90500
C  6.52100 3.96000 25.08700
C  10.14600 0.68300 25.72000
N  8.42600 3.32800 29.93100
C  9.32900 2.82500 30.85300
C  9.27400 3.60300 32.12000
C  8.03900 4.59200 31.95200
C  7.60700 4.34500 30.50700
C  6.90900 4.45500 32.99700
C  10.61700 4.39900 32.36000
C  11.21200 4.12400 33.73100
H  10.85000 5.02600 34.92900
N  6.82200 4.37400 27.47000
C  6.14800 5.01700 28.47200
C  5.03900 5.72000 27.92600
C  5.06500 5.57900 26.53000
C  6.21000 4.66100 26.25700
C  4.02900 6.37200 28.79500
C  4.10100 6.25100 25.53300
O  4.10100 5.92200 24.36000
C  3.22700 7.33700 25.86200
N  8.48900 2.56200 25.69200
C  7.51800 2.95300 24.86700
C  7.83100 2.39000 23.40000
C  9.01300 1.48400 23.54000
C  9.27500 1.56100 25.07300
C  6.51500 1.73100 22.83600
C  10.30200 1.87200 22.80600
C  10.71400 1.09200 21.54000
N  9.84600 1.49800 27.93000
C  10.43000 0.63800 27.03500
C  11.33800 -0.23100 27.70000
C  11.32500 0.23000 29.06900
C  10.32000 1.24800 29.14600
C  12.10800 -1.25900 27.04500
C  11.97400 0.11000 30.31500
O  12.86800 -0.65000 30.67300
C  11.22800 1.06600 31.32000
C  10.52800 0.21800 32.29400
O  9.78100 -0.71600 32.11900
O  10.93000 0.59400 33.49800
C  10.32800 -0.06000 34.69700
H  6.09900 5.79000 30.61000
H  5.97000 4.23700 24.18600
H  10.64500 -0.00700 25.03800
H  9.03500 3.03300 33.01800
H  8.36300 5.63300 31.92300
H  6.00700 4.17200 32.45500
H  6.78100 5.42300 33.48100
H  7.15000 3.67200 33.71500
H  10.46100 5.47400 32.26600
H  11.36600 4.22300 31.58700
H  12.29000 3.97000 33.68200
H  10.80600 3.18600 34.10900
H  4.10400 7.44500 28.61800
H  4.08900 6.05300 29.83600
H  3.01100 6.11900 28.49900
H  3.80100 8.12600 26.34700
H  2.35900 6.89200 26.34800
H  2.99900 7.80000 24.90200
H  7.95800 3.24500 22.73700
H  8.68000 0.46800 23.32500
H  5.80900 1.71200 23.66600
H  6.69300 0.74600 22.40400
H  5.98800 2.34900 22.10900
H  11.10700 1.84100 23.54100
H  10.23500 2.92600 22.53700
H  10.90700 1.83200 20.76300
H  9.95400 0.37600 21.22600
H  11.61100 0.48100 21.63400
H  11.44000 -2.06500 26.73900
H  12.93300 -1.70400 27.60100
H  12.51300 -0.91700 26.09200
H  11.81800 1.88300 31.73400
H  9.30400 -0.41500 34.57400
H  10.22500 0.76800 35.39800
H  11.03000 -0.68100 35.25300
Mg 26.27100 0.49400 29.81500
C  28.17500 0.08800 32.69100
C  23.66100 1.22000 31.63200
C  24.53200 0.10600 26.99800
C  29.19900 -0.58700 28.05600
N  25.95900 0.34900 32.07000
C  26.91000 0.58300 32.97900
C  26.31000 0.99900 34.30800
C  24.83300 1.47900 33.91100
C  24.77300 1.00500 32.41400
C  23.62200 0.88200 34.64000
C  27.05600 2.12500 35.16600
C  27.54700 1.67800 36.52400
H  27.42200 2.67300 37.65700
N  24.28400 0.54600 29.35400
C  23.32600 0.93000 30.28000
C  22.06500 0.98200 29.62800
C  22.27700 0.59600 28.28400
C  23.74300 0.36300 28.12900
C  20.82900 1.50600 30.20100
C  21.31600 0.44800 27.08000
O  21.69800 0.08800 25.98900
C  19.85400 0.76100 27.26700
N  26.83400 -0.20800 27.76500
C  25.91600 -0.09900 26.82300
C  26.61500 -0.37500 25.43900
C  28.08600 -0.25500 25.74500
C  28.08100 -0.29400 27.29800
C  26.17500 -1.74400 24.83800
C  28.96900 0.88000 25.22700
C  29.30200 0.77100 23.75700
N  28.25000 -0.21100 30.22400
C  29.28500 -0.61700 29.42900
C  30.46600 -0.92300 30.22900
C  30.07300 -0.59500 31.49100
C  28.69900 -0.21900 31.43300
C  31.84000 -1.43000 29.78100
C  30.50500 -0.65700 32.84200
O  31.51900 -1.06500 33.42000
C  29.27200 -0.13200 33.67100
C  29.03000 -1.21100 34.69300
O  28.45200 -2.22800 34.52000
O  29.69300 -0.88100 35.84000
C  29.77200 -1.99500 36.81700
H  22.78700 1.55400 32.19500
H  24.00900 -0.03800 26.05100
H  30.12500 -0.85000 27.54100
H  26.35800 0.11500 34.94400
H  24.71700 2.56200 33.95500
H  24.00000 0.61200 35.62600
H  23.14600 0.02000 34.17300
H  22.83100 1.62700 34.72700
H  26.39200 2.96900 35.35200
H  27.93800 2.50000 34.64500
H  28.62300 1.64100 36.35200
H  27.17800 0.70600 36.85000
H  20.44600 2.33000 29.59900
H  21.03200 2.03000 31.13500
H  20.04800 0.76300 30.36400
H  19.38200 0.02800 27.92200
H  19.39300 0.71200 26.28000
H  19.85300 1.77400 27.66900
H  26.30000 0.31600 24.65800
H  28.57000 -1.15400 25.36300
H  25.98900 -2.48800 25.61200
H  26.97900 -2.27000 24.32300
H  25.30400 -1.66200 24.18700
H  29.82800 1.02400 25.88200
H  28.36000 1.77700 25.33600
H  30.35400 1.05800 23.74500
H  28.78500 1.40100 23.03300
H  29.30300 -0.24600 23.36600
H  32.50800 -1.36600 30.64000
H  32.17200 -0.84800 28.92200
H  31.63100 -2.40300 29.33600
H  29.62800 0.74900 34.20500
H  30.61100 -1.75300 37.46900
H  30.13700 -2.91200 36.35600
H  28.83100 -2.10500 37.35600

