158

Mg 47.13800 24.76300 28.03700
C  48.08400 27.00600 30.48400
C  45.84700 22.68800 30.61200
C  46.69400 22.37300 25.68300
C  49.00000 26.66200 25.69500
N  47.06100 24.82000 30.26400
C  47.41100 25.92300 31.03400
C  46.90800 25.81500 32.49000
C  46.33400 24.31800 32.50800
C  46.34200 23.93500 31.03400
C  47.09400 23.39300 33.47400
C  45.91500 26.91800 33.01200
C  46.17800 27.36900 34.43200
H  46.69400 26.42400 35.52900
N  46.34300 22.83700 28.13000
C  45.84100 22.18600 29.26900
C  45.29000 20.92900 28.83000
C  45.53200 20.79400 27.40600
C  46.21900 22.05000 27.04400
C  44.74900 19.79900 29.74300
C  45.11700 19.66200 26.43900
O  45.50400 19.69500 25.26300
C  44.14800 18.60300 26.86900
N  47.80900 24.59300 25.89800
C  47.35000 23.50900 25.15500
C  47.97900 23.62900 23.82000
C  48.59700 25.06000 23.81800
C  48.38300 25.49600 25.17800
C  49.08500 22.48400 23.54300
C  47.91600 26.07200 22.86000
C  46.54200 26.79200 23.28900
N  48.24000 26.47500 28.00300
C  48.91800 27.19600 27.06300
C  49.44200 28.46300 27.62900
C  49.06400 28.41500 28.94800
C  48.38500 27.18700 29.12800
C  50.07400 29.62700 26.91700
C  49.27200 29.18300 30.13000
O  49.79400 30.21700 30.46500
C  48.61200 28.31400 31.21700
C  49.52300 28.06600 32.36600
O  50.20800 27.09100 32.51800
O  49.30200 29.08000 33.31600
C  49.98300 28.90100 34.57900
H  45.39800 22.09100 31.40800
H  46.61500 21.68500 24.83900
H  49.52800 27.30800 24.99000
H  47.85500 25.79500 33.03000
H  45.26600 24.42200 32.70300
H  47.71300 22.67200 32.94000
H  46.50400 22.75000 34.12800
H  47.75600 23.97300 34.11600
H  44.86400 26.63300 32.95100
H  46.07600 27.75400 32.33200
H  45.26300 27.73500 34.89700
H  46.83900 28.23500 34.41600
H  45.08500 20.06000 30.74700
H  45.27000 18.93300 29.33500
H  43.67400 19.77800 29.56300
H  44.24600 18.07300 27.81600
H  44.08600 17.84100 26.09300
H  43.19500 19.13200 26.87900
H  47.11100 23.55600 23.16400
H  49.65500 25.01600 23.56100
H  49.09100 21.75400 24.35200
H  50.03600 23.01600 23.57100
H  48.82100 21.97400 22.61600
H  47.64400 25.47200 21.99100
H  48.65900 26.80200 22.53800
H  45.80300 26.76100 22.48800
H  46.82800 27.83600 23.41300
H  46.12800 26.38500 24.21200
H  49.32400 30.41700 26.86000
H  50.44900 29.33900 25.93500
H  51.02600 29.83800 27.40200
H  47.75100 28.87900 31.57400
H  51.03500 28.62600 34.50700
H  49.48500 28.13400 35.17200
H  49.94100 29.81300 35.17400
Mg -2.65000 35.33900 26.87700
C  -3.99200 33.33000 29.37200
C  -1.02200 37.24300 29.19400
C  -1.39900 37.20900 24.36900
C  -4.57800 33.63800 24.57200
N  -2.55200 35.29100 28.99800
C  -3.21100 34.40900 29.86100
C  -2.83500 34.72800 31.34300
C  -1.93500 35.95600 31.22100
C  -1.81300 36.25400 29.70000
C  -2.41300 37.19000 32.07900
C  -2.20300 33.56600 32.20700
C  -2.97600 33.08100 33.42100
H  -2.26800 32.84700 34.79400
N  -1.35800 36.96200 26.79700
C  -0.77600 37.64500 27.86000
C  0.31500 38.41300 27.32100
C  0.27900 38.41100 25.92000
C  -0.85800 37.48100 25.64000
C  1.31100 39.13800 28.22900
C  1.18600 39.06500 24.89600
O  1.06100 38.98800 23.70600
C  2.43200 39.77300 25.37500
N  -3.17400 35.52700 24.73700
C  -2.44400 36.31000 23.90700
C  -3.01400 36.30700 22.48600
C  -3.82100 35.01800 22.49200
C  -3.90200 34.66400 23.98000
C  -3.87000 37.57500 22.14500
C  -3.09300 33.90200 21.76500
C  -3.21700 33.91700 20.26200
N  -4.04900 33.81800 26.91800
C  -4.69300 33.12500 25.89600
C  -5.39300 32.01900 26.41600
C  -5.16300 32.06100 27.75700
C  -4.30800 33.15400 28.03900
C  -6.15800 31.06500 25.66800
C  -5.53700 31.44000 28.91200
O  -6.27000 30.46200 29.07000
C  -4.73900 32.22100 30.11900
C  -5.77400 32.84200 31.02100
O  -6.29300 33.87400 30.84500
O  -5.89800 32.09500 32.22000
C  -6.89700 32.68800 33.19700
H  -0.37700 37.61400 29.99300
H  -0.92000 37.81700 23.59900
H  -5.13000 33.13100 23.77800
H  -3.81200 34.98600 31.75100
H  -0.89600 35.77100 31.49300
H  -3.11500 36.94500 32.87600
H  -2.79800 37.90400 31.35100
H  -1.48600 37.53300 32.53900
H  -1.20000 33.71100 32.60900
H  -2.07200 32.74900 31.49700
H  -3.34200 32.06400 33.27400
H  -3.89200 33.66500 33.51700
H  0.95900 40.13900 27.97800
H  2.35500 39.13000 27.91500
H  1.23000 38.93800 29.29800
H  2.01400 40.64000 25.88700
H  3.06800 40.09700 24.55100
H  3.00800 39.06700 25.97300
H  -2.21200 36.29200 21.74800
H  -4.78400 35.08100 21.98600
H  -4.90700 37.50500 22.47400
H  -3.65100 37.70300 21.08400
H  -3.56200 38.44700 22.72200
H  -3.62300 33.00300 22.07800
H  -2.06700 33.79700 22.12100
H  -3.56800 34.88100 19.89500
H  -3.87900 33.10000 19.97700
H  -2.18600 33.72700 19.96400
H  -6.23600 31.13000 24.58300
H  -7.09700 30.94200 26.20700
H  -5.58000 30.14600 25.76200
H  -3.95800 31.65900 30.63200
H  -7.82200 32.86200 32.64800
H  -6.56300 33.58500 33.71900
H  -7.11800 32.04900 34.05100

