158

Mg 53.52600 23.33800 45.29700
C  51.02000 25.49900 44.30600
C  51.61700 20.70200 44.20900
C  56.39000 21.27800 45.13200
C  55.65200 26.02500 46.06700
N  51.50700 23.11700 44.22700
C  50.69900 24.15700 44.08200
C  49.34500 23.59600 43.53600
C  49.41400 22.12800 44.05800
C  50.94200 21.91400 44.21600
C  48.62400 21.82500 45.38700
C  49.41000 23.65400 41.94800
C  48.07400 24.02700 41.28500
H  47.95400 23.76100 39.73700
N  53.87500 21.26800 44.86700
C  52.93300 20.41400 44.42100
C  53.50900 19.10200 44.41100
C  54.93700 19.17400 44.77400
C  55.13700 20.58900 44.91700
C  52.66600 17.84400 43.94200
C  55.84000 17.99000 45.08900
O  55.41100 16.91500 44.75900
C  57.18400 18.07900 45.80600
N  55.84400 23.59800 45.53700
C  56.74500 22.64100 45.52000
C  58.14500 23.18000 45.83700
C  57.88200 24.72500 46.17100
C  56.40000 24.80800 45.82800
C  58.77700 22.32400 46.98900
C  58.78700 25.73700 45.39700
C  59.47700 26.80500 46.31000
N  53.41900 25.34900 45.29800
C  54.24700 26.32600 45.77000
C  53.56700 27.66200 45.74300
C  52.31100 27.37600 45.13900
C  52.25700 25.92600 44.87700
C  54.09500 28.96200 46.24200
C  51.08100 27.95900 44.69900
O  50.63300 29.11100 44.71500
C  50.16500 26.77100 44.11200
C  49.87900 27.03600 42.64800
O  50.82200 27.20200 41.87000
O  48.58700 27.19600 42.42400
C  48.20600 27.84400 41.14600
H  50.85600 19.92300 44.13200
H  57.29400 20.67500 45.03100
H  56.35200 26.82500 46.31800
H  48.48600 24.13600 43.93400
H  48.93200 21.41700 43.38700
H  48.21600 22.72800 45.84100
H  49.31500 21.34900 46.08200
H  47.86400 21.06600 45.19900
H  49.69400 22.68900 41.52900
H  50.12300 24.34300 41.49400
H  47.87600 25.07100 41.52700
H  47.23400 23.49500 41.73200
H  52.20000 17.39500 44.81900
H  53.30300 17.04000 43.57500
H  51.86000 18.06300 43.24100
H  56.93100 18.62300 46.71600
H  57.99400 18.56500 45.26300
H  57.44900 17.04900 46.04500
H  58.66500 23.06800 44.88600
H  57.99000 24.78600 47.25400
H  59.40300 22.96700 47.60800
H  59.32700 21.49700 46.53800
H  57.97400 21.88200 47.57900
H  58.29500 26.36900 44.65900
H  59.60200 25.33600 44.79400
H  58.67300 27.51700 46.50000
H  60.34800 27.35100 45.94700
H  59.90900 26.29700 47.17100
H  55.11900 28.71500 46.52200
H  53.60900 29.33500 47.14300
H  53.97900 29.78600 45.53700
H  49.25100 26.83700 44.70300
H  49.03200 27.88600 40.43500
H  47.92400 28.85500 41.44000
H  47.31200 27.40200 40.70700
Mg 47.77100 15.16300 28.36800
C  45.86500 15.26400 31.34200
C  49.93600 17.35300 29.82100
C  49.32600 15.30800 25.47900
C  45.16500 13.19700 26.87500
N  47.89300 16.19300 30.42100
C  47.07000 16.06300 31.48200
C  47.68100 16.73500 32.70300
C  48.89500 17.51000 32.11600
C  48.87400 17.06500 30.67100
C  48.82500 19.01500 32.34600
C  47.88700 15.83900 33.86100
C  47.14900 16.08000 35.23500
H  47.02500 17.49000 35.76500
N  49.35000 16.16600 27.72300
C  50.12200 17.06300 28.43800
C  51.29000 17.43500 27.65100
C  51.18400 16.79600 26.39700
C  49.92000 16.01900 26.50500
C  52.34100 18.36300 28.14500
C  51.99800 16.99600 25.16100
O  51.81900 16.36500 24.12500
C  53.22600 17.86400 25.25000
N  47.32400 14.31700 26.46400
C  48.12600 14.50700 25.41500
C  47.59700 13.95700 24.10500
C  46.32300 13.26600 24.57000
C  46.27500 13.58300 26.06300
C  47.36200 15.12200 22.97800
C  46.18300 11.67400 24.28600
C  46.87600 10.66900 25.23100
N  45.98000 14.37800 28.95200
C  45.00700 13.60800 28.22800
C  43.85600 13.31000 29.05300
C  44.22100 13.96400 30.26700
C  45.46600 14.56600 30.14000
C  42.66300 12.42400 28.69300
C  43.70800 14.16300 31.62200
O  42.65800 13.65700 32.08300
C  44.82400 14.96300 32.44400
C  44.02100 16.13900 32.94700
O  43.82800 17.17400 32.33900
O  43.55100 15.89700 34.24000
C  42.75800 16.98000 34.85100
H  50.64500 18.07400 30.23200
H  49.92000 15.27600 24.56400
H  44.29500 12.64200 26.51800
H  46.86600 17.39300 33.00700
H  49.75000 17.01700 32.57900
H  48.10900 19.24800 33.13400
H  48.56800 19.61100 31.47100
H  49.77700 19.43400 32.67400
H  48.93100 15.82800 34.17300
H  47.51500 14.89300 33.46500
H  47.72800 15.37000 35.82600
H  46.09700 15.81300 35.13200
H  52.07200 19.40400 27.96200
H  53.36700 18.16100 27.83700
H  52.45500 18.36300 29.22900
H  53.17100 18.85000 25.71000
H  53.39300 18.06000 24.19100
H  54.05800 17.34900 25.72900
H  48.39000 13.26800 23.81500
H  45.45400 13.68000 24.05800
H  46.49600 14.85900 22.37000
H  48.21200 15.04500 22.30000
H  47.36300 16.10400 23.45100
H  46.49400 11.54000 23.25000
H  45.14600 11.36800 24.42800
H  47.39200 11.11800 26.07900
H  47.63900 10.10800 24.69100
H  46.19200 9.90300 25.59600
H  42.99900 11.56300 28.11600
H  42.05500 13.07500 28.06400
H  42.06100 12.03500 29.51500
H  45.11800 14.51200 33.39200
H  41.74300 16.67500 35.10700
H  42.60100 17.90000 34.28800
H  43.25300 17.31000 35.76400

