158

Mg 48.61000 35.89000 28.36500
C  46.71800 34.49100 30.86600
C  48.71000 38.93300 30.20400
C  49.86900 37.63400 25.63500
C  47.95400 33.11500 26.31700
N  47.96400 36.54700 30.29500
C  47.29600 35.73200 31.18400
C  47.45400 36.43100 32.60800
C  47.68800 37.96900 32.26100
C  48.16800 37.80900 30.79200
C  46.31300 38.70600 32.28300
C  48.55900 35.73500 33.45400
C  49.48500 36.63700 34.29100
H  48.80900 37.66100 35.28200
N  49.43800 37.94200 28.12700
C  49.24600 39.04400 28.94300
C  49.90400 40.19600 28.37200
C  50.18600 39.87000 26.96800
C  49.83000 38.42900 26.84700
C  50.18500 41.51300 29.14500
C  50.82300 40.68800 25.88000
O  50.81200 40.32400 24.71800
C  51.36500 42.02600 26.25100
N  48.90800 35.50300 26.33500
C  49.48700 36.32700 25.40400
C  49.59700 35.66400 24.02500
C  49.19900 34.19600 24.31500
C  48.61900 34.26000 25.74700
C  48.60700 36.22100 22.97000
C  50.36200 33.15500 24.30900
C  50.21700 32.01700 23.22400
N  47.71600 34.05300 28.51000
C  47.53900 33.03800 27.64300
C  46.81800 31.92200 28.29400
C  46.48400 32.48600 29.55600
C  46.99300 33.82100 29.62000
C  46.52900 30.49000 27.81300
C  45.76500 32.17100 30.71800
O  45.18000 31.15200 31.00600
C  45.76400 33.49200 31.62000
C  46.05100 33.09500 33.05500
O  46.99300 32.41400 33.41800
O  45.11600 33.62300 33.87700
C  45.00300 33.12100 35.24000
H  48.66300 39.85800 30.78300
H  50.17300 38.13500 24.71300
H  47.77700 32.31400 25.59600
H  46.45500 36.30000 33.02400
H  48.32600 38.49200 32.97300
H  46.53800 39.66500 32.75100
H  45.56700 38.14100 32.84200
H  45.93700 38.74700 31.26100
H  49.23100 35.14300 32.83300
H  48.15300 34.96000 34.10400
H  50.06500 37.14400 33.52000
H  50.11800 35.91400 34.80500
H  49.22400 41.96700 29.38700
H  50.76500 42.30700 28.67500
H  50.74000 41.18400 30.02400
H  51.74600 42.51100 25.35200
H  52.19800 41.81300 26.92100
H  50.57500 42.65500 26.66100
H  50.62300 35.83800 23.70200
H  48.30900 33.79800 23.82800
H  49.14000 36.91200 22.31600
H  47.74500 36.69600 23.43800
H  48.26500 35.44600 22.28400
H  50.43900 32.68600 25.29000
H  51.24700 33.75000 24.08400
H  50.06900 31.11200 23.81300
H  51.11500 31.86800 22.62500
H  49.41300 32.28500 22.53800
H  46.88600 30.50400 26.78300
H  45.49000 30.16200 27.76600
H  46.98300 29.71800 28.43400
H  44.76300 33.92500 31.61900
H  43.91900 33.05000 35.33100
H  45.45900 33.67600 36.06000
H  45.41600 32.11400 35.18600
Mg 43.70000 42.32600 26.29100
C  43.16200 44.85900 28.80400
C  44.83200 40.24400 28.74700
C  44.34300 40.14600 23.90400
C  42.38700 44.63200 23.93300
N  44.08800 42.58100 28.48700
C  43.72800 43.63400 29.33300
C  43.85000 43.17500 30.77700
C  44.73000 41.85100 30.68900
C  44.46100 41.50900 29.21100
C  46.26400 42.23000 30.81200
C  42.38100 43.05100 31.45400
C  42.13200 43.83900 32.70700
H  42.94500 43.47100 33.98300
N  44.37500 40.34900 26.32300
C  44.80800 39.69800 27.37200
C  45.14500 38.33200 27.01500
C  45.00400 38.24100 25.55200
C  44.55000 39.63500 25.17200
C  45.54300 37.31400 28.13600
C  45.28800 37.16500 24.56800
O  45.38700 37.34500 23.36200
C  45.48100 35.80000 25.12900
N  43.51800 42.45000 24.27300
C  43.91100 41.42300 23.45600
C  43.77000 41.73800 21.94800
C  42.87000 43.01300 22.01400
C  42.89400 43.41400 23.52700
C  45.04100 41.90100 21.13300
C  41.35100 42.78400 21.51100
C  40.60900 41.52800 22.07200
N  43.07900 44.35900 26.28900
C  42.56400 45.16900 25.27000
C  42.19800 46.39400 25.82900
C  42.34000 46.28200 27.23600
C  42.87800 45.07100 27.45100
C  41.62000 47.54800 25.06200
C  42.07700 47.04900 28.40500
O  41.40400 48.02400 28.63200
C  42.58900 46.07100 29.52400
C  43.51200 46.72000 30.55800
O  44.73200 46.69400 30.58300
O  42.79100 47.28100 31.52300
C  43.57800 48.09600 32.52800
H  45.06200 39.59600 29.59500
H  44.42100 39.46500 23.05300
H  42.02900 45.36400 23.20600
H  44.39800 43.93700 31.33200
H  44.45600 41.11500 31.44400
H  46.36200 43.29800 30.61700
H  46.98300 41.69000 30.19600
H  46.53000 42.03500 31.85100
H  42.26400 41.98700 31.66300
H  41.55200 43.26200 30.77900
H  41.05200 43.75700 32.83300
H  42.28800 44.90500 32.53900
H  45.17400 37.52300 29.14000
H  46.62600 37.19100 28.12700
H  45.25600 36.28200 27.93700
H  44.54500 35.68200 25.67400
H  46.20000 36.04000 25.91200
H  45.85300 35.06000 24.42000
H  43.28600 40.91500 21.42200
H  43.27900 43.79000 21.36800
H  45.79900 41.23700 21.54900
H  45.25100 42.97000 21.16000
H  44.89600 41.50800 20.12600
H  41.25200 42.87500 20.42900
H  40.81400 43.61500 21.96900
H  40.40500 40.85600 21.23900
H  39.63100 41.70000 22.52100
H  41.32600 40.95200 22.65800
H  40.60000 47.37000 24.72100
H  42.14800 47.57200 24.10900
H  41.64700 48.46600 25.64900
H  41.73500 45.75700 30.12500
H  43.97400 47.45600 33.31700
H  42.93700 48.87100 32.94900
H  44.39100 48.57300 31.98000

