158

Mg -1.97400 17.04500 26.18700
C  -2.06000 14.69600 28.87800
C  -2.77300 19.42300 28.51400
C  -1.80500 19.12100 23.67900
C  -2.10900 14.36800 23.90300
N  -2.43400 16.98700 28.39000
C  -2.33700 15.99500 29.31400
C  -2.64900 16.46400 30.77500
C  -3.30900 17.84900 30.52500
C  -2.86700 18.14800 29.04200
C  -4.89300 17.64200 30.59100
C  -1.27400 16.53200 31.59400
C  -1.29400 15.79900 32.92600
H  -1.68100 16.67500 33.98700
N  -2.16100 18.98100 26.14600
C  -2.44900 19.81900 27.22700
C  -2.33500 21.20800 26.76400
C  -1.95700 21.17200 25.33100
C  -1.92200 19.74000 24.97900
C  -2.51500 22.32600 27.68000
C  -1.75800 22.29400 24.29200
O  -1.55300 22.09300 23.09300
C  -1.58600 23.67300 24.79500
N  -2.23200 16.71300 24.01700
C  -2.00500 17.82300 23.24200
C  -2.11300 17.40100 21.73400
C  -2.33000 15.84900 21.82200
C  -2.20300 15.59100 23.33600
C  -3.12000 18.12700 20.85400
C  -1.15700 15.15800 21.06400
C  0.28800 15.11900 21.68500
N  -2.05900 14.98600 26.26700
C  -1.93300 14.02700 25.26400
C  -1.80300 12.70000 25.84000
C  -1.83100 12.90400 27.24300
C  -2.04200 14.31000 27.48800
C  -1.79000 11.39200 25.14900
C  -1.76800 12.25600 28.49500
O  -1.57400 11.10400 28.81600
C  -2.00000 13.38200 29.58800
C  -0.93800 13.15100 30.67400
O  0.24100 13.43200 30.53700
O  -1.47100 12.57100 31.74100
C  -0.70000 12.37200 32.96900
H  -2.94800 20.16900 29.29200
H  -1.72600 19.81000 22.83500
H  -2.09500 13.59400 23.13300
H  -3.29700 15.75600 31.29200
H  -2.96200 18.64200 31.18800
H  -5.26500 18.47300 31.19100
H  -5.18400 16.81000 31.23100
H  -5.35900 17.55700 29.61000
H  -1.02800 17.54800 31.90400
H  -0.39700 16.25600 31.00800
H  -0.33200 15.38000 33.21800
H  -2.02100 14.98700 32.89100
H  -2.98500 22.20600 28.65500
H  -3.08400 23.00900 27.04900
H  -1.55800 22.82600 27.82900
H  -0.79500 23.60100 25.54200
H  -2.50700 23.98300 25.29000
H  -1.27500 24.31000 23.96700
H  -1.13600 17.66400 21.32900
H  -3.29100 15.46100 21.48300
H  -2.45900 18.57000 20.10900
H  -3.77900 18.83500 21.35800
H  -3.66700 17.42600 20.22400
H  -0.93200 15.71300 20.15400
H  -1.47800 14.21600 20.62000
H  0.36000 15.52600 22.69400
H  1.02500 15.65100 21.08300
H  0.67800 14.10100 21.70400
H  -1.31000 11.41800 24.17100
H  -2.80400 11.06500 24.92000
H  -1.32200 10.62200 25.76300
H  -2.93800 13.40600 30.14300
H  -0.48200 11.30700 33.03700
H  -1.16300 12.80600 33.85500
H  0.30700 12.79000 32.94000
Mg 52.54100 23.72000 44.95200
C  49.60500 25.61000 44.48900
C  50.76600 20.84600 44.44400
C  55.43800 22.15500 44.38000
C  54.30200 26.68800 45.24200
N  50.39300 23.31900 44.24600
C  49.34400 24.19800 44.46700
C  48.07800 23.36400 44.56500
C  48.48800 21.84700 44.79800
C  50.02500 21.99700 44.46200
C  48.26100 21.44900 46.34300
C  47.18300 23.49400 43.28700
C  47.75000 22.82500 42.00100
H  47.57800 23.63000 40.72600
N  53.03200 21.83600 44.44800
C  52.14800 20.73300 44.33600
C  52.96800 19.51400 44.09300
C  54.33200 19.87700 44.00400
C  54.30300 21.34700 44.32900
C  52.26600 18.15500 44.02500
C  55.47700 18.81400 43.78200
O  55.25400 17.67900 43.48300
C  56.85700 19.24400 43.91700
N  54.62500 24.35600 44.65600
C  55.62600 23.50200 44.59000
C  57.05000 24.20600 44.56700
C  56.66800 25.72800 44.83700
C  55.10700 25.59400 44.98700
C  58.07400 23.66100 45.58800
C  57.11100 26.82300 43.78000
C  58.42500 26.73100 43.12600
N  52.09800 25.78500 44.91000
C  52.93400 26.84100 45.13400
C  52.06600 28.08600 45.17100
C  50.75700 27.63300 44.98900
C  50.84900 26.23900 44.67000
C  52.51500 29.49900 45.48000
C  49.33900 27.96500 44.94700
O  48.85700 29.07700 45.03800
C  48.53800 26.71600 44.57900
C  48.02000 27.08300 43.23400
O  48.63500 27.05900 42.19200
O  46.65800 27.25200 43.27500
C  45.94100 27.49300 42.01100
H  50.25000 19.92000 44.70300
H  56.27300 21.48500 44.16600
H  54.83900 27.63500 45.33600
H  47.43600 23.76300 45.35100
H  48.14300 21.07100 44.11500
H  48.25700 20.36000 46.37200
H  47.33500 21.91200 46.68600
H  49.08200 21.77000 46.98400
H  47.10100 24.54600 43.01000
H  46.12400 23.28400 43.43900
H  47.15700 21.94200 41.76400
H  48.78100 22.47300 42.04400
H  51.52300 18.20500 43.22900
H  51.75500 17.93600 44.96300
H  52.90700 17.29500 43.83100
H  57.50400 18.37500 43.80000
H  56.90600 19.71400 44.89900
H  57.09000 20.00500 43.17300
H  57.53300 24.08200 43.59800
H  57.01200 26.16400 45.77500
H  59.06400 23.90500 45.20200
H  58.01000 22.57300 45.62200
H  57.87400 24.13000 46.55100
H  57.20000 27.80000 44.25400
H  56.28100 26.86100 43.07400
H  59.15600 26.01000 43.49300
H  58.87400 27.72100 43.04300
H  58.31400 26.49900 42.06700
H  53.14900 29.71700 46.33900
H  51.72400 30.23900 45.59700
H  53.10000 29.81300 44.61500
H  47.72800 26.54200 45.28600
H  45.58400 28.52200 41.97800
H  45.10400 26.79400 42.03400
H  46.51800 27.38000 41.09300

