158

Mg 16.48300 -2.97700 28.01300
C  15.89300 -0.92900 30.74300
C  18.26200 -5.04600 30.24700
C  17.71100 -4.76700 25.40100
C  15.36200 -0.49400 25.92700
N  17.02800 -2.94300 30.26100
C  16.54900 -2.08400 31.17700
C  16.90000 -2.49000 32.58900
C  17.65900 -3.78700 32.42800
C  17.74700 -3.89800 30.85200
C  19.09100 -3.96500 33.12700
C  15.66000 -2.73300 33.53000
C  15.67400 -1.93100 34.84600
H  17.03100 -1.58800 35.44600
N  17.64400 -4.76700 27.86600
C  18.28100 -5.47500 28.87200
C  18.82900 -6.59900 28.31900
C  18.78500 -6.48200 26.91200
C  18.03700 -5.29300 26.66400
C  19.40100 -7.56200 29.24200
C  19.51000 -7.38500 25.95800
O  19.44900 -7.22400 24.74100
C  20.31600 -8.51100 26.45100
N  16.59700 -2.60600 26.05100
C  17.11500 -3.49900 25.07700
C  17.10900 -2.90300 23.63600
C  16.20600 -1.65800 23.85700
C  16.01200 -1.56400 25.36900
C  18.51800 -2.45100 23.08000
C  14.87800 -1.56400 22.95300
C  13.61400 -1.99500 23.71100
N  15.47100 -1.21000 28.24200
C  15.12400 -0.25600 27.33500
C  14.47700 0.79600 27.94400
C  14.72800 0.57300 29.30500
C  15.42900 -0.66300 29.44900
C  13.74500 1.96400 27.27000
C  14.62400 1.12900 30.63300
O  14.15300 2.21500 30.95900
C  15.28500 0.17300 31.61100
C  16.32000 0.88100 32.38600
O  17.50800 1.04900 32.13000
O  15.71500 1.50900 33.38200
C  16.47800 2.47100 34.18400
H  18.76000 -5.62800 31.02600
H  17.92800 -5.28700 24.46600
H  15.08500 0.31200 25.24400
H  17.53100 -1.66900 32.92900
H  17.07400 -4.62600 32.80400
H  19.83800 -3.76100 32.36100
H  19.07300 -4.95500 33.58300
H  19.20600 -3.31700 33.99600
H  15.60100 -3.80400 33.72200
H  14.85800 -2.37900 32.88200
H  15.18300 -2.54200 35.60300
H  15.02900 -1.06200 34.71900
H  18.75000 -7.85500 30.06600
H  20.26800 -7.20400 29.79600
H  19.62000 -8.52000 28.76900
H  21.13000 -8.24000 27.12400
H  20.82500 -8.96600 25.60100
H  19.72500 -9.31100 26.89700
H  16.51000 -3.49300 22.94200
H  16.74200 -0.73500 23.63400
H  19.12700 -2.36600 23.98000
H  18.60600 -1.45200 22.65200
H  19.08000 -3.08900 22.40000
H  14.95700 -2.11400 22.01500
H  14.73100 -0.50700 22.73200
H  13.81500 -2.87100 24.32800
H  12.93900 -2.29500 22.91000
H  13.17900 -1.23000 24.35500
H  12.94000 1.65500 26.60400
H  14.48600 2.45800 26.64100
H  13.37500 2.57500 28.09300
H  14.53400 -0.11300 32.34700
H  16.51400 3.49000 33.79900
H  17.52700 2.23000 34.35200
H  16.01300 2.56100 35.16600
Mg -5.08800 25.10700 26.18300
C  -3.37900 26.57300 28.83900
C  -6.53700 22.98800 28.54000
C  -6.60700 23.47100 23.60200
C  -3.03900 26.80100 23.86000
N  -4.93800 24.86600 28.37900
C  -4.30900 25.64700 29.26000
C  -4.74100 25.42100 30.70600
C  -5.39200 24.07000 30.65100
C  -5.66000 24.02200 29.10300
C  -4.51600 22.85700 31.24100
C  -5.64800 26.58300 31.33400
C  -5.55500 26.81800 32.83600
H  -4.72300 25.85900 33.73000
N  -6.38500 23.43100 26.07400
C  -6.89700 22.74000 27.16000
C  -7.70500 21.60900 26.62500
C  -7.77300 21.78200 25.18900
C  -6.83600 22.89300 24.87100
C  -8.54700 20.57900 27.50400
C  -8.49400 21.00800 24.07700
O  -8.22800 21.05100 22.89400
C  -9.55900 19.95600 24.35700
N  -5.06500 25.30900 24.00000
C  -5.71200 24.49200 23.15400
C  -5.69500 24.95200 21.74300
C  -4.38700 25.84100 21.78700
C  -4.06800 25.97600 23.28800
C  -5.64700 23.76900 20.76300
C  -4.41300 27.23800 21.11600
C  -3.34900 27.66100 20.06100
N  -3.65500 26.47900 26.35900
C  -2.92500 27.12400 25.29100
C  -2.06000 28.08700 25.91700
C  -2.17000 27.86000 27.30600
C  -3.19000 26.86700 27.54200
C  -1.12000 29.03800 25.29900
C  -1.52500 28.22000 28.54600
O  -0.65400 28.96900 28.86400
C  -2.45400 27.50100 29.63300
C  -1.59100 26.73600 30.57400
O  -0.82200 25.87100 30.25500
O  -1.66300 27.30300 31.80900
C  -0.80400 26.70200 32.84100
H  -7.04900 22.25200 29.16300
H  -7.27400 23.07800 22.83100
H  -2.32600 27.33100 23.22600
H  -3.80200 25.39800 31.25900
H  -6.42700 24.00800 30.98800
H  -5.19100 22.41000 31.97000
H  -3.61000 23.06300 31.81000
H  -4.28200 22.22100 30.38700
H  -6.70700 26.33400 31.26300
H  -5.38000 27.52700 30.85900
H  -6.53400 26.90100 33.30900
H  -5.06000 27.77700 32.98500
H  -8.36700 20.58000 28.57900
H  -8.37600 19.53800 27.23100
H  -9.61500 20.72100 27.34200
H  -10.02500 19.78100 23.38700
H  -10.25800 20.51400 24.98000
H  -9.26700 18.97100 24.72200
H  -6.66200 25.44100 21.62200
H  -3.57600 25.25700 21.35300
H  -5.87700 22.78300 21.16600
H  -4.64900 23.66100 20.33800
H  -6.16400 23.98300 19.82800
H  -4.64600 27.98400 21.87600
H  -5.41300 27.32700 20.69300
H  -2.58400 26.91700 19.83500
H  -2.87900 28.57600 20.42000
H  -3.96400 27.85100 19.18100
H  -0.22500 28.45800 25.07500
H  -1.12800 29.90100 25.96500
H  -1.51600 29.45000 24.37000
H  -3.10600 28.13700 30.23200
H  -1.12200 26.82100 33.87700
H  0.11400 27.24200 32.60800
H  -0.57900 25.65100 32.65900

