158

Mg 35.91300 1.13400 29.50400
C  33.46400 1.97100 31.79200
C  38.28000 1.15300 31.69800
C  38.25400 0.92900 26.97300
C  33.38100 1.46600 26.91700
N  35.83500 1.66700 31.51500
C  34.73100 1.82700 32.32300
C  35.20300 1.97900 33.84900
C  36.77800 1.92500 33.69100
C  36.97400 1.48600 32.24400
C  37.54000 3.19100 34.07400
C  34.64900 0.79100 34.77200
C  34.18000 1.24200 36.12000
H  34.96000 2.33400 36.83200
N  37.99900 0.91500 29.38000
C  38.79100 0.85100 30.43700
C  40.07200 0.36900 30.07000
C  40.04500 0.34000 28.63000
C  38.75700 0.74500 28.25000
C  41.12100 -0.13300 31.07200
C  41.15900 -0.05700 27.70600
O  41.02100 -0.10700 26.50100
C  42.54100 -0.51000 28.25200
N  35.84500 1.44100 27.20700
C  36.97100 1.11800 26.47500
C  36.64400 1.28100 24.99500
C  35.08000 1.34000 24.96400
C  34.69300 1.47400 26.42600
C  37.31100 2.52200 24.21500
C  34.33800 0.25000 24.15600
C  34.24600 -1.12700 24.96300
N  33.86700 1.61600 29.37600
C  33.00200 1.64100 28.30700
C  31.66400 1.93700 28.73300
C  31.78600 2.12700 30.11600
C  33.16600 1.88100 30.42900
C  30.50300 2.04700 27.88200
C  31.08800 2.59300 31.29700
O  29.91100 2.96200 31.57900
C  32.20200 2.40700 32.41400
C  32.41500 3.70600 33.10400
O  32.97200 4.72200 32.65300
O  31.77100 3.71600 34.30700
C  31.90600 4.89000 35.19500
H  39.05800 1.10700 32.46400
H  39.04300 0.74600 26.24000
H  32.58400 1.58500 26.18000
H  34.81800 2.89400 34.30100
H  37.09200 1.09100 34.31900
H  38.21000 3.53300 33.28600
H  38.01300 3.17300 35.05600
H  36.84500 4.01900 34.21600
H  35.26400 -0.07600 35.01500
H  33.84000 0.40700 34.15000
H  34.14800 0.42600 36.84100
H  33.14500 1.58200 36.09500
H  41.94200 0.58200 31.13200
H  41.58800 -1.09600 30.86400
H  40.68100 -0.17800 32.06800
H  43.29800 -0.68200 27.48700
H  42.40300 -1.51200 28.65600
H  42.82300 0.18500 29.04300
H  37.08600 0.40600 24.51800
H  34.69700 2.30000 24.61900
H  37.66700 3.30800 24.88100
H  36.69800 3.05400 23.48800
H  38.11200 2.11500 23.59800
H  34.89900 0.14800 23.22700
H  33.32400 0.62000 24.00100
H  33.55500 -0.88600 25.77100
H  35.18500 -1.44700 25.41600
H  33.77600 -1.91600 24.37600
H  30.54700 2.80800 27.10300
H  29.64100 2.30500 28.49800
H  30.32000 1.06700 27.44100
H  31.80400 1.63400 33.07300
H  32.84600 5.44200 35.20600
H  31.92200 4.42200 36.17900
H  31.13100 5.65000 35.10500
Mg 47.04100 44.78500 43.31700
C  43.60800 44.03700 42.98700
C  47.82200 41.51700 42.54600
C  50.32200 45.61600 43.22800
C  46.26800 48.15700 43.62700
N  45.73000 43.01900 42.49600
C  44.37500 42.85000 42.70500
C  43.87700 41.40700 42.68500
C  45.25400 40.61700 42.46600
C  46.41500 41.78000 42.53000
C  45.57100 39.58000 43.58000
C  42.92700 41.29100 41.43900
C  43.26900 41.93100 40.03100
H  43.15500 41.22200 38.70200
N  48.82900 43.73900 43.00700
C  48.91400 42.38200 42.73400
C  50.29300 41.97800 42.61400
C  51.09400 43.16500 42.78900
C  50.09900 44.25200 43.02500
C  50.82300 40.56000 42.35000
C  52.60700 43.18000 42.87100
O  53.28900 42.18900 42.73200
C  53.32800 44.44100 43.10400
N  48.15300 46.67100 43.27800
C  49.45100 46.70300 43.30100
C  49.94400 48.20000 43.46900
C  48.62900 49.05700 43.49400
C  47.58100 47.91800 43.41800
C  50.79900 48.42900 44.76300
C  48.44800 50.14800 42.39200
C  47.60800 51.28300 42.79800
N  45.33300 45.91300 43.31500
C  45.16900 47.28700 43.47400
C  43.79000 47.62900 43.52700
C  43.18900 46.34200 43.40600
C  44.12300 45.35200 43.19300
C  43.12200 48.99900 43.78800
C  41.92500 45.69400 43.37600
O  40.82800 46.12100 43.73700
C  42.19800 44.22300 43.11700
C  41.50400 43.41600 44.19500
O  40.53000 42.69200 44.07000
O  42.19200 43.51500 45.36400
C  41.89500 42.68400 46.52700
H  47.96600 40.45300 42.34800
H  51.33800 45.95300 43.44600
H  46.00600 49.19900 43.82100
H  43.38700 41.13000 43.61900
H  45.34100 40.21800 41.45500
H  46.35000 39.83200 44.29900
H  45.83200 38.62300 43.12700
H  44.75200 39.27900 44.23400
H  41.89400 41.44100 41.75300
H  42.96000 40.22400 41.21600
H  44.30600 42.25200 39.93000
H  42.66200 42.83300 39.94800
H  50.83800 40.42200 41.26900
H  49.94500 39.97900 42.63000
H  51.75500 40.13300 42.72100
H  53.02600 45.17400 42.35600
H  54.35500 44.33300 42.75500
H  53.30900 44.70500 44.16200
H  50.60400 48.44900 42.63800
H  48.59400 49.65700 44.40300
H  51.07900 49.47900 44.68200
H  51.68300 47.80100 44.65500
H  50.24200 48.17700 45.66500
H  47.96900 49.68700 41.52800
H  49.38800 50.49400 41.96200
H  48.11500 52.17900 42.44100
H  47.56000 51.51400 43.86200
H  46.61800 51.27600 42.34100
H  42.25600 48.89400 44.44100
H  42.88300 49.55100 42.87900
H  43.83100 49.60500 44.35200
H  41.78500 43.94400 42.14700
H  40.88500 42.29100 46.41100
H  42.01600 43.23000 47.46300
H  42.66900 41.91600 46.51800

