158

Mg -0.96900 17.81400 27.31800
C  -1.68900 15.66700 30.09800
C  -1.55200 20.45300 29.41300
C  -0.64100 19.79900 24.73500
C  -0.64400 14.95600 25.30200
N  -1.57800 18.01300 29.57100
C  -1.74000 17.05100 30.49600
C  -2.00400 17.68600 31.82700
C  -2.21200 19.15600 31.50400
C  -1.67200 19.22900 30.09200
C  -3.59400 19.73400 31.66900
C  -0.83300 17.53200 32.82000
C  -1.29100 16.81800 34.14800
H  -0.17800 16.57900 35.14300
N  -1.11100 19.82500 27.11400
C  -1.30300 20.78200 28.10200
C  -1.17400 22.15400 27.60000
C  -1.00800 21.99400 26.18800
C  -0.93700 20.54200 25.91700
C  -1.22300 23.39500 28.37700
C  -0.80700 23.03100 25.07300
O  -0.75400 22.76300 23.88200
C  -0.62300 24.46600 25.44300
N  -0.66700 17.40200 25.24700
C  -0.60600 18.44700 24.40600
C  -0.34300 17.92700 22.98100
C  -0.16000 16.39900 23.14200
C  -0.60000 16.20000 24.64200
C  -1.50900 18.40400 21.97300
C  1.31400 15.84600 22.93800
C  2.42000 16.31400 23.90600
N  -1.06200 15.77300 27.53900
C  -0.78800 14.76100 26.70200
C  -1.02900 13.52900 27.38200
C  -1.30700 13.79600 28.67900
C  -1.34600 15.24000 28.75500
C  -1.05300 12.16200 26.79600
C  -1.65300 13.18900 29.95100
O  -1.79300 12.02800 30.24100
C  -1.77800 14.38100 30.94700
C  -0.73800 14.17100 32.01300
O  0.39300 14.63800 31.98200
O  -1.33400 13.48100 32.99400
C  -0.55500 13.11700 34.15600
H  -1.79300 21.29900 30.06100
H  -0.53800 20.33800 23.79100
H  -0.47400 14.02500 24.75700
H  -2.89000 17.20900 32.24400
H  -1.58100 19.81200 32.10500
H  -3.98500 20.00700 30.68900
H  -3.52100 20.57800 32.35400
H  -4.31700 19.11800 32.20400
H  -0.44600 18.50300 33.12800
H  0.07500 17.08200 32.41900
H  -1.73500 15.86600 33.85600
H  -1.96300 17.44100 34.73700
H  -1.56200 23.25300 29.40300
H  -1.96500 24.04800 27.91600
H  -0.24700 23.87800 28.33400
H  -0.21000 24.94000 24.55300
H  0.10000 24.31700 26.24500
H  -1.50100 24.96100 25.85900
H  0.62600 18.25700 22.60600
H  -0.77900 15.85200 22.43100
H  -2.15900 17.62200 21.58100
H  -1.10100 19.12500 21.26400
H  -2.30500 18.88400 22.54200
H  1.66900 16.23600 21.98400
H  1.23600 14.75900 22.97500
H  1.91400 16.87300 24.69400
H  3.05200 17.09100 23.47600
H  3.00000 15.42200 24.14300
H  -0.50300 12.22000 25.85600
H  -2.07100 11.97800 26.45600
H  -0.77800 11.32900 27.44300
H  -2.75600 14.26000 31.41300
H  0.38300 13.67300 34.16600
H  -0.25600 12.06900 34.16300
H  -1.21000 13.43300 34.96800
Mg 16.44900 52.44500 26.82000
C  18.35200 50.86900 29.10500
C  14.01500 53.08800 29.35600
C  14.43300 53.97600 24.51700
C  18.62700 51.65000 24.17700
N  16.21300 52.09200 28.96000
C  17.27100 51.55500 29.67900
C  16.98900 51.74900 31.12600
C  15.53200 52.20100 31.25500
C  15.20300 52.51900 29.83300
C  14.53200 51.08600 31.71400
C  18.04800 52.81000 31.65700
C  18.24400 52.93900 33.13400
H  17.32700 52.04200 34.09700
N  14.51700 53.44900 26.97500
C  13.68000 53.60700 28.09700
C  12.57600 54.46800 27.83800
C  12.75200 54.84700 26.43300
C  13.93700 54.12100 25.89000
C  11.59600 54.89300 28.88500
C  11.97800 55.83100 25.54300
O  12.32700 56.00700 24.42500
C  10.78100 56.61200 26.14700
N  16.49100 52.59200 24.70500
C  15.50000 53.26700 23.97600
C  15.59700 53.03000 22.48800
C  17.14400 52.64000 22.32400
C  17.53300 52.42100 23.78300
C  14.68900 51.94300 22.01600
C  18.03200 53.54200 21.44000
C  19.00400 54.50600 22.16800
N  18.11400 51.41600 26.64800
C  18.88100 51.13600 25.51200
C  19.98300 50.31500 25.91600
C  19.82000 50.17300 27.34500
C  18.69000 50.89300 27.74300
C  21.02900 49.71200 24.96400
C  20.32500 49.54500 28.59200
O  21.32900 48.86400 28.67000
C  19.54500 50.17200 29.79400
C  19.08100 49.14000 30.66300
O  18.22300 48.35700 30.28600
O  19.59200 49.35100 31.93100
C  19.24600 48.40000 33.02700
H  13.24000 53.14900 30.12300
H  13.74400 54.30200 23.73500
H  19.45700 51.32000 23.54900
H  17.14800 50.74700 31.52400
H  15.41100 53.04600 31.93200
H  14.12500 50.59400 30.83100
H  13.79600 51.47600 32.41700
H  15.09100 50.29200 32.20900
H  17.78500 53.75900 31.19000
H  19.01700 52.53600 31.23900
H  18.06300 53.98400 33.38400
H  19.28300 52.68400 33.34600
H  10.69100 55.32800 28.46000
H  12.05500 55.65000 29.52100
H  11.22500 54.14500 29.58600
H  11.19600 57.12800 27.01300
H  9.90200 55.99700 26.34000
H  10.49400 57.36800 25.41500
H  15.36600 53.98300 22.01200
H  17.15200 51.67000 21.82700
H  15.19700 51.31200 21.28700
H  13.93400 52.47600 21.43800
H  14.11200 51.37000 22.74200
H  17.37700 54.16900 20.83600
H  18.57600 52.90700 20.74100
H  19.14800 54.25600 23.21900
H  18.62700 55.50400 21.94500
H  19.97900 54.41200 21.69000
H  21.88100 49.35400 25.54200
H  21.31500 50.50400 24.27200
H  20.64000 48.87600 24.38300
H  20.21600 50.94500 30.16800
H  18.30000 47.87500 32.89600
H  19.25100 48.87400 34.00800
H  20.03300 47.66600 33.19900

