158

Mg 24.42300 -5.08900 46.33600
C  26.26400 -2.41500 44.82400
C  21.81900 -4.24600 44.43800
C  23.10100 -8.11600 47.18100
C  27.46200 -6.06200 47.80900
N  24.15200 -3.54900 44.80900
C  25.02700 -2.62400 44.27500
C  24.33500 -1.70900 43.17100
C  22.83800 -2.21900 43.19800
C  22.88800 -3.44500 44.29700
C  21.91400 -1.09400 43.66200
C  24.91800 -1.77700 41.67900
C  25.44300 -0.44000 41.03900
H  25.26500 -0.37200 39.51200
N  22.66400 -5.98800 45.98400
C  21.67600 -5.42300 45.20100
C  20.43100 -6.30400 45.36800
C  20.77300 -7.40400 46.15900
C  22.18100 -7.22400 46.50500
C  19.03900 -5.99300 44.76500
C  19.83300 -8.49900 46.68200
O  18.62000 -8.50800 46.41100
C  20.31300 -9.61400 47.42500
N  25.16600 -6.81000 47.30800
C  24.44600 -7.93000 47.53400
C  25.31500 -8.99600 48.29000
C  26.63400 -8.32700 48.53000
C  26.38900 -6.97900 47.78500
C  24.54200 -9.39800 49.63400
C  27.85700 -9.07700 48.05700
C  29.03500 -9.07300 49.00400
N  26.48200 -4.38100 46.44100
C  27.57000 -4.84300 47.09500
C  28.64800 -3.95600 47.01800
C  28.17100 -3.03600 46.12700
C  26.85400 -3.28900 45.78400
C  29.96700 -3.96000 47.77100
C  28.50900 -1.84500 45.40700
O  29.52100 -1.16800 45.42200
C  27.32700 -1.37500 44.53000
C  26.96100 0.02600 44.70200
O  26.41700 0.55300 45.66500
O  27.27900 0.81000 43.60700
C  26.84300 2.27900 43.56700
H  20.94000 -4.03600 43.82500
H  22.64100 -9.07700 47.41900
H  28.37600 -6.37800 48.31700
H  24.48400 -0.67600 43.48400
H  22.49200 -2.66100 42.26400
H  21.19900 -0.93800 42.85500
H  22.37100 -0.10800 43.74700
H  21.39400 -1.29900 44.59800
H  24.16200 -2.17600 41.00300
H  25.76400 -2.45600 41.79200
H  26.42600 -0.06600 41.32700
H  24.75600 0.31600 41.41900
H  18.49400 -6.81100 44.29400
H  19.22400 -5.29800 43.94600
H  18.28300 -5.52500 45.39500
H  19.45700 -10.28700 47.44700
H  20.54600 -9.36200 48.46000
H  21.14000 -10.07400 46.88300
H  25.46800 -9.82700 47.60200
H  26.75400 -7.96300 49.55100
H  25.15100 -9.15600 50.50500
H  24.34600 -10.46900 49.58400
H  23.57600 -8.90700 49.75700
H  28.15500 -8.49700 47.18300
H  27.74100 -10.07300 47.63100
H  29.67800 -8.27400 48.63500
H  29.59100 -10.00700 48.92200
H  28.86400 -8.95400 50.07400
H  30.50300 -3.05200 47.49300
H  30.58200 -4.81100 47.48200
H  29.88800 -4.07900 48.85200
H  27.62200 -1.49900 43.48800
H  27.67000 2.89700 43.21700
H  26.47800 2.69500 44.50500
H  26.02100 2.35800 42.85600
Mg 24.84800 0.79200 30.09200
C  27.02700 1.19900 32.72900
C  22.29000 1.08900 32.11100
C  22.91400 0.61600 27.34500
C  27.59400 0.16300 27.89200
N  24.71000 1.35900 32.18000
C  25.70200 1.49600 33.11500
C  25.15000 1.82800 34.51900
C  23.60700 1.64600 34.24200
C  23.48800 1.27600 32.75700
C  22.93400 0.68400 35.29000
C  25.63500 3.22400 35.02200
C  26.10100 3.18200 36.47300
H  25.55000 4.21100 37.42800
N  22.85900 0.80900 29.79700
C  21.95200 0.95300 30.76000
C  20.63000 0.85100 30.22800
C  20.82000 0.64400 28.86200
C  22.26000 0.70900 28.58100
C  19.34300 0.95100 30.99800
C  19.77500 0.24100 27.87000
O  19.98100 0.11800 26.66300
C  18.37000 -0.06900 28.28300
N  25.24500 0.30900 27.83800
C  24.22400 0.43500 26.95200
C  24.73600 0.27600 25.52700
C  26.27200 0.21000 25.67300
C  26.40900 0.28200 27.22800
C  24.10200 -0.83900 24.63400
C  26.99900 1.39500 24.91600
C  27.62500 0.98400 23.66500
N  26.89400 0.55600 30.23300
C  27.87300 0.27100 29.33600
C  29.14500 0.22700 30.05400
C  28.81900 0.65200 31.32400
C  27.48100 0.78200 31.43400
C  30.49900 0.03400 29.31100
C  29.42800 0.95700 32.58300
O  30.62000 0.84400 32.93100
C  28.31700 1.32300 33.55700
C  28.37900 0.41400 34.76700
O  27.92100 -0.69400 34.87800
O  29.07200 1.12200 35.79000
C  29.09000 0.52300 37.14100
H  21.50100 1.27200 32.84200
H  22.26400 0.71500 26.47300
H  28.44400 0.33600 27.23000
H  25.48300 1.01600 35.16600
H  23.12900 2.61700 34.37700
H  22.88200 -0.29900 34.82100
H  21.94100 1.10900 35.43500
H  23.45300 0.62700 36.24700
H  24.86700 3.99800 35.00600
H  26.51400 3.48100 34.43000
H  27.18900 3.20000 36.53400
H  25.94500 2.19800 36.91600
H  18.76700 0.04200 31.17300
H  18.77600 1.74600 30.51300
H  19.56200 1.38200 31.97500
H  17.78600 -0.32300 27.39800
H  17.75900 0.76200 28.63400
H  18.41900 -0.94500 28.93000
H  24.36200 1.19500 25.07600
H  26.72700 -0.76700 25.51400
H  23.27400 -1.31300 25.16000
H  24.67400 -1.62700 24.14300
H  23.61900 -0.32600 23.80300
H  27.71000 1.79100 25.64100
H  26.25900 2.18000 24.76400
H  27.24800 0.02200 23.31700
H  28.71100 0.98400 23.76300
H  27.47900 1.73100 22.88500
H  30.40100 0.24800 28.24700
H  30.76700 -1.02000 29.38000
H  31.24500 0.68300 29.77100
H  28.40000 2.33300 33.95800
H  28.10400 0.54100 37.60700
H  29.80500 1.04200 37.77900
H  29.56000 -0.44300 36.95600

