158

Mg 0.91200 43.62200 25.91900
C  3.08600 43.24300 28.70100
C  -1.79300 42.93200 28.15000
C  -1.20200 43.52400 23.32400
C  3.57500 43.74200 23.83300
N  0.65800 43.19700 28.23900
C  1.67600 43.20000 29.14200
C  1.19200 43.10500 30.55200
C  -0.34200 42.75600 30.35400
C  -0.52300 42.94900 28.82200
C  -0.83000 41.34800 30.85100
C  1.48900 44.36500 31.42100
C  1.66800 44.22000 32.90700
H  1.04200 43.01300 33.65000
N  -1.23600 43.36300 25.79200
C  -2.16000 43.19700 26.81500
C  -3.47900 43.18600 26.24000
C  -3.31500 43.25500 24.84200
C  -1.88900 43.36100 24.57700
C  -4.69500 42.96800 27.08800
C  -4.41700 43.22300 23.75900
O  -4.18900 43.11600 22.52500
C  -5.85700 43.35500 24.22500
N  1.10300 43.49200 23.87300
C  0.13200 43.67700 22.98800
C  0.67800 43.85100 21.58200
C  2.17500 44.23300 21.78200
C  2.29500 43.84500 23.24300
C  0.42700 42.62100 20.81100
C  2.49600 45.77000 21.55200
C  3.82500 46.07400 20.81100
N  2.86500 43.40900 26.12900
C  3.84900 43.42900 25.18500
C  5.20200 43.39600 25.83300
C  4.95500 43.30300 27.16000
C  3.50600 43.37700 27.35000
C  6.50100 43.46300 25.12400
C  5.56600 43.21600 28.43600
O  6.74500 43.09800 28.77700
C  4.44800 43.26300 29.40900
C  4.56000 42.04700 30.25200
O  4.19900 40.93400 29.93600
O  5.13800 42.39000 31.44200
C  5.10400 41.35900 32.57900
H  -2.60200 42.59800 28.80400
H  -1.81600 43.49200 22.42100
H  4.44300 44.00500 23.22400
H  1.78100 42.26800 30.92700
H  -0.94900 43.56800 30.75400
H  -0.11400 40.59400 31.17700
H  -1.29400 40.91000 29.96700
H  -1.62700 41.64400 31.53300
H  0.79700 45.17600 31.19400
H  2.46700 44.75400 31.14000
H  1.27100 45.09400 33.42400
H  2.72300 44.29000 33.17200
H  -5.23600 43.86500 27.38800
H  -4.46600 42.46000 28.02400
H  -5.33200 42.27200 26.54200
H  -6.19700 42.41000 24.64900
H  -6.28300 43.55400 23.24200
H  -5.98600 44.29900 24.75600
H  0.16400 44.69600 21.12400
H  2.85200 43.68300 21.12800
H  -0.18800 41.87600 21.31700
H  1.35800 42.05500 20.82300
H  -0.02100 42.75900 19.82700
H  2.67000 46.24000 22.51900
H  1.66600 46.26900 21.05200
H  4.58100 46.53000 21.45000
H  3.65400 46.77100 19.99000
H  4.17700 45.24500 20.19800
H  6.60800 42.77300 24.28700
H  7.26900 43.04100 25.77100
H  6.77900 44.45400 24.76400
H  4.33300 44.14300 30.04200
H  4.86700 41.81800 33.53900
H  6.07000 40.93600 32.85700
H  4.47500 40.48800 32.39500
Mg -5.09400 25.69700 25.38000
C  -3.99000 26.98600 28.45500
C  -6.93200 23.26600 27.23400
C  -5.65200 23.87200 22.62300
C  -2.85400 27.63800 23.80600
N  -5.37700 25.19000 27.59100
C  -4.84600 25.87900 28.64800
C  -5.53400 25.42900 29.95300
C  -6.19400 24.04700 29.56800
C  -6.13300 24.11500 28.05200
C  -5.36200 22.84900 30.14200
C  -6.56300 26.48500 30.50700
C  -6.35000 26.96700 31.95300
H  -6.05400 25.97800 33.09900
N  -6.18800 23.92400 25.01600
C  -6.90600 23.09500 25.85100
C  -7.63800 22.11000 25.09100
C  -7.27400 22.25100 23.73900
C  -6.35700 23.36100 23.76300
C  -8.42200 21.03700 25.74100
C  -7.71800 21.43500 22.50100
O  -7.34000 21.64600 21.37700
C  -8.67300 20.17900 22.69000
N  -4.23500 25.65200 23.50700
C  -4.66300 24.89100 22.49600
C  -3.98600 25.25300 21.15300
C  -3.05600 26.49700 21.58600
C  -3.44600 26.67000 23.03300
C  -3.21200 24.09200 20.52100
C  -3.09300 27.73800 20.75100
C  -4.48700 28.12400 20.28500
N  -3.72100 27.07400 25.95300
C  -2.89000 27.81200 25.19400
C  -2.08100 28.72400 26.00500
C  -2.55700 28.46500 27.31400
C  -3.40000 27.36000 27.22800
C  -1.03800 29.70300 25.55300
C  -2.52600 28.90200 28.68300
O  -1.87700 29.76600 29.23600
C  -3.40400 27.86400 29.54300
C  -2.51500 27.17900 30.56900
O  -1.84800 26.19900 30.30000
O  -2.67200 27.79700 31.81400
C  -1.92800 27.25200 32.99900
H  -7.59600 22.58500 27.77100
H  -5.92700 23.42400 21.66600
H  -2.14900 28.27600 23.26900
H  -4.77200 25.49700 30.73000
H  -7.20700 23.97800 29.96600
H  -4.68600 22.40200 29.41300
H  -6.07100 22.09800 30.49000
H  -4.86700 23.18300 31.05300
H  -7.55300 26.03500 30.43400
H  -6.55300 27.28900 29.77100
H  -7.19300 27.61400 32.19800
H  -5.55900 27.71200 31.86600
H  -7.94500 20.08900 25.49400
H  -9.43600 21.03200 25.34300
H  -8.53000 21.12300 26.82200
H  -8.30500 19.54400 23.49600
H  -8.63300 19.62100 21.75500
H  -9.69400 20.52100 22.86100
H  -4.84700 25.59900 20.58100
H  -2.02600 26.16100 21.70800
H  -3.51400 23.19200 21.05700
H  -2.17100 24.03500 20.83800
H  -3.31400 24.08700 19.43600
H  -2.38100 27.42700 19.98700
H  -2.44800 28.46200 21.24800
H  -4.70000 29.19200 20.32800
H  -5.22200 27.74600 20.99500
H  -4.66200 27.64600 19.32100
H  -0.81600 29.48400 24.50900
H  -0.17900 29.76300 26.22100
H  -1.72100 30.54800 25.46400
H  -4.19000 28.41300 30.06200
H  -0.97600 26.78900 32.73900
H  -2.68700 26.56100 33.36600
H  -1.81900 27.96700 33.81400

