158

Mg -1.67000 17.04900 26.33300
C  -2.03500 14.90600 29.05500
C  -2.11000 19.64200 28.42800
C  -1.92000 19.08100 23.53700
C  -1.68800 14.34300 24.12400
N  -2.35100 17.23800 28.52900
C  -2.22000 16.24000 29.48400
C  -2.35900 16.67300 30.87600
C  -2.47300 18.23700 30.63800
C  -2.32100 18.42400 29.11000
C  -3.72000 18.90900 31.25300
C  -1.09600 16.38700 31.79900
C  -0.80500 17.15500 33.07300
H  -0.93100 16.40700 34.29500
N  -1.79200 19.02700 26.03300
C  -1.99300 19.96400 27.04500
C  -2.02800 21.24900 26.46300
C  -1.82700 21.11900 25.10000
C  -1.94900 19.69600 24.82700
C  -2.27500 22.59400 27.24100
C  -1.54700 22.21200 24.06000
O  -1.70000 22.07400 22.81400
C  -0.98500 23.53100 24.45700
N  -1.75300 16.72800 24.04400
C  -1.78700 17.71300 23.18600
C  -1.85800 17.14600 21.79100
C  -1.38700 15.67300 21.91900
C  -1.49900 15.51000 23.47000
C  -3.27700 17.32300 21.18200
C  -0.07200 15.31300 21.16600
C  1.14600 15.60600 21.91500
N  -1.92000 15.07500 26.50800
C  -1.79800 14.06300 25.56200
C  -1.75500 12.75800 26.22300
C  -1.83000 13.08600 27.60300
C  -1.92900 14.49700 27.71100
C  -1.71900 11.41800 25.53300
C  -1.93100 12.53200 28.94800
O  -1.85600 11.36800 29.27300
C  -1.96900 13.66700 29.94500
C  -0.67100 13.55200 30.70200
O  0.36900 13.93000 30.28900
O  -0.84700 12.99000 31.98700
C  0.31100 12.97500 32.83200
H  -2.07200 20.49200 29.11400
H  -1.98700 19.74100 22.67000
H  -1.56800 13.52200 23.41400
H  -3.32800 16.30900 31.21800
H  -1.65700 18.69900 31.19400
H  -4.08000 19.56200 30.45800
H  -3.48700 19.40800 32.19400
H  -4.61000 18.30600 31.43400
H  -0.14000 16.34600 31.27700
H  -1.29100 15.36100 32.11100
H  -1.41900 18.05200 33.15600
H  0.24000 17.46200 33.02100
H  -2.83000 22.28200 28.12500
H  -2.87200 23.20900 26.56900
H  -1.36300 23.08400 27.58200
H  -0.25600 23.49900 25.26700
H  -1.82600 24.17500 24.71300
H  -0.47100 24.05000 23.64800
H  -1.14800 17.60100 21.10000
H  -2.15800 14.98600 21.57300
H  -3.25000 17.63900 20.13900
H  -3.82300 18.11600 21.69200
H  -3.71500 16.32500 21.18800
H  0.00700 15.86300 20.22900
H  -0.12400 14.25600 20.90600
H  0.89600 16.31600 22.70400
H  1.92000 16.18000 21.40400
H  1.51600 14.68000 22.35500
H  -1.31400 11.42400 24.52100
H  -2.71000 10.97200 25.44600
H  -1.13100 10.76200 26.17400
H  -2.78800 13.51000 30.64600
H  0.92000 12.14800 32.46700
H  -0.09000 12.79100 33.82800
H  0.80200 13.94700 32.80500
Mg 46.58000 24.63200 28.08200
C  47.02900 27.20200 30.40800
C  46.00500 22.44000 30.58100
C  46.28600 22.20900 25.71700
C  47.81400 26.81100 25.53500
N  46.45700 24.85100 30.16200
C  46.65300 25.99600 30.92300
C  46.45900 25.70100 32.37600
C  46.28200 24.14000 32.43100
C  46.32000 23.72900 30.97400
C  47.20500 23.30200 33.31800
C  45.37000 26.50300 33.20700
C  45.12200 25.89300 34.59700
H  45.21300 26.79200 35.87700
N  45.98700 22.67000 28.15600
C  45.86800 21.89200 29.26100
C  45.63400 20.52200 28.92500
C  45.68500 20.45900 27.52100
C  45.92500 21.81800 27.02800
C  45.41700 19.37500 29.93700
C  45.66400 19.23300 26.59600
O  45.77700 19.26800 25.36000
C  45.63500 17.91500 27.22100
N  46.73000 24.59800 25.93400
C  46.60800 23.44800 25.19000
C  47.07600 23.64900 23.71100
C  47.01700 25.25300 23.62300
C  47.27300 25.58900 25.09600
C  48.53200 23.09700 23.61100
C  45.81500 26.01300 22.94400
C  44.61700 26.50800 23.76600
N  47.30500 26.55700 27.93300
C  47.72100 27.33400 26.86800
C  48.18400 28.62200 27.32900
C  47.90500 28.58300 28.71400
C  47.32700 27.38800 29.01600
C  48.90500 29.72800 26.67400
C  48.13800 29.28900 29.92700
O  48.78300 30.36800 30.06700
C  47.46800 28.52700 31.12300
C  48.63300 28.36300 32.11800
O  49.67400 27.72300 31.99400
O  48.35100 29.00400 33.28000
C  49.34600 28.80300 34.33100
H  45.83000 21.70300 31.36800
H  46.24500 21.38800 24.99800
H  48.04200 27.60500 24.82000
H  47.43100 26.03500 32.73700
H  45.34300 23.81400 32.87800
H  47.87300 22.54500 32.90600
H  46.70300 22.65600 34.03800
H  47.77600 24.02200 33.90400
H  44.42000 26.50900 32.67200
H  45.67200 27.54000 33.35000
H  45.80000 25.05300 34.74900
H  44.11800 25.47000 34.59700
H  46.32200 18.76900 29.89100
H  44.65300 18.69100 29.56900
H  45.05400 19.71900 30.90500
H  46.36800 17.79500 28.01800
H  45.92900 17.06300 26.60800
H  44.60000 17.74100 27.51700
H  46.32700 23.20400 23.05500
H  47.92800 25.56600 23.11400
H  48.49100 22.12700 23.11500
H  49.11000 23.00600 24.53000
H  49.16200 23.77400 23.03400
H  45.35500 25.28300 22.27700
H  46.14000 26.86100 22.34200
H  44.00900 25.61000 23.87200
H  44.07400 27.32600 23.29400
H  44.80400 26.83800 24.78800
H  49.62800 30.20100 27.33900
H  48.21100 30.54600 26.48200
H  49.42400 29.42700 25.76400
H  46.67300 29.13600 31.55400
H  49.14500 27.90000 34.90700
H  49.19000 29.62700 35.02800
H  50.41300 28.91700 34.13800

