158

Mg 37.01600 49.96800 25.13100
C  37.42400 47.91700 27.94600
C  35.58100 52.33400 27.32900
C  35.76900 51.56100 22.47600
C  37.81600 47.23000 23.26200
N  36.60100 50.11800 27.44300
C  36.96600 49.19600 28.33000
C  36.83600 49.69300 29.75700
C  35.94900 51.01300 29.65500
C  36.08900 51.19400 28.08000
C  34.57600 50.83900 30.19900
C  38.11800 49.95500 30.60400
C  38.06500 49.88100 32.08800
H  36.63500 49.96600 32.86000
N  35.99500 51.73000 24.84300
C  35.52900 52.55000 25.91700
C  35.05200 53.80900 25.33500
C  35.02600 53.64100 23.90400
C  35.58100 52.27100 23.63000
C  34.48500 55.03000 26.20700
C  34.53300 54.57100 22.81600
O  34.50800 54.23000 21.63300
C  33.97200 55.90500 23.13600
N  36.80500 49.43900 23.18200
C  36.29600 50.31400 22.20400
C  36.43900 49.68100 20.79600
C  37.35900 48.45700 21.08000
C  37.34500 48.36800 22.60000
C  35.21900 49.17400 20.11100
C  38.81400 48.48200 20.49400
C  39.94300 49.04200 21.42700
N  37.62800 47.96300 25.42400
C  37.83700 46.95000 24.61100
C  38.13700 45.70800 25.33000
C  37.93100 46.01400 26.67100
C  37.68600 47.38200 26.64200
C  38.43000 44.34200 24.75900
C  37.99900 45.45500 27.98600
O  38.25500 44.31500 28.39300
C  37.72100 46.67700 28.87400
C  36.50600 46.29600 29.67400
O  35.36600 46.12500 29.22300
O  36.90900 46.03500 30.95100
C  35.84500 45.47400 31.76700
H  34.97400 53.01300 27.93100
H  35.27300 52.04700 21.63300
H  37.95900 46.42500 22.53700
H  36.35300 48.89000 30.31400
H  36.37300 51.87900 30.16400
H  34.44900 51.18200 31.22600
H  34.34000 49.77700 30.27400
H  33.87400 51.22000 29.45800
H  38.54400 50.87500 30.20500
H  38.77600 49.19000 30.19300
H  38.68800 50.69900 32.44900
H  38.56500 48.97600 32.43400
H  34.33400 55.94500 25.63400
H  35.11700 55.30100 27.05200
H  33.46600 54.93600 26.58200
H  34.77200 56.52100 23.54700
H  33.15800 55.91200 23.86100
H  33.57700 56.31100 22.20500
H  37.04900 50.36000 20.20100
H  37.03600 47.54000 20.58700
H  34.39000 49.34500 20.79800
H  35.13300 48.10700 19.90600
H  35.08000 49.74600 19.19300
H  38.71900 49.27100 19.74800
H  38.96600 47.51800 20.00900
H  40.43000 49.89700 20.95800
H  40.65900 48.26200 21.68400
H  39.64200 49.50200 22.36800
H  39.10200 43.92500 25.51000
H  38.82000 44.41500 23.74300
H  37.68000 43.55100 24.75300
H  38.55700 46.96000 29.51400
H  35.20500 46.25500 32.17600
H  36.33700 45.09600 32.66300
H  35.34900 44.64700 31.25700
Mg 16.89500 51.29200 26.68600
C  18.87600 49.92700 29.21500
C  14.54200 52.03200 29.22700
C  14.84500 52.46200 24.32700
C  19.22100 50.17800 24.33700
N  16.68000 50.95000 28.95100
C  17.66600 50.41900 29.73200
C  17.42900 50.77300 31.19700
C  15.92400 51.04700 31.18200
C  15.70200 51.37800 29.73900
C  14.98800 49.86600 31.84500
C  18.35000 51.83500 31.69800
C  18.86900 51.48300 33.11900
H  18.03400 52.01500 34.30500
N  15.04700 52.24400 26.77900
C  14.26900 52.47000 27.89300
C  13.05500 53.18500 27.45400
C  13.14200 53.41200 26.06500
C  14.37500 52.64200 25.68800
C  12.03100 53.61000 28.45700
C  12.24500 54.27600 25.09200
O  12.57200 54.46700 23.94500
C  11.10100 55.02800 25.68100
N  16.91600 51.14900 24.63600
C  15.97200 51.75800 23.84700
C  16.49300 51.85100 22.45900
C  17.90300 51.16700 22.38200
C  18.00700 50.78900 23.91100
C  15.47200 51.27500 21.43500
C  19.09900 51.99800 21.80400
C  19.81500 51.30000 20.59300
N  18.67700 50.20900 26.63200
C  19.57200 49.87300 25.62900
C  20.65700 49.11000 26.21100
C  20.45700 49.19100 27.56300
C  19.19200 49.80200 27.86200
C  21.83100 48.56000 25.39100
C  21.03900 48.76000 28.87300
O  22.02200 48.04600 29.08400
C  20.04700 49.32600 29.96000
C  19.59700 48.21100 30.88900
O  18.64700 47.49300 30.73300
O  20.40800 48.20500 32.01600
C  20.08900 47.31400 33.11700
H  13.90800 52.44100 30.01500
H  14.39400 53.11100 23.57400
H  19.89700 49.95100 23.51000
H  17.59500 49.81100 31.68100
H  15.77100 51.89500 31.84900
H  14.36300 50.18600 32.67900
H  15.62100 49.04400 32.17900
H  14.30600 49.44700 31.10500
H  17.89200 52.82000 31.78200
H  19.16600 52.01100 30.99700
H  19.91800 51.76400 33.20900
H  18.88300 50.40200 33.26300
H  12.07100 54.68000 28.66000
H  12.03400 53.01800 29.37200
H  11.07300 53.56500 27.93900
H  10.42200 54.45600 26.31500
H  10.56400 55.50000 24.85800
H  11.47200 55.87700 26.25500
H  16.64200 52.92100 22.31200
H  17.79200 50.26200 21.78500
H  15.89000 50.45300 20.85400
H  15.14200 52.08300 20.78200
H  14.60900 51.00400 22.04200
H  19.76900 52.24300 22.62800
H  18.71600 52.91100 21.34800
H  19.59200 50.24000 20.46800
H  20.88500 51.49200 20.67600
H  19.55500 51.82700 19.67500
H  21.46800 48.74800 24.38000
H  22.02400 47.53800 25.71600
H  22.71200 49.18900 25.52000
H  20.50300 50.14200 30.52100
H  20.74900 47.70200 33.89300
H  20.46000 46.29100 33.04500
H  19.06100 47.44200 33.45500

