158

Mg 44.55500 4.26900 45.69700
C  42.74800 7.16600 45.72600
C  41.63100 2.48900 45.47100
C  46.46200 1.60200 45.31800
C  47.53500 6.34600 45.10000
N  42.34300 4.76200 45.46200
C  41.90300 6.02400 45.52600
C  40.37300 6.09400 45.37800
C  39.98800 4.50100 45.30700
C  41.35900 3.82400 45.45000
C  38.80800 4.08400 46.28500
C  39.82000 6.82500 44.14100
C  40.81200 7.31300 43.04000
H  40.32400 7.19800 41.59400
N  44.14200 2.32100 45.53100
C  42.90300 1.77600 45.43200
C  43.01600 0.36300 45.30900
C  44.41100 0.06700 45.20100
C  45.09500 1.32800 45.33100
C  41.83000 -0.59500 45.12600
C  44.97100 -1.30700 44.88400
O  44.28500 -2.31400 44.78300
C  46.45400 -1.56300 44.72800
N  46.66200 4.01500 45.39800
C  47.18500 2.78400 45.27000
C  48.70600 2.70700 45.22400
C  49.06700 4.21700 44.95900
C  47.68000 4.91400 45.16100
C  49.37300 2.24200 46.60100
C  49.65100 4.59100 43.62100
C  51.19800 4.39800 43.52900
N  45.09800 6.30200 45.53700
C  46.29800 7.01200 45.46200
C  46.06500 8.50600 45.60300
C  44.67000 8.55900 45.75200
C  44.12400 7.26600 45.62000
C  47.10300 9.59700 45.73800
C  43.60700 9.41500 46.02900
O  43.62300 10.62300 46.18000
C  42.32800 8.61700 45.89300
C  41.45300 8.85400 47.10300
O  41.48400 8.31400 48.13700
O  40.52100 9.73400 46.72700
C  39.38800 9.90100 47.64600
H  40.71600 1.90000 45.38600
H  47.17900 0.77900 45.27700
H  48.45800 6.89800 44.90900
H  39.89500 6.61200 46.21000
H  39.69300 4.22000 44.29600
H  37.89700 3.82800 45.74500
H  38.53700 4.88800 46.97000
H  38.97400 3.15700 46.83400
H  39.21900 7.64900 44.52600
H  39.13000 6.14900 43.63600
H  41.82700 6.91800 43.10200
H  40.77400 8.38800 43.21600
H  41.98500 -1.34200 45.90400
H  41.82200 -1.08700 44.15300
H  40.90800 -0.08500 45.40400
H  46.57800 -2.60400 44.43300
H  47.01900 -1.34500 45.63400
H  46.84800 -0.96200 43.90800
H  49.05900 2.01500 44.45900
H  49.74000 4.69500 45.67100
H  48.47400 2.16000 47.21200
H  50.03100 2.91300 47.15300
H  49.76700 1.22600 46.61600
H  49.31200 5.49300 43.11000
H  49.28800 3.83500 42.92400
H  51.38200 3.61100 42.79600
H  51.76800 4.21200 44.43900
H  51.73500 5.19400 43.01300
H  46.53000 10.49200 45.98300
H  47.59800 9.82600 44.79400
H  47.84200 9.37900 46.51000
H  41.76800 9.03800 45.05800
H  38.50400 9.39700 47.25600
H  39.20200 10.96200 47.81300
H  39.47400 9.45000 48.63500
Mg 29.36700 58.89400 41.26000
C  26.76300 56.91000 39.99600
C  31.56700 56.86600 39.84100
C  31.65800 61.37600 41.66200
C  26.83600 61.18700 42.38200
N  29.15000 57.17600 39.88600
C  28.05600 56.48100 39.62100
C  28.34000 55.34400 38.64300
C  29.87500 55.16300 38.85300
C  30.24400 56.45800 39.63200
C  30.25800 53.79500 39.67600
C  27.85300 55.77800 37.25700
C  26.99800 54.77100 36.45500
H  27.34400 54.50100 34.99000
N  31.32700 59.12100 40.73700
C  32.10600 58.13500 40.26700
C  33.46600 58.53500 40.22600
C  33.57300 59.85300 40.82100
C  32.17700 60.16300 41.12800
C  34.55000 57.75200 39.40700
C  34.77700 60.72500 41.07100
O  35.92600 60.31200 40.78200
C  34.68300 62.05700 41.60500
N  29.27200 60.96800 42.00600
C  30.36300 61.76000 42.08800
C  29.94000 63.12800 42.56300
C  28.45700 63.06700 42.82000
C  28.16600 61.67900 42.32600
C  30.70300 63.77100 43.65000
C  27.59400 64.24100 42.14400
C  26.54300 64.70600 43.15200
N  27.20000 58.92800 41.41900
C  26.34100 59.91300 41.91100
C  25.01900 59.41500 41.74500
C  25.09000 58.26500 41.02600
C  26.47700 58.08600 40.76600
C  23.68100 60.08800 42.17200
C  24.40200 57.16700 40.44100
O  23.23200 56.94900 40.46300
C  25.42000 56.27400 39.68900
C  25.26600 54.98600 40.27100
O  25.79300 54.63300 41.35400
O  24.60500 54.16500 39.36300
C  24.85700 52.71100 39.52700
H  32.22700 56.04600 39.55000
H  32.28700 62.25400 41.82200
H  26.08200 61.86300 42.79100
H  27.88100 54.44400 39.05300
H  30.34900 55.17500 37.87200
H  29.35400 53.29800 40.02700
H  30.77000 54.00000 40.61700
H  30.77700 53.09300 39.02300
H  28.72100 55.95200 36.62200
H  27.29400 56.69000 37.46400
H  25.98400 55.16900 36.46900
H  26.87500 53.83700 37.00400
H  34.63600 56.74500 39.81500
H  35.56700 58.14600 39.39700
H  34.26200 57.64600 38.36100
H  34.22900 62.74600 40.89400
H  35.72400 62.38000 41.64500
H  34.26100 62.08300 42.60900
H  30.01400 63.84000 41.74100
H  28.25600 63.01900 43.89100
H  31.69300 63.33200 43.77100
H  30.25800 63.53400 44.61600
H  30.85600 64.84300 43.52900
H  27.03700 63.95100 41.25300
H  28.17600 65.13200 41.90600
H  25.57100 64.51100 42.70000
H  26.68600 65.78500 43.22100
H  26.58400 64.29500 44.16100
H  22.91000 59.36700 41.89900
H  23.53800 60.94000 41.50800
H  23.52500 60.44400 43.19000
H  25.19700 56.29700 38.62300
H  24.06700 52.25600 40.12400
H  25.69400 52.51500 40.19700
H  25.07400 52.11500 38.64000

