158

Mg 45.30500 3.92000 47.45700
C  43.15300 6.43200 46.74500
C  42.73800 1.72400 47.25900
C  47.58500 1.48000 47.61100
C  47.99500 6.25000 47.40400
N  43.22600 4.06600 47.09100
C  42.54300 5.20000 46.73800
C  41.01300 4.91700 46.71000
C  40.90800 3.45200 46.98700
C  42.40500 3.05000 47.11400
C  40.00400 2.99900 48.14100
C  40.33600 5.31900 45.33900
C  39.25700 6.43000 45.42700
H  39.27700 7.53300 44.29200
N  45.17700 1.84400 47.41000
C  44.03600 1.10100 47.30500
C  44.31900 -0.30600 47.29100
C  45.71000 -0.41800 47.45200
C  46.21400 1.00100 47.47200
C  43.28000 -1.47400 47.18400
C  46.40700 -1.68200 47.61100
O  45.84400 -2.76100 47.55800
C  47.78900 -1.74300 48.02000
N  47.51300 3.86100 47.57200
C  48.17900 2.73100 47.71400
C  49.69800 2.89100 47.43000
C  49.84200 4.42100 47.58500
C  48.40500 4.90000 47.40600
C  50.67700 2.13200 48.44800
C  50.89800 5.07500 46.67000
C  51.72100 6.22400 47.21600
N  45.57000 5.98800 47.09400
C  46.68700 6.75500 47.25300
C  46.25800 8.17100 47.09700
C  44.86300 8.07700 46.97400
C  44.52600 6.78200 46.97700
C  47.14800 9.47900 47.05100
C  43.60400 8.81600 46.84000
O  43.43400 10.02800 46.85200
C  42.45900 7.75500 46.72200
C  41.48800 7.97200 47.83100
O  41.45300 7.40300 48.92300
O  40.66700 8.96700 47.55000
C  39.74300 9.62700 48.44300
H  41.92100 1.03700 47.02700
H  48.31800 0.67300 47.56000
H  48.88000 6.88500 47.33000
H  40.41100 5.37200 47.49600
H  40.71900 2.88300 46.07600
H  39.19700 3.71000 48.31900
H  40.66100 2.92800 49.00800
H  39.53000 2.05700 47.86500
H  39.89000 4.51400 44.75500
H  41.15400 5.71700 44.73900
H  39.29100 6.93300 46.39300
H  38.32600 5.86700 45.36300
H  43.61400 -2.11000 46.36400
H  42.28900 -1.06300 46.99400
H  43.24400 -2.05300 48.10600
H  48.06800 -2.74800 48.33400
H  48.08400 -1.10500 48.85400
H  48.42100 -1.57700 47.14800
H  49.85300 2.63900 46.38100
H  49.92400 4.74500 48.62300
H  51.54600 2.70700 48.76800
H  50.98600 1.17100 48.03800
H  50.01200 2.03900 49.30600
H  50.35300 5.59700 45.88300
H  51.56600 4.35200 46.20200
H  51.39300 7.19100 46.83500
H  52.74700 6.00200 46.92300
H  51.70700 6.25800 48.30600
H  46.93000 9.98600 46.11100
H  48.21500 9.28200 47.14800
H  46.81300 10.15700 47.83600
H  41.86200 7.74700 45.80900
H  39.67300 10.70100 48.27100
H  40.08700 9.39500 49.45100
H  38.73000 9.27400 48.24900
Mg 36.38900 2.45600 30.54600
C  34.02800 3.63500 32.71900
C  38.62000 2.24000 33.01700
C  38.78800 1.64800 28.14100
C  34.03100 2.61200 27.84600
N  36.38000 3.09400 32.62700
C  35.25200 3.38800 33.35600
C  35.44400 3.22500 34.83400
C  37.02900 3.05200 34.88800
C  37.39500 2.77700 33.44500
C  37.91700 4.16100 35.59200
C  34.68400 2.00000 35.44900
C  34.12500 2.29100 36.84200
H  34.64000 3.48700 37.64300
N  38.42000 1.95100 30.63200
C  39.14900 1.84500 31.74800
C  40.44100 1.34400 31.42200
C  40.55700 1.17600 30.05200
C  39.22700 1.67200 29.53600
C  41.36600 1.02800 32.59400
C  41.78600 0.65000 29.25900
O  41.81900 0.67300 28.00800
C  43.00400 0.06800 30.04700
N  36.39300 2.26100 28.19300
C  37.51000 1.92800 27.53400
C  37.21700 1.78400 26.07900
C  35.63200 1.98300 25.97800
C  35.27000 2.28900 27.40300
C  38.14600 2.81800 25.23500
C  34.86700 0.87100 25.16900
C  34.72700 -0.46700 25.91800
N  34.42000 2.98400 30.27800
C  33.60000 2.96300 29.20100
C  32.21800 3.24300 29.59900
C  32.44000 3.51300 31.00300
C  33.78600 3.42900 31.32800
C  31.01300 3.23400 28.68500
C  31.70900 3.93100 32.16400
O  30.49200 4.14100 32.25500
C  32.69000 3.98700 33.29400
C  32.72600 5.29700 34.00700
O  33.24300 6.32800 33.54200
O  32.09500 5.14400 35.21900
C  32.19700 6.42600 35.92500
H  39.25900 2.10200 33.89200
H  39.62200 1.36500 27.49600
H  33.29200 2.63400 27.04200
H  35.11700 4.19700 35.20500
H  37.18500 2.08600 35.36800
H  38.90000 4.20400 35.12200
H  38.01100 3.79700 36.61500
H  37.37000 5.10400 35.60100
H  35.24700 1.07400 35.56400
H  33.86100 1.67600 34.81200
H  34.40500 1.41600 37.42900
H  33.06600 2.40300 36.61100
H  41.11800 1.36600 33.60000
H  42.33400 1.38400 32.24000
H  41.23200 -0.05200 32.66500
H  43.39600 1.04900 30.31600
H  43.50900 -0.56400 29.31700
H  42.63800 -0.59400 30.83200
H  37.41600 0.80300 25.64600
H  35.33800 2.90300 25.47200
H  38.99800 2.25100 24.86000
H  38.49900 3.73800 25.70000
H  37.49700 3.15100 24.42500
H  35.33700 0.68400 24.20300
H  33.95400 1.40900 24.91400
H  34.74800 -1.20100 25.11300
H  33.80600 -0.55400 26.49400
H  35.60400 -0.78500 26.48300
H  30.04900 3.15900 29.18900
H  31.13000 2.43800 27.95000
H  31.03300 4.19500 28.17100
H  32.37500 3.26500 34.04700
H  31.72900 7.28200 35.43800
H  33.25400 6.59300 36.13400
H  31.74300 6.25500 36.90100

