158

Mg 47.57000 34.20100 27.08800
C  45.68300 32.54700 29.63000
C  48.04700 36.77500 29.16600
C  48.97000 35.83900 24.50600
C  46.98000 31.44200 25.10100
N  46.97000 34.55900 29.17500
C  46.25200 33.76900 30.05400
C  46.27800 34.38500 31.49500
C  46.70300 35.87300 31.21800
C  47.32400 35.69500 29.75800
C  45.42500 36.76600 31.37600
C  47.26700 33.71000 32.52300
C  46.84900 33.48800 33.93300
H  46.39900 34.69900 34.81500
N  48.33100 36.03600 26.85700
C  48.55600 36.98500 27.87000
C  49.10400 38.18500 27.29900
C  49.40600 38.00500 25.88700
C  48.89200 36.58800 25.65100
C  49.34300 39.48300 28.12300
C  50.18500 38.81900 24.89300
O  50.35700 38.52200 23.74200
C  50.71700 40.18300 25.34000
N  47.94900 33.69900 25.11800
C  48.51600 34.54000 24.25200
C  48.75400 33.80800 22.82000
C  48.23800 32.37900 23.14400
C  47.71800 32.48700 24.58000
C  48.10400 34.43500 21.55600
C  49.40200 31.27800 22.99000
C  49.05000 30.07500 22.13200
N  46.41700 32.47300 27.16100
C  46.21200 31.45000 26.28500
C  45.28400 30.48200 26.72600
C  45.04600 30.84300 28.11100
C  45.86600 32.04000 28.35900
C  44.77200 29.28600 25.91100
C  44.36500 30.47500 29.30300
O  43.54300 29.54400 29.52800
C  44.66600 31.65100 30.34500
C  45.28500 30.98700 31.53200
O  46.32700 30.36900 31.52300
O  44.41000 31.02500 32.52900
C  44.80200 30.17700 33.63100
H  48.08900 37.65500 29.81100
H  49.44800 36.24500 23.61200
H  46.80700 30.69100 24.32800
H  45.26800 34.36800 31.90400
H  47.45700 36.30500 31.87700
H  45.64700 37.54100 32.10900
H  44.65000 36.16100 31.84700
H  45.05200 37.14300 30.42300
H  48.23300 34.18300 32.70100
H  47.63800 32.77800 32.09700
H  47.79500 33.12600 34.33500
H  46.03200 32.79500 34.13600
H  48.80000 40.26200 27.58800
H  50.41700 39.60800 28.26600
H  48.68300 39.42700 28.98700
H  51.37200 40.06500 26.20300
H  49.76800 40.67500 25.55200
H  51.28200 40.62400 24.51900
H  49.83100 33.80000 22.65000
H  47.42400 32.20900 22.43900
H  48.83900 35.11000 21.11800
H  47.29200 35.05300 21.93900
H  47.63100 33.74400 20.85800
H  49.49400 30.89700 24.00700
H  50.37400 31.66200 22.68000
H  48.13200 30.34000 21.60600
H  48.78300 29.17200 22.68100
H  49.73000 29.81900 21.31900
H  44.07100 29.70300 25.18800
H  44.26500 28.51600 26.49200
H  45.61000 28.78600 25.42400
H  43.75000 32.12300 30.70000
H  44.92900 29.12600 33.37300
H  43.91000 30.21600 34.25600
H  45.58300 30.43400 34.34700
Mg 26.66600 49.83400 26.00700
C  24.61000 51.36000 28.41200
C  28.84700 48.98400 28.49100
C  28.95400 48.86900 23.59100
C  24.57900 51.03200 23.56500
N  26.70800 50.13000 28.14000
C  25.72400 50.69900 28.93500
C  25.94400 50.39000 30.45500
C  27.39800 49.79100 30.50600
C  27.69700 49.63000 28.98100
C  28.55500 50.55900 31.30700
C  24.81500 49.46600 31.01000
C  23.84000 50.10000 32.14100
H  23.63200 49.20500 33.29900
N  28.64900 49.00000 26.02700
C  29.34300 48.66600 27.20400
C  30.61000 48.07600 26.80200
C  30.70800 48.19700 25.39600
C  29.39200 48.66200 24.92300
C  31.62800 47.55600 27.79900
C  31.84200 47.71600 24.47100
O  31.84300 47.81900 23.25400
C  33.13200 47.15700 25.12400
N  26.76300 49.98600 23.97300
C  27.75900 49.51200 23.17900
C  27.51800 49.73700 21.67300
C  26.07200 50.31600 21.68200
C  25.76000 50.39000 23.16600
C  28.57000 50.55400 20.94100
C  25.00600 49.47700 20.88200
C  24.49600 48.15600 21.44500
N  24.94000 51.01500 25.98400
C  24.16800 51.27800 24.90300
C  23.02800 52.06700 25.39000
C  23.14300 52.05100 26.84800
C  24.30800 51.42000 27.09200
C  21.92500 52.67300 24.62200
C  22.60100 52.58100 28.07300
O  21.55400 53.20900 28.33500
C  23.38300 51.92100 29.18500
C  23.77800 52.96800 30.19900
O  24.85800 53.53200 30.30800
O  22.70300 53.26800 30.98200
C  22.99000 54.09800 32.12400
H  29.46200 48.62200 29.31800
H  29.66900 48.50400 22.85000
H  23.93800 51.38000 22.75200
H  26.05800 51.28400 31.06900
H  27.35200 48.89000 31.11800
H  29.11900 49.83200 31.89100
H  28.14000 51.26000 32.03200
H  29.25000 51.05800 30.63300
H  25.14700 48.49500 31.37700
H  24.17100 49.21900 30.16600
H  22.84900 50.32300 31.74600
H  24.24300 51.07400 32.41800
H  31.72500 46.54200 27.41000
H  31.23000 47.51700 28.81300
H  32.57500 48.08600 27.69900
H  33.77000 46.82700 24.30400
H  32.98600 46.30400 25.78600
H  33.63900 47.99900 25.59500
H  27.57600 48.74600 21.22200
H  26.04200 51.36700 21.39600
H  28.12400 51.52000 20.70300
H  29.07500 50.07500 20.10300
H  29.39500 50.77800 21.61800
H  25.52200 49.20900 19.96000
H  24.22300 50.15400 20.54200
H  24.45700 47.32300 20.74300
H  23.48800 48.35900 21.80600
H  25.08300 47.80500 22.29400
H  21.82700 52.32800 23.59300
H  22.23200 53.70600 24.45900
H  20.97600 52.74000 25.15300
H  22.73200 51.19700 29.67400
H  22.91000 55.15400 31.86700
H  24.00800 53.98800 32.49700
H  22.26600 53.93100 32.92200

