158

Mg 43.84600 3.46400 47.02800
C  41.94200 6.42400 46.76400
C  40.98500 1.53200 46.66600
C  45.77900 0.69400 47.05800
C  46.72800 5.39800 46.19300
N  41.72500 3.95100 46.64600
C  41.14700 5.26500 46.91700
C  39.61600 5.08900 47.03100
C  39.36100 3.53900 46.83200
C  40.78800 2.94200 46.68700
C  38.60400 2.88100 48.01100
C  38.78200 5.92400 46.01300
C  39.32500 6.29500 44.57800
H  38.76300 5.49200 43.38100
N  43.44500 1.40000 46.92000
C  42.18000 0.80000 46.78100
C  42.31700 -0.58100 46.65100
C  43.66800 -0.96200 46.80500
C  44.38100 0.41200 46.92300
C  41.12800 -1.58000 46.46800
C  44.21800 -2.41200 46.82400
O  43.56100 -3.47100 46.87400
C  45.64200 -2.60300 46.95900
N  45.97200 3.06700 46.62700
C  46.53900 1.87400 46.95000
C  48.10700 1.98500 46.84500
C  48.32600 3.43000 46.37500
C  46.88000 4.00000 46.38700
C  48.64000 1.75800 48.31500
C  49.08400 3.49600 45.03100
C  50.50600 3.92400 45.12400
N  44.33400 5.49000 46.66400
C  45.47800 6.08800 46.25600
C  45.33100 7.51700 46.15500
C  43.96900 7.73300 46.33000
C  43.37400 6.43500 46.65000
C  46.32900 8.60500 45.94200
C  42.93200 8.77000 46.44100
O  42.98900 9.95400 46.30200
C  41.52400 7.94400 46.65500
C  40.82600 8.56800 47.84200
O  41.16100 8.43100 49.02400
O  39.66600 9.18300 47.43500
C  38.72400 9.51800 48.53000
H  40.01200 1.03800 46.63300
H  46.33100 -0.19600 47.36900
H  47.49800 6.04800 45.77300
H  39.38800 5.48200 48.02100
H  38.74500 3.29700 45.96500
H  38.26500 3.47900 48.85700
H  39.31000 2.18700 48.46800
H  37.74300 2.31900 47.64700
H  38.50800 6.81400 46.57900
H  37.85500 5.40200 45.77600
H  40.37600 6.00700 44.55600
H  39.19400 7.36700 44.43300
H  41.20300 -1.87400 45.42100
H  40.20200 -1.06400 46.71900
H  41.16100 -2.51800 47.02200
H  46.13000 -2.21800 47.85500
H  46.17300 -1.95700 46.26100
H  45.89800 -3.62100 46.66700
H  48.22600 1.14700 46.15900
H  48.94200 3.90000 47.14200
H  47.89200 1.67400 49.10400
H  49.37300 2.51800 48.58400
H  49.11100 0.77500 48.33400
H  48.52800 4.16000 44.36800
H  48.98800 2.50300 44.59200
H  50.75700 4.43200 46.05500
H  50.77400 4.63500 44.34200
H  51.03400 2.97700 45.01900
H  46.72200 8.83200 44.95100
H  47.21200 8.29000 46.49900
H  46.08100 9.46000 46.57200
H  40.91000 8.09100 45.76700
H  38.83400 8.68000 49.21900
H  37.69900 9.50500 48.15800
H  39.03600 10.36600 49.13900
Mg 41.47000 8.26100 29.62000
C  43.18600 9.71700 32.33700
C  39.14000 6.98700 31.75500
C  39.87900 6.89500 26.86400
C  43.98900 9.40100 27.49000
N  41.38000 8.14800 31.81500
C  42.04300 8.95100 32.73900
C  41.44800 8.83900 34.14000
C  40.33200 7.81100 33.88200
C  40.23500 7.66700 32.35000
C  40.62400 6.53100 34.63300
C  41.07400 10.22000 34.78500
C  39.88500 10.32500 35.84200
H  40.17500 11.25800 36.97000
N  39.78500 7.10400 29.33500
C  38.95900 6.68200 30.35900
C  37.80900 6.07400 29.75800
C  38.03400 6.02700 28.36200
C  39.31400 6.65500 28.14000
C  36.88900 5.22100 30.67700
C  37.08600 5.45100 27.29700
O  37.37700 5.29100 26.06700
C  35.66700 5.10200 27.63700
N  41.95600 8.02700 27.52100
C  41.07100 7.49100 26.55900
C  41.59800 7.74300 25.08500
C  42.72000 8.72900 25.33900
C  42.91100 8.78900 26.86000
C  42.02000 6.37500 24.41800
C  42.25800 10.08800 24.68800
C  41.08000 10.80700 25.27700
N  43.31400 9.18400 29.78300
C  44.12100 9.70800 28.84700
C  45.09200 10.55500 29.54800
C  44.77900 10.54600 30.86900
C  43.67600 9.77000 31.02200
C  46.18700 11.22000 28.83500
C  45.19200 11.09400 32.15600
O  46.13300 11.77500 32.50200
C  44.15600 10.45500 33.21600
C  44.79400 9.56700 34.22300
O  45.57100 8.64000 33.91800
O  44.27400 9.91500 35.47500
C  44.68400 8.98800 36.57800
H  38.33300 6.62300 32.39500
H  39.25900 6.72900 25.98000
H  44.65200 9.89500 26.77600
H  42.36500 8.46300 34.59400
H  39.38900 8.20400 34.26100
H  41.41000 6.59400 35.38600
H  41.00000 5.76100 33.95900
H  39.63800 6.19700 34.95600
H  40.81200 10.83200 33.92200
H  41.91500 10.61500 35.35500
H  39.70000 9.34400 36.28000
H  38.97900 10.64500 35.32800
H  35.96800 5.79800 30.76300
H  37.33800 4.93900 31.62900
H  36.78500 4.26000 30.17200
H  35.66700 4.19500 28.24200
H  35.04400 5.00000 26.74900
H  35.33200 5.86200 28.34200
H  40.84100 8.16100 24.42000
H  43.59000 8.36700 24.79200
H  41.47300 5.53200 24.84000
H  43.08500 6.21700 24.59000
H  41.88700 6.39800 23.33700
H  41.97900 9.91900 23.64800
H  43.14500 10.72200 24.69700
H  40.48500 11.21300 24.45900
H  41.44800 11.67700 25.82100
H  40.45000 10.29500 26.00400
H  46.15200 12.27900 29.09100
H  46.13500 11.02800 27.76300
H  47.07300 10.77300 29.28600
H  43.58400 11.20300 33.76500
H  45.67700 8.57300 36.40800
H  43.91500 8.23000 36.72100
H  44.73000 9.54700 37.51300

