158

Mg 34.37800 3.21600 29.10000
C  32.25800 4.33900 31.60800
C  36.82900 2.73800 31.31200
C  36.38100 2.26900 26.60700
C  31.73600 3.44600 26.83600
N  34.50700 3.54100 31.25300
C  33.49100 3.89200 32.08900
C  33.91900 3.83900 33.55500
C  35.46300 3.63900 33.37500
C  35.60500 3.27000 31.88200
C  36.34500 4.85400 33.65900
C  33.20700 2.79000 34.32300
C  32.86800 3.03100 35.79800
H  33.70400 4.07500 36.54000
N  36.38800 2.59400 29.01000
C  37.24200 2.47800 30.00300
C  38.50100 1.97000 29.50500
C  38.35100 1.76300 28.15000
C  36.95700 2.22700 27.86100
C  39.61900 1.69100 30.37400
C  39.33300 1.15300 27.14500
O  39.07700 1.02700 25.94700
C  40.68600 0.60700 27.60200
N  34.06700 2.73700 27.06300
C  35.08400 2.55000 26.22000
C  34.59600 2.35800 24.77300
C  32.99400 2.42900 24.89100
C  32.90600 2.90100 26.32000
C  35.18800 3.18300 23.71200
C  32.33100 1.01200 24.78200
C  31.01300 1.10200 23.87900
N  32.40600 3.82800 29.10900
C  31.46300 3.86000 28.13300
C  30.19400 4.36200 28.72300
C  30.46100 4.56500 30.08200
C  31.82400 4.23200 30.21400
C  28.87100 4.38100 27.99800
C  29.85200 4.87200 31.34500
O  28.70200 5.21000 31.58500
C  30.99900 4.79400 32.35800
C  31.19200 6.14900 32.88700
O  31.19800 7.20900 32.18100
O  31.10400 6.04400 34.29400
C  30.92700 7.32800 34.98100
H  37.58400 2.70200 32.10000
H  37.06800 1.97800 25.80900
H  30.94500 3.49200 26.08400
H  33.75300 4.82600 33.98700
H  35.80100 2.79700 33.97800
H  35.75900 5.52500 34.28700
H  36.67000 5.25800 32.70000
H  37.23700 4.44900 34.13700
H  33.83300 1.90200 34.40100
H  32.45700 2.37300 33.65000
H  33.07000 2.17000 36.43600
H  31.81200 3.27600 35.90700
H  39.34300 1.96300 31.39300
H  40.45100 2.29700 30.01400
H  39.80400 0.61700 30.37600
H  41.51600 0.34900 26.94400
H  40.40400 -0.20500 28.27300
H  41.24700 1.37800 28.12900
H  35.02500 1.37700 24.56600
H  32.62400 3.17000 24.18300
H  36.11900 3.61900 24.07500
H  34.45100 3.93500 23.43200
H  35.36200 2.60000 22.80700
H  32.18700 0.53500 25.75200
H  33.10800 0.37100 24.36400
H  30.55000 2.08900 23.88600
H  30.24500 0.42500 24.25100
H  31.18300 0.91000 22.81900
H  28.82700 3.59700 27.24100
H  28.82200 5.41400 27.65500
H  28.05200 4.13400 28.67400
H  30.82700 4.14200 33.21400
H  31.76300 7.94600 34.65500
H  30.96200 7.19200 36.06200
H  30.04300 7.85200 34.61700
Mg -2.13700 33.98700 27.10400
C  -3.93100 32.40100 29.49700
C  -1.06300 36.20100 29.53900
C  -0.64500 35.89600 24.65400
C  -3.74400 32.17100 24.64500
N  -2.49800 34.23900 29.25100
C  -3.20400 33.41000 30.03400
C  -3.11100 33.79700 31.53400
C  -2.39000 35.21600 31.46100
C  -1.99900 35.20400 29.97100
C  -3.17900 36.44300 31.98400
C  -2.35100 32.74500 32.35400
C  -3.17300 32.17000 33.53700
H  -2.49800 31.70800 34.87600
N  -0.92500 35.65500 27.15300
C  -0.54200 36.40300 28.25000
C  0.50500 37.27900 27.90900
C  0.57100 37.24200 26.46500
C  -0.38300 36.27300 25.98600
C  1.37400 38.06500 28.91500
C  1.64600 37.91300 25.63800
O  1.71400 37.71200 24.44600
C  2.72400 38.85300 26.15600
N  -2.28600 34.09900 24.98100
C  -1.53000 34.93100 24.19700
C  -1.44300 34.40100 22.75500
C  -2.52000 33.28800 22.71800
C  -2.83700 33.12300 24.21400
C  -1.47400 35.35200 21.59000
C  -1.92700 32.04000 21.90700
C  -1.03300 31.08900 22.78300
N  -3.61400 32.61200 26.97600
C  -4.11500 31.87300 25.94100
C  -5.09500 30.88600 26.51000
C  -4.99000 31.05700 27.88300
C  -4.06100 32.07000 28.15800
C  -5.87400 29.81100 25.79500
C  -5.59200 30.55700 29.13300
O  -6.44200 29.74900 29.29500
C  -4.91200 31.43300 30.22500
C  -5.92300 32.20600 30.92400
O  -6.72700 32.95000 30.40300
O  -6.10500 31.77700 32.21300
C  -7.32300 32.24800 32.94000
H  -0.80600 36.88000 30.35500
H  -0.20800 36.49100 23.84900
H  -4.05900 31.57300 23.78700
H  -4.12100 33.95000 31.91500
H  -1.47900 35.26400 32.05600
H  -4.13200 36.25300 32.47900
H  -3.35000 37.08900 31.12300
H  -2.60200 37.06800 32.66500
H  -1.53900 33.27000 32.85700
H  -1.98000 31.91300 31.75600
H  -3.70700 31.32900 33.09600
H  -3.96500 32.87400 33.79200
H  2.23300 37.44600 29.17600
H  0.80100 38.36400 29.79200
H  1.75100 38.95400 28.41000
H  2.28600 39.75700 26.58000
H  3.53400 39.04600 25.45300
H  3.29600 38.25400 26.86500
H  -0.44100 33.97800 22.68800
H  -3.37300 33.67100 22.15700
H  -2.32300 35.09800 20.95500
H  -0.59600 35.22300 20.95700
H  -1.61400 36.37100 21.95100
H  -1.37700 32.37500 21.02800
H  -2.82300 31.48400 21.62800
H  -0.23800 30.54500 22.27400
H  -1.64400 30.28600 23.19600
H  -0.65400 31.74000 23.57100
H  -5.79100 28.87100 26.34200
H  -5.43800 29.83500 24.79700
H  -6.91300 30.13900 25.77000
H  -4.38000 30.72100 30.85500
H  -7.87400 33.04900 32.44700
H  -6.96400 32.76900 33.82800
H  -7.84000 31.34000 33.25100

