158

Mg 26.12300 0.88000 29.26300
C  28.06200 0.00300 32.10700
C  23.36900 1.11400 31.11800
C  24.31500 0.97200 26.30100
C  28.95000 -0.05800 27.31000
N  25.83000 0.64100 31.32400
C  26.76800 0.42900 32.35500
C  26.18600 0.59200 33.73900
C  24.71100 0.82100 33.41700
C  24.60000 0.82500 31.85000
C  23.70200 -0.14400 34.15000
C  26.85400 1.75300 34.57300
C  26.06200 2.25200 35.83700
H  26.91900 2.52000 37.11700
N  24.09000 1.02500 28.76500
C  23.08800 1.14900 29.69700
C  21.83400 1.30600 28.95600
C  22.15100 1.42100 27.55300
C  23.57700 1.10400 27.45900
C  20.50500 1.38000 29.50900
C  21.23800 1.75700 26.43300
O  21.70700 1.86400 25.28100
C  19.89700 2.14800 26.63900
N  26.56000 0.57900 27.17300
C  25.66500 0.81800 26.15900
C  26.26200 0.67900 24.77000
C  27.74400 0.56600 25.08400
C  27.81100 0.39700 26.64500
C  25.76900 -0.54200 24.04300
C  28.48800 1.93900 24.69400
C  27.95500 3.18200 25.48800
N  28.11200 0.19100 29.59400
C  29.15300 -0.12900 28.68300
C  30.33500 -0.54400 29.39200
C  29.93700 -0.54400 30.74200
C  28.61800 -0.10700 30.81800
C  31.60500 -0.91500 28.73500
C  30.37300 -0.78800 32.13100
O  31.43900 -1.13300 32.57200
C  29.16900 -0.30500 33.02000
C  28.93400 -1.46700 33.96600
O  28.46000 -2.61000 33.66600
O  29.25700 -1.08300 35.24000
C  29.20300 -2.15900 36.22800
H  22.49800 1.46800 31.67400
H  23.83700 1.09400 25.32600
H  29.81000 -0.39200 26.72600
H  26.51500 -0.36100 34.15300
H  24.36900 1.83700 33.61700
H  23.09200 -0.76500 33.49400
H  23.07900 0.53800 34.72800
H  24.23600 -0.82800 34.81000
H  26.87100 2.61400 33.90500
H  27.89000 1.50800 34.80800
H  25.18300 1.64600 36.05300
H  25.54100 3.15300 35.51300
H  20.03700 2.36200 29.58600
H  20.58100 1.00600 30.53000
H  19.86600 0.76800 28.87300
H  19.89900 2.85900 27.46500
H  19.39700 1.21800 26.91100
H  19.41400 2.53500 25.74200
H  25.90200 1.54400 24.21200
H  28.18300 -0.33200 24.65000
H  24.71600 -0.31900 23.87200
H  25.80800 -1.51000 24.54100
H  26.22900 -0.58000 23.05500
H  28.60000 2.13100 23.62700
H  29.52100 1.80700 25.01500
H  27.46000 2.87000 26.40700
H  27.24000 3.70400 24.85100
H  28.85500 3.74200 25.73900
H  32.22800 -0.02100 28.74800
H  31.47100 -1.15800 27.68100
H  31.95900 -1.71200 29.38900
H  29.54600 0.41400 33.74700
H  28.23900 -2.13800 36.73600
H  29.88600 -1.79000 36.99400
H  29.36700 -3.17100 35.85900
Mg 16.58000 53.28400 26.29600
C  18.29500 51.57300 28.80100
C  14.55600 54.50300 28.61700
C  14.75600 54.75200 23.87500
C  18.70900 51.91200 24.10900
N  16.39300 52.90400 28.46000
C  17.22900 52.28000 29.34600
C  16.88800 52.54600 30.79000
C  15.51100 53.20100 30.65200
C  15.49200 53.63000 29.14000
C  14.23300 52.40400 30.96700
C  17.90300 53.48100 31.43900
C  18.03000 53.41100 32.95400
H  16.95100 52.69500 33.74900
N  15.01000 54.60200 26.24300
C  14.26700 54.98200 27.32600
C  13.31700 56.01100 26.92500
C  13.32200 55.96900 25.47400
C  14.41700 55.07700 25.12200
C  12.57400 56.84100 27.90500
C  12.49400 56.70000 24.48400
O  12.49600 56.48700 23.30300
C  11.46500 57.69900 24.95100
N  16.55200 53.13600 24.30600
C  15.79800 53.99200 23.49800
C  16.34800 53.94500 22.06600
C  17.72700 53.11800 22.11300
C  17.72100 52.72700 23.62100
C  15.37800 53.44600 20.98800
C  19.06600 53.80500 21.61400
C  19.55900 55.08500 22.40400
N  18.11800 51.69700 26.32500
C  18.99400 51.34000 25.30400
C  20.14000 50.55100 25.80800
C  19.81000 50.49300 27.19200
C  18.59800 51.25000 27.44000
C  21.30500 50.08700 25.04700
C  20.32800 50.09800 28.50200
O  21.31900 49.48900 28.85100
C  19.32900 50.74300 29.55000
C  18.75800 49.74900 30.55800
O  18.12600 48.70800 30.29400
O  19.15400 50.08400 31.83600
C  18.96500 49.10800 32.94600
H  13.71400 54.71500 29.27900
H  14.33900 55.19700 22.96900
H  19.39500 51.70500 23.28500
H  16.81900 51.60200 31.33000
H  15.49900 54.12600 31.22900
H  13.63500 52.85500 31.75900
H  14.52700 51.43500 31.37200
H  13.55900 52.16600 30.14500
H  17.75700 54.54000 31.22700
H  18.83300 53.18900 30.95100
H  18.04200 54.38100 33.45200
H  18.97800 52.92100 33.17200
H  11.65300 57.29000 27.53200
H  13.08100 57.74500 28.24300
H  12.29600 56.25000 28.77700
H  10.92400 58.13200 24.10900
H  12.02800 58.50200 25.42700
H  10.81200 57.08700 25.57300
H  16.60300 54.98000 21.83900
H  17.61800 52.16400 21.59800
H  15.15500 54.38400 20.48100
H  14.44100 53.14800 21.45900
H  15.90100 52.78300 20.29800
H  18.86400 54.06000 20.57400
H  19.79100 52.99300 21.68000
H  18.86600 55.91500 22.26500
H  20.51200 55.36400 21.95500
H  19.70400 54.94100 23.47500
H  21.49000 49.03900 25.28300
H  22.17800 50.69500 25.28000
H  21.27400 50.03500 23.95800
H  19.94300 51.38200 30.18600
H  18.35600 48.26300 32.62600
H  18.38200 49.62600 33.70800
H  19.95000 48.83500 33.32500

