158

Mg 24.44200 -6.29500 45.62400
C  26.46100 -3.62300 44.68100
C  21.90100 -4.90600 43.82600
C  22.67300 -9.10600 46.07500
C  27.08100 -7.55100 47.41300
N  24.26900 -4.47300 44.41500
C  25.24600 -3.60100 44.06900
C  24.62700 -2.43000 43.24800
C  23.09500 -2.81200 43.20400
C  23.07600 -4.18400 43.79400
C  22.16600 -1.81200 43.91800
C  25.34100 -2.11400 41.83000
C  24.78900 -0.97200 40.99000
H  24.10600 -1.27500 39.67200
N  22.56600 -6.89800 45.06200
C  21.66300 -6.16900 44.42300
C  20.44300 -6.95200 44.39600
C  20.66200 -8.17900 44.96700
C  22.05900 -8.08800 45.41900
C  19.28400 -6.42500 43.68400
C  19.52200 -9.27800 45.01000
O  18.40000 -9.08900 44.55300
C  19.92600 -10.70600 45.54300
N  24.97400 -8.17900 46.39600
C  24.01800 -9.14800 46.57600
C  24.59000 -10.38300 47.22400
C  25.83000 -9.79500 47.93700
C  25.96000 -8.41400 47.18500
C  23.59300 -11.13100 48.13000
C  27.08100 -10.57000 47.76400
C  28.10400 -10.36700 48.93800
N  26.39800 -5.74100 45.98700
C  27.36700 -6.32000 46.79600
C  28.52600 -5.41700 46.89500
C  28.28300 -4.37200 46.02000
C  26.93900 -4.64000 45.52400
C  29.74200 -5.65200 47.72900
C  28.74800 -3.05100 45.41300
O  29.79900 -2.45300 45.54500
C  27.60000 -2.64600 44.49000
C  27.20500 -1.17300 44.76900
O  26.34300 -0.80400 45.53100
O  27.91600 -0.41500 43.89200
C  27.49100 1.00400 43.79200
H  21.06900 -4.36200 43.37300
H  22.16700 -10.07000 46.15900
H  27.74300 -7.93900 48.18900
H  24.69600 -1.53500 43.86500
H  22.75900 -3.02000 42.18800
H  21.65400 -2.31300 44.73900
H  21.50500 -1.40600 43.15200
H  22.58900 -0.91000 44.36100
H  25.41300 -2.97000 41.15800
H  26.39600 -1.90800 42.00800
H  25.66300 -0.36900 40.74100
H  24.04700 -0.41900 41.56600
H  19.20900 -5.35300 43.50100
H  18.35300 -6.56900 44.23200
H  19.04300 -6.93800 42.75300
H  19.06100 -11.36500 45.46500
H  20.19000 -10.65200 46.60000
H  20.78000 -11.12700 45.01200
H  24.93900 -10.92900 46.34800
H  25.58900 -9.53100 48.96700
H  23.46900 -12.16200 47.79800
H  22.70400 -10.52100 48.28600
H  24.08800 -11.35100 49.07600
H  27.55300 -10.21200 46.84900
H  26.89700 -11.64100 47.68500
H  29.13000 -10.16400 48.62900
H  28.27800 -11.28300 49.50300
H  27.79600 -9.65900 49.70700
H  29.42700 -5.60700 48.77100
H  30.57400 -4.98000 47.51600
H  29.99800 -6.70700 47.63200
H  27.91700 -2.73500 43.45100
H  26.50200 1.09500 43.34200
H  28.17600 1.56900 43.16000
H  27.59200 1.33600 44.82600
Mg 42.00400 41.26800 27.17000
C  41.40100 43.80500 29.39200
C  42.82400 39.29400 29.76200
C  42.83700 38.83200 24.94100
C  41.55800 43.48000 24.57100
N  42.31900 41.58200 29.33200
C  41.74400 42.63200 30.05900
C  41.68700 42.36600 31.61600
C  42.48400 41.02700 31.72500
C  42.52700 40.56100 30.24300
C  43.85400 40.84300 32.47900
C  40.24700 42.37400 32.21300
C  39.94400 43.36500 33.36100
H  39.31500 42.76900 34.58500
N  42.75700 39.30300 27.31000
C  42.92600 38.62600 28.50500
C  43.18600 37.23800 28.20100
C  43.23300 37.05700 26.79000
C  42.90900 38.41300 26.28200
C  43.42600 36.21700 29.35900
C  43.58000 35.78900 25.95500
O  43.78400 35.82100 24.75700
C  43.91400 34.46500 26.57100
N  42.33100 41.25400 25.06100
C  42.50300 40.08600 24.41500
C  42.33200 40.23000 22.90100
C  41.85800 41.69900 22.72000
C  41.92000 42.18000 24.18300
C  43.50700 39.68800 22.04000
C  40.52100 41.91900 21.91600
C  39.24700 42.18300 22.70000
N  41.72600 43.28400 26.95900
C  41.53300 44.03500 25.85100
C  41.11200 45.41500 26.27900
C  41.01200 45.34300 27.64100
C  41.42800 44.02400 27.99400
C  40.61300 46.52500 25.29800
C  40.70000 46.08400 28.75400
O  40.16400 47.18500 28.90000
C  40.83900 45.11400 29.96300
C  41.51900 45.87500 31.05400
O  42.70300 46.24900 31.08500
O  40.54300 46.22100 31.96300
C  40.98100 46.72400 33.26900
H  42.94500 38.73300 30.69200
H  42.98100 38.04900 24.19300
H  41.21200 44.04000 23.70100
H  42.20200 43.11000 32.22500
H  41.78100 40.31800 32.16300
H  44.71600 40.97400 31.82400
H  43.75900 39.91100 33.03500
H  43.88700 41.64700 33.21400
H  39.97300 41.35800 32.49700
H  39.57600 42.46000 31.35900
H  39.22600 44.13300 33.07500
H  40.86400 43.82200 33.72600
H  43.74700 36.64300 30.31000
H  44.23100 35.49700 29.21400
H  42.50200 35.63900 29.38200
H  43.02000 34.33200 27.18100
H  44.79500 34.36100 27.20500
H  43.95100 33.63300 25.86800
H  41.45100 39.60200 22.76900
H  42.53500 42.21700 22.04100
H  43.70300 40.44400 21.28000
H  43.25500 38.72500 21.59500
H  44.42700 39.55600 22.61100
H  40.49600 41.09100 21.20700
H  40.88400 42.79300 21.37500
H  39.40000 41.79000 23.70500
H  38.36500 41.64000 22.36000
H  38.99000 43.23000 22.53800
H  39.82000 46.22100 24.61500
H  41.38400 47.10300 24.78900
H  40.14000 47.26700 25.94100
H  39.94600 44.81900 30.51400
H  41.88100 47.32700 33.14600
H  40.99900 45.96700 34.05300
H  40.11700 47.37500 33.40300

