158

Mg 40.88500 8.36500 29.78900
C  42.69500 9.64800 32.52900
C  38.64400 7.01700 32.06900
C  39.21100 7.26600 27.18500
C  43.52200 9.36100 27.60200
N  40.69100 8.36300 32.10500
C  41.55900 9.00700 32.94700
C  40.97400 8.97500 34.40800
C  39.80800 7.90800 34.34300
C  39.69600 7.71600 32.78800
C  39.96200 6.62000 35.12700
C  40.67900 10.39100 35.01100
C  41.48900 10.81100 36.24600
H  40.98200 11.94000 37.18500
N  39.17400 7.26600 29.58400
C  38.35800 6.78700 30.66100
C  37.15700 6.19200 30.06100
C  37.25100 6.54600 28.62800
C  38.60200 7.03500 28.41100
C  36.11100 5.40200 30.82700
C  36.17900 6.47700 27.65000
O  36.33500 6.76100 26.45000
C  34.83800 6.13100 28.09900
N  41.33600 8.20100 27.73400
C  40.39600 7.78100 26.84000
C  40.88000 7.83900 25.38800
C  42.21200 8.76600 25.51500
C  42.38400 8.78300 27.03400
C  41.05500 6.42100 24.70100
C  42.15000 10.20200 24.82800
C  41.23300 11.25800 25.56200
N  42.78900 9.22200 29.95400
C  43.68600 9.60600 29.00300
C  44.80200 10.22200 29.63900
C  44.42000 10.29000 31.02500
C  43.18600 9.65800 31.15700
C  46.08900 10.71000 28.96100
C  44.92000 10.68400 32.31100
O  46.01700 11.13000 32.60600
C  43.76900 10.37600 33.39100
C  44.31000 9.42600 34.37000
O  44.28600 8.20700 34.27000
O  44.87400 10.15100 35.37800
C  45.46000 9.29900 36.42500
H  37.93500 6.65000 32.81400
H  38.58600 7.04300 26.31800
H  44.32100 9.57300 26.88800
H  41.74200 8.44400 34.97100
H  38.81200 8.22000 34.65700
H  40.93900 6.51400 35.59800
H  39.91000 5.74400 34.48200
H  39.19100 6.51700 35.89200
H  39.66600 10.40500 35.41500
H  40.84700 11.16400 34.26200
H  42.48600 11.14600 35.95800
H  41.70600 9.93300 36.85400
H  36.59800 5.25800 31.79200
H  35.94000 4.42200 30.38300
H  35.24600 6.06500 30.83600
H  34.84900 5.17100 28.61600
H  34.28400 6.00700 27.16800
H  34.39900 6.89800 28.73700
H  40.15600 8.43600 24.83300
H  43.09700 8.21700 25.19300
H  40.52800 5.65000 25.26300
H  42.08400 6.08100 24.58300
H  40.52800 6.47100 23.74800
H  41.94800 10.21200 23.75700
H  43.14000 10.65200 24.90400
H  40.40500 10.75600 26.06200
H  40.83500 12.04300 24.91800
H  41.85700 11.72900 26.32100
H  46.14300 11.69400 28.49400
H  46.42100 9.96900 28.23400
H  46.92900 10.62400 29.65000
H  43.47000 11.30300 33.88100
H  46.52700 9.51900 36.39900
H  45.31200 8.22300 36.32700
H  45.12900 9.64700 37.40300
Mg -2.32700 35.41600 27.02200
C  -4.23000 33.86800 29.73300
C  -1.12400 37.63900 29.24800
C  -0.91800 37.04200 24.46200
C  -3.77600 33.06400 24.88800
N  -2.72500 35.73200 29.21400
C  -3.50300 34.99800 30.13500
C  -3.23500 35.50800 31.56400
C  -2.49200 36.79300 31.33100
C  -2.04500 36.72100 29.81300
C  -3.34100 38.00000 31.78500
C  -2.52000 34.44000 32.54500
C  -2.96500 34.48700 33.95600
H  -2.97000 33.19300 34.79000
N  -1.14400 37.13000 26.85200
C  -0.71500 37.89200 27.89000
C  0.23100 38.89700 27.44700
C  0.40300 38.71300 26.03300
C  -0.58600 37.63700 25.70100
C  0.85800 39.92900 28.40200
C  1.30200 39.39500 24.97700
O  1.21900 39.05400 23.80800
C  2.41900 40.37900 25.46900
N  -2.40000 35.10100 24.93500
C  -1.68200 35.87500 24.15200
C  -1.84500 35.50500 22.67300
C  -2.71800 34.20100 22.78900
C  -2.98800 34.10200 24.27100
C  -2.47400 36.57000 21.78300
C  -2.08200 32.85900 22.26900
C  -3.10300 32.01300 21.45100
N  -3.75700 33.81600 27.20500
C  -4.06800 32.87500 26.26400
C  -4.84500 31.80900 26.84700
C  -4.87800 32.15500 28.18200
C  -4.28400 33.39000 28.38600
C  -5.48400 30.61700 26.11100
C  -5.49900 31.77400 29.52000
O  -6.16600 30.78100 29.83700
C  -5.01600 32.84300 30.54400
C  -6.27800 33.49600 31.16700
O  -7.15000 34.09500 30.52700
O  -6.24900 33.21800 32.51400
C  -7.59300 33.34800 33.11500
H  -0.63500 38.25400 30.00600
H  -0.53500 37.53100 23.56400
H  -4.25700 32.29100 24.28600
H  -4.15900 35.77500 32.07700
H  -1.54600 36.84700 31.87000
H  -3.11100 38.77700 31.05600
H  -3.03000 38.52200 32.69100
H  -4.42000 37.89800 31.67600
H  -1.47400 34.74300 32.53300
H  -2.50500 33.41300 32.17900
H  -4.05100 34.58100 33.92100
H  -2.33800 35.17200 34.52600
H  0.38400 39.94300 29.38400
H  0.63500 40.92100 28.01000
H  1.92800 39.77400 28.54300
H  3.14400 39.81400 26.05500
H  1.98100 41.19500 26.04400
H  3.02200 40.72200 24.62800
H  -0.82000 35.26000 22.39200
H  -3.70100 34.45100 22.39000
H  -1.74700 36.97400 21.07900
H  -2.79900 37.42700 22.37300
H  -3.24400 36.11100 21.16200
H  -1.50500 32.30100 23.00600
H  -1.33900 33.06900 21.50000
H  -2.67400 31.38700 20.66800
H  -3.87000 32.63600 20.99200
H  -3.42800 31.37000 22.26900
H  -4.86400 30.28800 25.27800
H  -6.49500 30.87100 25.79100
H  -5.68500 29.81600 26.82300
H  -4.39800 32.41200 31.33100
H  -8.20600 34.06500 32.57000
H  -7.45000 33.65600 34.15100
H  -8.20200 32.44600 33.05900

