158

Mg -11.70000 16.29000 41.91600
C  -9.00300 14.11400 41.30100
C  -10.23800 18.64600 39.91500
C  -14.54800 17.97800 41.79300
C  -13.61100 13.37600 42.73700
N  -9.82000 16.37800 40.80000
C  -8.84900 15.45000 40.75200
C  -7.56800 15.88700 39.89400
C  -7.94600 17.38700 39.58700
C  -9.47000 17.46400 40.07900
C  -6.92900 18.39600 40.18900
C  -7.27700 15.03600 38.62900
C  -5.77400 14.92700 38.45900
H  -5.32200 15.77800 37.25400
N  -12.16500 18.12200 41.26500
C  -11.41000 18.98700 40.48200
C  -12.10800 20.19800 40.19900
C  -13.34700 20.04200 40.93600
C  -13.41700 18.68400 41.46200
C  -11.70400 21.33900 39.21500
C  -14.49300 21.03900 41.08800
O  -14.34200 22.11400 40.53900
C  -15.67600 20.95200 42.03000
N  -13.84200 15.76300 42.14000
C  -14.77300 16.65600 42.15400
C  -16.16000 16.08400 42.30800
C  -15.90200 14.60500 42.54300
C  -14.39900 14.51200 42.48100
C  -17.09300 16.88500 43.33600
C  -16.56700 13.59200 41.54600
C  -18.11800 13.56000 41.49000
N  -11.38200 14.23200 42.08400
C  -12.24400 13.16100 42.47400
C  -11.53200 11.89700 42.66800
C  -10.22000 12.23200 42.19500
C  -10.25500 13.61900 41.78200
C  -12.01000 10.49000 43.08000
C  -8.86400 11.73100 41.90900
O  -8.34200 10.60400 41.83900
C  -8.04800 12.95300 41.37600
C  -6.85900 13.34800 42.23800
O  -6.86700 13.42900 43.45800
O  -5.79300 13.58500 41.35900
C  -4.54600 13.73700 42.13300
H  -9.65500 19.27000 39.23600
H  -15.53200 18.45300 41.78200
H  -14.10700 12.47200 43.09700
H  -6.77300 15.88500 40.63900
H  -7.95700 17.49500 38.50200
H  -7.58700 19.00200 40.81100
H  -6.47900 18.91000 39.34000
H  -6.15100 17.92400 40.79000
H  -7.73800 15.62800 37.83800
H  -7.67800 14.02300 38.65100
H  -5.42300 13.91700 38.24900
H  -5.29900 15.27800 39.37500
H  -12.47700 21.51200 38.46600
H  -10.70800 21.15100 38.81600
H  -11.71700 22.18500 39.90200
H  -16.04700 21.96300 42.19800
H  -15.27700 20.54500 42.95900
H  -16.46400 20.31100 41.63500
H  -16.68200 16.22700 41.36200
H  -16.30800 14.33000 43.51700
H  -17.52800 16.11300 43.97200
H  -17.94200 17.33500 42.82300
H  -16.50300 17.56900 43.94600
H  -16.37500 12.59300 41.93600
H  -16.06600 13.61700 40.57800
H  -18.42500 14.31100 42.21700
H  -18.62200 12.60800 41.66200
H  -18.33100 13.86200 40.46400
H  -12.03800 9.78700 42.24800
H  -12.99100 10.44800 43.55400
H  -11.28300 10.04200 43.75800
H  -7.65600 12.60400 40.42000
H  -4.43200 14.56700 42.83000
H  -3.82300 13.86300 41.32800
H  -4.38000 12.83800 42.72800
Mg -5.84500 24.37000 25.51200
C  -4.35400 25.77000 28.47100
C  -7.64900 22.32700 27.58900
C  -6.76500 22.79700 22.80800
C  -3.72400 26.55300 23.60700
N  -6.10000 24.30500 27.76800
C  -5.42400 24.93400 28.70500
C  -5.84700 24.50800 30.17000
C  -6.76100 23.27900 29.90500
C  -6.87400 23.26800 28.31800
C  -6.30900 21.87800 30.41000
C  -6.49900 25.65500 30.93400
C  -6.10400 25.69700 32.40500
H  -5.57600 24.39600 33.02600
N  -7.05500 22.83700 25.21300
C  -7.78900 22.13900 26.18800
C  -8.71100 21.25200 25.50300
C  -8.27000 21.21100 24.14700
C  -7.32900 22.31500 24.02500
C  -9.78500 20.46800 26.29900
C  -8.90000 20.46200 23.00300
O  -8.53500 20.52200 21.83400
C  -10.00500 19.49700 23.26500
N  -5.39100 24.73700 23.54500
C  -5.89000 23.81300 22.62500
C  -5.21500 24.05900 21.26800
C  -4.36300 25.40200 21.37300
C  -4.49600 25.61300 22.94400
C  -4.50800 22.96600 20.45200
C  -4.91700 26.68600 20.58700
C  -4.03200 27.47000 19.56100
N  -4.44000 25.93900 25.89600
C  -3.60700 26.70600 25.01500
C  -2.63100 27.46000 25.73900
C  -2.85400 27.11600 27.09600
C  -4.00700 26.27400 27.14800
C  -1.60900 28.28300 25.20100
C  -2.24800 27.23000 28.39000
O  -1.20900 27.79200 28.71400
C  -3.32700 26.47800 29.40300
C  -2.48600 25.67200 30.38400
O  -1.84500 24.69100 30.03100
O  -2.58100 26.11100 31.67200
C  -1.61400 25.47400 32.57100
H  -8.21700 21.74800 28.32100
H  -6.97400 22.22100 21.90400
H  -3.09400 27.19600 22.98900
H  -4.97500 24.04400 30.63200
H  -7.79000 23.53600 30.15800
H  -5.47000 22.05100 31.08400
H  -6.00500 21.22800 29.59000
H  -7.10200 21.46300 31.03200
H  -7.58600 25.58200 30.92300
H  -6.18800 26.51400 30.34000
H  -6.90100 26.20800 32.94600
H  -5.22800 26.34500 32.40700
H  -9.33500 19.59800 26.77800
H  -10.60600 20.04400 25.72200
H  -10.17300 21.09600 27.10100
H  -9.68400 18.86900 24.09700
H  -10.27200 18.90600 22.38900
H  -10.79700 20.15100 23.63100
H  -6.08000 24.36700 20.68000
H  -3.31200 25.25900 21.12100
H  -4.30100 22.13000 21.12000
H  -3.51300 23.23400 20.09500
H  -5.13200 22.70100 19.59900
H  -5.34600 27.40100 21.28900
H  -5.79200 26.37600 20.01700
H  -4.31900 27.29500 18.52400
H  -2.99600 27.15700 19.69000
H  -4.04000 28.55500 19.66600
H  -0.82200 28.43200 25.94100
H  -1.99800 29.28700 25.02900
H  -1.23600 27.94400 24.23500
H  -3.94200 27.11800 30.03600
H  -1.60500 24.38500 32.51600
H  -1.91600 25.73600 33.58500
H  -0.60800 25.76600 32.26900

