158

Mg -2.21000 17.01200 26.14300
C  -2.65000 14.91200 28.88600
C  -2.60200 19.72400 28.24200
C  -1.90100 19.08000 23.55800
C  -2.03500 14.23400 24.01700
N  -2.59900 17.27400 28.35200
C  -2.69500 16.24300 29.27700
C  -2.87700 16.79700 30.69000
C  -3.02100 18.30000 30.41500
C  -2.70500 18.45900 28.90700
C  -4.43200 18.84600 30.74000
C  -1.68700 16.56800 31.69300
C  -1.63800 17.27900 33.00700
H  -1.06100 16.44200 34.12500
N  -2.41000 19.08900 25.91100
C  -2.38600 20.00500 26.90800
C  -2.35600 21.29900 26.27400
C  -2.25700 21.18400 24.90100
C  -2.14200 19.73100 24.75900
C  -2.44400 22.60800 27.03900
C  -2.15900 22.15300 23.76400
O  -2.08600 21.71500 22.65300
C  -2.12700 23.70900 23.96500
N  -2.06100 16.73800 24.02500
C  -1.84900 17.73900 23.21200
C  -1.48700 17.21600 21.74700
C  -1.30400 15.64600 22.01400
C  -1.83600 15.52000 23.46400
C  -2.57500 17.48200 20.65400
C  0.11900 15.18300 22.03900
C  0.74100 15.39500 20.63400
N  -2.26000 14.96100 26.34400
C  -2.29400 13.97700 25.39500
C  -2.48900 12.71700 26.05000
C  -2.59300 13.07200 27.41000
C  -2.48900 14.42700 27.53900
C  -2.56200 11.41000 25.40800
C  -2.68000 12.50600 28.68700
O  -2.72100 11.31600 29.08200
C  -2.82800 13.68000 29.70900
C  -1.79700 13.43300 30.73100
O  -0.57900 13.58500 30.60500
O  -2.39800 12.86300 31.82400
C  -1.45200 12.28900 32.85400
H  -2.68100 20.54800 28.95300
H  -1.83500 19.61300 22.60800
H  -2.00000 13.43400 23.27400
H  -3.79600 16.44000 31.15500
H  -2.29100 18.90500 30.95300
H  -4.34900 19.45500 31.64000
H  -5.20600 18.09400 30.89100
H  -4.86800 19.34200 29.87300
H  -0.80600 16.74400 31.07600
H  -1.77600 15.49300 31.84900
H  -2.66500 17.58300 33.21100
H  -0.94200 18.11600 32.95400
H  -3.06700 23.26600 26.43300
H  -1.45600 23.06700 27.07700
H  -2.76100 22.65300 28.08000
H  -1.43800 24.01200 24.75300
H  -3.08400 24.17700 24.19600
H  -1.74500 23.99900 22.98600
H  -0.54400 17.60700 21.36500
H  -1.86000 15.03400 21.30400
H  -2.31200 18.16200 19.84400
H  -3.41200 17.89100 21.22000
H  -2.84900 16.52000 20.22100
H  0.13100 14.12900 22.32000
H  0.70200 15.64200 22.83700
H  0.59600 16.35200 20.13200
H  0.29400 14.69400 19.92900
H  1.80700 15.17900 20.69800
H  -3.07100 11.52900 24.45200
H  -3.07900 10.67600 26.02600
H  -1.59100 10.95200 25.22300
H  -3.80100 13.59100 30.19100
H  -0.84600 11.42800 32.57000
H  -2.08100 12.09100 33.72200
H  -0.74600 13.06800 33.14100
Mg 35.93000 0.94400 29.77000
C  33.85600 2.34700 32.24700
C  38.48600 0.71900 32.05600
C  37.94000 0.33800 27.24400
C  33.32200 1.62000 27.32700
N  36.11600 1.47800 31.93600
C  35.13600 1.90300 32.81500
C  35.64300 1.98800 34.25900
C  37.23500 1.76000 34.07400
C  37.35100 1.28500 32.60400
C  38.19000 2.79900 34.59100
C  34.86400 0.90800 35.09300
C  34.12100 1.38800 36.30800
H  34.62800 2.65300 36.96900
N  37.89300 0.40600 29.68600
C  38.77600 0.35300 30.72200
C  40.00900 -0.15700 30.23200
C  39.88100 -0.22200 28.80900
C  38.51400 0.25900 28.46800
C  41.27000 -0.33300 31.10000
C  40.96300 -0.69900 27.79800
O  40.66400 -0.66100 26.62000
C  42.40300 -1.01200 28.22300
N  35.59100 0.85900 27.57600
C  36.65600 0.57100 26.78000
C  36.32600 0.77200 25.29800
C  34.72900 0.86100 25.33000
C  34.52700 1.14000 26.80000
C  36.97300 2.06100 24.77300
C  33.92700 -0.41200 24.78600
C  33.28100 -0.23300 23.44700
N  34.06300 1.86600 29.73800
C  33.07100 2.08000 28.64400
C  31.87300 2.51500 29.23800
C  32.10500 2.72100 30.60300
C  33.45300 2.30200 30.88000
C  30.62400 2.91600 28.53900
C  31.40700 3.02200 31.82900
O  30.24600 3.38400 31.94500
C  32.53200 2.85800 32.93300
C  32.66900 4.23100 33.66800
O  33.31700 5.16400 33.24100
O  31.83700 4.25400 34.77100
C  31.74100 5.51900 35.46100
H  39.24700 0.73500 32.83900
H  38.65400 0.16000 26.43700
H  32.44300 1.62600 26.67900
H  35.56500 3.01300 34.62000
H  37.48900 0.81100 34.54700
H  37.61400 3.60900 35.03800
H  38.87500 3.17400 33.83000
H  38.81200 2.36000 35.37200
H  35.62500 0.21300 35.44700
H  34.16900 0.51600 34.35000
H  33.86200 0.60500 37.02100
H  33.15700 1.70800 35.91300
H  41.05200 0.00800 32.11200
H  42.12300 0.24500 30.74600
H  41.59800 -1.37200 31.14300
H  42.88500 -1.08700 27.24800
H  42.44900 -1.90300 28.84800
H  42.86600 -0.16500 28.73000
H  36.77000 -0.04400 24.72900
H  34.39800 1.74500 24.78500
H  37.67300 2.41800 25.52900
H  36.33000 2.89400 24.48900
H  37.50000 1.77000 23.86500
H  33.29800 -0.70500 25.62600
H  34.63800 -1.22300 24.62800
H  33.08600 -1.13800 22.87200
H  33.75000 0.59000 22.90700
H  32.24200 0.02800 23.65100
H  30.57000 2.62900 27.48900
H  30.43200 3.98900 28.57200
H  29.74500 2.41100 28.93800
H  32.12800 2.05200 33.54600
H  32.74200 5.85000 35.73700
H  31.11900 5.31400 36.33300
H  31.33400 6.25000 34.76300

