158

Mg 8.65200 3.54900 27.77900
C  9.81300 1.98500 30.84300
C  6.66000 5.56000 29.73900
C  7.27100 4.61600 24.95100
C  10.24100 0.83200 26.05700
N  8.12800 3.59000 29.96300
C  8.81700 2.95700 31.03700
C  8.29100 3.61100 32.38000
C  7.18500 4.56900 31.95600
C  7.33600 4.58200 30.44500
C  5.72300 4.15600 32.45700
C  9.43600 4.27500 33.10800
C  9.42800 4.02400 34.67600
H  10.79600 3.94300 35.38400
N  7.30500 5.04800 27.42100
C  6.60100 5.81500 28.31400
C  5.81700 6.82800 27.58200
C  6.07400 6.56700 26.18000
C  6.92300 5.35100 26.11300
C  4.92000 7.92900 28.17100
C  5.58900 7.36300 24.98500
O  5.80500 7.02600 23.80500
C  4.73900 8.52900 25.13700
N  8.82300 2.91100 25.79500
C  7.99900 3.42800 24.81700
C  8.22400 2.69200 23.40300
C  9.35400 1.66400 23.75800
C  9.50900 1.79300 25.33600
C  6.82100 2.19500 22.94800
C  10.80800 1.87800 23.22700
C  11.56400 0.58100 22.86500
N  9.79700 1.76000 28.30700
C  10.45200 0.85500 27.44600
C  11.25600 -0.05300 28.24100
C  11.15800 0.46000 29.56200
C  10.12100 1.43500 29.55300
C  12.06700 -1.19500 27.80200
C  11.61500 0.30500 30.96700
O  12.52300 -0.30400 31.45900
C  10.74800 1.31400 31.82700
C  10.18400 0.50100 32.93100
O  9.62200 -0.55600 32.81900
O  10.42300 1.06800 34.13300
C  10.03400 0.40400 35.36300
H  6.14600 6.31800 30.33400
H  6.83700 4.96100 24.01000
H  10.71000 0.03000 25.48300
H  8.00100 2.74900 32.98000
H  7.39700 5.61400 32.18300
H  5.37700 4.98900 33.06900
H  5.69200 3.30300 33.13500
H  5.09800 3.89800 31.60200
H  9.32100 5.35600 33.02100
H  10.42600 4.08200 32.69500
H  8.72000 3.22300 34.88800
H  8.85000 4.78400 35.20200
H  5.10100 8.00200 29.24300
H  3.89900 7.58300 28.00600
H  5.17000 8.86800 27.67600
H  5.44600 9.20600 25.61700
H  3.85700 8.32800 25.74500
H  4.45400 8.92700 24.16400
H  8.61100 3.34800 22.62300
H  8.95400 0.70700 23.42300
H  6.05300 2.69200 23.54000
H  6.74600 1.11100 23.03600
H  6.66900 2.52700 21.92100
H  11.34100 2.58400 23.86400
H  10.79900 2.44000 22.29400
H  11.63900 0.38500 21.79500
H  11.20500 -0.37600 23.24400
H  12.59900 0.75800 23.15600
H  12.14100 -1.25100 26.71600
H  11.61600 -2.11900 28.16400
H  13.06100 -1.01000 28.20900
H  11.42500 2.03100 32.29200
H  10.79500 -0.35400 35.55300
H  9.05500 -0.07300 35.34000
H  9.97600 1.03900 36.24800
Mg 30.12200 58.97000 40.89100
C  27.16300 57.36300 39.76000
C  31.79100 56.22300 39.88300
C  32.99000 60.85100 40.94300
C  28.13700 61.82600 41.49200
N  29.51000 57.09100 39.63700
C  28.24500 56.62300 39.43800
C  28.22600 55.20900 38.90800
C  29.64100 54.74600 39.39800
C  30.42600 56.09300 39.66900
C  29.56000 53.77400 40.68800
C  27.97400 55.14200 37.37500
C  26.69400 54.38200 36.96000
H  25.98900 54.83000 35.67500
N  32.16200 58.55500 40.57300
C  32.70300 57.31500 40.15400
C  34.06400 57.39200 40.23200
C  34.45300 58.67600 40.60800
C  33.17600 59.48300 40.65100
C  34.92500 56.20100 39.96700
C  35.87500 59.02700 40.97400
O  36.74100 58.18700 40.99400
C  36.23400 60.44700 41.40900
N  30.50900 60.97900 41.24300
C  31.75000 61.51100 41.20900
C  31.74100 62.98000 41.75800
C  30.24300 63.21400 42.09900
C  29.59400 61.91700 41.59400
C  32.82100 63.46300 42.80200
C  29.59800 64.53600 41.51600
C  28.46500 65.14400 42.35100
N  28.03800 59.53200 40.90400
C  27.40000 60.70000 41.12600
C  25.94400 60.59400 40.87000
C  25.83700 59.27400 40.35300
C  27.14000 58.70000 40.42500
C  24.88300 61.74300 41.05400
C  24.91800 58.23700 39.95000
O  23.69700 58.27100 39.82000
C  25.67100 56.86000 39.74100
C  25.16700 55.93600 40.85600
O  25.78400 55.57800 41.87300
O  23.91100 55.59900 40.50300
C  23.06700 55.00000 41.58000
H  32.18200 55.22800 39.66100
H  33.87100 61.46700 41.13600
H  27.46400 62.63100 41.79500
H  27.44200 54.62500 39.39000
H  30.26400 54.21800 38.67600
H  28.57100 53.52500 41.07300
H  30.17600 54.24300 41.45500
H  30.02400 52.86500 40.30600
H  28.91900 54.78000 36.96900
H  27.78500 56.16700 37.05800
H  26.02700 54.25600 37.81300
H  27.07700 53.38200 36.75600
H  35.56400 56.25800 39.08500
H  34.35200 55.28300 40.09500
H  35.70200 56.05200 40.71700
H  35.81200 61.08200 40.63100
H  37.30200 60.36900 41.20600
H  35.92800 60.67000 42.43100
H  31.99700 63.57100 40.87900
H  30.07900 63.23500 43.17600
H  32.14600 63.65300 43.63700
H  33.30000 64.37200 42.43800
H  33.50000 62.62700 42.97100
H  29.26200 64.29900 40.50600
H  30.49400 65.15400 41.47600
H  28.55000 66.22500 42.46300
H  28.41000 64.72800 43.35700
H  27.51500 64.97500 41.84400
H  25.07800 62.33400 41.94900
H  23.90400 61.26700 41.12400
H  24.92700 62.31300 40.12600
H  25.54400 56.40500 38.75900
H  23.39800 55.19500 42.60000
H  23.13200 53.91300 41.63500
H  22.05600 55.29700 41.30000

