158

Mg 54.06500 23.97000 44.17100
C  51.28700 26.13300 43.26900
C  52.31000 21.47100 42.42400
C  56.68700 22.10100 44.34700
C  55.90600 26.86200 45.07600
N  52.07600 23.89700 42.92600
C  51.14700 24.85600 42.69100
C  50.08800 24.27300 41.77300
C  50.18600 22.74000 41.97300
C  51.65200 22.69100 42.34400
C  49.24700 22.20200 43.12400
C  50.03800 24.78400 40.29000
C  51.37700 25.18900 39.77300
H  51.39900 25.93500 38.45500
N  54.41700 22.06800 43.61500
C  53.54200 21.18900 43.02300
C  54.17300 19.91300 43.02200
C  55.41500 19.97200 43.70500
C  55.52600 21.35100 44.00200
C  53.56200 18.58700 42.52500
C  56.35600 18.78500 44.15100
O  56.10200 17.64000 43.81200
C  57.69300 19.10600 44.85900
N  56.07200 24.41700 44.59700
C  56.97300 23.44700 44.61100
C  58.35600 24.03300 45.00600
C  58.09500 25.62700 44.99800
C  56.62500 25.65400 44.88600
C  58.84500 23.53400 46.35600
C  58.83300 26.35100 43.87800
C  60.04200 27.20100 44.26900
N  53.73400 26.05300 44.24200
C  54.52700 27.05700 44.74000
C  53.71900 28.32300 44.78700
C  52.51000 27.95500 44.19800
C  52.53600 26.61900 43.91900
C  54.14400 29.61000 45.30500
C  51.23200 28.50400 43.80600
O  50.77400 29.57400 43.79900
C  50.39800 27.29900 43.28800
C  49.77300 27.70500 41.97700
O  50.37100 28.06800 40.96800
O  48.40400 27.56400 41.97800
C  47.64500 28.38000 41.04400
H  51.89000 20.61600 41.88900
H  57.54900 21.43600 44.42400
H  56.37400 27.81200 45.34200
H  49.07800 24.53900 42.08600
H  49.91100 22.26200 41.03300
H  48.85800 21.25100 42.75800
H  48.35100 22.73700 43.43700
H  49.88600 21.84800 43.93300
H  49.43400 25.68400 40.17200
H  49.62100 24.06500 39.58300
H  51.97600 24.28100 39.69100
H  51.88900 25.85500 40.46800
H  53.77400 17.75500 43.19700
H  53.87000 18.45400 41.48900
H  52.47600 18.56100 42.43800
H  58.11700 18.13600 45.11700
H  57.42900 19.71300 45.72600
H  58.31000 19.59300 44.10400
H  59.05900 23.80400 44.20500
H  58.28600 25.99000 46.00800
H  58.89800 22.45400 46.21600
H  58.12800 23.74800 47.14800
H  59.70500 24.13600 46.64800
H  58.05800 27.03200 43.52500
H  59.11200 25.66000 43.08300
H  60.31800 27.10900 45.31900
H  59.86500 28.24700 44.01600
H  60.90500 26.79700 43.73900
H  54.10200 29.64700 46.39300
H  53.50300 30.34900 44.82400
H  55.16900 29.70600 44.94600
H  49.63000 27.27200 44.06000
H  48.00500 29.40800 40.98700
H  46.62900 28.53500 41.40700
H  47.61700 28.01800 40.01700
Mg -6.03100 25.57800 24.59100
C  -4.31800 26.44800 27.41400
C  -7.74000 23.13900 26.59100
C  -7.23800 24.00900 21.73700
C  -4.01500 27.49900 22.60700
N  -6.14100 24.89700 26.72700
C  -5.27600 25.46700 27.68100
C  -5.71900 25.09300 29.06200
C  -6.61100 23.82500 28.87500
C  -6.88400 23.95400 27.33000
C  -5.91600 22.45800 29.27200
C  -6.53200 26.28000 29.73900
C  -6.27600 26.55600 31.25000
H  -5.66900 25.45700 32.14200
N  -7.41600 23.86400 24.22300
C  -8.03200 23.06100 25.21000
C  -8.82100 22.06400 24.53100
C  -8.71500 22.28100 23.10200
C  -7.71900 23.35600 22.94100
C  -9.75300 21.08900 25.22600
C  -9.46400 21.64600 21.93400
O  -9.19200 21.86800 20.74700
C  -10.61300 20.60900 22.16800
N  -5.73200 25.69600 22.46600
C  -6.34200 25.05000 21.51800
C  -6.08100 25.66500 20.10700
C  -5.16700 26.85600 20.42700
C  -4.95500 26.71800 21.93800
C  -5.47900 24.63300 19.06700
C  -5.73900 28.34100 20.08200
C  -6.36200 28.47400 18.64400
N  -4.44000 26.79500 24.88900
C  -3.74800 27.54400 24.03200
C  -2.77100 28.30500 24.80100
C  -3.01600 27.98600 26.09400
C  -3.94900 26.95800 26.11800
C  -1.85900 29.38800 24.29400
C  -2.65300 28.28500 27.50900
O  -1.92200 29.13200 28.01200
C  -3.60800 27.32800 28.35300
C  -2.67700 26.57600 29.28400
O  -2.15500 25.48100 29.06500
O  -2.48500 27.36300 30.39900
C  -1.63400 26.91400 31.49700
H  -8.29600 22.42700 27.20400
H  -7.61100 23.69600 20.76000
H  -3.48400 28.15300 21.91200
H  -4.85000 24.79000 29.64600
H  -7.56800 23.90200 29.39100
H  -5.74600 21.75600 28.45500
H  -6.48100 21.95700 30.05800
H  -4.94800 22.74200 29.68600
H  -7.61800 26.18400 29.72600
H  -6.41600 27.16000 29.10600
H  -7.20600 26.88500 31.71400
H  -5.57700 27.38900 31.31600
H  -9.45700 21.07900 26.27500
H  -9.67700 20.08000 24.81900
H  -10.78800 21.42900 25.20700
H  -11.30800 20.59400 21.32900
H  -11.17300 21.01000 23.01300
H  -10.15800 19.62300 22.25700
H  -7.03300 26.09000 19.78800
H  -4.32800 26.83800 19.73200
H  -4.98600 23.77800 19.53000
H  -4.74200 25.17400 18.47400
H  -6.31800 24.35900 18.42700
H  -4.96400 29.10100 20.17600
H  -6.48400 28.58400 20.83900
H  -6.06700 29.38700 18.12700
H  -7.44400 28.58000 18.71600
H  -6.04200 27.64600 18.01200
H  -2.39100 30.33700 24.35800
H  -1.52200 29.20700 23.27300
H  -0.99600 29.26900 24.94900
H  -4.30500 27.88000 28.98300
H  -1.16600 25.94200 31.34500
H  -2.36400 26.78800 32.29700
H  -0.88600 27.69500 31.63400

