158

Mg 44.57700 4.93600 47.60100
C  42.23900 7.38800 46.71600
C  42.03800 2.66400 47.02900
C  46.85100 2.58900 47.22400
C  47.12600 7.43500 47.52000
N  42.38400 5.03900 47.07500
C  41.72500 6.13200 46.73600
C  40.26800 5.86000 46.51600
C  40.15200 4.42300 47.19500
C  41.59700 4.02200 47.12900
C  39.56100 4.43800 48.65700
C  39.78100 5.83700 45.04100
C  38.62700 6.82600 44.75400
H  38.90600 7.86200 43.65200
N  44.40500 2.82700 47.36700
C  43.29200 2.14500 47.12700
C  43.63700 0.69600 47.08500
C  45.07700 0.64700 47.03700
C  45.51700 2.05500 47.23000
C  42.59600 -0.43300 47.16200
C  45.90700 -0.64100 46.85300
O  45.32700 -1.73500 46.76200
C  47.46600 -0.53300 46.66300
N  46.67800 5.04300 47.41000
C  47.36200 3.84100 47.32800
C  48.90000 4.04200 47.43900
C  48.98100 5.59100 47.60400
C  47.53500 6.06400 47.44300
C  49.62800 3.16300 48.56200
C  49.86000 6.35500 46.57900
C  50.42800 7.65600 47.06000
N  44.68300 7.06600 47.48600
C  45.81400 7.94300 47.48800
C  45.31800 9.25000 47.41400
C  43.95300 9.14000 47.03500
C  43.59000 7.79500 47.05300
C  46.21800 10.48100 47.49400
C  42.75200 9.88500 46.70100
O  42.52300 11.02400 46.58200
C  41.65000 8.74700 46.50800
C  40.53900 9.03000 47.52200
O  40.49800 8.82700 48.76200
O  39.51800 9.60000 46.82400
C  38.18300 9.62500 47.47500
H  41.17300 1.99900 47.06100
H  47.60300 1.79800 47.27100
H  47.88500 8.21900 47.46800
H  39.71700 6.66600 47.00100
H  39.48900 3.74700 46.65500
H  39.27400 5.40600 49.06900
H  40.31900 4.08800 49.35900
H  38.71100 3.76000 48.58200
H  39.50200 4.82100 44.76100
H  40.58500 6.15900 44.38000
H  38.33800 7.30500 45.68900
H  37.71500 6.24700 44.60600
H  42.65300 -1.12900 46.32500
H  41.57100 -0.08300 47.28300
H  42.95800 -1.02000 48.00600
H  48.00800 -0.16700 47.53500
H  47.54100 0.23200 45.89000
H  47.83700 -1.49100 46.29800
H  49.33700 3.78400 46.47500
H  49.23200 5.86400 48.62900
H  48.85300 2.59400 49.07600
H  50.22700 3.60500 49.35800
H  50.20100 2.46700 47.95000
H  49.15000 6.60300 45.79000
H  50.50800 5.67800 46.02200
H  50.39600 7.86900 48.12900
H  49.93600 8.45600 46.50700
H  51.48300 7.71500 46.79100
H  46.76800 10.54300 46.55500
H  46.78900 10.26500 48.39700
H  45.60400 11.36300 47.67600
H  41.22700 8.92800 45.52000
H  37.96500 10.39100 48.21900
H  37.87200 8.70900 47.97600
H  37.49700 9.73100 46.63400
Mg 55.71000 23.35700 45.37400
C  53.27500 25.90500 44.68200
C  53.52900 21.01300 44.02400
C  58.07500 21.16500 45.71500
C  57.83000 25.93800 46.51200
N  53.74900 23.53900 44.27900
C  52.93600 24.63000 44.17100
C  51.63700 24.18900 43.49900
C  51.55100 22.70000 43.73200
C  53.04900 22.33100 44.02000
C  50.52300 22.18000 44.82300
C  51.46400 24.68600 42.04300
C  50.02400 25.05900 41.54700
H  49.69800 24.67600 40.08400
N  55.83300 21.33800 44.82500
C  54.80900 20.54300 44.35500
C  55.28100 19.19800 44.29500
C  56.62900 19.18600 44.76600
C  56.93300 20.58400 45.09200
C  54.47200 18.05700 43.76700
C  57.46900 17.94300 44.79300
O  57.00600 16.81300 44.54200
C  58.96500 18.04800 45.10100
N  57.68000 23.51700 46.02000
C  58.38700 22.42800 46.13400
C  59.71600 22.69700 46.86900
C  59.72300 24.25100 46.92100
C  58.33100 24.61300 46.44500
C  59.85700 22.06000 48.24000
C  60.75800 24.99100 46.07000
C  61.32400 26.28600 46.65200
N  55.61900 25.49400 45.56900
C  56.50000 26.40600 46.10300
C  55.96600 27.75900 46.17600
C  54.68700 27.54300 45.68300
C  54.51700 26.21400 45.27900
C  56.56000 29.05000 46.58100
C  53.42500 28.20200 45.36900
O  53.05300 29.35500 45.49900
C  52.53700 27.12600 44.71200
C  52.26200 27.70600 43.39200
O  53.01800 27.89000 42.48000
O  50.91700 28.01300 43.24800
C  50.60000 28.88600 42.14800
H  52.76400 20.31000 43.68700
H  58.84900 20.45500 46.01200
H  58.50200 26.64600 47.00300
H  50.77700 24.55200 44.06100
H  51.24300 22.24500 42.79100
H  50.98400 21.44500 45.48200
H  49.69200 21.67200 44.33400
H  50.21300 22.93900 45.54100
H  51.81900 23.83400 41.46300
H  52.09600 25.57400 42.04400
H  49.94500 26.14600 41.53800
H  49.21000 24.56900 42.08100
H  55.10300 17.43300 43.13400
H  53.57200 18.37200 43.24000
H  54.20900 17.39600 44.59300
H  59.53600 18.69300 44.43200
H  59.40500 17.08600 44.84000
H  59.13300 18.44300 46.10300
H  60.47200 22.34800 46.16600
H  59.84200 24.64100 47.93200
H  58.99800 21.49800 48.60500
H  60.17000 22.76800 49.00800
H  60.62300 21.29700 48.10100
H  60.31300 25.26700 45.11400
H  61.62600 24.34700 45.93300
H  61.73700 26.84300 45.81100
H  62.18600 25.90100 47.19700
H  60.71100 26.84900 47.35500
H  56.04000 29.48500 47.43400
H  56.45000 29.64700 45.67600
H  57.64400 28.98400 46.66900
H  51.56800 26.99100 45.19300
H  51.29400 29.71600 42.01300
H  49.56900 29.21300 42.28100
H  50.53500 28.19000 41.31200

