158

Mg 47.22500 16.14400 28.97700
C  44.90900 15.83500 31.53900
C  49.43800 17.83300 31.23700
C  49.25900 16.92500 26.45300
C  44.83000 15.09800 26.72300
N  47.07300 16.90300 31.08100
C  46.07600 16.46600 31.98000
C  46.53000 16.93400 33.37900
C  47.73500 17.84500 33.17900
C  48.11600 17.58600 31.69800
C  47.38600 19.38300 33.48200
C  46.59400 15.68200 34.27500
C  46.61300 15.77000 35.78800
H  46.51200 17.15600 36.37200
N  49.12300 17.14000 28.86600
C  49.87100 17.67600 29.93800
C  51.16400 18.17300 29.40000
C  51.14000 17.87300 28.03900
C  49.78200 17.22700 27.72600
C  52.05100 18.99400 30.20400
C  52.16100 18.27900 26.90700
O  52.01800 17.97500 25.69500
C  53.37000 19.00000 27.39700
N  47.03400 16.17600 26.85400
C  48.04600 16.39700 25.99200
C  47.70100 16.09700 24.51700
C  46.29200 15.46200 24.68200
C  46.01000 15.57300 26.16100
C  47.88600 17.23700 23.46100
C  45.98400 14.03600 24.09100
C  46.50200 12.84800 24.90300
N  45.26200 15.49900 29.07000
C  44.43700 15.03200 28.03500
C  43.14300 14.66600 28.58000
C  43.28100 14.95300 29.99100
C  44.59900 15.52300 30.22400
C  41.91500 14.07000 27.83400
C  42.61600 14.79300 31.30800
O  41.53000 14.39100 31.57500
C  43.68100 15.34500 32.33800
C  43.07200 16.49400 33.03900
O  43.10000 17.65700 32.67000
O  42.48900 16.15900 34.25100
C  41.99400 17.16000 35.12000
H  50.01000 18.28600 32.04800
H  50.08800 16.92200 25.74300
H  44.03800 14.68000 26.09800
H  45.70900 17.50500 33.81100
H  48.53700 17.55700 33.85900
H  47.13100 19.76400 32.49300
H  48.33300 19.86600 33.72800
H  46.70100 19.54600 34.31500
H  47.53600 15.27600 33.90700
H  45.76800 15.01900 34.01500
H  47.31200 15.11900 36.31400
H  45.67100 15.26700 36.00900
H  51.58300 19.18500 31.16900
H  52.07300 19.99300 29.76800
H  53.00800 18.49100 30.34700
H  53.93300 19.24900 26.49700
H  53.88100 18.40000 28.15000
H  53.06300 19.93500 27.86600
H  48.34500 15.32100 24.10400
H  45.49700 16.10000 24.29700
H  47.66900 18.13300 24.04300
H  47.00400 17.32000 22.82500
H  48.85700 17.43000 23.00500
H  46.52300 13.88200 23.15600
H  44.93300 13.85300 23.87100
H  47.20900 13.19600 25.65600
H  46.89300 12.09300 24.22100
H  45.73200 12.25600 25.39800
H  41.30200 13.42600 28.46500
H  42.15500 13.51100 26.92900
H  41.30600 14.93700 27.58000
H  43.81100 14.58700 33.11100
H  40.99400 17.49900 34.85200
H  42.69500 17.99500 35.12600
H  42.00500 16.67200 36.09500
Mg 26.51300 50.05900 26.11800
C  24.58400 51.35300 28.73700
C  28.99900 49.42800 28.24500
C  28.31000 48.82700 23.45900
C  24.14000 51.36200 23.88900
N  26.79100 50.62100 28.22300
C  25.81300 50.96000 29.15100
C  26.24300 50.65300 30.61200
C  27.77100 50.32600 30.37900
C  27.88300 50.07700 28.81700
C  28.52400 51.63500 30.75000
C  25.52600 49.42500 31.25300
C  25.23700 49.37300 32.75600
H  26.04500 50.16400 33.71400
N  28.35200 49.27500 25.85100
C  29.24600 49.06700 26.90200
C  30.42300 48.42800 26.45200
C  30.18800 48.11100 25.06000
C  28.96000 48.80300 24.69600
C  31.58300 48.16800 27.38100
C  31.03400 47.38700 24.14300
O  30.82500 47.40300 22.98400
C  32.24400 46.66200 24.55000
N  26.31500 50.15100 23.92200
C  27.06400 49.34000 23.09500
C  26.49800 49.41600 21.65800
C  25.07700 50.02000 21.87000
C  25.15800 50.51000 23.31900
C  27.37400 50.34800 20.74500
C  23.81500 49.19400 21.55500
C  24.00200 47.70300 21.91700
N  24.67900 51.01000 26.21400
C  23.85200 51.50200 25.22300
C  22.76600 52.21200 25.88200
C  22.91600 52.02000 27.23800
C  24.14100 51.43900 27.37000
C  21.69400 52.97200 25.23300
C  22.35200 52.27100 28.53400
O  21.25800 52.77200 28.75500
C  23.35500 51.75200 29.64000
C  23.58100 52.82900 30.56600
O  24.33600 53.74000 30.35400
O  22.76100 52.76800 31.65700
C  23.04100 53.71200 32.73300
H  29.64500 49.07900 29.05300
H  28.69900 48.42000 22.52300
H  23.40800 51.84600 23.23900
H  25.91800 51.51500 31.19500
H  28.08900 49.48300 30.99200
H  28.87700 52.08900 29.82300
H  29.47500 51.49800 31.26500
H  27.91600 52.37200 31.27500
H  26.14600 48.58500 30.93900
H  24.53200 49.24800 30.84200
H  25.46800 48.36200 33.09200
H  24.16700 49.54000 32.87500
H  32.60700 48.12700 27.01200
H  31.31100 47.28300 27.95500
H  31.68100 48.93800 28.14600
H  32.70900 46.13400 23.71700
H  31.84900 45.89200 25.21300
H  32.96700 47.30200 25.05600
H  26.54900 48.45200 21.15100
H  25.01400 50.86200 21.18100
H  26.86300 51.09400 20.13700
H  28.18700 49.86400 20.20300
H  27.91300 50.94800 21.47900
H  23.61800 49.18600 20.48300
H  22.90200 49.61200 21.97800
H  24.21800 47.10500 21.03200
H  23.08800 47.28800 22.34200
H  24.79300 47.62000 22.66200
H  21.58900 52.74500 24.17200
H  21.85700 54.03600 25.40600
H  20.80100 52.62900 25.75500
H  22.95900 50.89300 30.18200
H  22.09400 53.69100 33.27300
H  23.30800 54.73000 32.45300
H  23.88700 53.48400 33.38100

