158

Mg 48.25400 35.47000 28.12900
C  46.19100 33.52700 30.21000
C  48.43700 37.73100 30.79800
C  49.29600 37.96500 26.02100
C  47.34700 33.42800 25.47600
N  47.49900 35.55300 30.22800
C  46.82600 34.59800 30.88300
C  46.73400 34.89600 32.37500
C  47.04200 36.40100 32.39100
C  47.83700 36.58600 31.07200
C  45.77300 37.33000 32.39900
C  47.60700 33.95500 33.26500
C  49.01300 34.47400 33.77700
H  49.10600 34.85600 35.24800
N  49.02000 37.47700 28.33100
C  48.91100 38.22600 29.51200
C  49.49800 39.52200 29.31900
C  49.90500 39.55200 27.95600
C  49.41800 38.28600 27.34500
C  49.56700 40.48400 30.45100
C  50.72100 40.56500 27.16800
O  50.91100 40.42400 25.97000
C  51.37900 41.80300 27.88800
N  48.55100 35.58200 26.09300
C  48.88800 36.77500 25.43600
C  48.58700 36.62500 23.89000
C  48.40700 35.11700 23.75400
C  48.11300 34.66400 25.20300
C  47.29700 37.47400 23.38400
C  49.53500 34.29100 23.03500
C  49.32700 34.00000 21.55000
N  47.20400 33.66900 27.86300
C  46.87500 32.99700 26.73300
C  46.10700 31.81700 27.02900
C  45.71000 32.03800 28.37200
C  46.38900 33.18100 28.78300
C  45.78600 30.67400 26.05100
C  44.83300 31.66700 29.51100
O  43.97200 30.79100 29.56500
C  45.02200 32.62700 30.72200
C  45.29300 31.73900 31.83000
O  46.00800 30.68600 31.90700
O  44.55000 32.20300 32.85100
C  44.54900 31.37300 34.04100
H  48.61600 38.34900 31.68100
H  49.46900 38.75100 25.28200
H  46.87500 32.88500 24.65300
H  45.69500 34.78700 32.68500
H  47.55700 36.79900 33.26500
H  44.91300 36.69400 32.60900
H  45.71100 37.89800 31.47100
H  45.65400 37.96000 33.28100
H  47.72200 33.00400 32.74600
H  47.01900 33.80600 34.17000
H  49.54200 35.22000 33.18200
H  49.62900 33.57800 33.69300
H  50.34400 41.22100 30.25000
H  49.76200 40.02600 31.42100
H  48.67000 41.09800 30.36400
H  50.51100 42.34700 28.26200
H  52.04900 42.26400 27.16300
H  52.10900 41.54400 28.65400
H  49.47200 37.05600 23.42100
H  47.48400 34.83900 23.24500
H  46.76600 38.03700 24.15200
H  46.56900 36.82300 22.90000
H  47.65800 38.19000 22.64500
H  49.76800 33.35600 23.54500
H  50.43000 34.91000 23.09400
H  48.38300 34.39600 21.17500
H  49.29900 32.92400 21.38200
H  50.15800 34.37400 20.95200
H  44.98300 30.94300 25.36500
H  45.51000 29.83800 26.69400
H  46.68000 30.40800 25.48600
H  44.15000 33.26100 30.88400
H  44.97500 30.37700 33.91700
H  43.50600 31.22400 34.32000
H  45.03700 31.83600 34.90000
Mg 36.63500 49.61400 24.59600
C  36.45300 47.74400 27.63000
C  35.30100 52.36700 26.28300
C  35.90900 51.13300 21.58700
C  37.51200 46.78000 22.93800
N  35.84700 49.90200 26.68200
C  35.91100 49.04900 27.72700
C  35.58600 49.89700 29.00600
C  35.01000 51.26000 28.47100
C  35.42600 51.17500 27.04900
C  33.48100 51.49500 28.66600
C  36.81900 50.13300 29.94000
C  36.54800 50.04000 31.45400
H  35.22700 49.68900 31.94300
N  35.75800 51.52500 24.00000
C  35.41700 52.56400 24.87600
C  34.94700 53.67100 24.05000
C  35.24700 53.32300 22.72100
C  35.63200 51.91200 22.72500
C  34.28000 54.80800 24.74600
C  35.28200 54.17900 21.49300
O  35.52400 53.79200 20.39400
C  34.95400 55.56400 21.61900
N  36.74600 49.03400 22.54400
C  36.49400 49.90900 21.49300
C  36.83500 49.18800 20.12400
C  37.63600 47.93100 20.61200
C  37.29100 47.86700 22.13200
C  35.57100 48.88300 19.31100
C  39.16000 48.04200 20.36900
C  39.88000 46.67000 20.43300
N  36.95600 47.60900 25.16100
C  37.34100 46.58500 24.35800
C  37.56400 45.36000 25.19900
C  37.30000 45.80000 26.50600
C  36.82300 47.12100 26.42300
C  38.19500 44.16200 24.74600
C  37.26500 45.39000 27.91000
O  37.54200 44.32300 28.36600
C  36.72700 46.67100 28.70800
C  35.49700 46.10600 29.32800
O  34.45800 45.86200 28.76400
O  35.78500 45.75300 30.62100
C  34.73900 45.05700 31.20200
H  35.17200 53.22900 26.94100
H  35.68800 51.51200 20.58700
H  37.89000 45.95600 22.32900
H  34.82200 49.35700 29.56600
H  35.57000 52.12500 28.82900
H  33.14000 50.99500 29.57300
H  32.88900 51.03400 27.87600
H  33.17400 52.53600 28.77100
H  37.27600 51.10400 29.74600
H  37.55300 49.36700 29.69000
H  36.98200 50.98100 31.79300
H  37.21400 49.27000 31.84400
H  35.02000 55.55400 25.03400
H  33.81200 54.51500 25.68600
H  33.45900 55.30500 24.23100
H  33.87500 55.65400 21.48700
H  35.41100 56.17900 20.84400
H  35.23900 55.95300 22.59700
H  37.38800 49.86200 19.46900
H  37.26100 46.97000 20.26100
H  34.69900 49.41500 19.69200
H  35.38200 47.81000 19.27700
H  35.69100 49.30100 18.31100
H  39.47900 48.68900 21.18600
H  39.32400 48.74400 19.55100
H  40.56100 46.47600 19.60400
H  39.18600 45.83300 20.50500
H  40.50200 46.59900 21.32500
H  39.01800 43.91300 25.41700
H  38.69800 44.20800 23.78000
H  37.48000 43.36400 24.54600
H  37.28500 47.04900 29.56500
H  34.88400 45.16500 32.27700
H  34.80000 43.99200 30.98200
H  33.69400 45.19800 30.92600

