158

Mg 41.78100 40.98700 26.03500
C  41.21600 43.25700 28.77200
C  43.27000 38.88100 28.22800
C  42.21100 38.91500 23.51400
C  40.55800 43.46400 23.91700
N  42.08600 41.13500 28.19200
C  41.81900 42.10200 29.14800
C  42.20300 41.73400 30.60600
C  42.97400 40.42600 30.36100
C  42.77400 40.08100 28.78300
C  44.52900 40.62500 30.63300
C  40.96700 41.53100 31.60700
C  41.50800 41.23300 33.01900
H  40.52000 41.47100 34.12300
N  42.63600 39.09600 25.89000
C  43.23900 38.33400 26.89100
C  43.65000 37.08200 26.34400
C  43.23000 37.06100 25.01400
C  42.68500 38.40400 24.72700
C  44.37200 36.10900 27.16900
C  43.34400 35.88900 24.01300
O  42.99000 35.99000 22.84500
C  43.76200 34.57400 24.45800
N  41.51900 41.19700 24.07600
C  41.65400 40.14600 23.19600
C  41.30800 40.53800 21.73700
C  40.61100 41.87900 21.98700
C  40.91000 42.21800 23.42800
C  42.48400 40.48900 20.69000
C  39.15600 41.90700 21.76200
C  38.24400 40.99300 22.51200
N  41.03800 42.99900 26.21500
C  40.58000 43.84300 25.23700
C  40.16600 45.07400 25.86200
C  40.39300 44.90000 27.27800
C  40.89000 43.59300 27.39600
C  39.72200 46.31600 25.24300
C  40.35100 45.56600 28.59600
O  39.97200 46.64100 29.00400
C  40.81900 44.47500 29.59500
C  41.87500 44.99300 30.45800
O  43.02500 44.97900 30.12400
O  41.37900 45.50300 31.62400
C  42.27700 45.80700 32.74400
H  43.80200 38.26300 28.95500
H  42.37200 38.26700 22.65100
H  40.14900 44.24700 23.27500
H  42.80200 42.51200 31.07900
H  42.57900 39.57700 30.91900
H  44.88300 41.65600 30.60100
H  45.14000 40.01200 29.97000
H  44.77200 40.23700 31.62200
H  40.30000 40.72800 31.29400
H  40.27900 42.37600 31.65400
H  42.46100 41.72300 33.21600
H  41.72800 40.16500 33.03300
H  44.57000 36.62100 28.11100
H  45.23900 35.76700 26.60400
H  43.75000 35.24100 27.38700
H  43.68400 33.89000 23.61300
H  43.11000 34.24200 25.26600
H  44.78600 34.41900 24.79700
H  40.59200 39.75600 21.48900
H  41.16800 42.58500 21.37200
H  43.38400 40.07600 21.14500
H  42.72100 41.50800 20.38300
H  42.24400 39.94000 19.77900
H  39.07200 41.84100 20.67800
H  38.88100 42.94400 21.95300
H  37.30700 41.47900 22.78200
H  38.59400 40.40200 23.35900
H  37.89000 40.30400 21.74500
H  40.00100 46.25400 24.19200
H  40.25900 47.11600 25.75300
H  38.69400 46.62400 25.43400
H  39.96000 44.22600 30.21900
H  42.60700 44.82800 33.09100
H  41.80200 46.31600 33.58300
H  43.08700 46.40600 32.32800
Mg -10.83300 17.24200 41.08800
C  -7.25500 17.13800 40.89500
C  -10.60400 20.50000 40.30900
C  -13.94100 17.03400 40.01100
C  -10.72000 13.73500 41.18300
N  -9.09500 18.55300 40.38600
C  -7.75900 18.37700 40.60300
C  -6.96900 19.56900 40.14900
C  -8.02600 20.68300 40.42500
C  -9.34700 19.86700 40.37600
C  -7.82200 21.56100 41.75600
C  -6.54400 19.40000 38.60400
C  -5.08000 19.08400 38.43200
H  -4.76500 17.93500 37.49300
N  -12.13600 18.61100 40.20800
C  -11.89400 19.93800 40.15100
C  -13.05100 20.65400 39.81200
C  -14.08700 19.66200 39.77900
C  -13.44000 18.33300 40.04500
C  -12.99300 22.13700 39.47000
C  -15.59700 19.92500 39.28300
O  -15.95300 21.08100 38.94300
C  -16.59200 18.76600 39.16600
N  -12.14300 15.48400 40.48400
C  -13.38800 15.72700 40.20200
C  -14.24300 14.46100 40.25800
C  -13.21900 13.35400 40.70500
C  -12.00300 14.22900 40.86500
C  -15.57200 14.52900 41.02500
C  -12.95700 12.03800 39.93900
C  -13.60100 10.82600 40.58500
N  -9.42400 15.67600 41.40500
C  -9.50200 14.33000 41.48800
C  -8.15300 13.80400 41.74300
C  -7.31300 14.86900 41.51900
C  -8.08700 16.01300 41.27300
C  -7.74100 12.38700 41.94400
C  -5.83700 15.20000 41.50200
O  -4.84500 14.46600 41.59000
C  -5.76300 16.76200 41.17200
C  -5.15200 17.53400 42.36200
O  -3.96100 17.72100 42.41400
O  -6.12100 17.95600 43.27100
C  -5.53800 18.72900 44.38100
H  -10.62100 21.58400 40.17700
H  -15.02800 17.10200 40.08900
H  -10.68400 12.67600 41.44400
H  -6.05800 19.61500 40.74500
H  -8.03600 21.35600 39.56700
H  -6.87300 21.33600 42.24300
H  -8.59600 21.34000 42.49100
H  -7.88600 22.63200 41.56600
H  -6.70700 20.32300 38.04900
H  -7.08800 18.58800 38.12200
H  -4.66300 19.08000 39.43900
H  -4.57000 19.93800 37.98700
H  -13.01400 22.65500 40.42900
H  -13.86700 22.53700 38.95600
H  -12.10000 22.40400 38.90500
H  -16.26000 17.98400 38.48200
H  -17.49200 19.08200 38.64000
H  -16.95700 18.47600 40.15100
H  -14.51400 14.26900 39.22000
H  -13.50100 13.05900 41.71600
H  -16.32800 14.25200 40.29000
H  -15.85900 15.46500 41.50400
H  -15.56300 13.71700 41.75200
H  -11.88500 11.88600 39.81100
H  -13.40200 12.24600 38.96600
H  -14.40800 10.41300 39.98000
H  -13.86100 11.01300 41.62700
H  -12.76900 10.12300 40.62200
H  -8.62100 11.75800 41.81000
H  -7.45300 12.29700 42.99200
H  -6.93100 11.93900 41.36800
H  -5.05700 16.87800 40.35000
H  -6.33800 18.83800 45.11300
H  -5.15500 19.69900 44.06200
H  -4.68100 18.23200 44.83600

