158

Mg 0.46000 7.55900 25.32500
C  1.07200 9.48800 28.12400
C  0.93300 4.83600 27.31700
C  0.09300 5.63600 22.59900
C  0.10400 10.35800 23.41900
N  1.01300 7.23800 27.50700
C  1.09200 8.14800 28.49100
C  1.30700 7.42400 29.89000
C  1.36900 5.93900 29.52800
C  1.07600 5.99700 28.04800
C  2.79600 5.36100 29.77400
C  0.22600 7.75100 30.93100
C  0.83300 8.16000 32.31100
H  2.01300 7.33600 32.78900
N  0.52800 5.48000 25.00800
C  0.68400 4.52000 25.98800
C  0.50600 3.25700 25.37500
C  0.35200 3.47700 23.97700
C  0.29500 4.90500 23.80900
C  0.78500 1.99100 25.99900
C  0.26600 2.49300 22.85600
O  0.04600 2.91200 21.71500
C  0.49400 1.05200 23.11700
N  0.11400 7.98300 23.31000
C  -0.05700 7.02000 22.36000
C  -0.53900 7.62300 21.02100
C  -0.61600 9.11600 21.38300
C  -0.10400 9.14900 22.82100
C  0.50600 7.28100 19.89300
C  -2.03500 9.73400 21.17600
C  -2.09200 11.02400 20.34200
N  0.74400 9.46800 25.58900
C  0.62900 10.50500 24.73500
C  0.72600 11.74800 25.41700
C  1.01300 11.40600 26.74800
C  0.94100 10.00800 26.81000
C  0.64300 13.11400 24.79100
C  1.09400 11.94200 28.12700
O  1.09900 13.09400 28.50800
C  1.03200 10.71700 29.00600
C  2.09200 10.91100 29.92500
O  3.17500 10.37300 29.87800
O  1.59300 11.70300 30.98000
C  2.60500 12.10400 32.01400
H  1.05100 3.95200 27.94700
H  -0.09900 5.05300 21.69600
H  -0.21300 11.32200 23.01500
H  2.26200 7.87200 30.16200
H  0.59200 5.26700 29.89300
H  2.95800 4.28300 29.78000
H  3.21400 5.68800 30.72600
H  3.46300 5.60700 28.94800
H  -0.44900 6.91400 31.11000
H  -0.37200 8.55800 30.50800
H  -0.00700 8.07400 32.99900
H  1.14500 9.19600 32.17600
H  1.75000 1.64400 25.62900
H  0.08500 1.18200 25.79200
H  0.69300 2.08800 27.08100
H  1.35400 0.77200 23.72500
H  0.63700 0.47000 22.20600
H  -0.43300 0.71600 23.58100
H  -1.51500 7.22700 20.73800
H  0.11700 9.58900 20.73000
H  1.33200 6.67000 20.25700
H  0.98600 8.09200 19.34400
H  -0.09200 6.67700 19.21100
H  -2.44700 9.90300 22.17100
H  -2.67000 9.01400 20.66100
H  -2.79100 10.92400 19.51200
H  -1.13300 11.41100 19.99800
H  -2.57400 11.78200 20.95900
H  -0.41400 13.14900 24.53000
H  1.23800 13.21700 23.88400
H  0.85200 13.95000 25.46000
H  0.07700 10.72500 29.53200
H  2.14200 12.38400 32.96000
H  3.37000 12.80600 31.68000
H  3.07300 11.21000 32.42600
Mg 7.17600 53.94100 42.34700
C  6.84600 50.51800 41.99200
C  10.39200 53.71700 41.21900
C  7.36900 57.29600 42.26300
C  3.94200 54.12700 43.57900
N  8.35900 52.35700 41.55600
C  7.98300 51.06500 41.43600
C  9.04400 50.29900 40.72300
C  10.29300 51.21300 40.87100
C  9.63700 52.56100 41.24600
C  11.27800 50.76900 41.95100
C  8.71900 49.85100 39.27300
C  7.77000 50.81000 38.50200
H  7.79100 50.62300 36.93700
N  8.71200 55.34600 41.80400
C  9.98800 55.04600 41.38200
C  10.76100 56.28500 41.22100
C  9.88300 57.33200 41.57700
C  8.59000 56.70100 41.86700
C  12.21800 56.22900 40.89700
C  10.14900 58.81000 41.53000
O  11.26700 59.15400 41.23200
C  9.14200 59.83100 42.05700
N  5.71600 55.46300 42.60000
C  6.09300 56.72500 42.48900
C  4.90400 57.60100 42.79200
C  3.72700 56.62600 43.14800
C  4.51600 55.32300 43.11200
C  5.30600 58.68500 43.92100
C  2.46100 56.59700 42.17700
C  2.44100 55.73600 40.86400
N  5.63900 52.63700 42.83100
C  4.40800 52.79300 43.37400
C  3.86400 51.44700 43.77500
C  4.82000 50.56200 43.22400
C  5.86100 51.32400 42.64600
C  2.70000 51.13300 44.58300
C  5.18600 49.19800 43.09500
O  4.69800 48.23700 43.62300
C  6.47100 49.06000 42.22700
C  6.04300 48.30200 40.97000
O  5.06200 48.63000 40.26700
O  6.84200 47.26600 40.60000
C  6.45200 46.62500 39.39500
H  11.47200 53.66100 41.06400
H  7.45700 58.38000 42.16900
H  2.94400 54.15300 44.02100
H  9.21300 49.36400 41.25700
H  10.79900 51.37600 39.91900
H  12.10700 50.36100 41.37300
H  10.74400 50.03700 42.55700
H  11.60600 51.55900 42.62800
H  8.30900 48.84500 39.36100
H  9.62900 49.79100 38.67500
H  8.03600 51.84900 38.70000
H  6.78600 50.65400 38.94500
H  12.43300 56.91500 40.07700
H  12.54100 55.20900 40.68700
H  12.80800 56.55200 41.75400
H  9.63100 60.78700 42.24300
H  8.93700 59.38900 43.03200
H  8.38100 59.99200 41.29400
H  4.60400 58.09100 41.86600
H  3.36700 56.75000 44.16900
H  4.57500 58.58100 44.72300
H  5.12500 59.66100 43.47100
H  6.33000 58.59600 44.28600
H  2.24400 57.61700 41.86000
H  1.63200 56.27700 42.80700
H  2.15600 56.40700 40.05400
H  1.74900 54.90500 40.72700
H  3.45900 55.40300 40.66300
H  2.40500 50.08700 44.51200
H  1.88200 51.75000 44.21300
H  2.88900 51.35000 45.63500
H  7.16400 48.42800 42.78200
H  6.21400 47.41000 38.67700
H  5.58600 46.02900 39.68300
H  7.18300 46.00900 38.87200

