158

Mg 26.35000 49.91700 26.10200
C  24.60200 51.53300 28.59500
C  28.93800 49.38800 28.45600
C  28.60300 49.15100 23.63200
C  24.10500 51.18500 23.76400
N  26.70600 50.39400 28.25100
C  25.77900 50.98300 29.08300
C  26.26200 50.88800 30.53800
C  27.75300 50.43100 30.44700
C  27.86900 50.01900 28.96400
C  28.76700 51.55500 30.88000
C  25.29500 49.90900 31.33100
C  25.05100 50.03500 32.86900
H  25.98600 50.90600 33.75100
N  28.40800 49.13500 26.03900
C  29.21600 49.00700 27.12600
C  30.47100 48.39600 26.66400
C  30.49300 48.43900 25.25000
C  29.10300 48.95900 24.92500
C  31.45900 47.66800 27.56900
C  31.59100 48.00000 24.22400
O  31.36400 48.00800 23.02800
C  33.00600 47.60900 24.70400
N  26.40000 50.16300 23.99600
C  27.40600 49.71900 23.14400
C  27.05200 49.82900 21.64200
C  25.62300 50.56200 21.74000
C  25.35600 50.58500 23.27100
C  28.14200 50.62000 20.88200
C  24.50400 49.91100 20.92500
C  24.00200 50.56600 19.60700
N  24.63200 51.11700 26.13900
C  23.82700 51.54900 25.11800
C  22.72900 52.23000 25.64200
C  22.95400 52.24200 27.02800
C  24.19700 51.66900 27.25400
C  21.63200 52.86200 24.93400
C  22.41700 52.69800 28.31300
O  21.42900 53.29400 28.62400
C  23.41600 52.08800 29.42500
C  23.78500 53.24900 30.25000
O  24.58900 54.11800 29.94500
O  23.06700 53.15600 31.49400
C  23.50100 53.90800 32.67200
H  29.70800 49.18000 29.20200
H  29.35000 49.01300 22.84800
H  23.42700 51.45600 22.95300
H  26.17200 51.85700 31.02900
H  27.82700 49.54600 31.07700
H  29.35400 51.82900 30.00400
H  29.55600 51.06600 31.45200
H  28.32200 52.41000 31.38900
H  25.56900 48.89600 31.03700
H  24.28600 50.08900 30.95800
H  25.03300 49.07800 33.39000
H  24.09600 50.54400 33.00400
H  32.34400 48.30300 27.55700
H  31.75400 46.73000 27.09800
H  31.05700 47.50000 28.56800
H  33.76000 47.40200 23.94400
H  32.96400 46.74700 25.36900
H  33.23700 48.39600 25.42200
H  26.92600 48.87600 21.12800
H  25.80200 51.59500 21.44200
H  28.74200 49.89300 20.33500
H  28.87300 51.12700 21.51200
H  27.62200 51.41200 20.34400
H  23.62800 49.89200 21.57300
H  24.81100 48.88100 20.74300
H  22.93600 50.35900 19.69900
H  24.39600 50.00700 18.75800
H  24.25800 51.60400 19.39100
H  21.78400 53.94100 24.94400
H  20.73900 52.68800 25.53500
H  21.55200 52.55700 23.89000
H  22.87100 51.36300 30.02900
H  24.28200 53.34300 33.18100
H  22.65000 54.03700 33.34100
H  23.86600 54.91100 32.45000
Mg -5.44600 25.92400 25.39700
C  -3.70400 27.06700 28.26600
C  -7.27700 23.80200 27.41800
C  -6.80600 24.76600 22.64600
C  -3.33200 27.85700 23.41900
N  -5.50000 25.49000 27.67100
C  -4.75700 26.14800 28.65900
C  -5.38200 25.89100 30.05200
C  -6.28200 24.61200 29.74100
C  -6.35000 24.61200 28.17000
C  -5.71300 23.30200 30.37800
C  -6.12400 27.11000 30.69100
C  -5.79400 27.34400 32.15400
H  -5.41000 26.17000 33.10500
N  -6.85200 24.41900 25.08200
C  -7.48000 23.63100 26.03400
C  -8.42900 22.76000 25.40200
C  -8.35300 23.02000 23.99000
C  -7.28600 24.09500 23.81200
C  -9.19300 21.62900 26.22900
C  -9.08200 22.31100 22.84300
O  -8.99200 22.74500 21.67900
C  -9.98900 21.15300 23.21700
N  -5.04800 26.19100 23.30300
C  -5.75000 25.58800 22.38000
C  -5.43300 25.96200 20.97000
C  -4.45300 27.21100 21.20500
C  -4.26200 27.06300 22.72700
C  -4.82400 24.78900 20.15500
C  -5.17000 28.57900 20.84400
C  -5.83700 28.84700 19.48400
N  -3.76400 27.14000 25.73900
C  -3.04100 27.83800 24.85100
C  -2.08400 28.65100 25.63500
C  -2.34700 28.39800 26.93200
C  -3.34800 27.46900 26.95000
C  -0.99200 29.72000 25.13000
C  -2.02400 28.85200 28.31000
O  -1.31100 29.76300 28.64700
C  -2.85300 27.83900 29.27000
C  -1.90200 27.03500 30.10700
O  -0.84100 26.53000 29.73800
O  -2.30600 27.19800 31.40300
C  -1.46600 26.52600 32.40500
H  -8.07100 23.33300 28.00300
H  -7.37400 24.39700 21.78900
H  -2.72700 28.55300 22.83400
H  -4.60600 25.66200 30.78300
H  -7.27900 24.81100 30.13300
H  -4.74000 23.30800 30.86900
H  -5.51400 22.62500 29.54700
H  -6.42600 22.83400 31.05700
H  -7.20100 26.99100 30.57700
H  -5.87200 27.93600 30.02600
H  -6.65400 27.82300 32.62200
H  -5.01700 28.10400 32.06400
H  -10.20500 21.47900 25.85200
H  -9.17400 21.78200 27.30800
H  -8.70700 20.66400 26.09100
H  -10.33900 20.54100 22.38600
H  -10.85400 21.49900 23.78300
H  -9.43000 20.48400 23.87100
H  -6.37200 26.23200 20.48600
H  -3.51000 26.99700 20.70100
H  -4.74400 23.85500 20.71100
H  -3.88700 24.98900 19.63500
H  -5.54200 24.48800 19.39200
H  -4.43900 29.38500 20.90400
H  -5.83900 28.75900 21.68500
H  -5.87600 27.94200 18.87700
H  -5.49600 29.69400 18.88700
H  -6.84600 29.15400 19.75700
H  -1.08500 30.60400 25.76000
H  -1.11800 29.98800 24.08100
H  0.01200 29.30300 25.21500
H  -3.48400 28.42500 29.93800
H  -1.11100 25.58700 31.98000
H  -1.99700 26.27900 33.32500
H  -0.59300 27.10800 32.69900

