158

Mg 30.13700 58.25800 39.18600
C  27.29200 56.52100 38.26800
C  32.03700 55.45900 38.10300
C  32.98500 60.14500 38.90000
C  28.18000 61.21300 39.19500
N  29.72000 56.32700 38.19400
C  28.41800 55.78900 38.11100
C  28.50500 54.40700 37.41400
C  29.98400 53.94000 37.92200
C  30.61800 55.32300 38.11000
C  30.03400 53.10600 39.19900
C  28.36100 54.43200 35.86500
C  27.30200 53.53700 35.24700
H  26.27400 54.29400 34.32500
N  32.34400 57.84500 38.86200
C  32.84900 56.63800 38.39800
C  34.27000 56.76900 38.19700
C  34.63900 58.10900 38.42200
C  33.36600 58.74900 38.78400
C  35.08800 55.52000 37.73900
C  36.01000 58.66100 38.27400
O  36.87500 57.95200 37.86400
C  36.35600 60.07500 38.64200
N  30.51800 60.34900 38.89600
C  31.77000 60.84900 39.04400
C  31.73900 62.37300 39.09500
C  30.21700 62.69200 39.19200
C  29.56600 61.30500 39.02900
C  32.70300 63.01600 40.12800
C  29.65200 63.68600 38.07300
C  29.61000 65.18700 38.57800
N  28.08600 58.77500 39.07700
C  27.41800 59.99300 39.16100
C  26.00500 59.76800 39.08900
C  25.90700 58.41500 38.63200
C  27.17700 57.84500 38.68800
C  24.96100 60.82900 39.12400
C  25.01400 57.43600 38.12000
O  23.83400 57.57000 37.97500
C  25.80800 56.15300 37.85000
C  25.36400 55.13200 38.82000
O  25.82200 54.94900 39.94800
O  24.40000 54.35900 38.24600
C  23.85000 53.11000 38.87400
H  32.58200 54.53600 37.89100
H  33.78500 60.88500 38.83900
H  27.60500 62.13800 39.12100
H  27.72700 53.77500 37.84100
H  30.41100 53.32700 37.12900
H  29.02800 52.99100 39.60300
H  30.61000 53.58500 39.99100
H  30.36300 52.10900 38.90600
H  29.34300 54.25300 35.42800
H  28.24000 55.45500 35.50800
H  26.58800 53.11800 35.95600
H  27.70200 52.78200 34.57000
H  34.61000 54.59400 38.05900
H  36.04100 55.43400 38.26000
H  35.21300 55.49000 36.65700
H  37.41400 60.25800 38.45700
H  36.03400 60.36300 39.64300
H  35.75000 60.71600 38.00200
H  32.07400 62.75300 38.13000
H  29.93500 63.01700 40.19300
H  33.15900 62.27500 40.78400
H  32.05500 63.71400 40.65800
H  33.43100 63.58000 39.54500
H  28.68900 63.31400 37.72200
H  30.30900 63.78600 37.20900
H  30.38500 65.80600 38.12500
H  29.72200 65.25100 39.66000
H  28.63600 65.67000 38.50700
H  24.28500 60.36800 39.84400
H  24.47200 60.93800 38.15700
H  25.38500 61.74400 39.54000
H  25.71100 55.77000 36.83400
H  24.08500 52.31700 38.16400
H  22.77400 53.16500 39.04100
H  24.36600 52.83400 39.79300
Mg -10.28600 39.81200 42.12100
C  -9.36400 36.47700 41.56600
C  -7.30500 40.86800 41.05300
C  -11.70000 42.76500 41.89700
C  -13.66100 38.54200 42.97300
N  -8.52600 38.74700 41.52300
C  -8.39100 37.44700 41.29700
C  -7.03000 37.21400 40.46600
C  -6.25800 38.50600 40.74000
C  -7.40300 39.47200 41.13700
C  -5.14500 38.44600 41.90700
C  -7.23400 37.04200 38.93200
C  -6.65500 35.78900 38.25700
H  -5.62800 36.12800 37.16700
N  -9.52400 41.59500 41.74600
C  -8.28000 41.87200 41.20300
C  -8.13100 43.28900 40.95300
C  -9.46700 43.83600 41.13500
C  -10.31800 42.76000 41.62600
C  -6.81000 43.89300 40.46600
C  -9.82000 45.29600 40.80700
O  -8.88000 46.06300 40.67700
C  -11.19500 45.82900 40.76200
N  -12.43900 40.48900 42.35100
C  -12.63600 41.81200 42.24800
C  -14.12800 42.18700 42.60700
C  -14.76000 40.76200 42.96800
C  -13.50700 39.87100 42.90800
C  -14.44900 43.32700 43.68800
C  -15.92200 40.30600 42.05000
C  -17.18500 39.82200 42.78900
N  -11.31900 37.87800 42.34400
C  -12.63100 37.56200 42.74400
C  -12.72800 36.08400 42.70300
C  -11.46600 35.60000 42.29400
C  -10.63700 36.74000 42.14400
C  -14.01800 35.27400 42.94900
C  -10.70400 34.41900 41.90700
O  -10.98300 33.24700 42.05800
C  -9.30800 34.96100 41.41700
C  -8.27300 34.34900 42.33800
O  -8.23500 34.34200 43.52900
O  -7.22400 33.91900 41.53300
C  -5.90600 33.59700 42.19500
H  -6.29700 41.21300 40.81300
H  -12.23300 43.71700 41.92400
H  -14.65300 38.12500 43.16000
H  -6.45400 36.34900 40.79400
H  -5.75100 38.98500 39.90300
H  -5.29900 39.27200 42.60200
H  -4.14400 38.49000 41.47800
H  -5.16600 37.52200 42.48400
H  -7.00900 37.88500 38.28000
H  -8.32100 36.98000 38.89200
H  -7.50000 35.31400 37.75900
H  -6.19300 35.04600 38.90600
H  -6.02700 43.86400 41.22200
H  -6.87600 44.92300 40.11400
H  -6.41100 43.26400 39.67000
H  -11.89400 45.05600 40.44600
H  -11.16700 46.61400 40.00600
H  -11.46900 46.16800 41.76200
H  -14.44400 42.50800 41.61500
H  -15.06900 40.92000 44.00100
H  -14.99100 44.15000 43.22100
H  -13.49300 43.68100 44.07300
H  -15.10500 43.05400 44.51500
H  -15.45100 39.57600 41.39300
H  -16.24600 41.06000 41.33200
H  -18.09600 40.22200 42.34400
H  -17.14700 39.85600 43.87800
H  -17.24000 38.74700 42.61800
H  -14.60000 35.23500 42.02800
H  -14.59500 35.49700 43.84700
H  -13.69400 34.24200 43.08100
H  -9.12600 34.61400 40.39900
H  -5.93900 32.77300 42.90800
H  -5.46500 34.47200 42.67200
H  -5.25800 33.13400 41.45000

