158

Mg -1.73900 17.50100 27.94200
C  -1.77300 14.94200 30.36700
C  -2.21100 19.85200 30.34500
C  -2.06800 19.65200 25.49100
C  -1.75200 14.79700 25.57100
N  -2.08500 17.33600 30.11400
C  -1.85900 16.22900 30.92300
C  -1.92600 16.60700 32.38000
C  -2.54300 18.11700 32.22500
C  -2.30600 18.48900 30.82000
C  -4.00700 18.13300 32.80800
C  -0.51700 16.68300 33.00100
C  -0.34700 17.33700 34.40500
H  0.44000 16.57100 35.44200
N  -1.91800 19.50800 27.95100
C  -2.12000 20.30600 29.01700
C  -2.27400 21.68400 28.55700
C  -2.24600 21.60200 27.13000
C  -2.07100 20.23100 26.78200
C  -2.40400 22.91500 29.49700
C  -2.32400 22.78500 26.19500
O  -2.25600 22.64400 25.00200
C  -2.51400 24.19500 26.62200
N  -1.67900 17.21500 25.95400
C  -1.86900 18.31400 25.09900
C  -1.92500 17.91200 23.59400
C  -1.41800 16.41200 23.67200
C  -1.64900 16.09800 25.14100
C  -3.32500 18.10400 22.99900
C  0.05700 16.15000 23.15100
C  1.28600 16.45900 24.12400
N  -1.80900 15.30000 27.89700
C  -1.70600 14.41700 26.87600
C  -1.70300 13.01700 27.37900
C  -1.67800 13.14700 28.78400
C  -1.79700 14.58400 29.00600
C  -1.79200 11.74400 26.51000
C  -1.71500 12.52700 30.04100
O  -1.89900 11.34900 30.38500
C  -1.72800 13.66800 31.10800
C  -0.41100 13.54400 31.80600
O  0.72100 13.65600 31.22500
O  -0.62300 13.16100 33.10200
C  0.58800 12.97000 33.82500
H  -2.40500 20.61000 31.10700
H  -2.27600 20.26600 24.61200
H  -1.73000 14.00700 24.81800
H  -2.49400 15.83700 32.90200
H  -2.05100 18.77900 32.93600
H  -4.04200 18.84100 33.63600
H  -4.33200 17.10600 32.97700
H  -4.59600 18.52200 31.97700
H  0.16600 17.19500 32.32300
H  -0.09100 15.68500 33.10300
H  -1.35900 17.55500 34.74600
H  0.11400 18.31900 34.29800
H  -3.37200 23.38300 29.31900
H  -1.54900 23.58500 29.40800
H  -2.58000 22.55400 30.51100
H  -3.53500 24.39300 26.94700
H  -2.13300 24.78000 25.78400
H  -1.96000 24.48900 27.51300
H  -1.23000 18.59300 23.10200
H  -2.10300 15.81800 23.06600
H  -3.83700 18.92100 23.50800
H  -3.94700 17.22100 23.15100
H  -3.21300 18.30400 21.93400
H  0.19200 16.71100 22.22600
H  0.17200 15.10700 22.85700
H  1.90400 15.57300 24.26900
H  0.83900 16.99600 24.96100
H  1.84800 17.15800 23.50400
H  -1.45700 11.97200 25.49800
H  -2.84600 11.46500 26.52400
H  -1.11800 10.95400 26.84200
H  -2.61400 13.57900 31.73700
H  0.81800 11.90400 33.85000
H  0.47900 13.29400 34.86000
H  1.48500 13.47500 33.46800
Mg 47.79400 15.28000 29.13800
C  45.96800 15.06300 32.01500
C  49.81100 17.71500 30.80700
C  49.45600 15.95900 26.21400
C  45.32500 13.42100 27.41900
N  47.74200 16.39000 31.07200
C  47.08600 15.81000 32.22900
C  47.70700 16.36200 33.53800
C  48.48200 17.53100 33.04800
C  48.72400 17.17200 31.51700
C  47.78700 19.01400 33.19400
C  48.42100 15.31900 34.38200
C  48.17900 15.36100 35.89900
H  47.86600 16.58400 36.67400
N  49.44700 16.53800 28.61200
C  50.15500 17.40800 29.46200
C  51.25200 18.02200 28.69700
C  51.13000 17.59100 27.33000
C  49.98400 16.63000 27.32300
C  52.14000 19.01300 29.31000
C  51.97900 17.96100 26.10800
O  51.84500 17.48000 25.03100
C  53.02300 19.00800 26.29700
N  47.43100 14.76700 27.08200
C  48.30700 15.14300 26.09700
C  47.82000 14.57700 24.77700
C  46.57500 13.73200 25.16300
C  46.40500 13.92400 26.64400
C  47.48500 15.71300 23.76000
C  46.68400 12.19400 24.86600
C  46.16600 11.86800 23.41700
N  45.94900 14.46300 29.51100
C  45.07300 13.72800 28.75300
C  43.93100 13.29200 29.57000
C  44.25600 13.81000 30.83800
C  45.47800 14.45300 30.76700
C  42.78600 12.41600 29.24400
C  43.79800 13.80000 32.23500
O  42.79200 13.26900 32.75100
C  44.88300 14.55500 32.97500
C  44.31700 15.67000 33.80400
O  44.04700 16.77300 33.44700
O  44.22600 15.28300 35.11100
C  43.86700 16.33900 36.05700
H  50.51400 18.35500 31.34400
H  50.04800 16.13400 25.31300
H  44.63700 12.71900 26.94300
H  46.87300 16.70300 34.15100
H  49.42400 17.61400 33.59100
H  48.24300 19.35800 34.12200
H  46.71800 18.96100 33.40000
H  48.00800 19.73300 32.40600
H  49.48900 15.52400 34.29900
H  48.35300 14.32000 33.95200
H  49.05000 14.90300 36.36700
H  47.28700 14.73300 35.90100
H  53.19400 18.76500 29.18400
H  51.92600 19.17900 30.36500
H  51.91900 20.00400 28.91200
H  52.62200 19.93400 26.71000
H  53.36100 19.16400 25.27300
H  53.83900 18.66200 26.93200
H  48.52900 13.91900 24.27500
H  45.74900 14.25000 24.67600
H  47.55600 16.66500 24.28600
H  46.47600 15.59100 23.36600
H  48.13500 15.74400 22.88600
H  46.18500 11.71500 25.70900
H  47.74300 11.96100 24.97800
H  45.37400 11.12000 23.46800
H  46.95500 11.39600 22.83100
H  45.81600 12.77700 22.92800
H  41.87000 12.71600 29.75400
H  43.06500 11.38100 29.44000
H  42.57900 12.43900 28.17400
H  45.26700 13.82400 33.68600
H  42.78400 16.46000 36.04100
H  44.22000 17.35300 35.86800
H  44.12400 16.12500 37.09400

