158

Mg 41.57800 8.96700 29.39900
C  43.27000 10.27300 32.14500
C  39.31200 7.74400 31.64000
C  39.88300 7.61300 26.89900
C  44.00600 10.15100 27.35600
N  41.37400 8.96200 31.71800
C  42.09800 9.67800 32.60700
C  41.57300 9.52400 34.05200
C  40.42900 8.50400 33.85200
C  40.33600 8.41100 32.28100
C  40.56400 7.16400 34.54100
C  41.15600 10.83400 34.76800
C  40.24800 10.78700 36.09400
H  40.54000 11.73800 37.22400
N  39.82500 7.79100 29.24600
C  39.00300 7.45800 30.25100
C  37.84300 6.73300 29.79400
C  37.94400 6.68300 28.34200
C  39.25200 7.42100 28.09100
C  36.81100 6.13800 30.75300
C  37.03100 6.04600 27.36400
O  37.16600 6.28600 26.19400
C  35.86200 5.39200 27.75500
N  41.89800 8.95900 27.40900
C  41.05000 8.35400 26.52100
C  41.58700 8.45400 25.08700
C  42.81200 9.41900 25.20300
C  42.93900 9.54800 26.75200
C  41.89700 7.16800 24.29200
C  42.63500 10.78500 24.46900
C  43.86400 11.27900 23.70400
N  43.29000 9.95300 29.60600
C  44.19900 10.38200 28.67900
C  45.24900 11.15100 29.29000
C  44.92000 11.04900 30.70300
C  43.74600 10.34200 30.80800
C  46.25400 11.82700 28.47600
C  45.33200 11.51300 32.04700
O  46.33500 12.10000 32.45000
C  44.27300 11.04400 33.05500
C  45.01600 10.31500 34.18200
O  45.51500 9.21000 34.03500
O  44.94700 10.97500 35.33600
C  45.69500 10.42100 36.46700
H  38.59900 7.29200 32.33300
H  39.32900 7.16400 26.07100
H  44.66800 10.57900 26.60100
H  42.31200 9.13000 34.74900
H  39.47200 8.84600 34.24600
H  39.55200 6.84700 34.79200
H  41.16700 7.36600 35.42600
H  40.98600 6.39700 33.89200
H  40.66800 11.49800 34.05400
H  42.04300 11.41500 35.02200
H  40.41700 9.79200 36.50500
H  39.17400 10.87800 35.93200
H  36.91900 5.05400 30.74600
H  35.89600 6.49800 30.28300
H  36.96000 6.41200 31.79700
H  35.73700 4.53600 27.09200
H  34.99700 6.05400 27.79600
H  35.87100 4.95600 28.75400
H  40.80000 8.93600 24.50800
H  43.74300 8.93900 24.90200
H  42.20500 6.32300 24.90700
H  42.63500 7.25200 23.49500
H  40.91100 6.95100 23.88000
H  42.53100 11.55000 25.23900
H  41.80500 10.67500 23.77100
H  44.37500 10.42500 23.25900
H  44.51700 11.80600 24.40100
H  43.45900 12.00500 22.99900
H  47.06100 11.11200 28.31500
H  46.79300 12.57700 29.05500
H  45.90600 12.22800 27.52400
H  43.85100 11.98100 33.41600
H  45.15800 9.55800 36.86000
H  45.83600 11.20300 37.21400
H  46.68900 10.17300 36.09700
Mg -11.25800 17.37100 41.47800
C  -7.92400 16.51100 41.90800
C  -10.29900 20.62800 40.98400
C  -14.48000 18.13600 40.68900
C  -12.07300 13.84800 41.42200
N  -9.32000 18.33800 41.31200
C  -8.06600 17.82200 41.57800
C  -7.02700 18.86800 41.27200
C  -7.81300 20.24100 41.47400
C  -9.22500 19.71200 41.19700
C  -7.75400 20.98400 42.85100
C  -6.37000 18.72700 39.84100
C  -4.84800 18.42800 39.70800
H  -4.51500 17.09000 38.96600
N  -12.30400 19.13900 40.93400
C  -11.67900 20.33900 40.81400
C  -12.64400 21.24800 40.42900
C  -13.92400 20.60000 40.43800
C  -13.66700 19.22800 40.74100
C  -12.32600 22.71000 40.16500
C  -15.26400 21.22600 40.05300
O  -15.39100 22.42800 39.68900
C  -16.61900 20.44600 40.11600
N  -12.94300 16.18500 41.04400
C  -14.18200 16.76600 40.78800
C  -15.21100 15.62500 40.54900
C  -14.36400 14.31900 40.56500
C  -13.07400 14.79900 41.10500
C  -16.29400 15.46900 41.64600
C  -14.08900 13.66900 39.12800
C  -14.58000 12.15400 38.94800
N  -10.28500 15.48000 41.78100
C  -10.70800 14.14800 41.73700
C  -9.59200 13.31500 42.01100
C  -8.43100 14.15100 42.13200
C  -8.93900 15.47400 41.92800
C  -9.65500 11.84600 42.24700
C  -6.97700 14.24700 42.39700
O  -6.21000 13.29500 42.70400
C  -6.58800 15.74900 42.25600
C  -5.99400 16.13400 43.58500
O  -6.63600 16.06900 44.65400
O  -4.61100 16.17600 43.57400
C  -3.85100 16.09600 44.76800
H  -10.02700 21.68500 40.98200
H  -15.48300 18.33500 40.30600
H  -12.36100 12.79500 41.39500
H  -6.25200 18.74500 42.02800
H  -7.28400 20.96200 40.85000
H  -7.11800 20.53700 43.61500
H  -8.73900 21.04800 43.31500
H  -7.45800 22.03100 42.78200
H  -6.52100 19.65500 39.28900
H  -6.88200 17.89900 39.35200
H  -4.41900 18.44600 40.71000
H  -4.32800 19.25200 39.22000
H  -11.77300 22.88000 39.24100
H  -11.72600 23.17800 40.94500
H  -13.26600 23.26000 40.11100
H  -17.33900 21.26200 40.18500
H  -16.62000 19.89800 41.05800
H  -17.04300 19.88700 39.28100
H  -15.66100 15.85100 39.58200
H  -14.73400 13.53400 41.22500
H  -16.94700 16.33700 41.73100
H  -15.90600 15.24800 42.64000
H  -16.86400 14.59000 41.34400
H  -13.03600 13.73500 38.85400
H  -14.75500 14.11800 38.39200
H  -14.95700 11.84000 37.97500
H  -15.30800 11.89000 39.71500
H  -13.69900 11.53300 39.11700
H  -8.96800 11.62200 43.06300
H  -9.25200 11.28000 41.40600
H  -10.66800 11.50500 42.45800
H  -5.70800 15.84500 41.61800
H  -2.81100 16.05900 44.44300
H  -4.09900 15.25900 45.42100
H  -4.01200 16.91900 45.46400

