158

Mg 16.46100 -1.56100 27.82900
C  15.28500 0.37600 30.43700
C  18.40900 -3.30900 30.00600
C  17.64300 -3.13100 25.18000
C  14.75800 0.76400 25.60400
N  16.95400 -1.42900 29.94500
C  16.25800 -0.61900 30.84400
C  16.82000 -0.69700 32.24500
C  17.95500 -1.76600 32.07300
C  17.80600 -2.19200 30.60200
C  19.36000 -1.34100 32.46000
C  15.77800 -1.19100 33.24200
C  15.87000 -0.60400 34.65100
H  17.25800 -0.18300 35.18800
N  17.78000 -3.09600 27.62100
C  18.45300 -3.79400 28.65200
C  19.26100 -4.91200 28.07800
C  19.03900 -4.79900 26.58700
C  18.11800 -3.63400 26.41500
C  20.08100 -5.80500 28.96200
C  19.60400 -5.68900 25.44300
O  19.51600 -5.52000 24.23500
C  20.45500 -7.00400 25.85400
N  16.25000 -1.20400 25.57900
C  16.81200 -2.09100 24.77000
C  16.59300 -1.64400 23.29700
C  15.51100 -0.51000 23.44400
C  15.48000 -0.26100 24.93400
C  17.84400 -1.25600 22.42800
C  14.02800 -0.85200 22.96800
C  13.82200 -0.79500 21.46800
N  15.15000 0.08900 27.91100
C  14.52900 0.92600 26.93300
C  13.70300 1.91900 27.58400
C  14.00000 1.73400 28.97100
C  14.79700 0.54500 29.09200
C  12.98100 3.02800 26.94200
C  13.85900 2.40300 30.22000
O  13.37100 3.49500 30.53700
C  14.67700 1.49200 31.23800
C  15.67900 2.30000 32.05000
O  16.88100 2.59100 31.80500
O  14.94700 2.72300 33.15000
C  15.59500 3.74600 33.88600
H  18.90900 -3.87900 30.79200
H  18.13600 -3.65100 24.35600
H  14.12900 1.39100 24.96700
H  17.31400 0.22600 32.54700
H  17.72800 -2.64500 32.67600
H  19.39600 -0.32700 32.85700
H  20.01000 -1.41700 31.58800
H  19.76700 -2.05400 33.17700
H  15.68800 -2.27500 33.30900
H  14.78200 -0.83200 32.98400
H  15.53200 -1.40500 35.30900
H  15.19900 0.24000 34.81300
H  20.17200 -5.38800 29.96500
H  21.04400 -5.91400 28.46200
H  19.67400 -6.81500 28.91800
H  19.81500 -7.68400 26.41600
H  21.34800 -6.69900 26.40100
H  20.80300 -7.46100 24.92800
H  16.05500 -2.38100 22.70200
H  15.87900 0.42500 23.02200
H  17.92800 -0.21100 22.12900
H  17.86600 -1.85900 21.51900
H  18.75300 -1.53900 22.95900
H  13.29300 -0.17400 23.40200
H  13.80500 -1.82800 23.39800
H  14.16800 0.15200 21.05300
H  12.73700 -0.84300 21.37600
H  14.22500 -1.65600 20.93400
H  13.53800 3.36700 26.06900
H  12.88100 3.86600 27.63100
H  12.00900 2.69500 26.57700
H  13.89800 1.12000 31.90300
H  14.97800 3.96400 34.75800
H  15.75800 4.63700 33.28100
H  16.63000 3.51800 34.14100
Mg 42.86100 41.27700 26.14200
C  42.08400 43.47400 28.66100
C  44.44500 39.26600 28.58500
C  43.85400 39.11300 23.68900
C  42.14500 43.70100 23.74100
N  43.25600 41.40800 28.38900
C  42.63200 42.31000 29.14900
C  42.75500 41.99200 30.65400
C  43.73800 40.72600 30.61800
C  43.79100 40.39700 29.12500
C  45.07900 40.99400 31.21800
C  41.41800 41.87700 31.37000
C  41.54300 42.00500 32.85500
H  40.47500 42.68400 33.62900
N  43.73300 39.32600 26.18200
C  44.38600 38.71600 27.22600
C  44.79500 37.38600 26.79000
C  44.50700 37.30100 25.34400
C  44.06100 38.65700 24.99200
C  45.33800 36.33800 27.74200
C  44.76200 36.18600 24.42500
O  44.48400 36.21200 23.25600
C  45.36600 34.82800 24.97100
N  43.03200 41.43300 23.89700
C  43.37400 40.36800 23.11300
C  43.04400 40.64200 21.67400
C  42.63100 42.16800 21.65800
C  42.60000 42.50200 23.19300
C  44.13800 40.25600 20.64800
C  41.26900 42.49300 20.96900
C  41.35800 43.60600 19.90100
N  42.28900 43.23500 26.08300
C  42.02200 44.08000 25.06900
C  41.49400 45.30900 25.66100
C  41.53800 45.14100 27.04000
C  42.04500 43.88600 27.29200
C  41.08800 46.50600 24.81900
C  41.24100 45.76000 28.35300
O  40.82700 46.86400 28.58500
C  41.63600 44.75500 29.42400
C  42.76800 45.37400 30.28900
O  43.80200 45.95000 29.85400
O  42.29600 45.35600 31.63200
C  43.18000 45.87900 32.62300
H  45.00000 38.57500 29.22300
H  43.89100 38.30900 22.95200
H  41.89600 44.42100 22.95800
H  43.22200 42.84900 31.13900
H  43.17400 39.91100 31.07200
H  45.81800 40.94800 30.41900
H  45.18300 40.20900 31.96700
H  45.14100 41.96600 31.70700
H  41.14600 40.89400 30.98700
H  40.61900 42.56900 31.10100
H  42.50000 42.33300 33.26100
H  41.48500 40.95300 33.13800
H  45.05400 36.58700 28.76500
H  46.42600 36.31200 27.79700
H  44.91700 35.39400 27.39500
H  45.86600 34.28600 24.16800
H  44.55400 34.20600 25.34800
H  46.21500 35.11000 25.59400
H  42.09100 40.14400 21.49300
H  43.40900 42.81700 21.25600
H  44.35100 41.02400 19.90500
H  43.73500 39.51000 19.96300
H  45.02600 39.80800 21.09500
H  40.47300 42.75600 21.66500
H  40.85200 41.57900 20.54500
H  42.04300 43.39100 19.08100
H  41.63600 44.56900 20.33100
H  40.36300 43.75500 19.48400
H  41.96600 46.87800 24.29100
H  40.71100 47.20900 25.56100
H  40.27900 46.30500 24.11600
H  40.77700 44.55300 30.06400
H  44.13000 45.34800 32.68700
H  42.68200 45.78600 33.58800
H  43.53200 46.88900 32.41300

