158

Mg 30.25200 58.27000 41.13000
C  27.50000 56.29800 40.05700
C  32.34800 55.53700 40.19400
C  32.80900 60.29200 41.10100
C  28.03000 60.87300 41.43100
N  30.01800 56.20100 40.12000
C  28.74500 55.63900 39.88000
C  28.95400 54.27100 39.21700
C  30.40900 53.89500 39.77200
C  30.98400 55.30300 40.00500
C  30.51800 53.02000 41.07100
C  28.94100 54.45700 37.61600
C  27.94600 53.56900 36.88800
H  26.95100 54.26600 35.96400
N  32.33600 57.97800 40.83600
C  32.95000 56.84100 40.38800
C  34.42900 57.02600 40.36200
C  34.63300 58.39600 40.60700
C  33.23200 58.98200 40.82300
C  35.42500 55.83300 40.09500
C  35.93000 59.13500 40.65600
O  36.97700 58.39300 40.61700
C  36.12100 60.60300 40.73500
N  30.37900 60.28500 41.12300
C  31.57300 60.88300 41.35600
C  31.39600 62.38100 41.59100
C  29.94200 62.50500 41.87900
C  29.40100 61.14800 41.37900
C  32.35300 63.10500 42.61300
C  29.22400 63.77600 41.29300
C  28.18200 64.39600 42.19400
N  28.14300 58.55400 40.92300
C  27.40200 59.67300 41.14000
C  25.99400 59.41300 40.88700
C  25.97500 58.04600 40.65500
C  27.31800 57.62900 40.48700
C  24.85900 60.35800 40.90500
C  25.13700 56.89800 40.36200
O  23.88000 56.85100 40.40300
C  26.06800 55.70500 39.83100
C  25.87400 54.54300 40.71200
O  26.49300 54.26800 41.77400
O  24.89200 53.76500 40.14900
C  24.63600 52.49100 40.85800
H  32.88900 54.60100 40.03800
H  33.62000 60.97800 41.35300
H  27.42300 61.77900 41.49000
H  28.17300 53.59700 39.57000
H  30.98700 53.36800 39.01300
H  30.86400 53.57600 41.94200
H  31.25500 52.24500 40.86000
H  29.54400 52.60600 41.33300
H  29.90500 54.11600 37.23900
H  28.72500 55.47300 37.28400
H  27.36100 53.03400 37.63600
H  28.48600 52.79100 36.34900
H  35.84100 55.97300 39.09700
H  35.08500 54.81500 39.90500
H  36.16800 55.66000 40.87400
H  35.74900 60.84100 41.73200
H  35.58300 60.92600 39.84400
H  37.15800 60.92100 40.63100
H  31.60200 62.83300 40.62100
H  29.72900 62.41500 42.94400
H  33.19100 63.70600 42.25700
H  32.79100 62.31100 43.21700
H  31.70600 63.63400 43.31300
H  28.85900 63.54000 40.29300
H  30.02500 64.49900 41.13900
H  28.68800 65.20300 42.72500
H  27.95900 63.75400 43.04600
H  27.20900 64.68600 41.79900
H  25.31800 61.30300 40.61300
H  24.43200 60.46200 41.90300
H  24.15400 60.01200 40.15000
H  25.74200 55.44200 38.82500
H  24.33200 52.74200 41.87400
H  25.55400 51.91800 40.98000
H  23.85500 52.07500 40.22200
Mg -1.42600 34.90300 26.05400
C  -3.00300 32.98900 28.45500
C  -0.15400 36.85200 28.45600
C  -0.30700 36.82500 23.57200
C  -2.84100 32.70700 23.52600
N  -1.59500 34.89100 28.26100
C  -2.17600 33.97600 29.03400
C  -2.06800 34.29400 30.52700
C  -1.34100 35.67900 30.51300
C  -1.02200 35.84700 28.97200
C  -1.97800 36.91300 31.05900
C  -1.20900 33.22100 31.30600
C  -2.02300 32.42900 32.38200
H  -1.36100 32.22200 33.71100
N  -0.34700 36.59300 26.00300
C  0.13400 37.26700 27.11000
C  0.95400 38.36300 26.69200
C  0.79800 38.45000 25.29600
C  -0.07200 37.32200 24.88500
C  1.69900 39.30400 27.74200
C  1.42900 39.49100 24.40400
O  1.28100 39.54300 23.20400
C  2.30100 40.54400 24.97600
N  -1.51900 34.79000 23.89900
C  -0.95600 35.71000 23.12700
C  -1.09100 35.35900 21.67100
C  -1.67700 33.94200 21.70700
C  -2.06800 33.82000 23.12700
C  -1.89700 36.43700 20.98100
C  -0.63500 32.88800 21.22500
C  0.35200 32.27700 22.20500
N  -2.73700 33.24300 25.92100
C  -3.14800 32.39400 24.87300
C  -4.05600 31.34900 25.37100
C  -4.07400 31.59200 26.80900
C  -3.20300 32.68200 27.03600
C  -4.83400 30.43500 24.53200
C  -4.71800 31.18500 28.11000
O  -5.64200 30.44900 28.33200
C  -3.80500 31.92500 29.17200
C  -4.77700 32.48100 30.12800
O  -5.37500 33.53700 29.97300
O  -4.94600 31.66700 31.21600
C  -5.65200 32.24100 32.37500
H  0.17600 37.63800 29.13800
H  0.19700 37.45700 22.83900
H  -3.26400 32.04100 22.77200
H  -3.07100 34.47500 30.91400
H  -0.46400 35.52600 31.14300
H  -3.04200 36.68300 31.00800
H  -1.81200 37.71700 30.34200
H  -1.71900 37.25400 32.06100
H  -0.32400 33.58300 31.82900
H  -0.88300 32.49200 30.56300
H  -2.26000 31.45600 31.95100
H  -2.93100 32.99700 32.57900
H  2.00900 38.73900 28.62200
H  0.93800 40.02300 28.04700
H  2.58400 39.84900 27.41600
H  1.82500 41.19900 25.70600
H  2.54100 41.10600 24.07400
H  3.24500 40.22700 25.41800
H  -0.08600 35.36400 21.24700
H  -2.52700 33.81200 21.03700
H  -2.17800 37.18700 21.72100
H  -2.80800 36.00800 20.56500
H  -1.21400 36.87800 20.25500
H  -0.12800 33.49100 20.47100
H  -1.26600 32.07400 20.86700
H  0.09300 32.50700 23.23900
H  1.41300 32.43900 22.01400
H  0.18300 31.20200 22.27000
H  -4.22100 30.00500 23.73900
H  -5.68500 30.96000 24.09900
H  -5.27900 29.62700 25.11400
H  -3.31800 31.10800 29.70400
H  -6.57800 32.69400 32.02200
H  -4.97400 32.94100 32.86200
H  -5.88500 31.45800 33.09600

