158

Mg 0.29700 7.16300 26.13200
C  1.41300 9.30700 28.90100
C  0.03600 4.66300 28.37000
C  -0.57000 5.22100 23.57300
C  1.00000 9.81600 23.98800
N  0.63500 7.00400 28.42500
C  1.00700 7.97800 29.38600
C  0.92300 7.38900 30.78200
C  0.54200 5.84400 30.54700
C  0.34600 5.87100 29.00200
C  1.64300 4.82900 30.95300
C  -0.16300 8.12900 31.61900
C  0.16700 8.47900 33.10300
H  1.36600 7.79500 33.66500
N  -0.11100 5.18500 25.93500
C  -0.19200 4.32800 27.03400
C  -0.66800 3.04400 26.58900
C  -0.99000 3.22000 25.19500
C  -0.57200 4.60300 24.80600
C  -0.86400 1.85800 27.60700
C  -1.58700 2.22900 24.24900
O  -1.99400 2.57100 23.14900
C  -1.77400 0.81400 24.64700
N  0.31500 7.46600 24.08500
C  -0.10500 6.48000 23.20300
C  -0.24800 7.01200 21.72500
C  0.16100 8.54000 22.00100
C  0.50600 8.62600 23.50200
C  0.78100 6.39100 20.67800
C  -0.96800 9.53900 21.66500
C  -0.62300 10.74600 20.65400
N  1.05400 9.14100 26.39100
C  1.31900 10.09700 25.32500
C  1.86100 11.26900 25.89900
C  1.99000 11.04600 27.25400
C  1.45300 9.71100 27.52000
C  2.07800 12.58300 25.19700
C  2.30900 11.73200 28.49700
O  2.64700 12.88500 28.71300
C  1.81100 10.61000 29.63600
C  3.00600 10.31400 30.49900
O  3.86600 9.42600 30.40900
O  2.91800 11.16900 31.53700
C  4.06500 11.31000 32.51600
H  0.05200 3.85400 29.10400
H  -0.84500 4.58600 22.72800
H  1.12900 10.58400 23.22200
H  1.97000 7.38600 31.08400
H  -0.30300 5.43900 31.10400
H  1.36000 3.99400 31.59400
H  2.45700 5.33500 31.47200
H  2.04400 4.33700 30.06700
H  -1.08200 7.54400 31.61200
H  -0.49400 9.00500 31.06100
H  -0.75300 8.14400 33.58300
H  0.31900 9.53700 33.31600
H  -1.72600 1.23800 27.35900
H  -1.09900 2.20500 28.61300
H  0.09400 1.33700 27.58300
H  -2.20200 0.24700 23.82000
H  -2.52300 0.86000 25.43700
H  -0.80800 0.39600 24.93300
H  -1.28200 6.80200 21.45200
H  1.05100 8.81400 21.43500
H  1.59000 5.85600 21.17500
H  1.24700 7.14000 20.03800
H  0.26600 5.68700 20.02500
H  -1.34400 9.84800 22.64000
H  -1.79300 8.99300 21.20900
H  0.35400 10.50000 20.23900
H  -0.51000 11.62700 21.28600
H  -1.45800 10.88700 19.96700
H  1.28700 12.82300 24.48600
H  3.07000 12.64100 24.75000
H  2.10500 13.34200 25.97800
H  0.96500 10.95800 30.22900
H  4.30700 12.35300 32.72100
H  5.01700 11.00900 32.07900
H  3.78500 10.89500 33.48400
Mg 25.44400 -0.15200 29.80100
C  27.47700 -0.14100 32.55600
C  22.81400 0.24200 31.88300
C  23.64800 -0.09800 27.02600
C  28.29600 -1.04000 27.76000
N  25.21400 -0.09600 31.99700
C  26.13000 -0.05600 32.95400
C  25.57800 0.06900 34.45800
C  24.01600 0.05900 34.08600
C  24.01700 0.03200 32.60600
C  23.04300 -1.00800 34.68500
C  26.00000 1.34600 35.23200
C  26.82800 1.37700 36.53200
H  26.39500 2.47000 37.65600
N  23.40600 0.04900 29.49000
C  22.47700 0.22000 30.48400
C  21.16600 0.44300 29.89300
C  21.42200 0.50500 28.44400
C  22.88600 0.13200 28.23000
C  19.87200 0.59000 30.66600
C  20.50700 0.71900 27.24100
O  20.89700 0.63400 26.07800
C  19.11600 1.19500 27.50300
N  25.84000 -0.59700 27.58600
C  24.93700 -0.40900 26.67800
C  25.56200 -0.45600 25.25300
C  27.04700 -0.73900 25.55500
C  27.10700 -0.90700 27.03400
C  25.01800 -1.48900 24.27100
C  28.07200 0.35200 24.95900
C  29.34200 -0.09800 24.27800
N  27.46800 -0.57300 30.03500
C  28.49100 -0.95800 29.18200
C  29.77300 -0.96700 29.89300
C  29.36900 -0.64700 31.19500
C  27.96800 -0.46000 31.26400
C  31.20700 -1.30800 29.35000
C  29.95600 -0.40000 32.52000
O  31.11900 -0.35900 32.94600
C  28.71000 -0.15700 33.51500
C  28.54600 -1.22200 34.51000
O  28.00300 -2.30800 34.30000
O  29.21100 -0.86400 35.64100
C  28.98300 -1.70300 36.86300
H  22.01700 0.33600 32.62400
H  23.08700 0.19700 26.13700
H  29.18700 -1.26600 27.17100
H  25.85800 -0.83700 34.99700
H  23.68100 1.07100 34.31000
H  23.54500 -1.27400 35.61500
H  23.00200 -1.86200 34.01000
H  22.06700 -0.58700 34.92700
H  25.07600 1.85800 35.50300
H  26.58400 2.01200 34.59600
H  27.85500 1.59300 36.23800
H  26.83400 0.43000 37.07200
H  20.02400 -0.16400 31.43800
H  18.91400 0.24600 30.27600
H  19.77100 1.57700 31.11900
H  18.43900 0.44000 27.90200
H  18.67000 1.61900 26.60400
H  19.17200 1.94300 28.29500
H  25.51900 0.50800 24.74700
H  27.36000 -1.75500 25.31300
H  24.42500 -2.29900 24.69600
H  25.89100 -1.96000 23.81900
H  24.47100 -0.96700 23.48600
H  28.38200 1.01900 25.76400
H  27.45900 0.90300 24.24600
H  29.51500 -1.16900 24.16600
H  30.20800 0.26300 24.83200
H  29.30100 0.19200 23.22800
H  31.32500 -0.70400 28.45000
H  31.16400 -2.33600 28.98900
H  31.93600 -1.01600 30.10500
H  28.89000 0.82400 33.95600
H  27.96000 -1.76600 37.23200
H  29.65700 -1.37300 37.65300
H  29.34000 -2.70600 36.62800

