158

Mg 17.59900 -1.76300 27.30800
C  16.26800 0.34300 29.78000
C  19.30400 -3.52100 29.63500
C  19.03000 -3.48400 24.79400
C  15.87500 0.27100 24.94200
N  17.91100 -1.40700 29.43800
C  17.16100 -0.61400 30.26800
C  17.40800 -1.01600 31.72600
C  18.62200 -2.09100 31.65400
C  18.63100 -2.38300 30.11600
C  20.02900 -1.66300 32.22800
C  16.07700 -1.54800 32.48500
C  15.84600 -0.88400 33.85200
H  17.02000 -0.14000 34.53400
N  18.92000 -3.40100 27.23000
C  19.46800 -3.98900 28.28000
C  20.21000 -5.22800 27.81600
C  20.20200 -5.16700 26.46300
C  19.39600 -3.98900 26.06700
C  20.99800 -6.21400 28.79700
C  20.86900 -6.06200 25.48100
O  20.96200 -5.84100 24.30700
C  21.44700 -7.32600 25.93400
N  17.46500 -1.65500 25.27200
C  18.19800 -2.44000 24.41200
C  18.03000 -1.95400 22.96400
C  16.99900 -0.87000 23.04600
C  16.70500 -0.76100 24.49800
C  19.38900 -1.51200 22.30100
C  15.76800 -1.01200 22.13600
C  14.35700 -1.43500 22.62700
N  16.26000 0.00900 27.26500
C  15.50800 0.61600 26.27700
C  14.64000 1.56000 26.79100
C  14.91500 1.53000 28.16500
C  15.89800 0.53300 28.40600
C  13.54200 2.28300 25.94800
C  14.56000 2.10200 29.46000
O  13.76400 3.02300 29.76700
C  15.36300 1.30800 30.52500
C  16.05200 2.27900 31.43700
O  17.04100 2.90300 31.15400
O  15.37000 2.39000 32.56600
C  15.83200 3.49200 33.47600
H  19.65000 -4.19300 30.42300
H  19.48100 -4.01500 23.95300
H  15.24000 0.83600 24.25700
H  17.68000 -0.01400 32.05800
H  18.24500 -2.94100 32.22300
H  20.53200 -2.41800 32.83200
H  19.99300 -0.65200 32.63600
H  20.66300 -1.73100 31.34500
H  16.11100 -2.58400 32.82200
H  15.19900 -1.39300 31.85800
H  15.55400 -1.63400 34.58700
H  15.02200 -0.18900 33.68600
H  22.07900 -6.21300 28.66100
H  20.70800 -7.26500 28.78000
H  20.80400 -5.92200 29.82900
H  22.48600 -7.24700 26.25300
H  21.40200 -8.03200 25.10500
H  20.76700 -7.91200 26.55300
H  17.71600 -2.81600 22.37500
H  17.39600 0.12300 22.83600
H  20.21500 -2.01200 22.80500
H  19.40900 -0.43900 22.49200
H  19.45200 -1.67300 21.22500
H  16.03800 -1.71300 21.34600
H  15.59600 -0.01900 21.72200
H  13.77200 -0.55900 22.90700
H  14.49400 -1.96200 23.57200
H  13.96500 -2.19000 21.94500
H  13.22500 1.57500 25.18300
H  13.99900 3.15200 25.47500
H  12.74500 2.65400 26.59300
H  14.64000 0.70500 31.07400
H  16.11400 4.41700 32.97400
H  16.65600 3.17000 34.11200
H  14.94900 3.60900 34.10500
Mg 35.82800 1.68600 29.08700
C  33.78000 2.46400 31.81600
C  38.56700 1.71200 31.19800
C  37.90800 1.26800 26.32900
C  33.13300 2.20600 26.88100
N  36.07900 1.95100 31.31900
C  35.11300 2.22200 32.23700
C  35.70300 2.30500 33.65700
C  37.24100 2.03700 33.43700
C  37.32500 1.87800 31.88100
C  38.22400 3.07500 33.94700
C  35.02500 1.22600 34.52000
C  34.23200 1.75800 35.72300
H  34.86600 3.04600 36.43100
N  37.84100 1.28400 28.79300
C  38.83400 1.41600 29.80700
C  40.10100 1.03600 29.25600
C  39.96100 0.81400 27.83600
C  38.50300 1.09700 27.58300
C  41.31100 0.97200 30.07900
C  40.90400 0.35700 26.83000
O  40.55700 0.03300 25.70100
C  42.40200 0.32000 27.14800
N  35.54700 1.74900 26.94800
C  36.58000 1.61500 26.05600
C  36.05200 1.98500 24.68900
C  34.45400 1.97300 24.73100
C  34.33200 2.06200 26.27500
C  36.61900 3.44900 24.32100
C  33.78900 0.87200 23.99700
C  32.35600 1.09500 23.44300
N  33.85300 2.14800 29.26100
C  32.86200 2.39500 28.30000
C  31.66900 2.79600 28.91200
C  31.98300 2.87500 30.26700
C  33.35600 2.42700 30.40800
C  30.38800 3.12400 28.29900
C  31.41900 3.15700 31.54700
O  30.21800 3.43700 31.77700
C  32.57100 2.93700 32.64200
C  32.64100 4.21500 33.37700
O  33.37200 5.11400 33.00700
O  31.77800 4.25800 34.40900
C  31.75300 5.45100 35.20200
H  39.42000 1.70800 31.88000
H  38.59600 1.27800 25.48100
H  32.28900 2.33500 26.20100
H  35.49800 3.32300 33.98900
H  37.49600 1.11800 33.96500
H  38.75600 3.53000 33.11100
H  38.84400 2.77900 34.79200
H  37.56500 3.88200 34.27000
H  35.79900 0.67500 35.05400
H  34.32800 0.58600 33.97800
H  34.16200 0.95300 36.45500
H  33.21400 1.94400 35.38100
H  41.67000 -0.02800 30.32300
H  41.23000 1.34500 31.10000
H  42.08000 1.56500 29.58400
H  42.77400 1.27500 27.52000
H  42.88300 0.10400 26.19500
H  42.52200 -0.50700 27.84800
H  36.31700 1.33200 23.85800
H  34.00300 2.91000 24.40500
H  35.81500 4.16800 24.48100
H  36.82800 3.46000 23.25200
H  37.47900 3.70000 24.94200
H  33.65900 0.01300 24.65600
H  34.38700 0.54200 23.14700
H  31.74300 0.49200 24.11400
H  32.27900 0.70300 22.42900
H  31.91200 2.09000 23.44300
H  30.08300 2.73800 27.32600
H  30.21900 4.20100 28.28700
H  29.60000 2.67100 28.90100
H  32.19400 2.30000 33.44200
H  31.41100 5.08700 36.17000
H  31.03500 6.14400 34.76200
H  32.72500 5.91600 35.36800

