158

Mg 47.43500 15.40200 28.76300
C  45.26400 15.05100 31.39800
C  49.11500 17.79400 30.58700
C  49.52400 15.86200 26.14900
C  45.14500 13.84200 26.64900
N  47.09600 16.43300 30.75100
C  46.30500 15.89100 31.74400
C  46.50600 16.57400 33.08100
C  47.58400 17.60900 32.70800
C  48.00400 17.29900 31.30100
C  47.26900 19.02900 32.98600
C  46.89100 15.52300 34.15300
C  47.68500 15.98400 35.34600
H  47.14900 17.06400 36.26100
N  49.09600 16.58200 28.41100
C  49.66300 17.44100 29.28800
C  51.01600 17.74800 28.86200
C  51.17200 17.20100 27.56900
C  49.89300 16.48700 27.33600
C  51.99500 18.47400 29.76600
C  52.38000 17.20600 26.60800
O  52.41000 16.62200 25.51400
C  53.59900 18.05100 26.88400
N  47.39500 14.90700 26.67600
C  48.37200 15.16000 25.80900
C  48.10000 14.51600 24.39500
C  46.67000 13.97800 24.58500
C  46.29800 14.29300 26.06300
C  48.23000 15.62900 23.33200
C  46.41600 12.55900 24.08900
C  47.05500 11.52200 25.07200
N  45.55800 14.59200 28.93700
C  44.73700 13.93000 28.02300
C  43.51100 13.49300 28.68000
C  43.72200 13.87400 30.00600
C  44.93000 14.58700 30.10000
C  42.41800 12.81900 28.02300
C  43.15000 13.92000 31.30700
O  42.13000 13.32700 31.80500
C  44.09600 14.68100 32.29000
C  43.30300 15.73600 32.98700
O  42.54900 16.50900 32.48500
O  43.43900 15.54800 34.31300
C  42.76900 16.53100 35.10600
H  49.84200 18.35200 31.18000
H  50.13900 16.01000 25.25900
H  44.42000 13.30100 26.03700
H  45.53500 17.02800 33.28400
H  48.38800 17.31400 33.38200
H  47.80500 19.40200 33.85900
H  46.19900 19.04700 33.19400
H  47.46800 19.54300 32.04600
H  47.45200 14.74400 33.63800
H  45.97300 15.13300 34.59100
H  48.68100 16.33100 35.07000
H  47.67100 15.14500 36.04100
H  52.79600 19.01200 29.26000
H  52.55700 17.82200 30.43400
H  51.51600 19.30400 30.28600
H  53.40400 19.12200 26.91600
H  54.26600 17.86500 26.04200
H  54.09200 17.75200 27.80900
H  48.77300 13.70600 24.11400
H  45.97600 14.66100 24.09600
H  47.39100 15.61900 22.63600
H  49.06500 15.56300 22.63600
H  48.23200 16.59900 23.82900
H  46.82400 12.52500 23.07800
H  45.37800 12.22700 24.07500
H  47.71500 10.90800 24.46000
H  46.24400 10.92400 25.48700
H  47.64700 12.00600 25.85000
H  42.81600 12.48000 27.06700
H  41.58400 13.51100 27.89900
H  42.04200 11.96800 28.59200
H  44.37000 14.08000 33.15800
H  41.77600 16.71500 34.69700
H  43.34900 17.40000 35.41700
H  42.67700 16.09200 36.10000
Mg 16.42200 52.21500 25.67400
C  18.28600 51.00600 28.21500
C  14.09600 53.40400 27.96700
C  14.52400 53.23300 23.17700
C  18.77900 50.83900 23.43600
N  16.26600 52.29400 27.88500
C  17.16100 51.77800 28.76800
C  16.71300 51.84100 30.23700
C  15.25700 52.66800 30.05700
C  15.21000 52.84000 28.53100
C  14.01000 52.02700 30.68900
C  17.72300 52.54400 31.17800
C  17.93200 52.00000 32.57900
H  16.85700 51.13500 33.24300
N  14.55500 53.23100 25.61000
C  13.70600 53.56300 26.64300
C  12.62000 54.32400 26.08600
C  12.75200 54.30000 24.65200
C  14.02100 53.51000 24.40700
C  11.56200 54.89300 27.02700
C  11.85900 54.96100 23.55100
O  12.01800 54.93300 22.32500
C  10.61500 55.65400 23.88000
N  16.58100 51.86600 23.50600
C  15.72400 52.61400 22.73600
C  16.18500 52.64200 21.27200
C  17.54900 51.85600 21.39800
C  17.69500 51.51700 22.83000
C  15.17700 51.93400 20.28900
C  18.76700 52.66400 20.85100
C  19.90600 51.89900 20.18100
N  18.07900 51.06200 25.74800
C  18.98800 50.59400 24.79500
C  20.09000 49.98000 25.38500
C  19.77300 50.03500 26.76600
C  18.57300 50.72200 26.89900
C  21.20600 49.26900 24.70100
C  20.24900 49.58000 28.08800
O  21.26500 49.01400 28.49600
C  19.26100 50.13500 28.99700
C  18.66300 48.98800 29.71400
O  17.66100 48.39200 29.32800
O  19.20000 48.76000 30.95700
C  18.50100 47.63600 31.71300
H  13.26800 53.68900 28.61900
H  13.95500 53.68300 22.36100
H  19.62600 50.74400 22.75300
H  16.47600 50.86200 30.65200
H  15.44500 53.61900 30.55700
H  14.28300 51.13900 31.25900
H  13.32900 51.55200 29.98400
H  13.37200 52.73500 31.21900
H  17.35200 53.55900 31.31900
H  18.68900 52.62000 30.67900
H  18.10200 52.85200 33.23900
H  18.85600 51.42300 32.61100
H  11.37600 55.84600 26.53200
H  11.98100 55.01200 28.02600
H  10.66300 54.27900 27.07600
H  10.13400 55.84400 22.92000
H  11.02800 56.51700 24.40300
H  9.93900 55.02000 24.45200
H  16.37000 53.65400 20.91000
H  17.56300 50.96600 20.76800
H  14.76300 52.64000 19.57000
H  14.34800 51.55400 20.88600
H  15.60400 51.11400 19.71100
H  19.23900 53.33000 21.57300
H  18.41700 53.22100 19.98200
H  20.81600 51.83700 20.77700
H  20.04500 52.24100 19.15500
H  19.53700 50.87500 20.22500
H  22.17200 49.39200 25.19200
H  21.22500 49.66500 23.68500
H  21.05800 48.19000 24.73400
H  19.70300 50.72600 29.80000
H  18.77500 47.89700 32.73500
H  18.91700 46.68200 31.39000
H  17.42400 47.74900 31.59000

