158

Mg -1.09400 18.10700 26.81000
C  -1.64200 15.76000 29.52500
C  -1.44000 20.62400 29.25800
C  -0.59100 20.19000 24.41800
C  -0.96300 15.29000 24.75900
N  -1.39600 18.12700 29.19600
C  -1.58700 17.10400 30.03500
C  -1.77400 17.62800 31.43400
C  -1.93800 19.16100 31.19200
C  -1.46200 19.38000 29.79800
C  -3.40900 19.58500 31.50400
C  -0.64100 17.30800 32.45200
C  -1.18500 16.99000 33.85300
H  -0.07100 16.72500 34.92300
N  -0.92100 20.12600 26.87500
C  -1.11100 20.95300 27.93900
C  -0.98200 22.33800 27.38300
C  -0.66700 22.23000 25.98000
C  -0.79400 20.80100 25.68100
C  -0.93200 23.57400 28.25400
C  -0.50800 23.26900 24.89100
O  -0.33200 23.08000 23.69200
C  -0.44100 24.66800 25.41600
N  -0.72800 17.77900 24.84500
C  -0.59600 18.83700 24.01300
C  -0.58600 18.40200 22.49900
C  -0.49500 16.82000 22.64500
C  -0.74500 16.56300 24.13500
C  -1.84800 18.93400 21.72500
C  0.78000 16.22700 22.03200
C  1.94600 15.85200 22.96400
N  -1.30900 16.01300 27.04500
C  -1.25100 15.02800 26.05200
C  -1.58800 13.77500 26.60400
C  -1.75400 14.01600 27.93900
C  -1.54300 15.38100 28.17200
C  -1.92500 12.56600 25.74100
C  -2.04300 13.34900 29.21600
O  -2.27200 12.21300 29.45100
C  -1.95400 14.48600 30.32900
C  -0.95100 14.09500 31.45800
O  0.28300 14.11900 31.42700
O  -1.60300 13.75400 32.67600
C  -0.75200 13.25000 33.68300
H  -1.75500 21.48600 29.84900
H  -0.49600 20.82700 23.53700
H  -0.89200 14.53300 23.97500
H  -2.65200 17.22100 31.93400
H  -1.29700 19.67600 31.90700
H  -3.83800 20.25400 30.75800
H  -3.41200 20.17500 32.42000
H  -4.16400 18.83000 31.72500
H  0.09600 18.09100 32.63100
H  -0.01700 16.49500 32.08300
H  -1.83100 16.12600 33.70000
H  -1.77500 17.83100 34.21700
H  0.06300 23.99800 28.38800
H  -1.33900 23.37500 29.24500
H  -1.61600 24.29200 27.79900
H  -1.36300 25.08800 25.81700
H  -0.23000 25.33900 24.58300
H  0.34100 24.73700 26.17200
H  0.34400 18.78000 22.07400
H  -1.30700 16.33300 22.10500
H  -2.34000 18.24600 21.03700
H  -1.45500 19.76200 21.13500
H  -2.64900 19.32900 22.34900
H  1.20100 16.86000 21.25100
H  0.49200 15.29200 21.55300
H  1.92100 16.52800 23.81900
H  2.85300 16.13000 22.42700
H  2.09900 14.80300 23.21800
H  -2.69000 12.78500 24.99700
H  -2.41900 11.85000 26.39800
H  -1.08700 12.05500 25.26700
H  -2.91600 14.63800 30.81800
H  -0.42500 14.13600 34.22800
H  0.14500 12.71800 33.36600
H  -1.19500 12.52500 34.36500
Mg 48.33400 34.65600 26.76400
C  46.23000 33.79900 29.45800
C  49.03500 37.54000 28.31000
C  49.77600 35.64600 23.91400
C  47.15500 31.74600 25.06800
N  47.81400 35.40800 28.74100
C  46.99000 34.95300 29.72400
C  47.33700 35.62600 31.03200
C  47.91900 37.03000 30.57100
C  48.30700 36.67500 29.10800
C  47.04700 38.36600 30.84000
C  48.36800 34.82800 31.87300
C  48.08800 34.63600 33.35800
H  47.05100 35.63300 34.03900
N  49.39500 36.35200 26.24900
C  49.56700 37.42100 27.02400
C  50.32700 38.44300 26.33800
C  50.65700 37.84300 25.09200
C  49.96900 36.54700 25.01200
C  50.66100 39.85500 27.05900
C  51.50900 38.37200 23.96200
O  51.61300 37.86600 22.83600
C  52.18100 39.67300 24.27600
N  48.62000 33.75300 24.73600
C  49.22400 34.40800 23.72800
C  49.26900 33.53100 22.47200
C  48.58600 32.24300 22.98400
C  48.04500 32.57100 24.39400
C  48.67000 34.20200 21.23000
C  49.79200 31.20700 23.17400
C  49.80400 30.15300 21.96200
N  46.94400 33.11100 27.09400
C  46.61500 31.97100 26.38800
C  45.62200 31.22100 27.06300
C  45.45000 31.95200 28.25300
C  46.26600 33.07200 28.27700
C  44.90600 30.07400 26.48900
C  44.70000 31.89300 29.52200
O  43.87200 31.04200 29.89100
C  45.18700 33.11700 30.37500
C  45.39900 32.71400 31.79400
O  46.31100 31.95200 32.14300
O  44.39500 33.06900 32.59000
C  44.17500 32.34700 33.86300
H  49.38500 38.38700 28.90400
H  50.24400 35.92800 22.96900
H  46.76500 30.89300 24.50900
H  46.40200 35.84600 31.54700
H  48.88300 37.31000 30.99500
H  46.18600 38.03100 31.41900
H  46.77400 38.82700 29.89100
H  47.61000 39.07900 31.44200
H  49.39200 35.19400 31.80100
H  48.32800 33.80600 31.49400
H  48.99300 34.72400 33.95900
H  47.63600 33.65400 33.50300
H  50.21300 40.67200 26.49200
H  51.74000 39.93400 26.93000
H  50.38000 39.93600 28.10900
H  52.89700 39.48800 25.07600
H  51.37600 40.38200 24.47200
H  52.78000 39.95200 23.41000
H  50.34500 33.43900 22.32700
H  47.76100 31.87900 22.37200
H  47.94900 33.57500 20.70500
H  49.54100 34.30900 20.58500
H  48.25000 35.20400 21.32600
H  49.78500 30.66100 24.11800
H  50.77400 31.66000 23.03500
H  50.67700 30.16300 21.31000
H  48.87900 30.03800 21.39700
H  49.94600 29.23400 22.53100
H  44.43600 30.41700 25.56700
H  44.15400 29.80000 27.22800
H  45.57500 29.24300 26.26200
H  44.30900 33.76200 30.39200
H  43.10600 32.16800 33.97600
H  44.39300 32.99600 34.71200
H  44.71100 31.41900 34.06200

