158

Mg 25.32900 0.81500 29.90300
C  27.26600 0.62000 32.67200
C  22.56500 1.61000 32.12800
C  23.09600 0.70600 27.21200
C  27.80300 -0.32700 27.90400
N  25.00800 1.01700 32.16500
C  25.97200 0.90200 33.10500
C  25.51500 1.28800 34.47600
C  23.95700 1.56800 34.31500
C  23.81200 1.46000 32.74600
C  23.16700 0.53200 35.00900
C  26.19700 2.57200 34.97000
C  27.30300 2.54500 36.08700
H  27.11100 3.55300 37.24700
N  23.17000 1.21800 29.73500
C  22.27200 1.44200 30.74900
C  20.95500 1.47900 30.16800
C  21.07700 1.30600 28.76900
C  22.48300 1.06500 28.50900
C  19.71000 1.53700 31.06400
C  19.99200 1.21700 27.70600
O  20.22000 0.99300 26.54000
C  18.53000 1.46100 28.08800
N  25.34400 0.04000 27.93200
C  24.37300 0.21800 26.96600
C  24.89500 -0.11800 25.52400
C  26.40900 -0.46000 25.79900
C  26.58200 -0.28000 27.31800
C  24.17600 -1.26800 24.76300
C  27.41500 0.30000 24.89700
C  27.44400 1.90600 25.07800
N  27.12900 0.18100 30.18600
C  28.08300 -0.17000 29.29600
C  29.32600 -0.30100 29.91200
C  29.06700 0.03400 31.23500
C  27.69300 0.25400 31.34800
C  30.62700 -0.69100 29.23000
C  29.65400 0.21500 32.56100
O  30.80200 0.26700 32.92400
C  28.49300 0.50300 33.54300
C  28.44100 -0.62700 34.47700
O  27.86900 -1.67800 34.23900
O  29.18000 -0.29000 35.66300
C  29.11800 -1.13800 36.86700
H  21.74500 1.86500 32.80200
H  22.44000 0.67100 26.33900
H  28.70600 -0.45000 27.30200
H  25.65800 0.45900 35.16900
H  23.50200 2.52700 34.56300
H  23.52200 0.37500 36.02700
H  22.99800 -0.47800 34.63400
H  22.18800 0.99200 35.14400
H  25.50500 3.36200 35.26100
H  26.74100 3.03000 34.14400
H  28.23800 2.68900 35.54400
H  27.23800 1.60500 36.63500
H  19.10300 2.36700 30.70300
H  19.73300 1.59900 32.15200
H  19.08600 0.68200 30.80500
H  18.09900 0.77900 28.82100
H  17.90300 1.38300 27.20000
H  18.44100 2.45600 28.52400
H  24.77200 0.77200 24.90700
H  26.70100 -1.50300 25.67800
H  23.29100 -1.60300 25.30500
H  24.80400 -2.07400 24.38400
H  23.74500 -0.67100 23.95900
H  27.08200 0.25100 23.86000
H  28.41800 -0.12500 24.93100
H  27.13200 2.34600 24.13100
H  28.40800 2.37200 25.28200
H  26.67200 2.27800 25.75200
H  30.65900 -0.15200 28.28300
H  30.58300 -1.73200 28.90900
H  31.46500 -0.48400 29.89700
H  28.68800 1.48900 33.96300
H  28.38100 -0.70700 37.54500
H  30.02200 -1.12300 37.47600
H  28.94100 -2.14000 36.47500
Mg 17.16800 52.58800 26.47700
C  19.01600 50.88800 29.08700
C  14.76300 53.20400 28.95200
C  15.46500 54.31400 24.22600
C  19.37200 51.43200 24.13300
N  16.87900 52.03100 28.77800
C  17.80300 51.46400 29.63900
C  17.35400 51.67600 31.13900
C  15.80900 52.12700 30.94700
C  15.78000 52.39100 29.45800
C  14.76600 51.19800 31.59100
C  18.17600 52.75100 31.81800
C  18.09300 52.89900 33.35900
H  17.11800 52.05800 34.17200
N  15.49400 53.83900 26.64500
C  14.63500 53.90000 27.70800
C  13.48000 54.72900 27.30600
C  13.73200 55.11700 25.93100
C  14.88000 54.40000 25.53600
C  12.30200 54.98900 28.17800
C  12.94900 56.05400 24.98800
O  13.29700 56.44100 23.88600
C  11.79800 56.83600 25.59100
N  17.29000 52.70800 24.42900
C  16.51700 53.56700 23.73600
C  16.74100 53.28100 22.17400
C  18.26500 52.86200 22.23800
C  18.34100 52.27500 23.65000
C  15.88300 52.21800 21.38700
C  19.24000 54.06600 22.12800
C  20.00900 54.16100 20.81400
N  18.80100 51.38000 26.44900
C  19.66200 51.03000 25.43900
C  20.65900 50.21300 25.98400
C  20.51000 50.14100 27.32200
C  19.33900 50.85400 27.64700
C  21.79500 49.52100 25.24500
C  21.12400 49.69100 28.65500
O  22.23000 49.17400 28.85800
C  20.15400 50.28000 29.81000
C  19.84900 49.23000 30.81900
O  19.44800 48.07900 30.58900
O  20.16400 49.64400 32.05900
C  19.75000 48.75700 33.14900
H  13.96100 53.47000 29.64400
H  14.91100 54.72800 23.38200
H  20.01700 50.98900 23.37100
H  17.48700 50.71400 31.63300
H  15.66800 53.04800 31.51400
H  15.18000 50.63300 32.42600
H  14.45700 50.42000 30.89400
H  13.85600 51.75600 31.81100
H  17.93300 53.71800 31.37800
H  19.22600 52.54300 31.61500
H  17.91400 53.94600 33.60200
H  19.05400 52.69500 33.83000
H  11.44700 55.03800 27.50400
H  12.53400 55.94800 28.64200
H  12.14300 54.18200 28.89200
H  10.91400 56.22500 25.77300
H  11.52800 57.56400 24.82600
H  12.16400 57.35400 26.47700
H  16.59200 54.22700 21.65400
H  18.50000 52.09000 21.50600
H  16.60400 51.67000 20.78000
H  15.05000 52.57800 20.78500
H  15.45600 51.49500 22.08200
H  19.90500 54.12300 22.99000
H  18.64100 54.97000 22.23700
H  19.85600 55.22800 20.65200
H  19.68500 53.51600 19.99700
H  21.05900 53.93600 20.99800
H  22.57000 50.28700 25.26200
H  21.54000 49.25800 24.21900
H  22.06100 48.59100 25.74800
H  20.70900 51.07400 30.30900
H  20.56400 48.03600 33.21800
H  18.73300 48.38200 33.03200
H  19.81900 49.42500 34.00800

