158

Mg 24.78400 -4.25400 45.79700
C  26.78400 -1.84100 44.24900
C  22.05100 -3.05300 43.71500
C  23.15200 -7.24500 46.07800
C  27.64200 -5.65800 47.32600
N  24.39000 -2.60000 44.15300
C  25.50900 -1.82600 43.69600
C  24.98900 -0.81300 42.69600
C  23.36700 -0.92900 42.83700
C  23.21100 -2.30800 43.56900
C  22.70000 0.24600 43.67800
C  25.68000 -1.07400 41.33000
C  24.75000 -1.26500 40.08800
H  25.41000 -1.32300 38.71300
N  22.78300 -4.99900 45.17700
C  21.88200 -4.37200 44.31200
C  20.68100 -5.19000 44.23700
C  20.93300 -6.36900 45.02700
C  22.34500 -6.28200 45.40900
C  19.55400 -4.95500 43.33300
C  19.97500 -7.43600 45.28800
O  18.86400 -7.36900 44.80700
C  20.34600 -8.59000 46.18300
N  25.22300 -6.10700 46.71500
C  24.36500 -7.18000 46.67400
C  25.10300 -8.42200 47.25900
C  26.54400 -7.98500 47.56400
C  26.48900 -6.51600 47.17900
C  24.35900 -9.06900 48.48200
C  27.62000 -8.89100 46.81000
C  28.72300 -9.54100 47.64300
N  26.76000 -3.68500 45.98000
C  27.80600 -4.36200 46.68800
C  29.01500 -3.56500 46.52400
C  28.70200 -2.59100 45.61000
C  27.32200 -2.73300 45.23700
C  30.34000 -3.83600 47.15800
C  29.17100 -1.45200 44.81300
O  30.24300 -0.88300 44.79700
C  27.94000 -1.00400 43.87000
C  27.56600 0.42300 43.94700
O  27.09000 0.91100 44.93700
O  27.87100 1.09900 42.77900
C  27.52400 2.53100 42.89400
H  21.16900 -2.55500 43.30700
H  22.66900 -8.21200 46.23300
H  28.50100 -6.03700 47.88300
H  25.19000 0.18100 43.09400
H  22.84000 -1.08500 41.89600
H  22.38300 0.89800 42.86400
H  23.39100 0.88100 44.23300
H  21.84900 0.04400 44.32800
H  26.39700 -1.89500 41.34600
H  26.28800 -0.18700 41.15400
H  23.95700 -0.51900 40.13100
H  24.30900 -2.24100 40.29100
H  18.66600 -4.77700 43.93900
H  19.41000 -5.67700 42.52900
H  19.66300 -4.05100 42.73300
H  19.41900 -9.09900 46.44900
H  20.90500 -8.48100 47.11300
H  20.64500 -9.42300 45.54600
H  25.02600 -9.11800 46.42300
H  26.74800 -7.97900 48.63400
H  24.79300 -8.93700 49.47300
H  24.30700 -10.15200 48.37100
H  23.32700 -8.73800 48.60000
H  28.06100 -8.24500 46.05100
H  27.15100 -9.62700 46.15600
H  28.94300 -8.92300 48.51400
H  29.60800 -9.73600 47.03900
H  28.51800 -10.53400 48.04400
H  31.06800 -3.92200 46.35100
H  30.40400 -4.71900 47.79400
H  30.48000 -3.00000 47.84300
H  28.18000 -1.26500 42.84000
H  28.08700 3.07700 42.13800
H  28.11300 2.89600 43.73500
H  26.43800 2.60500 42.95100
Mg 16.45900 -2.03800 27.53600
C  15.42200 -0.04900 30.27700
C  18.77600 -3.46600 29.75700
C  17.56600 -3.90500 25.01700
C  14.63700 0.03400 25.39500
N  17.02500 -1.72800 29.81600
C  16.42600 -0.90200 30.67400
C  17.00100 -1.12000 32.05700
C  18.15500 -2.15800 31.89600
C  17.97100 -2.50200 30.39100
C  19.54600 -1.73900 32.32600
C  15.94200 -1.39300 33.11400
C  15.88000 -0.42000 34.32400
H  17.15300 0.26100 34.72100
N  17.83500 -3.56900 27.37000
C  18.71900 -3.93700 28.36700
C  19.53400 -5.09000 27.86100
C  19.18500 -5.23200 26.45900
C  18.12900 -4.23800 26.21300
C  20.59800 -5.75500 28.56900
C  19.64800 -6.21500 25.40400
O  19.22500 -6.20200 24.26100
C  20.62600 -7.25300 25.78300
N  16.01400 -1.95800 25.49200
C  16.67600 -2.85300 24.64500
C  16.33900 -2.48100 23.15700
C  15.27200 -1.33500 23.30400
C  15.35400 -1.02900 24.79700
C  17.61800 -2.17200 22.36300
C  13.78900 -1.56900 22.85800
C  13.07100 -2.67500 23.66800
N  15.26100 -0.40200 27.72700
C  14.52700 0.28100 26.76100
C  13.61800 1.22800 27.40700
C  14.00400 1.14800 28.79900
C  14.96500 0.12100 28.91900
C  12.64900 2.24900 26.70600
C  13.76900 1.72700 30.12000
O  13.01100 2.66200 30.41800
C  14.65700 1.00700 31.13900
C  15.49900 2.10600 31.67900
O  16.59200 2.42300 31.20200
O  14.93400 2.64800 32.76100
C  15.60100 3.71800 33.42500
H  19.38900 -3.96500 30.51100
H  17.98900 -4.32600 24.10200
H  14.03300 0.70700 24.78300
H  17.29500 -0.08000 32.20200
H  17.92600 -3.09700 32.40000
H  20.07500 -1.59700 31.38300
H  19.94400 -2.57200 32.90500
H  19.52200 -0.78200 32.84700
H  15.90800 -2.41400 33.49500
H  14.97500 -1.18900 32.65400
H  15.47700 -0.97800 35.16800
H  15.21600 0.39600 34.03600
H  20.99800 -5.24700 29.44700
H  21.42200 -6.01000 27.90200
H  20.30100 -6.73800 28.93500
H  20.39800 -7.83300 26.67800
H  21.63800 -6.85600 25.86500
H  20.62600 -7.90000 24.90600
H  15.96100 -3.41300 22.73700
H  15.61900 -0.47200 22.73600
H  18.50000 -2.34700 22.97900
H  17.43900 -1.16100 21.99600
H  17.72800 -2.87000 21.53300
H  13.63500 -1.52000 21.78000
H  13.29900 -0.65600 23.19800
H  12.21100 -2.23500 24.17300
H  13.77300 -3.04500 24.41400
H  12.73900 -3.48800 23.02100
H  11.70600 1.83800 27.06700
H  12.54300 2.02100 25.64500
H  12.73300 3.33500 26.74100
H  14.00900 0.67700 31.95100
H  15.35500 4.70600 33.03600
H  16.66600 3.49200 33.45600
H  15.16000 3.81300 34.41800

