158

Mg -0.01000 7.40800 27.31800
C  1.08700 9.56600 29.91300
C  -0.12800 4.82200 29.73300
C  -0.65800 5.33700 24.82100
C  0.56600 9.95200 25.09300
N  0.60700 7.21800 29.56400
C  0.80300 8.31900 30.44700
C  0.64100 7.89900 31.89900
C  0.51100 6.36400 31.77800
C  0.36500 6.05700 30.26600
C  1.66100 5.58900 32.41400
C  -0.61800 8.58500 32.54400
C  -0.52800 8.91100 34.06900
H  0.66000 8.46700 34.91400
N  -0.35500 5.33200 27.25300
C  -0.35200 4.48400 28.28900
C  -0.59400 3.13000 27.77800
C  -0.74800 3.27400 26.35700
C  -0.55500 4.69800 26.08700
C  -0.54600 1.92100 28.68000
C  -1.08800 2.17200 25.38300
O  -1.20700 2.42800 24.19800
C  -1.33500 0.74500 25.81500
N  0.01200 7.59100 25.28000
C  -0.26400 6.58300 24.41800
C  -0.31500 7.02900 22.99500
C  -0.24100 8.59600 23.13500
C  0.09500 8.74500 24.58500
C  0.83200 6.48500 22.14400
C  -1.57300 9.37900 22.79000
C  -1.41500 10.62400 21.87000
N  0.78000 9.34700 27.37200
C  0.95000 10.25700 26.39500
C  1.33000 11.51200 26.96400
C  1.36900 11.30300 28.37100
C  1.04400 9.97200 28.57100
C  1.69900 12.75000 26.18600
C  1.68400 11.95200 29.65600
O  2.21500 13.03800 29.92900
C  1.39700 10.88500 30.75800
C  2.59300 10.82600 31.65300
O  3.40900 9.92300 31.62800
O  2.48300 11.73300 32.70600
C  3.46400 11.64900 33.76900
H  -0.30700 3.98200 30.40700
H  -0.91500 4.67200 23.99300
H  0.60300 10.79400 24.39800
H  1.55300 8.21500 32.40500
H  -0.36600 6.02400 32.32900
H  2.19800 6.16300 33.16900
H  2.25200 5.35100 31.52900
H  1.27100 4.67700 32.86500
H  -1.43200 7.88700 32.34700
H  -0.83500 9.46300 31.93600
H  -1.40600 8.45000 34.52200
H  -0.61900 9.99700 34.05600
H  0.20700 1.28000 28.22200
H  -1.53400 1.46000 28.63900
H  -0.31200 2.04900 29.73700
H  -1.85200 0.19100 25.03100
H  -1.88700 0.58200 26.74000
H  -0.32400 0.36800 25.96700
H  -1.27100 6.72300 22.56900
H  0.57600 9.04200 22.56900
H  1.68100 7.15100 22.29600
H  0.58100 6.39300 21.08700
H  1.11100 5.49000 22.48900
H  -1.99100 9.79600 23.70600
H  -2.30200 8.69300 22.35900
H  -0.37300 10.75400 21.57700
H  -1.72500 11.50700 22.43000
H  -2.10900 10.50800 21.03800
H  0.73600 13.10900 25.82400
H  2.21900 12.41300 25.28900
H  2.29200 13.43700 26.79100
H  0.61400 11.25100 31.42200
H  3.08400 11.11000 34.63700
H  3.77800 12.66500 34.00900
H  4.35400 11.12400 33.42300
Mg 27.11200 50.75100 25.63600
C  25.02900 51.90900 28.26700
C  29.49700 49.93600 28.15900
C  29.23300 50.23300 23.06900
C  24.97100 52.37700 23.34700
N  27.27900 50.89300 27.95100
C  26.23100 51.34500 28.77200
C  26.61900 51.02400 30.25600
C  28.18000 50.79400 30.20000
C  28.37700 50.52700 28.68900
C  29.15000 51.92100 30.62500
C  25.91400 49.81000 30.99900
C  25.23800 49.98700 32.35800
H  25.97100 50.63600 33.52500
N  29.08800 49.99300 25.63500
C  29.88400 49.65800 26.75700
C  31.03100 49.00100 26.18700
C  30.91500 49.10000 24.74700
C  29.71200 49.81600 24.40700
C  32.15500 48.38000 27.01200
C  31.86400 48.53800 23.64900
O  31.68100 48.74600 22.44200
C  33.09400 47.72000 23.98200
N  27.09900 51.14000 23.56100
C  28.09300 50.88100 22.76400
C  27.84700 51.22600 21.26000
C  26.39300 51.77000 21.39100
C  26.09700 51.76700 22.89400
C  28.90000 52.26000 20.65700
C  25.28400 51.12800 20.52600
C  24.85900 49.72300 20.90300
N  25.36400 51.96900 25.72000
C  24.61000 52.49300 24.70300
C  23.44100 53.14800 25.25900
C  23.53000 52.87000 26.66500
C  24.69800 52.11200 26.90200
C  22.40800 53.82400 24.41700
C  22.90400 53.02800 27.95900
O  21.81400 53.56700 28.21100
C  23.78400 52.20700 29.01200
C  24.00200 53.07100 30.11200
O  24.78800 53.92800 30.19300
O  23.27800 52.58700 31.18600
C  23.57700 53.15400 32.50300
H  30.36200 49.68400 28.77700
H  29.97000 50.09400 22.27500
H  24.34700 52.97100 22.67600
H  26.36900 51.90900 30.84000
H  28.46000 49.90500 30.76600
H  28.61500 52.86200 30.75700
H  29.94400 52.20000 29.93300
H  29.62800 51.78500 31.59600
H  26.52500 48.91100 31.08600
H  25.19500 49.48900 30.24500
H  25.03400 48.95700 32.65100
H  24.29000 50.50400 32.20600
H  32.07900 47.31900 26.77500
H  31.99400 48.46800 28.08700
H  33.13900 48.72300 26.69600
H  33.97400 48.30200 24.25200
H  33.29000 47.07700 23.12400
H  32.76600 47.04200 24.77000
H  27.96200 50.29800 20.69900
H  26.35200 52.83700 21.17300
H  28.37100 53.15200 20.32200
H  29.48100 51.96200 19.78500
H  29.66600 52.43900 21.41100
H  25.72600 51.04800 19.53300
H  24.48300 51.82400 20.27700
H  24.86000 49.07400 20.02700
H  23.90000 49.72200 21.42200
H  25.55500 49.23100 21.58200
H  22.73300 54.86200 24.48600
H  21.48200 53.69900 24.97900
H  22.37900 53.45900 23.39100
H  23.34300 51.27900 29.37500
H  24.54100 53.66300 32.52600
H  23.76000 52.37100 33.24000
H  22.75700 53.79900 32.81900

