158

Mg 35.97400 2.47600 30.62300
C  33.51100 3.83600 32.93400
C  38.16300 2.41400 33.42000
C  38.49200 2.03100 28.57700
C  33.61700 2.78100 28.13800
N  35.85700 3.13000 32.84200
C  34.73600 3.53900 33.56800
C  34.96500 3.64300 35.09500
C  36.53400 3.52000 35.09100
C  36.87400 2.83900 33.74000
C  37.34900 4.78200 35.41800
C  34.11700 2.55700 35.87900
C  33.58300 2.90000 37.27900
H  34.28100 3.93500 38.19600
N  37.96000 2.10800 30.91400
C  38.66500 2.11800 32.12800
C  39.96100 1.45400 31.85500
C  40.10700 1.39000 30.50900
C  38.87000 1.88300 29.90700
C  40.95000 1.07600 33.01100
C  41.27700 0.87800 29.79500
O  41.28200 0.68700 28.59500
C  42.69000 0.55600 30.54100
N  36.06000 2.56000 28.60100
C  37.23600 2.24500 27.99900
C  36.93000 2.14400 26.48800
C  35.38800 2.20900 26.32400
C  34.96300 2.42600 27.85500
C  37.72600 3.31900 25.65800
C  34.75600 0.86200 25.70800
C  33.53500 1.11900 24.76600
N  33.98900 3.27600 30.44900
C  33.15100 3.20800 29.36200
C  31.82900 3.61600 29.74200
C  31.98400 3.98700 31.10600
C  33.30400 3.72400 31.49400
C  30.70200 3.66200 28.76800
C  31.20500 4.51800 32.25500
O  30.04500 4.92600 32.41000
C  32.19800 4.40700 33.50800
C  32.33300 5.79500 34.00000
O  32.78200 6.78700 33.40200
O  31.90300 5.77500 35.27500
C  31.92100 7.08500 35.93000
H  38.78500 2.36300 34.31600
H  39.29200 1.90500 27.84400
H  32.97300 2.78500 27.25700
H  34.61300 4.63300 35.38500
H  36.69700 2.77600 35.87100
H  36.73700 5.67400 35.55300
H  38.01100 5.09100 34.60900
H  37.91800 4.79300 36.34700
H  34.73800 1.67200 36.02000
H  33.30900 2.15300 35.26900
H  33.46900 1.96000 37.81800
H  32.55000 3.23100 37.17600
H  40.46700 1.18000 33.98300
H  41.73300 1.83400 33.00100
H  41.43700 0.10300 32.94300
H  42.71900 -0.40400 31.05500
H  42.94500 1.33400 31.26000
H  43.45900 0.59500 29.76800
H  37.23700 1.14100 26.19200
H  35.07900 3.05900 25.71600
H  37.14200 4.23600 25.58700
H  37.95400 2.90900 24.67400
H  38.63600 3.55600 26.21000
H  34.44200 0.21800 26.53000
H  35.50200 0.39500 25.06500
H  33.76300 1.07900 23.70100
H  33.04800 2.06200 25.01400
H  32.81600 0.36300 25.08100
H  29.93700 4.37300 29.08100
H  30.31300 2.64400 28.74300
H  31.12700 3.98400 27.81800
H  31.65900 3.84600 34.27100
H  32.86700 7.55000 36.20700
H  31.37500 6.81300 36.83400
H  31.43600 7.80900 35.27500
Mg -10.68300 18.20000 40.31200
C  -7.13600 17.93000 40.20100
C  -10.28600 21.38200 39.32800
C  -13.96700 18.20700 39.68500
C  -10.83700 14.65400 40.40800
N  -8.82200 19.53000 39.73800
C  -7.52400 19.23800 39.91300
C  -6.62500 20.38800 39.35300
C  -7.73500 21.53500 39.36700
C  -9.07300 20.81500 39.52200
C  -7.44400 22.63400 40.50100
C  -6.00600 20.10900 37.87800
C  -4.41600 19.90100 37.85200
H  -3.98000 18.73800 36.99700
N  -11.96200 19.62100 39.77700
C  -11.64300 20.89300 39.46500
C  -12.83200 21.73800 39.31300
C  -13.94900 20.84100 39.41000
C  -13.32600 19.44300 39.56900
C  -12.85500 23.15500 39.25200
C  -15.43200 21.23700 39.18100
O  -15.71500 22.42600 38.96400
C  -16.54300 20.29400 39.26000
N  -12.29600 16.64100 40.09800
C  -13.59100 16.94000 39.91800
C  -14.47300 15.64200 40.00000
C  -13.37700 14.50900 40.24900
C  -12.06900 15.31600 40.28600
C  -15.55500 15.66900 41.07700
C  -13.46700 13.32200 39.34500
C  -13.69600 11.94300 40.10800
N  -9.31500 16.57500 40.36000
C  -9.51500 15.21500 40.40100
C  -8.24000 14.50500 40.56000
C  -7.29900 15.56400 40.57300
C  -8.00600 16.76200 40.33900
C  -8.01500 13.06000 40.68600
C  -5.81400 15.85800 40.61700
O  -4.89300 14.99600 40.65200
C  -5.72200 17.43200 40.47500
C  -5.16700 18.10300 41.73300
O  -4.56600 19.16500 41.69800
O  -5.49700 17.40100 42.86900
C  -5.27200 18.10200 44.17500
H  -10.25000 22.36800 38.85900
H  -15.05800 18.20000 39.63800
H  -10.92200 13.56800 40.47600
H  -5.78700 20.62500 40.00900
H  -7.77600 22.10600 38.44000
H  -6.56400 22.33000 41.06800
H  -8.27900 22.62300 41.20200
H  -7.25300 23.62900 40.10000
H  -6.23600 20.99100 37.28000
H  -6.56700 19.30300 37.40700
H  -4.08500 19.62400 38.85300
H  -3.97400 20.77100 37.36600
H  -13.32200 23.75500 38.47000
H  -11.80600 23.45400 39.26300
H  -13.38200 23.43300 40.16400
H  -16.48900 19.66700 38.37000
H  -17.50400 20.77200 39.07100
H  -16.42100 19.67500 40.15000
H  -14.93800 15.60800 39.01500
H  -13.46600 14.07100 41.24300
H  -15.89400 16.67800 41.31300
H  -15.34500 15.21200 42.04300
H  -16.39000 15.13700 40.62100
H  -12.52700 13.19200 38.80800
H  -14.29100 13.50700 38.65600
H  -14.11900 12.08000 41.10400
H  -12.70700 11.48900 40.15600
H  -14.34500 11.34900 39.46400
H  -8.50000 12.72200 41.60200
H  -6.96700 12.78300 40.79400
H  -8.38100 12.56600 39.78600
H  -5.03200 17.68600 39.67000
H  -6.17000 18.40200 44.71400
H  -4.53200 18.89600 44.07600
H  -4.71200 17.33100 44.70500

