158

Mg -0.13400 7.42400 26.57500
C  0.92700 9.52500 29.23200
C  -0.57400 5.02900 28.82600
C  -0.95500 5.47400 24.02600
C  0.16500 10.15400 24.37500
N  0.23500 7.37400 28.76900
C  0.50400 8.33700 29.69300
C  0.45100 7.82500 31.09900
C  -0.03700 6.30500 30.89700
C  -0.14600 6.17400 29.37900
C  0.79300 5.14500 31.63000
C  -0.50500 8.62000 32.11800
C  0.09400 8.81100 33.55900
H  1.20300 7.93000 34.13300
N  -0.65500 5.47100 26.43800
C  -0.78100 4.64300 27.52600
C  -1.31500 3.34400 27.04300
C  -1.54100 3.42300 25.62400
C  -0.99000 4.77200 25.32200
C  -1.64400 2.25100 28.05200
C  -2.18300 2.42300 24.67000
O  -2.30900 2.67600 23.48900
C  -2.67200 1.08900 25.11400
N  -0.29300 7.81100 24.46700
C  -0.73800 6.81500 23.68600
C  -1.12800 7.38100 22.26400
C  -0.75600 8.88600 22.35400
C  -0.36400 8.99700 23.85400
C  -0.33800 6.64900 21.18500
C  -2.05500 9.76400 22.15000
C  -2.06600 10.72700 20.97100
N  0.54700 9.36200 26.63700
C  0.60400 10.38600 25.70100
C  1.10700 11.61000 26.27100
C  1.32100 11.28200 27.67700
C  0.93200 9.96200 27.83500
C  1.39700 12.97000 25.59400
C  1.64100 11.91300 28.96400
O  2.06200 13.03800 29.23000
C  1.37200 10.73100 30.01900
C  2.65800 10.45100 30.71200
O  3.54300 9.77800 30.19100
O  2.66000 11.06900 31.98100
C  3.89000 10.91700 32.72400
H  -0.82800 4.29200 29.59100
H  -1.17600 4.81000 23.18700
H  0.10800 11.05000 23.75400
H  1.47600 7.78400 31.46700
H  -1.03000 6.13100 31.31200
H  1.66600 5.56100 32.13200
H  1.13500 4.37000 30.94400
H  0.17100 4.69300 32.40300
H  -1.51200 8.21200 32.21200
H  -0.72400 9.63700 31.79200
H  -0.65000 8.63600 34.33700
H  0.44900 9.84100 33.58500
H  -2.68600 2.26800 28.37400
H  -1.08300 2.33400 28.98300
H  -1.36900 1.31400 27.56900
H  -1.93000 0.36500 25.45000
H  -3.20000 0.61900 24.28500
H  -3.48300 1.36000 25.79100
H  -2.20400 7.22000 22.18900
H  0.06100 9.17900 21.69500
H  -0.94100 6.02400 20.52700
H  0.49400 6.08000 21.60000
H  0.23000 7.27700 20.49800
H  -2.09000 10.46500 22.98400
H  -2.93500 9.12000 22.14500
H  -3.01400 10.45600 20.50500
H  -1.28700 10.51300 20.23900
H  -2.07500 11.79500 21.18600
H  1.28500 13.78800 26.30500
H  0.65800 13.09300 24.80300
H  2.44000 12.99700 25.27700
H  0.55000 11.09900 30.63400
H  4.13000 11.97200 32.86000
H  4.67400 10.34500 32.22800
H  3.50300 10.50800 33.65700
Mg 29.99900 58.19600 40.00800
C  27.03400 56.37600 39.28900
C  31.77900 55.88800 38.16400
C  32.64700 60.25600 39.94300
C  28.00800 60.82800 40.97500
N  29.41800 56.31200 38.94200
C  28.18200 55.71700 38.77100
C  28.24900 54.36600 38.05500
C  29.77500 54.21000 37.92100
C  30.36200 55.58800 38.29500
C  30.34600 52.99700 38.70200
C  27.60900 54.22100 36.60600
C  27.18000 55.49100 35.90200
H  27.56900 55.59900 34.40100
N  32.00800 57.94100 39.43700
C  32.55300 56.92500 38.70400
C  33.93600 57.08600 38.54000
C  34.26000 58.35000 39.07400
C  32.96200 58.91900 39.54800
C  34.90200 56.08600 37.93500
C  35.67700 58.99600 39.10500
O  36.65000 58.47400 38.60700
C  35.86400 60.29300 39.84700
N  30.27700 60.20700 40.31700
C  31.50000 60.77000 40.39800
C  31.40500 62.25400 40.95500
C  29.88500 62.35600 41.23000
C  29.36100 61.05900 40.76900
C  32.39300 62.52700 42.13200
C  29.25200 63.63600 40.52000
C  28.12300 64.36500 41.24500
N  27.87800 58.57000 40.28000
C  27.24400 59.67900 40.67600
C  25.84900 59.40700 40.84400
C  25.72900 58.08500 40.34500
C  27.01100 57.67400 39.88400
C  24.72400 60.30700 41.44300
C  24.82200 57.00800 40.12400
O  23.64000 56.90500 40.33900
C  25.63200 55.92000 39.34600
C  25.42100 54.59800 39.83700
O  25.94300 54.09100 40.82100
O  24.54000 53.93200 38.99900
C  23.87700 52.72500 39.58500
H  32.38700 55.23400 37.53500
H  33.35800 61.06300 40.12900
H  27.39000 61.69700 41.20600
H  27.76000 53.62100 38.68300
H  30.12200 54.10400 36.89300
H  31.07800 52.36700 38.19800
H  29.58900 52.28400 39.02900
H  30.55800 53.34600 39.71300
H  26.71800 53.67300 36.91200
H  28.17000 53.58600 35.92100
H  27.45300 56.42400 36.39500
H  26.09100 55.48100 35.84900
H  35.57500 55.68400 38.69200
H  35.59500 56.52000 37.21400
H  34.49300 55.21700 37.41800
H  36.92600 60.46700 40.02500
H  35.26200 60.22800 40.75300
H  35.43200 61.08000 39.22800
H  31.62000 62.98700 40.17700
H  29.65800 62.47000 42.29000
H  31.92100 63.12100 42.91500
H  33.30500 62.99200 41.75900
H  32.70600 61.52300 42.42100
H  28.86700 63.27500 39.56600
H  29.89100 64.49400 40.31000
H  28.40000 65.40600 41.41000
H  28.14400 64.01800 42.27800
H  27.17100 64.11400 40.77800
H  23.85700 59.67400 41.62700
H  24.48500 61.13300 40.77300
H  25.17600 60.73100 42.34000
H  25.12600 55.87900 38.38100
H  24.60000 52.39900 40.33200
H  23.74900 51.86200 38.93100
H  22.89400 52.98800 39.97700

