158

Mg 40.30600 9.27500 28.96400
C  42.04800 10.51100 31.66700
C  38.39100 7.36000 31.20300
C  38.61600 8.03400 26.39900
C  42.69600 10.68400 26.80800
N  40.41200 8.85200 31.20200
C  41.01700 9.66700 32.07500
C  40.32000 9.68700 33.47000
C  39.15000 8.59300 33.28200
C  39.31500 8.17400 31.80600
C  39.25200 7.33600 34.17500
C  39.88200 11.12600 34.01700
C  38.86100 11.23600 35.15900
H  39.36900 11.98100 36.46500
N  38.67500 7.97900 28.85200
C  38.12500 7.27100 29.86500
C  36.98100 6.45100 29.24400
C  36.99900 6.67500 27.84200
C  38.11200 7.60400 27.64800
C  36.09100 5.46000 30.16700
C  36.08900 6.05600 26.83100
O  36.24700 6.20500 25.59400
C  34.92600 5.05400 27.17800
N  40.58100 9.42200 26.89800
C  39.79100 8.75900 26.05400
C  40.28300 8.84700 24.63100
C  41.51100 9.77200 24.75100
C  41.57000 10.07600 26.25500
C  40.48600 7.46800 23.92000
C  41.64300 11.01200 23.81600
C  40.65900 12.19300 24.01400
N  42.09400 10.25000 29.14200
C  42.91500 10.81600 28.14400
C  44.00600 11.50400 28.80400
C  43.66500 11.47200 30.14500
C  42.50200 10.68200 30.32800
C  45.31400 12.06800 28.14600
C  44.03000 11.87700 31.56800
O  44.95000 12.51800 31.94400
C  42.81400 11.51000 32.48900
C  43.51900 10.95600 33.75200
O  44.01200 9.89200 34.02600
O  43.48400 11.96600 34.67700
C  43.75400 11.52800 36.00000
H  37.74800 6.98700 32.00200
H  38.12000 7.59700 25.53000
H  43.40700 11.11400 26.09900
H  41.11800 9.29600 34.10200
H  38.20600 9.13700 33.31900
H  38.26300 7.03000 34.51500
H  39.78400 7.56700 35.09800
H  39.77000 6.48200 33.73800
H  39.53900 11.78300 33.21800
H  40.85000 11.56500 34.26000
H  38.50300 10.25700 35.48000
H  38.01000 11.80300 34.78200
H  36.46800 4.43800 30.12800
H  35.08500 5.37200 29.75500
H  35.93700 5.78200 31.19700
H  35.26200 4.33100 27.92100
H  34.62400 4.52200 26.27600
H  34.15100 5.65000 27.66000
H  39.56900 9.39700 24.01800
H  42.42400 9.19000 24.62700
H  40.00400 7.63200 22.95600
H  40.02800 6.71400 24.55900
H  41.54100 7.20500 23.84500
H  41.37600 10.69700 22.80700
H  42.62900 11.46900 23.90600
H  41.09800 12.98200 24.62400
H  39.82000 11.80700 24.59300
H  40.38800 12.73400 23.10700
H  45.30500 11.95000 27.06200
H  46.24200 11.58800 28.45800
H  45.25400 13.14400 28.30600
H  42.27000 12.43500 32.68200
H  43.16900 10.64700 36.26100
H  43.68300 12.37100 36.68700
H  44.81900 11.29800 36.03800
Mg 27.19400 49.88900 26.62200
C  25.07900 51.07200 29.22300
C  29.44800 48.99400 28.98400
C  29.09600 49.34300 24.12800
C  24.69800 51.24100 24.33400
N  27.22000 50.14400 28.90100
C  26.17400 50.43600 29.71700
C  26.50900 49.96200 31.20600
C  28.04400 49.48000 31.14900
C  28.19100 49.43000 29.57300
C  29.00700 50.45700 31.76400
C  25.53000 48.91000 31.71200
C  24.59100 49.26600 32.92000
H  24.61300 48.44400 34.29500
N  29.03700 49.43100 26.59100
C  29.87600 49.08600 27.62300
C  31.21800 48.84600 27.12700
C  31.18000 48.95500 25.68500
C  29.73900 49.20900 25.40100
C  32.38400 48.40000 28.06400
C  32.25200 48.92500 24.54100
O  31.91800 49.21600 23.36600
C  33.75900 48.56300 24.81900
N  26.91800 50.07400 24.48600
C  27.84900 49.73100 23.67500
C  27.42600 49.85900 22.16000
C  25.88000 50.18100 22.35000
C  25.81700 50.48600 23.82800
C  28.24300 50.92900 21.37900
C  24.95400 49.06400 21.93400
C  23.60300 49.62400 21.40000
N  25.39100 50.97700 26.68700
C  24.51700 51.47200 25.69000
C  23.41200 52.12800 26.26800
C  23.63400 52.05900 27.63000
C  24.80300 51.29600 27.84800
C  22.28100 52.74700 25.53000
C  23.05900 52.36600 28.91500
O  22.00800 52.98600 29.23300
C  23.93700 51.74700 30.01800
C  24.43600 52.73700 31.06600
O  25.30000 53.60400 30.98700
O  23.61300 52.59900 32.18500
C  23.90100 53.50900 33.26900
H  30.17600 48.64900 29.72100
H  29.70100 49.09000 23.25500
H  23.96100 51.69300 23.66700
H  26.47400 50.76800 31.93900
H  28.27000 48.46300 31.47100
H  28.42400 51.15500 32.36500
H  29.49000 51.04600 30.98500
H  29.81000 49.98500 32.32900
H  25.96200 47.91800 31.84600
H  24.82700 48.67500 30.91300
H  23.60600 49.51000 32.52300
H  24.90900 50.24700 33.27200
H  32.34800 47.31500 28.17000
H  32.20200 48.91100 29.01000
H  33.35800 48.66600 27.65400
H  34.21800 49.53400 25.00300
H  34.09000 47.95100 23.98000
H  33.87500 47.92100 25.69200
H  27.48200 48.86900 21.70600
H  25.69800 51.07800 21.75800
H  28.99000 51.29200 22.08400
H  27.69100 51.79000 21.00400
H  28.77100 50.45900 20.54800
H  24.62500 48.43600 22.76200
H  25.40800 48.39700 21.20100
H  22.82500 48.86900 21.50900
H  23.55000 49.91200 20.35000
H  23.32300 50.57200 21.86000
H  22.59700 53.72000 25.15300
H  21.36000 52.78400 26.11100
H  22.04300 52.12700 24.66500
H  23.30400 50.96900 30.44300
H  23.03700 53.63500 33.92200
H  24.25800 54.50500 33.00600
H  24.60800 53.07700 33.97600

