158

Mg 24.41400 -5.42700 45.85000
C  26.79800 -3.02800 44.47700
C  22.16700 -4.01000 43.63100
C  22.62800 -8.15800 46.31700
C  27.23800 -6.85500 47.51200
N  24.48700 -3.72900 44.28200
C  25.55400 -2.95000 43.90000
C  25.20400 -2.07500 42.71800
C  23.65300 -2.04600 42.64200
C  23.39600 -3.28300 43.64700
C  23.10000 -0.76300 43.07800
C  25.76800 -2.77300 41.43800
C  26.65500 -1.86000 40.45200
H  26.00700 -1.56600 39.08900
N  22.53000 -5.96200 45.21100
C  21.81100 -5.30400 44.23400
C  20.55700 -6.01500 44.11700
C  20.69200 -7.16900 44.93600
C  21.97000 -7.13000 45.56600
C  19.47500 -5.62800 43.18400
C  19.52500 -8.15100 45.14200
O  18.55800 -8.14200 44.38900
C  19.42600 -9.14100 46.37200
N  24.86400 -7.17300 46.86700
C  23.91800 -8.12100 47.01300
C  24.46300 -9.31400 47.83800
C  25.87300 -8.84300 48.31900
C  26.01800 -7.60300 47.50200
C  23.53200 -9.76700 48.99800
C  26.96800 -9.89000 47.98800
C  28.05100 -10.17000 49.13000
N  26.64800 -4.94900 46.17200
C  27.51500 -5.62300 46.89200
C  28.74000 -4.86400 46.76500
C  28.48900 -3.85400 45.85300
C  27.22900 -3.98300 45.47000
C  29.93300 -5.39400 47.53100
C  29.13100 -2.74600 45.24300
O  30.29700 -2.35400 45.27300
C  28.01500 -2.11800 44.26900
C  27.87700 -0.66900 44.70800
O  28.46000 0.27800 44.26600
O  26.94300 -0.58200 45.78500
C  26.95600 0.71500 46.46000
H  21.40400 -3.61300 42.95800
H  22.15400 -9.13800 46.40400
H  28.06900 -7.42000 47.94000
H  25.55600 -1.05500 42.87500
H  23.30500 -2.30400 41.64200
H  22.19900 -0.85700 43.68400
H  22.69900 -0.22500 42.21900
H  23.77300 -0.11200 43.63600
H  25.06800 -3.35200 40.83600
H  26.54600 -3.43200 41.82300
H  27.57700 -2.40500 40.24800
H  26.87200 -0.91700 40.95400
H  19.52700 -6.29600 42.32400
H  19.62600 -4.59500 42.87000
H  18.49300 -5.64900 43.65600
H  20.01100 -8.86000 47.24800
H  19.69600 -10.17900 46.18100
H  18.35100 -9.20000 46.54200
H  24.50300 -10.15400 47.14400
H  25.80500 -8.67600 49.39400
H  22.56900 -9.26500 48.90600
H  23.79500 -9.57000 50.03800
H  23.24500 -10.81700 48.94200
H  27.54300 -9.38400 47.21200
H  26.65600 -10.85100 47.58000
H  28.15800 -11.23900 49.31400
H  27.78700 -9.60200 50.02200
H  28.93900 -9.62100 48.81600
H  30.29900 -6.29900 47.04700
H  29.68300 -5.59400 48.57300
H  30.73000 -4.68200 47.31500
H  28.25200 -2.10700 43.20500
H  26.02400 0.89000 46.99700
H  27.09000 1.51200 45.72900
H  27.80200 0.81900 47.14000
Mg 42.12400 40.97400 26.37000
C  41.21900 43.28100 28.94000
C  42.89600 38.66700 28.81000
C  43.15400 39.03700 23.99400
C  41.61300 43.63100 24.02200
N  42.07000 41.01000 28.61100
C  41.59200 41.97800 29.45800
C  41.64200 41.54200 30.92300
C  42.25600 40.09500 30.77800
C  42.54800 39.91400 29.32100
C  43.54200 39.93400 31.54300
C  40.21800 41.57900 31.47200
C  40.02600 42.35700 32.83700
H  39.07800 41.81200 33.91900
N  42.87600 39.09700 26.39700
C  43.05600 38.27200 27.47800
C  43.58700 37.01100 27.00100
C  43.73400 37.13200 25.59700
C  43.17300 38.42800 25.20800
C  43.90600 35.84100 27.95600
C  44.27400 36.04300 24.62400
O  44.18700 36.20400 23.40100
C  44.81000 34.74800 25.17300
N  42.19400 41.23100 24.34700
C  42.66500 40.24000 23.53500
C  42.55600 40.64300 22.07000
C  41.68600 41.93900 22.12700
C  41.87000 42.32800 23.56100
C  43.93800 40.78000 21.36900
C  40.17200 41.64600 21.70000
C  39.36800 40.41800 22.38200
N  41.50000 43.02000 26.41700
C  41.45300 43.93000 25.39600
C  40.95800 45.21600 25.90200
C  40.86200 45.05800 27.36500
C  41.22600 43.62900 27.61100
C  40.65200 46.36400 25.05000
C  40.50200 45.64100 28.60700
O  40.21400 46.80100 28.81600
C  40.64900 44.45800 29.63100
C  41.54900 44.91400 30.79400
O  42.79500 44.81100 30.81400
O  40.80800 45.64700 31.66800
C  41.66700 46.14200 32.84600
H  43.00500 37.92000 29.59900
H  43.62300 38.47300 23.18600
H  41.28800 44.34100 23.25700
H  42.25800 42.21700 31.51800
H  41.51900 39.30700 30.92900
H  43.58800 38.92800 31.96100
H  43.62500 40.66300 32.34900
H  44.42900 39.98700 30.91300
H  39.88800 40.58000 31.75700
H  39.48600 41.97600 30.76800
H  39.49700 43.26800 32.55600
H  41.01300 42.44200 33.29100
H  43.22700 35.04800 27.64200
H  43.53900 35.91900 28.97900
H  44.97100 35.62800 27.85400
H  44.00300 34.16700 25.62000
H  45.65300 34.97400 25.82500
H  45.16000 34.27400 24.25600
H  42.00500 39.82100 21.61400
H  42.05900 42.62500 21.36600
H  44.24200 41.82400 21.29200
H  43.80500 40.29600 20.40100
H  44.57400 40.20300 22.04100
H  40.12400 41.55700 20.61400
H  39.53800 42.52300 21.83200
H  38.89800 39.85700 21.57400
H  38.68100 40.91800 23.06500
H  40.04600 39.80900 22.98000
H  41.30500 46.40300 24.17800
H  40.66100 47.27800 25.64300
H  39.62600 46.20700 24.71700
H  39.69900 44.08700 30.01600
H  41.87700 45.32900 33.54100
H  40.90800 46.78900 33.28400
H  42.47800 46.74200 32.43300

