158

Mg 7.25500 2.70900 27.74400
C  8.81200 1.38100 30.58400
C  5.64200 4.88100 29.75000
C  5.44800 3.60900 24.96500
C  8.60100 0.09600 25.91200
N  7.25300 3.13200 30.04300
C  8.05900 2.43500 30.97800
C  7.87900 3.18100 32.36000
C  6.77900 4.26800 32.06700
C  6.49400 4.10200 30.55800
C  5.41000 4.08100 32.85000
C  9.24100 3.80800 32.91500
C  9.61400 3.38400 34.34300
H  10.26200 4.48600 35.21800
N  5.90000 4.08100 27.36800
C  5.42100 4.98200 28.30900
C  4.66800 5.90500 27.68100
C  4.59400 5.58700 26.28600
C  5.31800 4.30200 26.13900
C  4.07400 7.06000 28.37900
C  3.96000 6.39400 25.14400
O  3.92800 6.02700 24.00500
C  3.40300 7.68400 25.36500
N  6.93200 1.88300 25.72600
C  6.21600 2.50000 24.80900
C  6.32300 1.71500 23.50500
C  7.49200 0.72800 23.68600
C  7.63900 0.90500 25.22700
C  4.99800 0.93200 23.02500
C  8.78200 1.08100 22.92600
C  9.62400 -0.01000 22.15800
N  8.46500 1.08000 28.12300
C  8.94400 0.05500 27.27900
C  9.82800 -0.85400 28.01800
C  9.89600 -0.32100 29.25900
C  9.01600 0.88700 29.30300
C  10.42200 -2.03700 27.37700
C  10.46600 -0.51200 30.59700
O  11.24200 -1.40500 30.92700
C  9.81000 0.58000 31.45300
C  9.16200 0.03700 32.65600
O  8.14200 -0.59000 32.70500
O  9.92800 0.25400 33.75300
C  9.60500 -0.24100 35.06700
H  5.03500 5.56800 30.34500
H  4.83900 3.75500 24.07100
H  9.07300 -0.62000 25.23600
H  7.44000 2.31500 32.85500
H  7.15200 5.25700 32.33600
H  5.54200 3.44500 33.72500
H  4.61900 3.71700 32.19500
H  4.96300 5.02200 33.17200
H  9.11800 4.88700 33.00100
H  10.11500 3.53600 32.32400
H  10.36000 2.59600 34.43900
H  8.73800 2.99600 34.86400
H  4.61900 7.98500 28.18900
H  4.00200 7.03800 29.46600
H  3.02300 7.18200 28.11700
H  2.37600 7.67300 25.73100
H  3.56700 8.20900 24.42400
H  3.96500 8.23600 26.11900
H  6.40400 2.45200 22.70600
H  7.18000 -0.31000 23.57500
H  5.11900 -0.04600 22.56100
H  4.59500 1.54200 22.21600
H  4.28500 0.99700 23.84800
H  9.52500 1.54700 23.57400
H  8.56400 1.84900 22.18400
H  9.65200 -1.01300 22.58400
H  10.64400 0.36500 22.08200
H  9.26200 -0.19000 21.14600
H  11.25000 -1.65100 26.78100
H  9.84100 -2.56100 26.61800
H  10.66000 -2.76400 28.15300
H  10.63400 1.14800 31.88400
H  8.94400 -1.10700 35.04100
H  8.95900 0.52500 35.49700
H  10.51000 -0.50300 35.61500
Mg 27.33300 50.32000 26.78800
C  25.15900 51.48000 29.37700
C  29.41500 49.26700 29.08700
C  29.43500 49.53800 24.17900
C  25.14600 51.93700 24.47800
N  27.21300 50.30600 28.96600
C  26.25000 50.69000 29.86900
C  26.57900 50.20700 31.19900
C  28.07500 49.92500 31.16400
C  28.25800 49.79500 29.65100
C  28.97500 50.95000 31.90700
C  25.82600 48.91900 31.58700
C  25.36200 48.81100 33.04000
H  25.72100 49.95200 34.00400
N  29.21400 49.44100 26.63600
C  29.91700 49.12100 27.75800
C  31.22400 48.60700 27.32000
C  31.20300 48.69100 25.88100
C  29.88000 49.25500 25.51600
C  32.23800 48.14500 28.21400
C  32.35400 48.43700 25.01100
O  32.35200 48.98500 23.86500
C  33.58000 47.63700 25.42000
N  27.27000 50.78000 24.57200
C  28.23700 50.19700 23.79800
C  27.81500 50.35800 22.29600
C  26.37700 50.89700 22.40900
C  26.25300 51.22100 23.87300
C  28.88800 51.23600 21.39900
C  25.28100 49.93200 21.90700
C  24.35000 49.11100 22.87400
N  25.49500 51.31600 26.86700
C  24.81400 51.93500 25.86500
C  23.64700 52.54400 26.50000
C  23.69300 52.43800 27.85300
C  24.92400 51.71700 28.02000
C  22.57100 53.23100 25.75100
C  23.17500 52.79900 29.08400
O  22.19400 53.46900 29.44500
C  24.01400 52.09600 30.16400
C  24.48700 53.06300 31.23300
O  25.57200 53.51100 31.33000
O  23.36800 53.41600 31.93500
C  23.58100 54.17700 33.19300
H  30.14800 49.04700 29.86500
H  30.02900 49.13500 23.35600
H  24.30100 52.39300 23.95800
H  26.52800 51.03700 31.90400
H  28.36000 48.98500 31.63700
H  29.37700 50.40900 32.76300
H  28.55900 51.92400 32.16400
H  29.89400 51.14200 31.35200
H  26.51900 48.09800 31.40400
H  24.96400 48.74400 30.94200
H  25.61700 47.84700 33.48100
H  24.27700 48.89500 32.99000
H  31.97000 48.55100 29.18900
H  33.22800 48.54500 27.99600
H  32.34300 47.06100 28.16200
H  34.23800 48.13000 26.13500
H  34.18100 47.58800 24.51200
H  33.35800 46.62600 25.76300
H  27.81100 49.39500 21.78500
H  26.27400 51.88200 21.95400
H  29.75500 51.49700 22.00500
H  28.39100 52.12800 21.01900
H  29.23800 50.64400 20.55300
H  25.69600 49.28500 21.13300
H  24.68200 50.56200 21.24900
H  24.63400 49.08900 23.92700
H  24.27900 48.09000 22.49900
H  23.33800 49.51700 22.85000
H  22.19800 52.69000 24.88200
H  22.92300 54.16900 25.32200
H  21.75800 53.52200 26.41700
H  23.40600 51.30000 30.59300
H  24.61800 54.10900 33.52200
H  22.90600 53.79400 33.95900
H  23.32500 55.22200 33.01900

