158

Mg 24.60100 -8.14700 47.83800
C  27.22200 -5.95400 46.53400
C  22.74000 -6.95500 45.16200
C  22.41900 -10.49800 48.44700
C  27.02600 -9.56100 49.97500
N  24.93700 -6.48400 46.18300
C  26.07900 -5.83300 45.78700
C  25.83200 -4.86800 44.61200
C  24.35700 -5.16000 44.28700
C  23.94800 -6.24000 45.28700
C  23.35000 -3.88800 44.18700
C  26.86800 -5.16800 43.45900
C  27.70000 -3.92900 43.02400
H  27.57100 -3.58000 41.49300
N  22.84000 -8.68900 46.91300
C  22.17900 -8.01800 45.89200
C  20.85800 -8.62400 45.61300
C  20.77800 -9.73100 46.54700
C  22.02500 -9.66500 47.37300
C  19.95600 -8.15100 44.42100
C  19.52700 -10.70800 46.71400
O  18.51100 -10.63600 46.01400
C  19.50900 -11.76200 47.71500
N  24.77500 -9.84000 49.09400
C  23.59800 -10.56600 49.23500
C  23.83700 -11.65400 50.29500
C  25.31800 -11.36900 50.79400
C  25.77800 -10.22900 49.86000
C  22.71800 -11.83700 51.39700
C  26.26600 -12.58600 50.76500
C  27.12200 -12.78200 52.00700
N  26.65600 -7.78300 48.26300
C  27.45100 -8.41400 49.17100
C  28.77700 -7.78100 49.22100
C  28.69400 -6.79600 48.22300
C  27.40800 -6.81600 47.62700
C  29.95700 -8.12000 50.04700
C  29.34700 -5.69300 47.61600
O  30.43000 -5.22800 47.93400
C  28.42800 -5.10100 46.48700
C  28.11800 -3.66100 46.72600
O  27.19300 -3.22200 47.43500
O  28.87400 -2.92300 45.88600
C  28.64200 -1.46200 46.04100
H  22.14900 -6.58700 44.32000
H  21.70900 -11.29300 48.68700
H  27.69900 -9.73300 50.81700
H  25.85900 -3.92300 45.15500
H  24.30400 -5.75200 43.37300
H  23.95900 -3.01400 44.41500
H  22.65800 -3.98000 45.02400
H  22.81300 -3.80600 43.24100
H  26.35300 -5.59500 42.59900
H  27.61800 -5.84900 43.86100
H  28.72800 -4.12900 43.32600
H  27.63900 -3.02000 43.62300
H  19.96400 -8.85300 43.58700
H  20.13700 -7.15300 44.02200
H  18.89600 -8.10700 44.67200
H  20.31800 -12.40800 47.37500
H  18.51700 -12.19400 47.58900
H  19.56900 -11.46200 48.76200
H  23.74500 -12.59000 49.74300
H  25.31800 -10.94300 51.79700
H  23.04400 -12.06300 52.41200
H  22.03100 -12.64300 51.13900
H  22.17400 -10.89500 51.45600
H  26.93200 -12.58200 49.90200
H  25.67100 -13.49200 50.65600
H  26.85600 -13.74000 52.45400
H  27.06100 -12.03300 52.79600
H  28.15900 -12.81500 51.67500
H  30.26400 -7.23400 50.60100
H  30.79600 -8.43500 49.42600
H  29.79600 -8.80400 50.88100
H  29.00700 -5.19700 45.56800
H  29.23000 -0.74400 45.46900
H  28.84100 -1.21500 47.08400
H  27.61600 -1.16900 45.82000
Mg 26.58700 52.26400 25.80100
C  24.00100 53.04000 28.19800
C  28.58400 51.66100 28.40900
C  29.07800 51.82700 23.59800
C  24.47100 53.45600 23.33600
N  26.32400 52.54500 28.12600
C  25.16300 52.73300 28.83800
C  25.41500 52.35900 30.35100
C  26.93900 51.97400 30.32000
C  27.34100 52.05100 28.85100
C  27.92900 52.78700 31.31300
C  24.50100 51.20200 30.83200
C  23.56800 51.55500 32.02300
H  23.62500 50.62100 33.25400
N  28.60300 51.70700 26.00100
C  29.22000 51.53500 27.17500
C  30.52200 51.05000 26.94600
C  30.73300 51.08600 25.49000
C  29.49800 51.52500 24.96200
C  31.42700 50.46500 27.99700
C  31.84800 50.54100 24.66200
O  31.83800 50.60300 23.43900
C  32.92900 49.73500 25.30900
N  26.75500 52.52200 23.78600
C  27.93000 52.29500 23.12300
C  27.74800 52.67000 21.66700
C  26.27400 53.21300 21.52600
C  25.78300 53.04600 22.92000
C  28.92000 53.50800 21.07100
C  25.41400 52.66600 20.35200
C  25.30700 53.43200 19.00500
N  24.58900 53.04200 25.77800
C  23.86700 53.42200 24.66200
C  22.48600 53.75700 25.01600
C  22.49600 53.60400 26.42900
C  23.76600 53.19800 26.78200
C  21.34300 54.09700 24.08400
C  21.73100 53.68100 27.68400
O  20.57900 53.92900 27.87700
C  22.65500 53.42800 28.83400
C  22.78600 54.78800 29.47400
O  23.03000 55.82300 28.91000
O  22.69600 54.68900 30.80800
C  22.60000 55.97600 31.51500
H  29.33000 51.32800 29.13300
H  29.81000 51.65200 22.80700
H  23.76200 53.68800 22.53900
H  25.34800 53.18800 31.05500
H  27.02700 50.94600 30.67100
H  28.85500 53.09500 30.82900
H  28.34500 52.05900 32.00900
H  27.48200 53.50300 32.00300
H  25.08800 50.32100 31.09400
H  23.80200 51.02400 30.01600
H  22.49400 51.55500 31.83500
H  23.88000 52.52700 32.40400
H  31.37700 49.40200 27.76000
H  31.14000 50.64900 29.03200
H  32.45500 50.80200 27.86700
H  32.54000 48.90700 25.90200
H  33.50900 50.32700 26.01700
H  33.55100 49.28100 24.53800
H  27.77000 51.73000 21.11600
H  26.23900 54.28900 21.36000
H  29.57200 54.04400 21.76000
H  28.52200 54.25200 20.38100
H  29.56600 52.85000 20.49000
H  24.38900 52.41400 20.62700
H  25.88000 51.74600 20.00000
H  24.33800 53.27300 18.53200
H  25.96000 53.20400 18.16300
H  25.54800 54.47800 19.19400
H  20.40900 54.01700 24.64100
H  21.29200 53.27400 23.37200
H  21.49100 55.04200 23.56100
H  22.26900 52.67300 29.51800
H  23.59900 56.32000 31.78200
H  22.01400 55.68400 32.38700
H  22.04200 56.77800 31.03300

