158

Mg 55.81600 24.94900 44.52600
C  53.25200 26.83800 43.09200
C  54.67900 22.08800 42.88000
C  58.72900 23.45000 45.24200
C  57.16600 27.90900 45.82000
N  54.20400 24.50500 43.06800
C  53.24300 25.45100 42.61400
C  52.30100 24.75500 41.60700
C  52.61900 23.24200 41.90000
C  53.89800 23.24100 42.62600
C  51.52600 22.50900 42.82900
C  52.60100 25.20500 40.12500
C  51.52900 24.84300 39.11200
H  51.94300 24.02900 37.85700
N  56.54300 23.01400 44.25700
C  55.84100 21.94400 43.67000
C  56.69000 20.76600 43.85200
C  57.81200 21.19900 44.57700
C  57.77800 22.63100 44.67600
C  56.24600 19.32800 43.45300
C  58.92300 20.31600 45.18900
O  58.88700 19.09400 45.02300
C  60.03500 20.80500 45.93300
N  57.76100 25.62500 45.30500
C  58.77500 24.74600 45.53400
C  59.91600 25.39000 46.32500
C  59.45100 26.88900 46.32100
C  58.02800 26.82800 45.79500
C  60.24800 24.73200 47.61600
C  60.36200 27.87000 45.44100
C  60.60000 29.19200 46.11000
N  55.37700 27.04000 44.53000
C  55.88400 28.06700 45.23400
C  55.00700 29.19400 45.11500
C  53.99200 28.81900 44.25200
C  54.28100 27.50000 43.88100
C  55.23700 30.45900 45.88600
C  52.76700 29.24200 43.68500
O  52.20300 30.31900 43.89700
C  52.15300 27.96500 42.94100
C  51.96800 28.34000 41.56200
O  52.73200 29.04600 40.94900
O  50.80300 27.79200 40.98300
C  50.34900 28.27600 39.68700
H  54.23100 21.21300 42.40500
H  59.74800 23.08100 45.37900
H  57.61000 28.75200 46.35300
H  51.26100 24.92000 41.88900
H  52.69800 22.60700 41.01700
H  50.64400 23.14500 42.76200
H  51.81200 22.49700 43.88100
H  51.41100 21.45500 42.57600
H  53.54200 24.74600 39.82500
H  52.69800 26.27000 39.91600
H  51.15300 25.79800 38.74600
H  50.66400 24.33800 39.54100
H  57.09300 18.77700 43.04400
H  55.57600 19.51600 42.61400
H  55.93200 18.73300 44.31000
H  60.32100 20.06900 46.68400
H  59.76100 21.63300 46.58600
H  60.83800 21.13600 45.27400
H  60.85000 25.37300 45.76400
H  59.38800 27.28600 47.33400
H  60.67200 25.48500 48.28100
H  61.07000 24.04600 47.41500
H  59.33000 24.31500 48.02900
H  59.74600 28.18500 44.59900
H  61.24700 27.37700 45.03800
H  61.67700 29.30800 46.22500
H  60.08600 29.31000 47.06400
H  60.13400 29.96700 45.50100
H  55.86100 30.18800 46.73700
H  54.29500 30.95000 46.13000
H  55.77000 31.07900 45.16500
H  51.13400 27.75900 43.26800
H  51.12800 28.52000 38.96500
H  49.64400 29.06600 39.94500
H  49.78300 27.45900 39.24000
Mg 48.63300 24.81600 28.67000
C  49.45400 26.87200 31.43800
C  48.10800 22.26900 31.10600
C  48.01000 22.77600 26.33800
C  49.71500 27.24800 26.55700
N  48.74800 24.69100 31.06100
C  49.08800 25.64600 31.95100
C  48.87800 25.27800 33.41300
C  48.63100 23.68700 33.26800
C  48.51600 23.48300 31.69700
C  49.62400 22.81200 34.03400
C  47.79400 26.04700 34.18800
C  48.04700 26.51900 35.63000
H  46.96200 26.23200 36.68300
N  48.01700 22.76300 28.70400
C  47.87300 21.91000 29.76900
C  47.54100 20.52500 29.23000
C  47.38600 20.76200 27.87600
C  47.83200 22.09700 27.58600
C  47.27500 19.32100 29.97800
C  46.73200 19.94100 26.78600
O  46.61400 20.34800 25.58300
C  46.05900 18.51300 27.15300
N  48.89800 24.97800 26.69900
C  48.50800 23.97300 25.88600
C  48.71800 24.31400 24.33800
C  48.99800 25.81700 24.43100
C  49.32500 26.00400 25.96300
C  49.79600 23.51700 23.53700
C  47.80800 26.72900 24.11300
C  47.23300 26.58900 22.71600
N  49.38100 26.74600 28.91100
C  49.84600 27.57700 27.92900
C  50.41200 28.70400 28.58700
C  50.16900 28.52900 29.88800
C  49.62700 27.22800 30.10200
C  50.93200 29.90600 27.89600
C  50.32400 29.12900 31.14500
O  50.66500 30.26100 31.42600
C  49.77800 28.16100 32.19300
C  50.81800 27.93700 33.29800
O  51.83500 27.31000 33.30400
O  50.46900 28.60100 34.45300
C  51.31500 28.34900 35.63600
H  47.86600 21.53300 31.87600
H  47.81300 22.15600 25.46100
H  50.00700 28.03900 25.86200
H  49.65700 25.49200 34.14400
H  47.67100 23.32300 33.63300
H  50.38100 22.53600 33.30000
H  49.09300 21.99500 34.52400
H  50.10700 23.38200 34.82800
H  46.84100 25.51900 34.16800
H  47.60000 26.88100 33.51200
H  47.89800 27.59800 35.57800
H  49.06300 26.30000 35.95800
H  47.62400 19.45000 31.00300
H  47.70600 18.46900 29.45400
H  46.19900 19.14800 29.98500
H  45.44900 18.66200 28.04400
H  46.87000 17.78700 27.10700
H  45.38500 18.35500 26.31200
H  47.72100 24.16100 23.92500
H  49.87400 26.07300 23.83700
H  50.76100 24.01600 23.45600
H  49.39500 23.49000 22.52400
H  49.95200 22.49100 23.87100
H  48.05300 27.79100 24.12300
H  46.86600 26.55600 24.63400
H  47.86500 25.89200 22.16600
H  47.37700 27.51400 22.15800
H  46.17100 26.35700 22.64600
H  51.29200 30.58300 28.67100
H  50.22000 30.34500 27.19700
H  51.67400 29.55700 27.17900
H  48.96700 28.78400 32.56800
H  51.81200 27.37900 35.62500
H  50.82700 28.42600 36.60700
H  52.13900 29.06200 35.62600

