158

Mg 40.32100 8.77600 29.39800
C  42.15600 9.80400 32.21400
C  38.36600 6.98400 31.45900
C  38.62400 8.01200 26.67400
C  42.91700 10.01100 27.37700
N  40.23300 8.55700 31.67200
C  41.04000 9.07600 32.61600
C  40.43300 8.69800 34.02600
C  39.55700 7.37700 33.75800
C  39.34500 7.63500 32.23000
C  40.24000 5.99200 34.16100
C  39.60600 9.86700 34.62200
C  39.92500 10.22900 36.12500
H  40.47400 11.54800 36.53400
N  38.69300 7.71100 29.08400
C  38.04300 6.96600 30.09400
C  37.00000 6.27200 29.38700
C  36.93100 6.63300 28.04900
C  38.07800 7.54300 27.90200
C  36.06900 5.29900 30.18900
C  35.91100 6.18200 26.96800
O  35.88900 6.51100 25.77800
C  34.77600 5.51200 27.36100
N  40.73900 9.01600 27.29900
C  39.80300 8.65200 26.38600
C  40.22600 9.11300 24.98300
C  41.70100 9.63600 25.20000
C  41.79600 9.50500 26.69800
C  40.25300 7.94100 23.97000
C  41.77800 11.13100 24.69600
C  43.29000 11.47300 24.32300
N  42.22100 9.65800 29.70300
C  43.13100 10.06500 28.79500
C  44.27900 10.74200 29.55500
C  43.87800 10.69500 30.89200
C  42.57500 10.02700 30.93900
C  45.36900 11.44700 28.93300
C  44.26700 11.13900 32.26200
O  45.19700 11.86700 32.66100
C  43.20800 10.45700 33.18700
C  44.05100 9.39800 33.82300
O  44.11100 8.21400 33.50100
O  44.74200 9.96200 34.87900
C  45.32900 9.05000 35.85800
H  37.79500 6.26300 32.04700
H  38.01800 7.76300 25.80000
H  43.68000 10.49200 26.76200
H  41.26700 8.58600 34.71900
H  38.53900 7.42000 34.14500
H  39.59400 5.55200 34.92000
H  41.15000 6.13500 34.74400
H  40.39100 5.30400 33.32800
H  38.54000 9.64700 34.58300
H  39.83800 10.79000 34.09000
H  40.56500 9.45200 36.54500
H  38.94800 10.13300 36.59900
H  36.43800 4.91200 31.13900
H  35.85200 4.41700 29.58600
H  35.10600 5.77500 30.37200
H  34.09100 5.47200 26.51400
H  34.19300 6.06200 28.09900
H  34.96600 4.47100 27.62300
H  39.58500 9.92200 24.63500
H  42.49000 8.98100 24.83000
H  40.81200 7.04200 24.22800
H  40.75100 8.32200 23.07900
H  39.33500 7.44000 23.66300
H  41.63600 11.81300 25.53400
H  41.07800 11.39900 23.90400
H  43.20100 11.97000 23.35700
H  44.02200 10.66500 24.32100
H  43.73800 12.19800 25.00300
H  44.93900 11.94000 28.06100
H  46.07900 10.71200 28.55200
H  45.88200 12.05700 29.67700
H  42.68100 11.11000 33.88200
H  45.77800 9.65000 36.64900
H  45.96100 8.24700 35.47900
H  44.51600 8.44600 36.25900
Mg 6.87800 54.38200 40.25500
C  7.02100 50.72400 39.70000
C  10.15000 54.42800 39.61700
C  6.60000 57.70000 40.43900
C  3.37100 53.92700 40.43000
N  8.46100 52.67700 39.43000
C  8.27000 51.34800 39.42700
C  9.60500 50.70000 39.11100
C  10.66500 51.84700 39.49600
C  9.72100 53.08500 39.44900
C  11.42800 51.68300 40.85200
C  9.78300 50.29200 37.65800
C  9.31800 51.18200 36.51000
H  7.83700 51.11300 36.09900
N  8.21500 55.85600 40.03100
C  9.53400 55.67400 39.71600
C  10.18500 57.00500 39.81100
C  9.18700 57.91900 40.12600
C  7.90300 57.20600 40.18900
C  11.60600 57.24000 39.64000
C  9.42900 59.42700 40.40100
O  10.55500 59.91700 40.40700
C  8.27200 60.30600 40.72800
N  5.21300 55.63400 40.18800
C  5.36100 56.92100 40.54800
C  4.02200 57.60200 40.93300
C  2.99000 56.48300 40.71100
C  3.91000 55.23700 40.46300
C  4.01100 58.42400 42.34100
C  2.10300 56.76400 39.55300
C  0.60500 56.44300 39.83200
N  5.41700 52.71200 40.12900
C  4.09300 52.73200 40.26500
C  3.61200 51.38200 40.37000
C  4.75500 50.55300 40.23900
C  5.83500 51.40200 39.99800
C  2.30400 50.92200 40.70000
C  5.24400 49.24600 40.30700
O  4.62400 48.26100 40.70000
C  6.67500 49.24200 39.72600
C  6.61100 48.60000 38.24400
O  5.66400 48.63900 37.48800
O  7.74800 47.75500 38.00600
C  7.76000 47.06500 36.68200
H  11.22300 54.43500 39.41400
H  6.40900 58.72200 40.77200
H  2.28600 53.80500 40.43800
H  9.63700 49.82300 39.75700
H  11.37200 52.11800 38.71300
H  11.59500 52.62000 41.38300
H  12.39000 51.36100 40.45400
H  11.00900 50.84800 41.41200
H  9.36300 49.31400 37.42200
H  10.86600 50.18300 37.58800
H  9.83000 50.82800 35.61500
H  9.60600 52.22400 36.64900
H  11.66600 58.14300 39.03300
H  12.06200 56.38800 39.13600
H  12.12400 57.33300 40.59500
H  8.59000 61.28000 41.09800
H  7.87200 59.92300 41.66700
H  7.55200 60.39600 39.91400
H  3.98100 58.43200 40.22600
H  2.47500 56.22100 41.63500
H  3.62600 59.44100 42.26100
H  5.04800 58.43700 42.67800
H  3.45700 57.95400 43.15300
H  2.40400 56.17500 38.68700
H  2.22400 57.78100 39.18100
H  0.51400 55.89600 40.77100
H  0.09700 55.95400 39.00200
H  0.10000 57.40200 39.94600
H  1.89800 50.73900 39.70600
H  1.78400 51.74300 41.19400
H  2.33000 50.01900 41.31100
H  7.36700 48.68700 40.35900
H  8.02600 46.02000 36.83800
H  8.57500 47.54200 36.13700
H  6.84300 47.25400 36.12300

