158

Mg 46.96300 25.23600 27.49500
C  48.06400 27.40800 30.02100
C  45.67800 23.18300 29.89500
C  46.17200 23.02100 25.08000
C  48.70200 27.19100 25.22900
N  46.90200 25.35200 29.66400
C  47.29400 26.37800 30.53300
C  46.96000 26.03600 32.00000
C  46.29700 24.66400 31.94600
C  46.29000 24.35700 30.40700
C  46.94600 23.60300 32.80900
C  46.23300 27.08700 32.79300
C  46.70800 27.39600 34.29400
H  45.51100 27.32700 35.35700
N  45.94200 23.40700 27.46900
C  45.46400 22.72700 28.57000
C  44.81300 21.56900 28.09600
C  44.82200 21.55600 26.64400
C  45.70600 22.72200 26.27600
C  44.21600 20.52200 28.99600
C  44.09700 20.70100 25.69500
O  44.24900 20.76700 24.48900
C  42.89600 19.99300 26.15800
N  47.47800 24.98200 25.48200
C  47.01600 24.05600 24.65600
C  47.65400 24.18400 23.26900
C  48.12600 25.66300 23.21100
C  48.03300 26.02400 24.68700
C  48.78200 22.99300 23.06500
C  47.38000 26.64200 22.22300
C  48.17900 27.23200 21.01500
N  48.09000 26.99300 27.53400
C  48.67200 27.70800 26.53200
C  49.30800 28.87100 27.02400
C  49.24900 28.77500 28.43600
C  48.41900 27.64200 28.69000
C  49.89400 29.95300 26.25600
C  49.49900 29.39200 29.66600
O  49.98800 30.43100 29.98600
C  48.82800 28.43600 30.80900
C  49.88800 27.96100 31.72200
O  51.05900 27.81600 31.39500
O  49.46900 27.95700 33.07900
C  50.45000 27.46200 34.02500
H  45.20400 22.51400 30.61600
H  46.03200 22.33100 24.24600
H  49.14100 27.81400 24.44800
H  47.94100 25.96800 32.47000
H  45.24200 24.70800 32.21700
H  46.18600 23.04100 33.35100
H  47.57600 24.06700 33.56900
H  47.43500 22.84500 32.19800
H  45.16000 26.94500 32.65800
H  46.47100 28.02600 32.29200
H  47.11400 28.40600 34.34700
H  47.51000 26.72500 34.60000
H  43.13400 20.52100 29.12800
H  44.63700 20.43400 29.99800
H  44.42300 19.52300 28.61100
H  42.39200 20.49900 26.98100
H  43.11800 18.95100 26.38800
H  42.27600 20.03600 25.26300
H  46.86700 24.02400 22.53200
H  49.19700 25.73800 23.02300
H  48.85100 22.49200 24.03100
H  49.68200 23.47500 22.68200
H  48.47000 22.20700 22.37800
H  46.94400 27.48400 22.76200
H  46.47500 26.18200 21.82700
H  47.64400 26.98300 20.09900
H  49.24400 27.01000 20.94500
H  48.30500 28.31300 21.07100
H  50.89400 30.10500 26.66100
H  49.24700 30.80600 26.46400
H  49.95600 29.66400 25.20700
H  48.09500 29.05400 31.32700
H  51.04800 28.20500 34.55400
H  51.18100 26.82900 33.52200
H  49.93700 26.87200 34.78400
Mg -1.76800 34.45100 27.24100
C  -3.39600 32.42400 29.58400
C  -0.30000 36.21000 29.78800
C  -0.61600 36.60100 25.04700
C  -3.61700 32.76900 24.74300
N  -2.02600 34.46600 29.34800
C  -2.69100 33.55100 30.13500
C  -2.54600 33.84500 31.61100
C  -1.71400 35.16400 31.68800
C  -1.36600 35.34100 30.21900
C  -2.54400 36.34500 32.26600
C  -1.80200 32.58900 32.32200
C  -2.57500 31.99600 33.53300
H  -1.80400 31.81900 34.75300
N  -0.58500 36.20700 27.33000
C  -0.04900 36.76700 28.51300
C  0.89500 37.79400 28.14100
C  0.80100 37.95000 26.70400
C  -0.10900 36.89900 26.32200
C  1.86500 38.47700 29.04200
C  1.64400 38.74500 25.79700
O  1.61400 38.65800 24.54200
C  2.62100 39.68900 26.36900
N  -2.21300 34.73400 25.23300
C  -1.58400 35.68700 24.49600
C  -2.00100 35.73700 23.00400
C  -2.78200 34.34400 22.90900
C  -2.91200 33.90100 24.38100
C  -2.84500 37.04300 22.68900
C  -2.01200 33.26000 22.04800
C  -2.81200 32.40500 21.08400
N  -3.16700 32.86800 27.02300
C  -3.78000 32.25100 25.97100
C  -4.52500 31.11100 26.40100
C  -4.40500 31.15200 27.82600
C  -3.59300 32.24700 28.13100
C  -5.15100 30.00000 25.56300
C  -4.75500 30.50300 29.04200
O  -5.36500 29.43300 29.24200
C  -4.19600 31.38300 30.25500
C  -5.28300 31.90800 31.13800
O  -5.95200 32.89600 30.95400
O  -5.47100 31.06100 32.20800
C  -6.32400 31.55000 33.22800
H  0.31800 36.75300 30.50600
H  -0.09200 37.31500 24.40900
H  -4.18500 32.18000 24.01900
H  -3.55400 33.89900 32.02200
H  -0.78200 34.96300 32.21500
H  -2.09600 36.53500 33.24100
H  -3.57500 36.08700 32.51200
H  -2.44100 37.21800 31.62200
H  -0.83000 32.93000 32.67600
H  -1.73900 31.80800 31.56400
H  -2.81900 30.98500 33.20500
H  -3.49700 32.57100 33.62400
H  2.90900 38.41500 28.73300
H  1.65500 38.19200 30.07300
H  1.65600 39.54600 29.00600
H  2.72400 40.53100 25.68500
H  3.55900 39.21400 26.65800
H  2.26700 40.28400 27.21100
H  -1.18900 35.74300 22.27600
H  -3.76800 34.49500 22.46900
H  -2.30400 37.72500 22.03300
H  -3.05600 37.42600 23.68700
H  -3.81900 36.81700 22.25600
H  -1.43200 32.67400 22.76100
H  -1.28200 33.71900 21.38200
H  -2.31200 32.28500 20.12300
H  -3.78100 32.88800 20.95900
H  -2.93800 31.41400 21.52000
H  -6.02300 30.24900 24.95800
H  -5.47400 29.20100 26.23100
H  -4.32000 29.52200 25.04500
H  -3.59800 30.66100 30.81100
H  -6.30600 32.61000 33.48100
H  -6.13600 30.87000 34.05800
H  -7.33100 31.37500 32.85000

