158

Mg 16.21200 52.37600 25.13700
C  17.48300 50.84500 27.87600
C  13.57700 53.45400 27.02500
C  14.61700 53.24600 22.31400
C  18.66800 50.79000 23.16300
N  15.75900 52.43700 27.24000
C  16.42700 51.72200 28.22000
C  15.86500 52.07600 29.63900
C  14.58600 52.95400 29.29100
C  14.59400 52.90400 27.76200
C  13.21100 52.45900 29.93100
C  16.95200 52.72000 30.52400
C  17.11200 52.16900 31.96000
H  15.96300 51.40600 32.59500
N  14.49800 53.43100 24.77300
C  13.46300 53.69400 25.64300
C  12.49200 54.46500 24.96700
C  12.68100 54.32400 23.58200
C  13.94200 53.62100 23.49100
C  11.21700 55.14500 25.69300
C  11.85100 54.67500 22.35900
O  12.17800 54.40900 21.19400
C  10.50900 55.36100 22.55100
N  16.63200 52.12500 23.02600
C  15.80500 52.57800 22.11600
C  16.39300 52.19600 20.76500
C  17.91800 51.86400 20.98800
C  17.75200 51.53200 22.46700
C  15.65100 51.08200 19.88900
C  18.91400 53.09500 20.94700
C  20.14200 52.83000 20.16000
N  17.75600 51.10500 25.44300
C  18.73100 50.62100 24.56000
C  19.65900 49.78400 25.28400
C  19.20100 49.94300 26.61100
C  18.02200 50.68400 26.60900
C  20.81900 48.99300 24.74300
C  19.47600 49.48500 27.92200
O  20.35200 48.74900 28.31600
C  18.42700 50.16200 28.83600
C  17.81600 49.11800 29.80100
O  16.64900 48.77500 29.87600
O  18.75000 48.73600 30.70500
C  18.28300 47.93600 31.84400
H  12.84400 53.86100 27.72500
H  14.27000 53.47800 21.30500
H  19.49200 50.46000 22.52600
H  15.50200 51.17000 30.12400
H  14.77400 54.01300 29.47200
H  12.63100 52.16600 29.05600
H  12.68600 53.26600 30.44300
H  13.31900 51.60500 30.59800
H  16.67700 53.73500 30.81000
H  17.97000 52.79300 30.14400
H  17.36400 53.00900 32.60800
H  17.94600 51.46600 31.96900
H  10.24200 55.06100 25.21300
H  11.51400 56.16900 25.92000
H  11.24600 54.74100 26.70500
H  9.63300 54.78400 22.84800
H  10.34100 55.61300 21.50400
H  10.65600 56.21600 23.21000
H  16.19900 53.11100 20.20500
H  18.28600 50.93800 20.54600
H  14.81900 50.84200 20.55000
H  16.37000 50.26400 19.84100
H  15.33900 51.37600 18.88600
H  19.26700 53.46400 21.90900
H  18.39700 53.96500 20.54300
H  19.98100 52.84600 19.08200
H  20.50600 51.85900 20.49400
H  20.98600 53.48100 20.38900
H  20.63700 48.64300 23.72700
H  21.11000 48.13800 25.35400
H  21.65500 49.67200 24.57400
H  18.94300 50.79900 29.55400
H  17.90900 48.48200 32.71000
H  19.02600 47.22800 32.21200
H  17.51200 47.23400 31.52800
Mg 7.93600 48.51400 27.88400
C  6.10800 47.79900 30.76500
C  10.65800 49.15100 29.72300
C  9.51700 49.65100 25.05100
C  4.92700 48.75000 26.08900
N  8.35600 48.37000 30.05500
C  7.47600 48.08300 31.08200
C  8.07100 48.20700 32.42000
C  9.52400 48.77900 32.07100
C  9.61200 48.76000 30.52800
C  9.83800 50.20100 32.61100
C  8.06300 46.89200 33.24300
C  9.20100 46.58500 34.19700
H  8.83500 45.60700 35.35500
N  9.87800 49.02500 27.37400
C  10.87300 49.11400 28.32700
C  12.14600 49.32800 27.70100
C  11.83300 49.47200 26.32900
C  10.35300 49.38400 26.19800
C  13.54600 49.45400 28.41400
C  12.72900 49.71400 25.05700
O  12.27500 49.97600 23.94800
C  14.20300 49.80600 25.29100
N  7.27100 49.14700 25.83800
C  8.13500 49.56400 24.93100
C  7.41200 50.02700 23.70400
C  5.97900 49.54000 23.87000
C  6.02600 49.01600 25.29500
C  7.56400 51.46600 23.35800
C  5.42900 48.46200 22.82200
C  6.22900 47.13200 22.50900
N  5.94900 48.17500 28.27400
C  4.86200 48.31300 27.42100
C  3.65800 47.86200 28.23400
C  4.07700 47.62900 29.47700
C  5.40200 47.92600 29.50800
C  2.22300 47.86200 27.75400
C  3.67700 47.32000 30.79500
O  2.59900 46.99700 31.31700
C  4.95100 47.41900 31.67100
C  5.01800 46.08400 32.25800
O  5.46600 45.07200 31.71800
O  4.42800 46.11400 33.53800
C  4.62100 44.92200 34.33700
H  11.56800 49.33100 30.29900
H  9.85000 49.94000 24.05200
H  3.98400 48.79700 25.54000
H  7.51000 48.96900 32.96200
H  10.26100 48.03500 32.37500
H  9.98600 50.96400 31.84700
H  10.74300 50.08000 33.20700
H  9.13200 50.54100 33.36800
H  7.84200 46.07100 32.56100
H  7.19900 46.93600 33.90600
H  9.63000 47.52800 34.53400
H  9.95100 46.22000 33.49600
H  13.79700 50.50600 28.55100
H  14.24600 48.92100 27.77100
H  13.55000 48.95300 29.38200
H  14.61700 50.30700 24.41600
H  14.73500 48.86600 25.43900
H  14.32300 50.49900 26.12400
H  7.92000 49.37100 22.99800
H  5.23700 50.33400 23.78300
H  8.19000 51.93700 24.11600
H  6.66900 52.08300 23.44500
H  8.01400 51.63900 22.38100
H  5.11900 48.90100 21.87300
H  4.42500 48.31000 23.21800
H  5.58500 46.25300 22.54300
H  7.07700 46.84300 23.13000
H  6.63400 47.29800 21.51100
H  1.96400 48.74400 27.17000
H  1.49600 47.67500 28.54500
H  2.19800 47.04600 27.03200
H  4.71200 48.17700 32.41800
H  4.59600 45.31500 35.35300
H  5.64000 44.58600 34.14400
H  3.98900 44.07000 34.09100

