158

Mg 1.63600 -1.10200 43.72500
C  4.87100 -0.28600 43.13100
C  0.71600 1.89900 42.26400
C  -1.57000 -2.29100 43.45300
C  2.59900 -4.26400 44.69000
N  2.71900 0.66900 42.79700
C  4.04600 0.75400 42.63800
C  4.50200 2.03400 41.83200
C  3.12200 2.76500 41.61600
C  2.09600 1.74400 42.25000
C  3.01200 4.24200 42.12500
C  5.30300 1.79300 40.52200
C  6.54100 2.67600 40.22000
H  6.87800 3.28100 38.88300
N  -0.17900 -0.21700 43.15000
C  -0.35500 1.04700 42.59500
C  -1.75200 1.32900 42.47800
C  -2.39300 0.08000 42.79700
C  -1.40300 -0.87600 43.20600
C  -2.29400 2.72500 42.14900
C  -3.94900 -0.05200 42.74900
O  -4.65300 0.89400 42.55900
C  -4.56700 -1.42600 42.81200
N  0.65500 -3.09400 43.98100
C  -0.66000 -3.30200 43.83400
C  -1.10200 -4.78400 44.09600
C  0.19600 -5.23100 44.74100
C  1.21900 -4.18500 44.44100
C  -2.44200 -5.01900 44.85300
C  0.81300 -6.66600 44.45800
C  -0.19200 -7.78300 44.18100
N  3.37800 -2.10200 43.97500
C  3.64700 -3.32400 44.44900
C  4.99400 -3.54600 44.75600
C  5.58600 -2.28700 44.25600
C  4.49400 -1.54800 43.69300
C  5.69000 -4.68000 45.36600
C  6.80800 -1.49600 43.94400
O  7.98200 -1.78500 44.12500
C  6.37300 -0.12900 43.20500
C  6.81900 1.07300 43.99700
O  6.24400 1.51800 44.99800
O  7.89200 1.69300 43.37700
C  8.47300 2.96600 43.88500
H  0.49900 2.88400 41.84700
H  -2.56200 -2.74300 43.39500
H  2.89600 -5.21200 45.14500
H  5.03700 2.74600 42.46000
H  2.85600 2.83300 40.56100
H  2.74600 4.78900 41.22000
H  3.98900 4.58300 42.46800
H  2.28500 4.25900 42.93700
H  4.63300 1.97100 39.68100
H  5.51000 0.73100 40.39000
H  7.34100 1.99700 40.51500
H  6.41100 3.45400 40.97200
H  -1.47800 3.44500 42.21800
H  -3.13200 3.11600 42.72700
H  -2.71700 2.76500 41.14600
H  -5.60000 -1.56900 42.49500
H  -4.37100 -1.71100 43.84500
H  -4.06500 -2.10000 42.11900
H  -1.15100 -5.11400 43.05800
H  -0.01600 -5.21000 45.81000
H  -2.19100 -5.34600 45.86300
H  -2.99200 -5.70700 44.21100
H  -3.06500 -4.14400 45.03700
H  1.33600 -6.94300 45.37300
H  1.54500 -6.49900 43.66800
H  -0.30000 -7.79800 43.09700
H  -1.11500 -7.73700 44.76000
H  0.23000 -8.75200 44.44500
H  4.98000 -5.42400 45.72800
H  6.33200 -4.41000 46.20500
H  6.24900 -5.13100 44.54600
H  6.81300 0.04200 42.22300
H  7.71200 3.69700 44.16000
H  9.17300 3.53800 43.27600
H  9.00900 2.81300 44.82200
Mg 8.78500 4.49700 27.31600
C  10.28600 2.99500 29.98400
C  6.82100 6.29600 29.35300
C  7.12200 5.66100 24.43400
C  10.76400 2.62400 25.12300
N  8.62900 4.74900 29.48100
C  9.33900 3.96800 30.36600
C  9.02000 4.44800 31.77800
C  7.80500 5.44200 31.62500
C  7.71900 5.48200 30.04300
C  6.50100 5.16400 32.45500
C  10.27800 5.05900 32.55200
C  9.98100 5.58700 33.95700
H  11.05900 5.38200 35.04400
N  7.20400 5.74900 26.90500
C  6.66100 6.46700 27.90300
C  5.64600 7.31700 27.35200
C  5.85700 7.42300 25.96300
C  6.66900 6.12600 25.72100
C  4.70600 8.21000 28.31100
C  5.43200 8.49100 24.92400
O  5.77200 8.37200 23.71700
C  4.61700 9.70900 25.34400
N  8.75500 3.95300 24.99200
C  8.00800 4.62400 24.04800
C  8.63100 4.53200 22.65800
C  9.96900 3.69900 22.92400
C  9.79500 3.36400 24.39600
C  7.60000 3.83200 21.71100
C  11.27000 4.42900 22.47900
C  11.98500 5.33900 23.53600
N  10.17600 3.00100 27.42900
C  10.87800 2.28500 26.45200
C  11.66200 1.25900 27.13200
C  11.37200 1.42400 28.52500
C  10.57600 2.57800 28.65600
C  12.56300 0.24200 26.49100
C  11.72900 1.01300 29.91900
O  12.45300 0.12600 30.32400
C  11.02500 2.00200 30.84400
C  10.10400 1.37400 31.77800
O  8.99500 0.87800 31.50100
O  10.65300 1.26200 33.04600
C  9.84500 0.60000 34.11500
H  6.28400 6.99800 29.99400
H  6.74000 6.21000 23.57100
H  11.40800 2.08700 24.42400
H  8.65200 3.56300 32.29700
H  8.07900 6.41600 32.02900
H  5.62500 5.15300 31.80600
H  6.28900 5.92100 33.21000
H  6.65200 4.26600 33.05500
H  10.65700 5.86600 31.92500
H  11.02400 4.30500 32.80100
H  8.99000 5.25600 34.26700
H  10.02100 6.66900 33.83100
H  3.72700 8.27900 27.83600
H  5.05600 9.23300 28.45300
H  4.50500 7.74700 29.27700
H  3.69000 9.37600 25.81200
H  4.46700 10.42100 24.53300
H  5.05900 10.29000 26.15300
H  8.88000 5.56100 22.39800
H  9.85200 2.67100 22.58100
H  7.59700 4.30700 20.73000
H  6.59300 3.87600 22.12600
H  7.86000 2.78600 21.55100
H  11.06900 5.04000 21.59900
H  11.90300 3.58700 22.19700
H  11.65300 5.13400 24.55400
H  11.92700 6.40700 23.32900
H  13.06300 5.17600 23.52000
H  12.04900 -0.71900 26.46000
H  13.46000 0.16900 27.10500
H  12.92600 0.60000 25.52800
H  11.72800 2.53200 31.48700
H  9.03600 1.31500 34.25900
H  10.37100 0.37600 35.04300
H  9.51100 -0.35400 33.70700

