158

Mg 46.99300 24.26000 28.38400
C  47.64100 26.74100 30.77500
C  46.17900 22.05000 30.70400
C  46.56300 21.89800 25.88700
C  48.23300 26.54100 26.02100
N  46.99000 24.39700 30.50600
C  47.11500 25.55000 31.31400
C  46.75100 25.26100 32.81200
C  46.41200 23.71100 32.75700
C  46.54700 23.32100 31.24100
C  47.36100 22.74100 33.48000
C  45.52800 26.07800 33.24800
C  44.93400 25.58600 34.57500
H  44.72800 26.64400 35.70000
N  46.49500 22.23000 28.34000
C  46.17400 21.49700 29.38500
C  45.81900 20.12000 28.98600
C  45.89000 20.05400 27.54600
C  46.39500 21.44300 27.21800
C  45.52100 19.08300 30.08700
C  45.60000 18.86000 26.69500
O  45.67000 18.92100 25.46700
C  44.93500 17.66600 27.28600
N  47.46000 24.14600 26.30700
C  47.07400 23.14800 25.49600
C  47.19200 23.63400 24.02500
C  47.43800 25.15700 24.05300
C  47.69000 25.31000 25.53500
C  48.10200 22.78000 23.12000
C  46.22900 26.14100 23.55800
C  44.81600 25.80800 24.11400
N  47.90600 26.17500 28.37100
C  48.31300 26.95500 27.34900
C  48.79100 28.24200 27.77900
C  48.49000 28.26500 29.19300
C  47.98600 26.95700 29.44400
C  49.36500 29.28400 26.92600
C  48.49500 29.05900 30.40500
O  48.86700 30.22500 30.53000
C  47.88600 28.09400 31.48000
C  48.79000 27.85300 32.69700
O  49.93800 27.42100 32.60200
O  48.19100 28.12800 33.87900
C  48.84700 27.63800 35.07800
H  45.87000 21.39200 31.51900
H  46.37200 21.24300 25.03500
H  48.48800 27.28300 25.26100
H  47.56300 25.52000 33.49200
H  45.38400 23.51700 33.06300
H  46.73800 21.99400 33.97200
H  47.89400 23.33200 34.22400
H  48.09900 22.20200 32.88500
H  44.79200 26.06700 32.44300
H  45.80300 27.10200 33.50100
H  45.47500 24.73200 34.98300
H  43.90300 25.27300 34.41100
H  44.49100 18.72500 30.08500
H  45.54600 19.49900 31.09500
H  46.23300 18.26600 29.96700
H  44.13100 18.07400 27.89900
H  45.62500 17.18600 27.98000
H  44.48800 16.92300 26.62600
H  46.17900 23.49800 23.64400
H  48.33900 25.34300 23.46900
H  47.64700 22.21800 22.30500
H  48.54600 22.03400 23.77900
H  48.91100 23.40200 22.73600
H  46.15300 26.02900 22.47700
H  46.55900 27.13700 23.85100
H  44.16100 25.36800 23.36200
H  44.45100 26.79500 24.40000
H  44.81500 25.20200 25.02000
H  48.56100 29.95500 26.62200
H  49.78000 28.86800 26.00800
H  50.18900 29.79000 27.42900
H  46.99900 28.52400 31.94600
H  49.92800 27.66100 34.93300
H  48.55500 26.62200 35.34100
H  48.55700 28.23100 35.94600
Mg -10.57900 40.21100 42.18200
C  -9.02400 37.33300 40.99200
C  -8.13000 41.97800 40.42800
C  -12.29000 43.02200 42.64900
C  -13.31600 38.30700 43.12200
N  -8.74600 39.61900 40.84200
C  -8.33400 38.42800 40.51500
C  -7.05000 38.44200 39.66300
C  -6.70300 40.06000 39.57500
C  -7.98500 40.56300 40.29900
C  -5.40600 40.47600 40.23600
C  -7.30500 37.90600 38.19400
C  -6.61600 36.52900 37.84200
H  -5.62900 36.49200 36.75000
N  -10.13400 42.28600 41.83800
C  -9.09700 42.76300 41.05700
C  -9.03100 44.19400 41.36200
C  -10.34500 44.56600 41.81800
C  -10.99200 43.28100 42.11700
C  -7.92900 45.11900 40.95100
C  -10.90100 45.97700 42.12100
O  -10.24200 46.94100 41.88200
C  -12.27500 46.22200 42.86100
N  -12.53500 40.59800 42.79800
C  -13.02200 41.84400 42.94600
C  -14.54400 41.95000 43.29600
C  -14.86200 40.39700 43.47700
C  -13.51600 39.65700 43.06400
C  -14.83300 42.83600 44.59000
C  -16.17100 39.98900 42.63100
C  -17.10800 39.00200 43.32500
N  -11.05600 38.18600 42.22900
C  -12.18300 37.55900 42.64400
C  -11.89800 36.15700 42.68400
C  -10.68400 36.01600 41.99900
C  -10.25300 37.34100 41.77000
C  -12.83100 35.04900 43.16100
C  -9.69100 35.03600 41.56700
O  -9.62700 33.83900 41.63100
C  -8.62200 35.87200 40.82700
C  -7.39300 35.61600 41.54600
O  -6.97400 36.17300 42.55100
O  -6.68500 34.61500 40.86300
C  -5.77300 33.77700 41.67200
H  -7.33000 42.59900 40.01900
H  -12.86000 43.88800 42.99200
H  -14.14400 37.67800 43.45600
H  -6.30900 37.87300 40.22300
H  -6.62900 40.48400 38.57400
H  -4.98400 39.74600 40.92700
H  -5.48200 41.40100 40.80700
H  -4.64400 40.77900 39.51700
H  -7.01600 38.61000 37.41400
H  -8.38800 37.81800 38.11500
H  -7.45300 35.86700 37.62100
H  -6.06500 36.17200 38.71200
H  -6.88000 44.83100 40.89000
H  -7.95400 45.96100 41.64200
H  -8.22700 45.53500 39.98800
H  -13.04900 46.12100 42.10000
H  -12.21600 47.25300 43.21000
H  -12.47800 45.65600 43.77100
H  -14.92900 42.48800 42.42900
H  -15.01500 40.08500 44.51100
H  -15.25100 42.29300 45.43800
H  -15.43400 43.72600 44.40700
H  -13.93900 43.26600 45.04100
H  -15.76600 39.61600 41.69000
H  -16.73100 40.91000 42.47300
H  -16.53700 38.57900 44.15100
H  -17.32400 38.28100 42.53600
H  -17.97100 39.54000 43.71900
H  -12.31700 34.62500 44.02400
H  -13.00300 34.35200 42.34100
H  -13.73600 35.54800 43.50900
H  -8.52800 35.71600 39.75200
H  -6.29700 33.47100 42.57800
H  -4.95300 34.42900 41.97500
H  -5.42000 32.92200 41.09500

