158

Mg -11.62200 16.20300 43.12500
C  -8.24600 16.88800 43.15300
C  -12.27700 19.52200 41.99300
C  -14.76500 15.33800 42.58100
C  -10.80700 12.71400 43.49600
N  -10.41200 17.94000 42.50700
C  -9.04300 17.96700 42.79900
C  -8.52400 19.35700 42.35800
C  -9.82600 20.23800 42.42100
C  -10.92800 19.20100 42.30900
C  -9.92100 20.93200 43.81800
C  -7.86700 19.30400 40.89400
C  -6.59600 20.09500 40.55400
H  -5.46000 19.38500 39.74300
N  -13.28900 17.25600 42.21700
C  -13.36800 18.57500 41.84900
C  -14.74200 18.97100 41.61400
C  -15.46800 17.73100 41.61600
C  -14.51500 16.72000 42.20200
C  -15.20200 20.34900 41.26600
C  -16.94800 17.69300 41.27700
O  -17.55500 18.70300 41.01800
C  -17.67100 16.30700 41.12400
N  -12.59900 14.30400 43.02400
C  -13.97300 14.29400 42.94500
C  -14.53600 12.83800 43.17400
C  -13.32100 11.92600 43.18100
C  -12.14900 13.00200 43.26100
C  -15.56200 12.70100 44.26100
C  -13.19800 11.00400 41.92400
C  -13.58900 9.52900 42.19200
N  -9.87500 14.97000 43.43800
C  -9.73500 13.59800 43.56600
C  -8.28900 13.26900 43.71900
C  -7.62800 14.55000 43.62300
C  -8.71200 15.50700 43.34900
C  -7.69000 11.91300 43.93800
C  -6.38700 15.28500 43.60200
O  -5.25600 14.95800 43.90100
C  -6.70000 16.75700 43.11300
C  -6.02500 17.77400 43.88000
O  -6.16700 17.92000 45.07600
O  -5.16300 18.48100 43.09200
C  -4.36100 19.57800 43.64700
H  -12.46300 20.56400 41.72600
H  -15.80100 15.02600 42.42900
H  -10.48100 11.70900 43.77400
H  -7.75900 19.77100 43.01500
H  -9.77500 21.03000 41.67400
H  -9.04300 21.43400 44.22500
H  -10.04000 20.07700 44.48200
H  -10.70100 21.68600 43.92400
H  -8.67800 19.61900 40.23800
H  -7.58900 18.26500 40.71800
H  -6.22300 20.70600 41.37600
H  -6.89900 20.86900 39.84900
H  -15.57700 20.39200 40.24400
H  -14.36200 21.02700 41.40900
H  -15.98800 20.49000 42.00900
H  -18.56600 16.52600 40.54200
H  -17.92700 15.94000 42.11800
H  -17.03000 15.59100 40.60900
H  -15.14000 12.70300 42.27700
H  -13.24500 11.35400 44.10500
H  -15.39000 11.67800 44.59500
H  -16.60300 12.74000 43.94100
H  -15.33000 13.42800 45.03900
H  -12.14800 11.00200 41.63200
H  -13.82800 11.40200 41.12800
H  -12.67200 8.94000 42.17000
H  -14.37900 9.30900 41.47400
H  -14.00200 9.44300 43.19700
H  -6.62300 12.10600 44.05400
H  -7.91000 11.30600 43.06000
H  -8.04300 11.38800 44.82600
H  -6.35300 16.75800 42.07900
H  -3.58700 19.12800 44.27000
H  -4.88200 20.11100 44.44300
H  -3.90400 20.20100 42.87800
Mg -5.46400 25.04200 25.49200
C  -4.24100 26.60700 28.45500
C  -6.89600 22.69200 27.62200
C  -6.74000 23.65000 22.74700
C  -3.78700 27.45400 23.63600
N  -5.50900 24.79600 27.80300
C  -4.99500 25.52900 28.80300
C  -5.56400 25.08600 30.19900
C  -6.17700 23.70400 29.89200
C  -6.18700 23.71800 28.34200
C  -5.26100 22.52400 30.45200
C  -6.57300 26.21200 30.67100
C  -6.27500 26.81100 32.04600
H  -6.16300 25.89800 33.28100
N  -6.62100 23.33100 25.17200
C  -7.12400 22.49200 26.19900
C  -7.70500 21.41800 25.50100
C  -7.74100 21.71700 24.09100
C  -7.02900 22.92300 23.99600
C  -8.39900 20.29100 26.25200
C  -8.47800 20.95300 22.93000
O  -8.50600 21.30800 21.79200
C  -9.22900 19.69000 23.17100
N  -5.37000 25.53300 23.45900
C  -5.92400 24.78600 22.50000
C  -5.54300 25.25800 21.10800
C  -4.98900 26.64500 21.45300
C  -4.62100 26.52800 22.91900
C  -4.44400 24.29700 20.44100
C  -5.93700 27.88000 21.33600
C  -5.94100 28.59800 19.98300
N  -4.19600 26.67900 25.84100
C  -3.59500 27.53200 25.01100
C  -2.76300 28.41500 25.75200
C  -3.01000 28.06500 27.09700
C  -3.92300 27.04500 27.13400
C  -1.85200 29.42200 25.20800
C  -2.56900 28.41000 28.49900
O  -1.78600 29.27600 28.83100
C  -3.47000 27.52500 29.45200
C  -2.62900 26.66900 30.32800
O  -1.87500 25.83200 29.87000
O  -2.81200 26.93100 31.69400
C  -2.12100 26.06900 32.66700
H  -7.39500 21.97400 28.27600
H  -7.24200 23.25800 21.86000
H  -3.17200 28.14500 23.05500
H  -4.82100 24.95100 30.98400
H  -7.14500 23.58900 30.38000
H  -5.85400 21.63000 30.64400
H  -4.77400 22.88700 31.35700
H  -4.56000 22.15200 29.70500
H  -7.57900 25.79100 30.69200
H  -6.48700 27.02400 29.94900
H  -6.98800 27.62400 32.17800
H  -5.34200 27.29800 31.76000
H  -7.99100 19.33700 25.91900
H  -9.45900 20.26900 25.99700
H  -8.35600 20.16300 27.33300
H  -10.00900 19.98100 23.87400
H  -8.63900 18.89800 23.63300
H  -9.61800 19.31300 22.22500
H  -6.45200 25.30700 20.51000
H  -4.06200 26.86800 20.92500
H  -4.15900 23.45200 21.06800
H  -3.59000 24.76200 19.94800
H  -4.96600 23.76100 19.64800
H  -5.84000 28.68200 22.06700
H  -6.94600 27.47500 21.42300
H  -5.09700 29.28600 20.03700
H  -6.88600 29.06100 19.70100
H  -5.77000 27.85500 19.20400
H  -2.49500 29.97400 24.52100
H  -0.92800 29.07600 24.74500
H  -1.51800 30.10200 25.99100
H  -4.07000 28.28300 29.95600
H  -2.33800 25.00400 32.57500
H  -2.37700 26.40500 33.67200
H  -1.04200 26.14800 32.53400

