158

Mg 50.23200 35.04400 26.23100
C  48.09600 33.62600 28.71300
C  50.18300 37.98800 28.09500
C  52.09800 36.51600 23.77100
C  49.75400 32.26200 24.28400
N  49.28000 35.69700 28.12700
C  48.54000 34.89800 29.00200
C  48.29200 35.63400 30.31700
C  48.82300 37.08000 30.03500
C  49.48300 36.94000 28.65600
C  47.82800 38.26400 30.18500
C  49.23600 34.90000 31.38500
C  48.73100 34.68400 32.81700
H  47.47200 35.52000 33.31000
N  51.03000 36.98800 25.99500
C  50.89500 38.03400 26.89000
C  51.67800 39.13100 26.44300
C  52.34400 38.75500 25.23700
C  51.89400 37.37500 24.93700
C  51.75700 40.42700 27.15900
C  53.30900 39.53400 24.37600
O  53.82000 39.06000 23.37300
C  53.66600 40.93900 24.72800
N  50.75400 34.58000 24.20500
C  51.58100 35.26800 23.39900
C  51.78500 34.50500 22.08600
C  51.46600 33.08400 22.53000
C  50.53900 33.33400 23.69300
C  51.05200 35.11200 20.87000
C  52.72500 32.22300 22.99200
C  53.49300 31.47200 21.88500
N  49.20700 33.24600 26.47000
C  49.08400 32.23300 25.56000
C  48.30700 31.13000 26.14400
C  47.79200 31.68300 27.33000
C  48.46100 32.93500 27.52700
C  48.08000 29.75000 25.51900
C  46.99500 31.39600 28.45800
O  46.45200 30.31900 28.70400
C  47.13300 32.60400 29.38400
C  47.62700 31.96800 30.67400
O  48.59000 31.24000 30.79500
O  46.59200 32.03500 31.54600
C  46.66100 31.18400 32.73900
H  50.13600 38.84900 28.76600
H  52.74300 37.03400 23.05800
H  49.93500 31.29500 23.80900
H  47.22600 35.75000 30.51100
H  49.70200 37.21900 30.66400
H  46.97900 37.83300 30.71600
H  47.51600 38.66800 29.22100
H  48.34400 38.97300 30.83300
H  50.13300 35.50300 31.52400
H  49.44700 33.90900 30.98400
H  49.47000 34.99300 33.55600
H  48.48700 33.62400 32.87700
H  52.81900 40.49500 27.39500
H  51.16900 40.60500 28.06000
H  51.38300 41.21500 26.50500
H  52.77900 41.56300 24.83600
H  54.38900 41.40100 24.05600
H  54.12600 40.93000 25.71600
H  52.85000 34.60100 21.87400
H  51.01200 32.39900 21.81400
H  50.48400 34.24900 20.52100
H  51.67700 35.37100 20.01500
H  50.50900 36.04400 21.02600
H  52.33900 31.54400 23.75100
H  53.42600 32.83000 23.56600
H  54.55700 31.68900 21.98800
H  53.05200 31.66700 20.90700
H  53.26100 30.41200 21.97900
H  48.79300 29.34100 24.80300
H  47.09100 29.62600 25.07800
H  48.07500 29.14900 26.42800
H  46.14100 33.02600 29.54300
H  45.86600 31.52500 33.40200
H  47.59600 31.21900 33.29800
H  46.32600 30.19300 32.43400
Mg 35.66600 48.02300 25.50700
C  36.20400 46.20600 28.47700
C  34.08600 50.47700 27.22700
C  35.31800 49.63800 22.62000
C  37.32100 45.47700 23.78700
N  35.25400 48.31200 27.56900
C  35.59600 47.48400 28.63200
C  35.42300 48.13500 29.98600
C  34.49100 49.34300 29.56600
C  34.59200 49.43500 27.99800
C  32.97000 49.35500 29.98000
C  36.72000 48.64900 30.72400
C  36.64800 48.66100 32.27200
H  35.27600 48.52600 32.91200
N  34.99000 49.88400 24.99300
C  34.31900 50.77200 25.84600
C  33.87800 51.92600 25.12900
C  34.17100 51.72600 23.74700
C  34.78500 50.33200 23.67800
C  33.21000 53.08000 25.82800
C  33.87900 52.70500 22.58700
O  34.24500 52.39200 21.49500
C  33.24800 53.96800 22.84500
N  36.25600 47.58300 23.45500
C  36.02900 48.49200 22.49100
C  36.74900 48.08600 21.15600
C  37.57400 46.88400 21.61700
C  37.06200 46.64600 23.02200
C  35.63100 47.88800 20.06600
C  39.13800 47.12800 21.41800
C  39.90900 46.25900 20.45600
N  36.45000 46.17000 25.91100
C  37.04100 45.21700 25.14100
C  37.33100 44.05400 25.85400
C  37.05300 44.39800 27.22600
C  36.52400 45.71200 27.20200
C  38.03000 42.80000 25.36200
C  37.13800 43.94300 28.61500
O  37.58400 42.91400 29.11100
C  36.57900 45.14000 29.46500
C  35.37200 44.72600 30.25800
O  34.22800 44.67000 29.86900
O  35.79400 44.49900 31.57000
C  34.62300 43.96600 32.38600
H  33.39400 51.05000 27.84800
H  35.14600 50.20600 21.70400
H  37.96300 44.77100 23.25500
H  34.85300 47.46300 30.62800
H  34.76700 50.27900 30.05100
H  32.39500 49.07800 29.09700
H  32.59900 50.32500 30.30900
H  32.70800 48.71000 30.81900
H  36.95500 49.65800 30.38600
H  37.56400 47.99300 30.50800
H  37.13600 49.55600 32.65800
H  37.38400 47.91300 32.56400
H  32.29900 53.41200 25.33000
H  33.78200 54.00700 25.82400
H  32.92400 52.82400 26.84800
H  33.13900 54.42200 21.86100
H  33.89100 54.58400 23.47500
H  32.25200 53.84700 23.27000
H  37.35400 48.94300 20.85900
H  37.28900 45.99700 21.05000
H  34.70100 48.38500 20.34000
H  35.51500 46.80600 20.00500
H  35.91500 48.27300 19.08600
H  39.60900 47.01000 22.39400
H  39.36100 48.16700 21.17400
H  40.61300 45.66700 21.04200
H  40.53900 46.89600 19.83400
H  39.24900 45.59100 19.90400
H  37.26800 42.02600 25.26300
H  38.75200 42.50100 26.12100
H  38.53700 43.04200 24.42800
H  37.38700 45.34000 30.16800
H  34.93100 44.16100 33.41300
H  34.42000 42.89700 32.31400
H  33.70800 44.54900 32.28300

