158

Mg 46.62400 15.89000 29.44300
C  44.50000 15.51400 32.10300
C  48.29300 18.30700 31.13500
C  48.50500 16.24700 26.73700
C  44.44500 13.91800 27.58200
N  46.39000 16.87300 31.38900
C  45.57400 16.36500 32.36400
C  45.89200 16.97900 33.74600
C  46.78700 18.31000 33.38600
C  47.18300 17.80200 31.91300
C  45.98400 19.59800 33.27400
C  46.62600 15.98400 34.68100
C  46.45400 16.16500 36.17800
H  47.72400 16.19100 37.11400
N  48.25700 17.07000 29.02200
C  48.79400 18.06500 29.84600
C  49.92500 18.61000 29.22500
C  49.93500 18.04400 27.94300
C  48.88600 17.04600 27.82100
C  50.72600 19.80400 29.74800
C  50.90600 18.38800 26.75300
O  50.73500 18.00600 25.61900
C  52.10000 19.24900 26.96900
N  46.42000 15.36000 27.34800
C  47.38400 15.50000 26.41900
C  47.30100 14.59200 25.14900
C  45.93600 13.94900 25.44400
C  45.58900 14.38300 26.87000
C  47.45300 15.35200 23.76400
C  45.67700 12.34900 25.19200
C  46.45700 11.34500 26.06000
N  44.80500 14.95400 29.72100
C  44.03300 14.22500 28.88600
C  42.84500 13.75400 29.57600
C  43.01700 14.22100 30.90400
C  44.20500 14.94900 30.88200
C  41.72700 12.99500 28.92800
C  42.42600 14.24100 32.18600
O  41.34300 13.79200 32.52000
C  43.45600 15.08900 33.11100
C  42.65400 16.12100 33.72100
O  42.43700 17.21300 33.16000
O  42.40800 15.75300 35.08900
C  41.80200 16.82000 35.86100
H  48.94600 18.85500 31.81800
H  49.04800 16.23800 25.78900
H  43.84800 13.19600 27.02100
H  44.96300 17.35500 34.17400
H  47.67000 18.48900 33.99900
H  46.52400 20.27000 32.60800
H  45.67100 20.08000 34.20100
H  45.08300 19.38000 32.70100
H  47.68700 16.04800 34.44300
H  46.26000 14.99200 34.41400
H  45.74500 15.37000 36.40900
H  46.00200 17.15500 36.24200
H  50.63600 20.03400 30.81000
H  50.44900 20.66800 29.14400
H  51.79700 19.69400 29.58000
H  52.79200 18.84500 27.70800
H  51.73900 20.16300 27.44100
H  52.71700 19.47500 26.09800
H  48.13900 13.90700 25.28100
H  45.23700 14.51500 24.82800
H  46.65100 14.98300 23.12500
H  48.35800 14.99100 23.27500
H  47.36600 16.43400 23.86200
H  45.92700 12.18200 24.14400
H  44.60700 12.18200 25.31100
H  45.70100 10.72300 26.53800
H  47.07600 11.83000 26.81400
H  46.97300 10.66800 25.37900
H  42.01900 12.55100 27.97600
H  40.94700 13.74400 28.78700
H  41.38500 12.20200 29.59300
H  43.88600 14.40700 33.84400
H  41.55000 17.70000 35.26800
H  42.44100 17.15300 36.67900
H  41.01300 16.32900 36.43100
Mg -1.13800 33.87300 27.67900
C  -2.58200 32.18800 30.51600
C  0.66200 35.83100 29.89800
C  -0.43500 35.80300 25.11900
C  -3.48000 32.18000 25.58700
N  -0.95100 33.88500 29.98500
C  -1.65000 33.18900 30.98800
C  -1.24100 33.55000 32.43400
C  -0.14700 34.63500 32.09200
C  -0.12500 34.83600 30.56700
C  -0.39400 35.96700 32.88900
C  -0.68300 32.29200 33.12200
C  -1.16100 31.95600 34.50600
H  -0.23200 32.41700 35.67500
N  -0.03200 35.62200 27.53000
C  0.74800 36.26500 28.53900
C  1.51600 37.31400 27.82200
C  1.24200 37.31900 26.42500
C  0.21400 36.24100 26.33100
C  2.49400 38.16400 28.57800
C  1.81100 38.09100 25.26100
O  1.57700 37.95100 24.07400
C  2.93900 39.04300 25.52800
N  -2.07800 34.09400 25.71000
C  -1.48000 34.87900 24.82800
C  -1.73900 34.47300 23.37800
C  -2.61900 33.22900 23.44500
C  -2.75000 33.16900 25.00500
C  -2.29300 35.62200 22.58300
C  -2.09600 31.90900 22.87100
C  -1.15500 30.98200 23.73800
N  -2.62900 32.47600 27.93800
C  -3.50500 31.84900 26.96700
C  -4.36900 30.89700 27.72000
C  -4.02600 31.08100 29.05300
C  -2.96500 31.98400 29.18900
C  -5.49600 30.13500 27.16000
C  -4.38300 30.62100 30.38500
O  -5.15000 29.74400 30.72700
C  -3.43800 31.29000 31.34000
C  -4.26900 31.99700 32.31400
O  -4.48100 33.21900 32.29700
O  -4.66400 31.16800 33.33000
C  -5.43600 31.75300 34.39300
H  1.29700 36.45300 30.53300
H  -0.03000 36.14600 24.16500
H  -4.05100 31.57300 24.88100
H  -2.04800 33.98400 33.02400
H  0.85200 34.31600 32.39000
H  0.50200 36.42100 33.31200
H  -1.05100 35.70100 33.71700
H  -0.87900 36.61400 32.15800
H  0.39900 32.38900 33.21600
H  -0.75500 31.45700 32.42500
H  -1.13900 30.87300 34.63000
H  -2.09100 32.47900 34.73000
H  3.49600 37.93400 28.21500
H  2.49300 37.88100 29.63000
H  2.15600 39.19000 28.72000
H  3.21700 39.52500 24.59100
H  3.78100 38.43900 25.86600
H  2.56400 39.69200 26.32000
H  -0.81600 34.07000 22.96100
H  -3.58500 33.41300 22.97500
H  -1.63900 35.61600 21.71100
H  -2.29000 36.59500 23.07300
H  -3.30400 35.42200 22.22600
H  -1.43500 32.17700 22.04700
H  -2.85100 31.29900 22.37600
H  -0.97800 31.32600 24.75700
H  -0.17200 30.96700 23.26700
H  -1.61200 29.99400 23.79300
H  -6.41500 30.39200 27.68800
H  -5.39900 29.05000 27.16500
H  -5.65400 30.31800 26.09800
H  -2.81100 30.61100 31.91800
H  -6.28100 32.36600 34.08100
H  -4.77700 32.34500 35.02800
H  -5.94900 30.93900 34.90500

