158

Mg 26.92600 50.36300 27.50200
C  24.84600 51.76900 29.80400
C  29.38500 49.80000 29.93900
C  29.13500 49.31400 25.13600
C  24.73200 51.49300 24.92700
N  27.09600 50.79200 29.59000
C  25.98900 51.18400 30.36300
C  26.26900 50.93100 31.78500
C  27.74100 50.58900 31.79900
C  28.13700 50.33200 30.34400
C  28.55800 51.70800 32.43000
C  25.37700 49.86700 32.52900
C  24.28200 50.45200 33.53300
H  24.27400 49.70700 34.92000
N  28.95900 49.66100 27.54900
C  29.72100 49.38800 28.62200
C  31.02000 48.79000 28.23200
C  31.00000 48.81900 26.85200
C  29.72500 49.30800 26.41300
C  32.11900 48.38900 29.21600
C  32.01900 48.39800 25.88600
O  31.97800 48.87400 24.75700
C  33.26300 47.51700 26.38500
N  26.97100 50.48200 25.34100
C  27.97300 49.85500 24.57500
C  27.43900 49.60800 23.11600
C  26.06300 50.31000 23.12500
C  25.88300 50.80000 24.54100
C  28.34400 50.05500 21.99200
C  24.88700 49.22200 22.82600
C  23.68300 49.70400 21.96400
N  25.14400 51.50600 27.25800
C  24.26300 51.77400 26.23000
C  23.07000 52.53700 26.76200
C  23.27600 52.56500 28.14500
C  24.52300 51.90900 28.39800
C  22.02900 53.18000 25.90800
C  22.70400 53.04400 29.36200
O  21.72000 53.69300 29.61300
C  23.62500 52.44500 30.50800
C  23.92300 53.47900 31.54700
O  24.86000 54.20800 31.48200
O  22.98500 53.45200 32.56700
C  23.23400 54.43000 33.62900
H  30.10000 49.49900 30.70700
H  29.81400 48.84700 24.42000
H  23.93500 51.74300 24.22400
H  26.05900 51.91900 32.19600
H  27.85400 49.67500 32.38200
H  29.45700 51.92300 31.85200
H  29.00200 51.27300 33.32500
H  28.16100 52.66200 32.77600
H  25.84100 49.06600 33.10300
H  24.93100 49.41900 31.64100
H  23.32900 50.35200 33.01300
H  24.42800 51.52800 33.62600
H  32.96900 48.83600 28.70000
H  32.19700 47.30500 29.30900
H  32.04300 48.67100 30.26600
H  33.46400 46.82800 25.56500
H  33.02000 46.96600 27.29300
H  34.21600 48.00100 26.60100
H  27.28400 48.54600 22.92700
H  26.09000 51.18400 22.47400
H  28.52200 49.15700 21.40000
H  29.35500 50.42700 22.15700
H  27.75600 50.74200 21.38200
H  24.40100 48.74600 23.67800
H  25.34000 48.39600 22.27700
H  23.79000 49.34600 20.94000
H  23.74200 50.78400 21.82600
H  22.68000 49.63400 22.38400
H  21.08700 52.81600 26.31900
H  22.24700 52.91900 24.87300
H  22.10800 54.22700 26.20300
H  23.14700 51.57500 30.95800
H  23.19400 55.50500 33.45200
H  24.26500 54.24100 33.92600
H  22.58200 54.22900 34.47900
Mg -11.29200 16.89100 41.62100
C  -8.23200 15.32900 40.71900
C  -10.22000 19.64000 39.92900
C  -14.44900 18.10600 41.67600
C  -12.50100 13.74100 42.61900
N  -9.51600 17.35500 40.21800
C  -8.38300 16.55000 40.10200
C  -7.26100 17.26600 39.36900
C  -7.79500 18.76300 39.28300
C  -9.24600 18.63200 39.81700
C  -6.86300 19.80400 39.92900
C  -7.00500 16.48100 38.00000
C  -5.51400 16.27600 37.67900
H  -4.86600 17.10700 36.39600
N  -12.28300 18.62900 40.95000
C  -11.61300 19.65600 40.28700
C  -12.54300 20.78200 40.03500
C  -13.74400 20.35300 40.60100
C  -13.54500 18.96000 41.03600
C  -12.18700 22.08300 39.29600
C  -15.02300 21.23500 40.82300
O  -15.20000 22.31600 40.32000
C  -16.10600 20.72600 41.76700
N  -13.32700 15.99200 41.96000
C  -14.36200 16.82200 42.17300
C  -15.54900 15.92500 42.58200
C  -14.92400 14.54400 43.11600
C  -13.49300 14.74100 42.49500
C  -16.61600 16.47100 43.58000
C  -15.67200 13.22400 42.81200
C  -16.18200 12.53800 44.02000
N  -10.55900 14.94900 41.78000
C  -11.12600 13.79400 42.24200
C  -10.06900 12.82200 42.38000
C  -8.94200 13.41300 41.81600
C  -9.24900 14.70000 41.45700
C  -10.32900 11.39500 43.00100
C  -7.59600 13.14500 41.46100
O  -7.05300 12.03400 41.46700
C  -7.05400 14.39800 40.69600
C  -5.98900 14.94700 41.48000
O  -5.99300 15.30300 42.63700
O  -4.92200 15.07400 40.59600
C  -3.73300 15.58000 41.29700
H  -9.86000 20.57400 39.49400
H  -15.49000 18.43100 41.62400
H  -12.89800 12.85300 43.11500
H  -6.35800 17.29100 39.97800
H  -7.96800 18.97300 38.22800
H  -6.22900 19.43600 40.73600
H  -7.55300 20.47300 40.44400
H  -6.29600 20.42100 39.23200
H  -7.45200 17.04000 37.17900
H  -7.48600 15.50300 37.97100
H  -5.34300 15.22300 37.45600
H  -4.99400 16.60900 38.57800
H  -12.56100 22.07800 38.27200
H  -11.10200 22.17800 39.26000
H  -12.54600 22.90800 39.91100
H  -16.60800 21.59200 42.19700
H  -15.64100 20.24800 42.63000
H  -16.76700 20.02900 41.25100
H  -16.02100 15.86400 41.60100
H  -14.69700 14.69000 44.17200
H  -16.29500 16.13400 44.56600
H  -17.57400 15.99700 43.36700
H  -16.62300 17.56100 43.56900
H  -15.02900 12.58600 42.20600
H  -16.62900 13.41900 42.32900
H  -17.24400 12.29500 44.00500
H  -16.06400 13.05100 44.97400
H  -15.73800 11.56400 44.22300
H  -11.03600 11.65100 43.79000
H  -9.36000 11.07700 43.38400
H  -10.83400 10.81900 42.22500
H  -6.62100 14.06100 39.75300
H  -2.87500 15.74000 40.64400
H  -3.36900 14.80000 41.96600
H  -3.81500 16.46200 41.93200

