158

Mg 30.64600 57.55700 40.88000
C  28.17200 55.30900 40.03700
C  32.97400 55.17300 39.74400
C  33.12100 60.00400 40.87600
C  28.32000 60.00100 41.40000
N  30.55400 55.53600 39.77300
C  29.40000 54.78600 39.69500
C  29.73400 53.35200 39.34200
C  31.28400 53.29200 39.62200
C  31.63900 54.74800 39.70100
C  31.65100 52.60700 40.98500
C  29.26900 52.95600 37.90200
C  29.55400 54.01300 36.81400
H  28.37500 54.50100 36.01000
N  32.85800 57.52800 40.59300
C  33.51700 56.47200 39.96500
C  34.89300 56.85100 39.89900
C  34.97800 58.28100 40.20000
C  33.59300 58.64100 40.56400
C  35.92900 55.93700 39.37000
C  36.22200 59.09400 40.10200
O  37.22800 58.57200 39.70600
C  36.32400 60.53900 40.47300
N  30.69500 59.76500 40.97600
C  31.84600 60.50100 41.10600
C  31.51900 61.92300 41.32300
C  30.05900 61.83000 41.88300
C  29.64000 60.40800 41.40900
C  32.50200 62.77200 42.10100
C  29.07400 63.00800 41.47800
C  28.29800 63.82300 42.65100
N  28.64800 57.76700 40.62100
C  27.78500 58.82100 40.94000
C  26.43000 58.35100 40.77200
C  26.51900 56.97300 40.43600
C  27.88600 56.66100 40.35200
C  25.23600 59.18900 41.05100
C  25.79100 55.79700 40.26600
O  24.57500 55.55900 40.43000
C  26.81400 54.64400 39.99600
C  26.59900 53.63900 41.07300
O  27.02700 53.72700 42.21200
O  25.74300 52.65200 40.65700
C  25.13300 51.99200 41.85900
H  33.67000 54.33500 39.66400
H  33.87500 60.78900 40.79700
H  27.55900 60.64300 41.84900
H  29.34600 52.69600 40.12200
H  31.81700 52.73500 38.85100
H  30.82100 52.26500 41.60400
H  32.24200 53.31500 41.56500
H  32.27900 51.72400 40.86600
H  28.18400 52.86000 37.87500
H  29.75300 52.01200 37.65100
H  30.24400 53.55600 36.10500
H  30.08800 54.88500 37.19100
H  36.18200 56.16400 38.33400
H  35.69900 54.88400 39.52600
H  36.80300 56.17900 39.97500
H  35.95500 60.65400 41.49200
H  35.81200 61.26800 39.84500
H  37.37700 60.79300 40.34800
H  31.41300 62.41500 40.35600
H  30.10500 61.73300 42.96800
H  33.40900 62.18100 42.23000
H  32.11800 63.01200 43.09200
H  32.63500 63.71100 41.56300
H  28.39000 62.56200 40.75700
H  29.47600 63.84400 40.90500
H  28.86800 64.70700 42.93600
H  28.23300 63.21200 43.55100
H  27.28700 64.08600 42.34100
H  24.33500 58.57500 41.01700
H  24.98200 59.93300 40.29600
H  25.38300 59.78000 41.95500
H  26.62200 54.20200 39.01800
H  25.83400 51.31600 42.34900
H  24.27400 51.50100 41.40200
H  24.92300 52.73400 42.63000
Mg -11.62600 16.25400 42.39800
C  -8.61400 14.51900 41.76900
C  -10.28700 19.05600 41.15000
C  -14.73000 17.46900 42.26800
C  -13.01500 13.06500 43.01600
N  -9.77800 16.68600 41.34600
C  -8.67500 15.87100 41.32500
C  -7.47700 16.60100 40.68000
C  -7.95100 18.08600 40.64300
C  -9.40700 17.93800 41.01500
C  -7.03500 18.83600 41.69500
C  -7.11700 16.08700 39.26100
C  -5.57200 16.10700 38.90200
H  -4.95400 17.29800 38.20200
N  -12.42800 18.10800 41.78400
C  -11.65400 19.15700 41.31500
C  -12.52200 20.29000 41.17400
C  -13.85400 19.85100 41.51100
C  -13.73700 18.43300 41.93700
C  -11.97400 21.59300 40.85500
C  -15.19100 20.63900 41.30900
O  -15.14700 21.74600 40.76400
C  -16.45600 20.10500 41.71200
N  -13.61500 15.33400 42.31900
C  -14.65700 16.11000 42.40600
C  -15.95500 15.31400 42.71200
C  -15.43500 13.79800 42.69700
C  -13.90000 14.06000 42.68300
C  -16.75200 15.70300 44.04300
C  -15.97500 12.86500 41.48200
C  -16.51300 11.59000 42.06500
N  -10.94000 14.20400 42.59100
C  -11.61400 13.10300 42.88300
C  -10.61500 11.97300 42.95900
C  -9.41500 12.54100 42.57900
C  -9.69500 13.86300 42.28300
C  -10.92400 10.59500 43.50700
C  -8.07700 12.30700 42.31200
O  -7.41900 11.24500 42.43100
C  -7.45400 13.61700 41.81500
C  -6.39500 14.07500 42.76200
O  -6.35400 13.96700 43.98600
O  -5.28400 14.55700 42.12000
C  -4.20500 15.00100 43.06700
H  -9.79400 19.96100 40.78800
H  -15.72700 17.82500 42.53400
H  -13.48800 12.12400 43.30400
H  -6.53500 16.49400 41.21800
H  -7.84000 18.52600 39.65200
H  -7.67600 19.59700 42.14200
H  -6.16700 19.30600 41.23400
H  -6.70600 18.08400 42.41200
H  -7.59700 16.72000 38.51400
H  -7.36700 15.05000 39.04100
H  -5.42700 15.22300 38.28200
H  -4.97300 15.95800 39.80000
H  -12.69700 22.37400 41.08900
H  -11.75000 21.68700 39.79300
H  -11.09900 21.79200 41.47400
H  -17.23800 20.85600 41.59200
H  -16.35400 19.83000 42.76200
H  -16.63900 19.27300 41.03100
H  -16.64300 15.45500 41.87900
H  -15.67700 13.30900 43.64100
H  -17.78800 15.77200 43.71200
H  -16.51300 16.68200 44.45800
H  -16.64900 14.91700 44.79100
H  -15.07000 12.78800 40.87800
H  -16.71700 13.53700 41.05100
H  -15.78600 10.84100 41.75100
H  -17.53600 11.30500 41.82300
H  -16.36900 11.47000 43.13900
H  -11.83100 10.28300 42.99000
H  -11.20500 10.71000 44.55400
H  -10.23300 9.75300 43.46600
H  -7.08600 13.34900 40.82500
H  -4.56400 16.00500 43.29300
H  -3.34800 15.21400 42.42800
H  -3.97300 14.44200 43.97400

