158

Mg 1.01000 7.99300 26.59700
C  1.68200 10.13000 29.38800
C  1.57100 5.38700 28.67200
C  0.85600 6.07000 23.82300
C  0.89700 10.87900 24.59600
N  1.48600 7.84800 28.76900
C  1.69300 8.79700 29.73700
C  1.80500 8.33500 31.12500
C  2.03500 6.79300 30.76500
C  1.68500 6.62900 29.29800
C  3.55400 6.16000 30.97900
C  0.60200 8.54000 31.96100
C  0.69000 8.38500 33.54300
H  1.94000 7.77500 34.23000
N  1.06900 5.99700 26.36500
C  1.35100 5.09300 27.30100
C  1.41200 3.78500 26.63300
C  1.09800 3.91000 25.31100
C  0.97300 5.44300 25.07800
C  1.82300 2.58800 27.42400
C  0.85600 2.87000 24.18100
O  0.29000 3.22400 23.17900
C  1.18800 1.41500 24.33400
N  0.74300 8.38000 24.52000
C  0.74900 7.41800 23.53400
C  0.49500 8.00700 22.15800
C  0.46300 9.57500 22.49000
C  0.55400 9.64800 24.04000
C  1.38600 7.58300 21.05100
C  -0.76500 10.34000 21.98000
C  -0.50100 11.70500 21.27800
N  1.19400 10.09500 26.85500
C  1.13500 11.13000 25.95800
C  1.41600 12.40600 26.63100
C  1.61200 12.02400 27.98400
C  1.41500 10.64600 28.09600
C  1.52700 13.64700 25.96800
C  1.87700 12.57000 29.26900
O  2.14900 13.70900 29.60800
C  1.79300 11.36600 30.28500
C  2.97300 11.48300 31.21900
O  4.07900 11.00400 31.00900
O  2.50400 12.20800 32.29900
C  3.43400 12.22500 33.37000
H  1.64100 4.57900 29.40300
H  0.77300 5.59800 22.84200
H  0.89800 11.76600 23.95900
H  2.60100 8.94300 31.55400
H  1.39000 6.33400 31.51400
H  4.26700 6.91000 31.32000
H  3.97000 5.67800 30.09400
H  3.57000 5.48200 31.83300
H  -0.14500 7.83000 31.60700
H  0.21400 9.53000 31.71900
H  -0.18100 7.78700 33.81200
H  0.48300 9.37600 33.94700
H  2.60800 2.70900 28.17100
H  2.16200 1.80300 26.74700
H  0.96900 2.22900 27.99700
H  0.66000 1.03000 25.20600
H  2.25800 1.54800 24.49500
H  1.07200 0.83900 23.41600
H  -0.50100 7.74300 21.80100
H  1.34000 9.92100 21.94200
H  0.81800 6.74700 20.64100
H  2.39500 7.27400 21.32200
H  1.52500 8.33400 20.27400
H  -1.43400 10.51600 22.82200
H  -1.31500 9.83000 21.18900
H  -0.65600 12.58000 21.90900
H  -1.17600 11.83300 20.43200
H  0.57300 11.78600 21.10600
H  1.06900 14.53200 26.41000
H  1.30900 13.58300 24.90200
H  2.53600 14.04400 26.07700
H  0.87300 11.51200 30.85100
H  3.21900 13.01700 34.08800
H  4.47800 12.25300 33.05900
H  3.37200 11.25700 33.86700
Mg 8.68400 3.39100 27.33100
C  10.24100 1.96200 30.11100
C  7.14200 5.65100 29.52700
C  6.67700 4.58400 24.74400
C  9.86900 0.88900 25.31900
N  8.54500 3.60700 29.61600
C  9.42400 3.02100 30.53400
C  9.17800 3.57200 31.92600
C  8.13500 4.78700 31.73400
C  7.92000 4.68700 30.15600
C  6.84500 4.70400 32.67300
C  10.53200 4.08100 32.56800
C  10.36000 4.98100 33.80200
H  11.19700 4.54700 34.99900
N  7.22000 4.97100 27.13400
C  6.80900 5.85600 28.16100
C  5.90400 6.83300 27.58800
C  5.78200 6.54400 26.18400
C  6.60500 5.35100 25.92600
C  5.24800 7.95600 28.39000
C  4.86000 7.21100 25.18200
O  4.47200 6.62200 24.17400
C  4.16200 8.47900 25.42600
N  8.30600 2.87100 25.32000
C  7.46400 3.49600 24.42000
C  7.61200 2.94700 22.97500
C  8.69700 1.81400 23.21800
C  8.94000 1.76900 24.74500
C  6.20000 2.49900 22.39300
C  10.06100 2.03600 22.43100
C  10.24000 1.18400 21.23200
N  9.78300 1.76200 27.51600
C  10.31400 0.88800 26.61500
C  11.37700 0.10000 27.16400
C  11.31000 0.45400 28.54000
C  10.31800 1.44800 28.72100
C  12.21000 -0.93200 26.55200
C  11.93200 0.13900 29.80500
O  12.77700 -0.75000 30.11800
C  11.29600 1.14600 30.85500
C  10.66900 0.55300 32.05000
O  9.57300 -0.01600 32.00500
O  11.38900 0.86600 33.16900
C  10.76000 0.60500 34.48200
H  6.80400 6.35200 30.29400
H  6.15000 4.88500 23.83600
H  10.39200 0.25900 24.59700
H  8.69500 2.71500 32.39500
H  8.60700 5.74700 31.94100
H  7.22300 4.18200 33.55300
H  6.13900 4.03400 32.18200
H  6.48300 5.68400 32.98200
H  11.10400 4.57100 31.78000
H  10.98000 3.12900 32.85200
H  9.36500 5.07000 34.23800
H  10.66800 5.99200 33.53700
H  4.17300 7.78600 28.34000
H  5.48800 8.95700 28.03100
H  5.64500 7.73200 29.38000
H  4.74100 9.26000 25.91900
H  3.39900 8.09100 26.10100
H  3.69300 8.98900 24.58500
H  8.05400 3.73800 22.36900
H  8.31100 0.81200 23.02900
H  6.21500 1.70200 21.65000
H  5.78400 3.40400 21.95300
H  5.61200 2.10700 23.22300
H  10.94500 1.86600 23.04600
H  10.17400 3.08800 22.16700
H  11.19300 0.67400 21.37600
H  10.42900 1.83100 20.37500
H  9.44700 0.44800 21.10000
H  13.14400 -1.20800 27.04100
H  12.51400 -0.62700 25.55000
H  11.47300 -1.73500 26.59100
H  12.11000 1.82900 31.09700
H  9.72600 0.29800 34.32600
H  10.80600 1.52500 35.06500
H  11.35700 -0.13600 35.01300

