158

Mg 35.25700 2.68100 30.09900
C  33.19200 4.21100 32.48000
C  37.88400 2.72400 32.30200
C  37.31600 1.78700 27.57000
C  32.64200 2.91000 27.77700
N  35.53200 3.43500 32.10200
C  34.52900 3.91400 32.94300
C  34.97300 4.00900 34.43600
C  36.53200 3.89500 34.17400
C  36.71000 3.33100 32.75600
C  37.50000 5.05300 34.50300
C  34.29000 2.80000 35.21800
C  33.84900 3.12100 36.60300
H  34.56700 4.17800 37.46200
N  37.30400 2.19500 30.02300
C  38.12500 2.20300 31.05000
C  39.43800 1.85400 30.54800
C  39.36000 1.51300 29.15300
C  37.94300 1.80200 28.86000
C  40.72100 1.78600 31.43100
C  40.50000 0.97300 28.23100
O  40.22000 0.53700 27.06900
C  41.92700 0.90800 28.70600
N  34.99700 2.53200 27.99800
C  35.98000 1.99400 27.21200
C  35.54200 1.94700 25.75500
C  33.97200 2.00300 25.85800
C  33.84700 2.47700 27.29300
C  36.25400 2.97700 24.80100
C  33.26400 0.62300 25.50600
C  32.45300 0.64400 24.13700
N  33.37000 3.48700 30.07300
C  32.36100 3.39600 29.11200
C  31.10200 3.88200 29.60800
C  31.36300 4.15900 30.97700
C  32.71500 3.95300 31.19100
C  29.83200 3.97800 28.92300
C  30.76500 4.60200 32.19500
O  29.60200 4.95600 32.43600
C  31.92500 4.61000 33.23900
C  31.98600 5.75600 34.15300
O  32.78900 6.65900 34.09900
O  31.20500 5.41800 35.26000
C  31.41800 6.54000 36.23200
H  38.64700 2.67100 33.08200
H  38.04300 1.49500 26.80900
H  31.77400 2.69600 27.15000
H  34.70500 4.94600 34.92400
H  36.83100 3.05100 34.79500
H  37.09300 5.95100 34.96800
H  37.97900 5.40900 33.59100
H  38.26400 4.69800 35.19400
H  34.96000 1.94300 35.16300
H  33.54400 2.43300 34.51300
H  33.94200 2.17400 37.13400
H  32.77700 3.31800 36.62100
H  40.60700 2.53800 32.21200
H  41.64200 2.23100 31.05400
H  40.90100 0.81500 31.89200
H  41.99200 0.16800 29.50300
H  42.22700 1.90400 29.03300
H  42.52500 0.76700 27.80500
H  35.80400 0.96300 25.36600
H  33.67400 2.76900 25.14100
H  37.03400 3.48800 25.36400
H  35.52700 3.67200 24.38100
H  36.76700 2.46600 23.98600
H  32.61600 0.30400 26.32300
H  34.02200 -0.12300 25.26800
H  31.36900 0.60600 24.23900
H  32.88500 -0.05100 23.41700
H  32.61900 1.58100 23.60500
H  29.19100 3.24800 29.41700
H  29.89900 3.91300 27.83700
H  29.50600 5.00000 29.11200
H  31.76900 3.76100 33.90400
H  30.95200 7.40700 35.76400
H  32.47100 6.74900 36.41800
H  30.90000 6.38800 37.17900
Mg -12.96400 16.62300 41.99000
C  -9.60000 15.23700 41.65700
C  -11.57500 19.64400 41.18700
C  -15.99200 17.72300 42.06700
C  -14.08900 13.31800 42.50800
N  -10.79200 17.35400 41.67800
C  -9.62300 16.65100 41.50700
C  -8.45300 17.54800 41.12500
C  -9.02200 18.97000 41.37500
C  -10.52800 18.70500 41.36900
C  -8.55800 19.59300 42.73700
C  -7.98700 17.27000 39.70700
C  -6.45500 16.96100 39.46700
H  -5.76000 17.59000 38.26800
N  -13.71400 18.42500 41.64100
C  -13.02800 19.58200 41.27300
C  -13.96000 20.65000 41.12300
C  -15.21900 20.09100 41.34600
C  -15.05500 18.67700 41.70100
C  -13.47000 22.03300 40.71400
C  -16.52800 20.88000 41.40100
O  -16.41900 22.06800 41.00700
C  -17.90400 20.40800 41.72000
N  -14.78600 15.59100 41.91100
C  -15.92900 16.34100 42.19400
C  -17.11000 15.47800 42.58200
C  -16.51000 14.06700 42.47600
C  -15.04000 14.30400 42.32700
C  -17.68500 15.74100 44.00500
C  -16.98100 13.24800 41.26800
C  -17.89400 12.06900 41.69600
N  -12.08500 14.63500 42.03500
C  -12.64800 13.38900 42.32900
C  -11.62700 12.40500 42.27700
C  -10.49200 13.11300 42.06700
C  -10.75400 14.45500 41.91900
C  -11.83200 10.89000 42.40800
C  -9.00900 12.95500 41.77200
O  -8.30500 11.97900 41.80000
C  -8.37100 14.29900 41.54200
C  -7.35800 14.47100 42.61200
O  -7.42800 13.95400 43.74700
O  -6.23100 15.09900 42.17700
C  -4.99100 15.18700 42.94000
H  -11.24600 20.67800 41.06400
H  -16.98200 18.15600 42.22500
H  -14.55800 12.40000 42.86700
H  -7.67600 17.33400 41.85900
H  -8.69200 19.60400 40.55200
H  -9.21900 20.45000 42.86500
H  -7.59600 20.08500 42.59100
H  -8.57100 18.90600 43.58300
H  -8.16900 18.08600 39.00800
H  -8.61100 16.45500 39.34000
H  -6.37900 15.87700 39.38200
H  -5.87700 17.24700 40.34600
H  -13.40700 22.22800 39.64400
H  -12.50200 22.23400 41.17500
H  -14.09600 22.77800 41.20500
H  -18.17900 19.56400 41.08700
H  -18.55900 21.25800 41.53000
H  -17.92800 20.24900 42.79800
H  -17.78600 15.72900 41.76400
H  -16.75700 13.44000 43.33300
H  -18.53200 15.08100 44.19400
H  -18.00900 16.78200 43.98100
H  -17.04200 15.64400 44.87900
H  -16.27000 12.86600 40.53700
H  -17.61800 13.82400 40.59700
H  -18.95400 12.28500 41.56300
H  -17.70800 11.71200 42.70900
H  -17.65200 11.32200 40.94000
H  -12.38000 10.62900 43.31200
H  -10.82900 10.50600 42.59700
H  -12.29800 10.45200 41.52500
H  -7.90200 14.37700 40.56100
H  -4.87000 14.41000 43.69600
H  -4.99400 16.18900 43.36900
H  -4.05900 15.18700 42.37400

