158

Mg 10.19600 46.53500 26.33200
C  8.39900 46.97600 29.24000
C  12.73100 48.32900 27.87100
C  12.03400 46.36100 23.49500
C  7.36000 45.77100 24.51600
N  10.52500 47.41200 28.33300
C  9.74700 47.22800 29.43800
C  10.46800 47.50300 30.71300
C  11.73200 48.33100 30.22000
C  11.70100 47.97600 28.72700
C  11.74000 49.87100 30.45200
C  10.78600 46.39100 31.66100
C  10.03400 46.41500 32.98400
H  9.98700 45.20600 33.91300
N  12.20900 47.15500 25.72800
C  13.05300 47.93000 26.50400
C  14.26500 48.23100 25.79200
C  14.09400 47.59600 24.46200
C  12.76100 47.05400 24.51200
C  15.48900 48.82000 26.47600
C  15.05500 47.47800 23.30000
O  14.72000 47.00300 22.24400
C  16.43500 48.25800 23.35100
N  9.78900 46.10200 24.28500
C  10.77100 45.92600 23.31800
C  10.21900 45.29800 22.07200
C  8.76000 44.89600 22.50500
C  8.63400 45.58300 23.86800
C  10.31600 46.06200 20.68600
C  8.60800 43.34200 22.56200
C  8.62000 42.49400 23.82600
N  8.27700 46.45900 26.70600
C  7.20300 46.16400 25.87500
C  5.98100 46.29800 26.74600
C  6.47200 46.47200 28.01300
C  7.82500 46.63400 27.93400
C  4.57700 46.12600 26.21300
C  6.00500 46.57100 29.39300
O  4.91800 46.43600 29.91700
C  7.27000 46.69000 30.21500
C  7.39800 45.38600 30.84300
O  7.95100 44.41800 30.35500
O  6.70100 45.39100 32.00200
C  6.96500 44.28700 32.97700
H  13.45300 49.05300 28.25300
H  12.63600 46.17600 22.60300
H  6.46200 45.45500 23.98100
H  9.78700 48.17900 31.22900
H  12.60000 47.95600 30.76100
H  12.48400 50.00700 31.23700
H  10.80800 50.08900 30.97300
H  11.81700 50.42900 29.51900
H  11.84400 46.36900 31.92100
H  10.52200 45.39100 31.31700
H  9.07000 46.87500 32.76900
H  10.61300 47.20000 33.47000
H  15.67900 49.79100 26.02000
H  16.30700 48.11900 26.30800
H  15.31700 48.79400 27.55200
H  16.97000 47.99300 24.26300
H  16.00900 49.23300 23.11500
H  17.02800 47.92500 22.49900
H  10.81300 44.40900 21.86200
H  7.93700 45.36400 21.96600
H  9.35900 46.04200 20.16500
H  11.02300 45.59700 19.99800
H  10.58000 47.11800 20.74300
H  9.37400 42.83200 21.97800
H  7.72200 43.11400 21.97000
H  9.00900 43.08200 24.65700
H  9.20200 41.58400 23.67800
H  7.58000 42.35100 24.12200
H  4.06400 47.07300 26.37800
H  4.08100 45.29100 26.70800
H  4.76000 45.87000 25.16900
H  7.24900 47.48000 30.96500
H  7.06800 44.84400 33.90900
H  7.70800 43.53700 32.70700
H  6.04000 43.71100 33.02000
Mg -13.03000 39.06300 41.59900
C  -11.43500 36.11500 40.25400
C  -10.53400 40.94900 40.07000
C  -14.94000 41.84700 42.07800
C  -15.71900 37.05300 42.41500
N  -11.16000 38.52900 40.23000
C  -10.73100 37.30700 39.82300
C  -9.38300 37.39200 39.04200
C  -9.22800 38.95500 38.86500
C  -10.45700 39.56500 39.71400
C  -7.84900 39.44300 39.34600
C  -9.28300 36.57600 37.64400
C  -8.09700 35.60000 37.57100
H  -7.01400 36.00100 36.60800
N  -12.69500 41.10100 41.33000
C  -11.62100 41.68800 40.70200
C  -11.75200 43.15200 40.73900
C  -12.94200 43.44300 41.40700
C  -13.57800 42.11500 41.65500
C  -10.73900 44.18800 40.13800
C  -13.38900 44.83700 41.74100
O  -12.65900 45.77100 41.50700
C  -14.80700 45.21500 42.28900
N  -15.06700 39.33600 42.10200
C  -15.62600 40.63000 42.26500
C  -17.11800 40.52900 42.64400
C  -17.22600 39.07100 43.07300
C  -15.95800 38.42400 42.47700
C  -17.67900 41.52100 43.68300
C  -18.56000 38.34700 42.62800
C  -19.25300 37.39600 43.58500
N  -13.52300 36.98200 41.43100
C  -14.61700 36.28500 41.88200
C  -14.42300 34.90300 41.84800
C  -13.21700 34.75500 41.13900
C  -12.72200 36.06300 40.92200
C  -15.24800 33.85500 42.47100
C  -12.20500 33.82500 40.67900
O  -12.03500 32.60300 40.73600
C  -11.05500 34.67700 40.06800
C  -9.84800 34.32700 40.88800
O  -8.86000 33.74600 40.51500
O  -10.01000 34.76700 42.25100
C  -8.90400 34.57900 43.19100
H  -9.86500 41.56500 39.46600
H  -15.63600 42.66600 42.26900
H  -16.60900 36.62900 42.88400
H  -8.68100 36.91400 39.72500
H  -9.33400 39.20300 37.80900
H  -7.40500 40.15300 38.64900
H  -7.12600 38.65800 39.57100
H  -7.98200 40.05400 40.23900
H  -9.15800 37.14500 36.72300
H  -10.23000 36.04900 37.52500
H  -8.40900 34.58000 37.34500
H  -7.48300 35.58100 38.47200
H  -10.02900 43.65500 39.50500
H  -10.22500 44.74900 40.91900
H  -11.30600 44.83700 39.47000
H  -15.42900 44.84100 41.47700
H  -15.02800 46.27900 42.37900
H  -15.13700 44.62700 43.14500
H  -17.66200 40.58500 41.70200
H  -17.09600 38.86200 44.13500
H  -16.96600 42.28200 44.00000
H  -18.02000 41.07200 44.61600
H  -18.54100 41.95200 43.17300
H  -18.40600 37.82000 41.68700
H  -19.26000 39.14200 42.37300
H  -19.33800 36.45400 43.04400
H  -20.20000 37.82100 43.91600
H  -18.57800 37.21800 44.42200
H  -14.62900 33.06700 42.89800
H  -15.90700 33.40000 41.73100
H  -15.81800 34.35500 43.25400
H  -10.95800 34.51100 38.99500
H  -8.57000 35.58300 43.45200
H  -8.14100 33.89800 42.81600
H  -9.25200 34.02400 44.06200

