158

Mg 24.84200 -7.32600 47.65700
C  27.50900 -5.10600 46.68700
C  23.03400 -5.94500 44.98200
C  22.74100 -9.77500 48.01100
C  27.20900 -9.00300 49.74200
N  25.25500 -5.69500 46.12500
C  26.35300 -4.94200 45.88000
C  26.04300 -3.92700 44.74800
C  24.49900 -3.89900 44.74700
C  24.22600 -5.34100 45.26400
C  23.94100 -2.84200 45.72600
C  26.68000 -4.42400 43.36300
C  27.41300 -3.31700 42.53400
H  26.86300 -3.12800 41.10000
N  23.13800 -7.74700 46.75900
C  22.57000 -7.11300 45.60500
C  21.34900 -7.82100 45.15100
C  21.15600 -8.84900 46.12900
C  22.35100 -8.83900 47.05400
C  20.49500 -7.47800 43.88900
C  19.94600 -9.81200 46.08900
O  18.98600 -9.73800 45.26000
C  19.86200 -11.01500 47.06300
N  24.93400 -9.14500 48.76600
C  23.82400 -9.93400 48.85100
C  24.10800 -11.11700 49.77600
C  25.42500 -10.70400 50.47700
C  26.01300 -9.67900 49.53000
C  22.99100 -11.70100 50.59600
C  26.41700 -11.78100 50.80500
C  27.03300 -11.74100 52.23100
N  26.90500 -7.09100 48.25800
C  27.73000 -7.83200 49.06100
C  29.00500 -7.12500 49.21000
C  28.94700 -6.03100 48.31500
C  27.66500 -6.08700 47.72500
C  30.22900 -7.52800 49.99800
C  29.65600 -4.90200 47.74500
O  30.71800 -4.37600 47.97300
C  28.76800 -4.27000 46.61600
C  28.54000 -2.82000 46.80800
O  28.15900 -2.33500 47.84500
O  28.77300 -2.27200 45.58300
C  28.38400 -0.89800 45.51800
H  22.34900 -5.50900 44.25200
H  21.97600 -10.54200 48.14300
H  27.87600 -9.28700 50.55900
H  26.39600 -2.92000 44.96900
H  24.05100 -3.73600 43.76700
H  23.32700 -2.18900 45.10600
H  24.62800 -2.18500 46.26000
H  23.21300 -3.36200 46.34800
H  25.97700 -4.96100 42.72600
H  27.39800 -5.18000 43.68300
H  28.48400 -3.48200 42.41300
H  27.18800 -2.36500 43.01300
H  19.85400 -8.25800 43.47800
H  21.26300 -7.10800 43.21000
H  19.95400 -6.55700 44.10600
H  19.96200 -10.67600 48.09400
H  20.66300 -11.69300 46.77100
H  18.85300 -11.42400 47.01200
H  24.45700 -11.91300 49.11600
H  25.14600 -10.17200 51.38600
H  22.56100 -12.46200 49.94600
H  22.23100 -10.92700 50.70800
H  23.37300 -12.06200 51.55100
H  27.13700 -11.81400 49.98700
H  25.94500 -12.76400 50.81100
H  27.87100 -11.04300 52.25000
H  27.26300 -12.73800 52.60600
H  26.32600 -11.31100 52.94000
H  30.03000 -7.34900 51.05500
H  31.12300 -7.01500 49.64100
H  30.30000 -8.60100 49.82100
H  29.29100 -4.51100 45.69000
H  27.66200 -0.74500 44.71700
H  29.24700 -0.28500 45.25800
H  27.93600 -0.50200 46.42900
Mg 30.89400 59.46600 40.60200
C  27.94100 57.88100 39.42300
C  32.57800 56.84900 39.19900
C  33.81000 61.14800 41.25500
C  29.03900 62.30400 41.37000
N  30.29400 57.58900 39.34100
C  29.04400 57.17900 39.03900
C  29.13300 55.88500 38.12600
C  30.62300 55.41000 38.43900
C  31.16000 56.72200 38.97200
C  30.75100 54.30000 39.54400
C  29.01500 56.22300 36.57700
C  27.83200 55.57600 35.82300
H  27.99400 55.61600 34.31300
N  32.97000 59.05300 40.24000
C  33.38500 57.87100 39.74700
C  34.84000 57.87700 39.79600
C  35.23200 59.13300 40.30500
C  34.00900 59.85200 40.60300
C  35.71300 56.76700 39.15900
C  36.66000 59.62500 40.45100
O  37.69800 59.00000 40.17100
C  36.92900 60.98700 40.87900
N  31.38200 61.43400 41.15300
C  32.60700 61.86200 41.50800
C  32.55300 63.31600 41.98300
C  31.02600 63.57300 42.21700
C  30.44100 62.38600 41.53800
C  33.46300 63.67300 43.07900
C  30.45400 64.96400 41.82400
C  29.29300 65.57800 42.71400
N  28.84900 59.99000 40.57700
C  28.22700 61.15400 40.95300
C  26.78900 61.08800 40.71100
C  26.63900 59.75200 40.12000
C  27.90300 59.20100 40.06000
C  25.74800 62.15600 40.92700
C  25.71500 58.73200 39.54100
O  24.53100 58.86000 39.34700
C  26.50000 57.53400 39.16100
C  26.03200 56.35100 39.89000
O  26.45600 55.94700 40.95600
O  24.93000 55.87000 39.11900
C  24.13000 54.86500 39.77500
H  33.14400 55.96300 38.90300
H  34.67600 61.72900 41.57900
H  28.30900 63.04800 41.69400
H  28.37800 55.12500 38.33000
H  31.04000 54.95900 37.53800
H  30.97300 54.54900 40.58200
H  31.56900 53.64800 39.23700
H  29.90300 53.61900 39.46500
H  29.91800 56.17600 35.96700
H  28.69600 57.26300 36.51800
H  26.90900 55.99400 36.22500
H  27.97900 54.52900 36.09000
H  36.10200 57.03400 38.17600
H  35.21500 55.80100 39.07100
H  36.51200 56.58200 39.87700
H  36.67000 61.16000 41.92400
H  36.31600 61.58300 40.20300
H  37.96500 61.22200 40.63600
H  32.96800 63.93600 41.18700
H  30.85100 63.42600 43.28200
H  32.93000 64.30800 43.78700
H  34.34600 64.24200 42.78800
H  33.88600 62.76900 43.51800
H  30.01900 64.75300 40.84700
H  31.26000 65.69000 41.71300
H  28.42700 65.70000 42.06400
H  29.58300 66.59800 42.96700
H  29.00700 64.98700 43.58400
H  25.97100 62.76500 41.80200
H  24.85000 61.57900 41.15100
H  25.62400 62.76300 40.03000
H  26.25200 57.34000 38.11700
H  24.32200 54.73200 40.84000
H  24.24500 53.90300 39.27500
H  23.06500 55.09600 39.76300

