158

Mg 47.18200 17.14100 27.47800
C  45.46500 17.30500 30.49100
C  49.64800 19.20200 28.91700
C  48.60600 17.72200 24.39400
C  44.31100 16.21700 25.91400
N  47.51400 18.06300 29.52100
C  46.71000 17.88500 30.56700
C  47.34100 18.47000 31.82200
C  48.52300 19.32700 31.25900
C  48.61500 18.86100 29.79600
C  48.39000 20.82600 31.51900
C  47.67200 17.38100 32.86400
C  47.26900 17.79100 34.36800
H  47.24700 19.34100 34.67300
N  49.05400 17.97500 26.84100
C  49.88000 18.80300 27.54300
C  50.96900 19.23800 26.67200
C  50.69700 18.66600 25.37300
C  49.41100 18.01800 25.50700
C  52.04900 20.18800 27.05400
C  51.65000 18.72300 24.07400
O  51.13200 18.48700 22.93500
C  53.11900 19.04900 24.17100
N  46.67400 16.80300 25.48300
C  47.29500 17.23300 24.44500
C  46.49100 17.22000 23.15300
C  45.27800 16.35600 23.57900
C  45.36700 16.49800 25.08500
C  46.09100 18.71000 22.74700
C  45.21900 14.84200 23.17000
C  44.13900 14.40500 22.22900
N  45.30300 16.55600 28.08700
C  44.23500 16.17600 27.30800
C  43.08100 15.89400 28.14800
C  43.52800 16.23100 29.44500
C  44.82200 16.76400 29.33500
C  41.76600 15.44800 27.84200
C  43.10500 16.34000 30.83200
O  42.02300 16.12800 31.32600
C  44.35300 16.98300 31.59200
C  43.87600 18.14000 32.39300
O  43.61400 19.25200 31.99000
O  43.80400 17.81300 33.71600
C  43.08800 18.79400 34.48700
H  50.38400 19.83400 29.42000
H  48.89000 18.02200 23.38300
H  43.40400 15.82200 25.45200
H  46.63500 19.23800 32.14100
H  49.44100 18.99700 31.74500
H  47.51800 21.15400 32.08500
H  48.47700 21.25100 30.51900
H  49.24800 21.19100 32.08400
H  48.71800 17.08300 32.79400
H  47.14300 16.45700 32.63400
H  48.05500 17.35000 34.98100
H  46.30600 17.35000 34.62300
H  51.68900 20.69700 27.94900
H  52.23500 20.85600 26.21300
H  52.98200 19.64400 27.19900
H  53.33300 18.58500 25.13400
H  53.10300 20.13800 24.16000
H  53.70200 18.61300 23.35900
H  47.07500 16.77300 22.34800
H  44.37400 16.89500 23.29600
H  45.13800 18.74100 22.21800
H  46.95400 19.13600 22.23600
H  45.89900 19.25400 23.67200
H  45.18500 14.26000 24.09100
H  46.06900 14.58000 22.53900
H  44.40100 14.72900 21.22100
H  43.22500 14.91200 22.53700
H  44.01600 13.33500 22.39500
H  41.81000 14.35900 27.82300
H  41.47500 15.84700 26.87000
H  41.05800 15.71000 28.62900
H  44.67900 16.15500 32.22200
H  42.09800 18.95200 34.06000
H  43.64600 19.71400 34.30900
H  43.14900 18.56300 35.55100
Mg -10.59200 38.15500 41.30300
C  -8.63100 35.42600 40.36800
C  -8.25800 40.23900 39.55700
C  -12.78600 40.81100 41.56000
C  -13.01000 36.03400 42.58400
N  -8.76800 37.87100 39.85800
C  -8.12800 36.62700 39.77200
C  -6.71300 36.74800 39.18400
C  -6.53900 38.27000 39.08300
C  -7.93200 38.88600 39.51300
C  -5.35300 38.88900 39.78600
C  -6.61600 36.05200 37.77000
C  -5.53200 35.00400 37.55500
H  -4.37000 35.40200 36.61600
N  -10.46900 40.16200 40.78400
C  -9.41000 40.87200 40.11400
C  -9.67000 42.27900 40.11600
C  -10.96700 42.49400 40.61400
C  -11.47200 41.10200 41.01200
C  -8.66800 43.22600 39.48700
C  -11.73200 43.85000 40.78200
O  -11.16300 44.83500 40.32600
C  -13.05100 44.02400 41.39500
N  -12.75900 38.35400 41.69200
C  -13.39100 39.55300 41.87000
C  -14.74300 39.41400 42.47900
C  -14.79800 37.84100 42.80200
C  -13.42400 37.34500 42.29800
C  -15.07300 40.33900 43.66400
C  -15.89200 37.03200 42.05600
C  -16.69100 35.91100 42.76500
N  -10.79800 36.11200 41.45200
C  -11.80200 35.38800 42.04200
C  -11.42300 33.99600 42.16300
C  -10.17600 33.95900 41.47600
C  -9.84700 35.29700 41.05700
C  -12.14900 32.93700 42.89000
C  -9.12100 33.06300 41.08400
O  -8.91900 31.83600 41.32400
C  -8.04800 33.94900 40.36500
C  -6.74800 33.73700 41.07400
O  -5.90700 32.93100 40.86000
O  -6.62100 34.77100 41.95400
C  -5.39400 34.73200 42.77800
H  -7.45500 40.90000 39.22400
H  -13.25400 41.73600 41.90300
H  -13.73600 35.35800 43.04000
H  -5.97300 36.30900 39.85200
H  -6.44200 38.58500 38.04400
H  -4.56900 39.05200 39.04700
H  -4.99300 38.27300 40.61000
H  -5.58400 39.86200 40.22200
H  -6.33100 36.85600 37.09200
H  -7.63600 35.72800 37.56100
H  -6.09000 34.15600 37.15700
H  -5.07200 34.69300 38.49300
H  -7.74500 43.28100 40.06500
H  -8.97300 44.26800 39.39500
H  -8.58400 42.84600 38.46800
H  -13.02600 43.56200 42.38200
H  -13.86500 43.71800 40.73800
H  -13.15300 45.09100 41.58900
H  -15.35300 39.62700 41.60100
H  -15.01700 37.77000 43.86800
H  -16.04600 40.81600 43.54600
H  -14.14300 40.88200 43.83300
H  -15.10900 39.77100 44.59300
H  -15.55700 36.52600 41.15000
H  -16.62500 37.65900 41.54900
H  -16.34700 34.94000 42.40800
H  -17.77100 35.90200 42.61500
H  -16.57500 36.08400 43.83500
H  -11.50100 32.06600 42.79800
H  -13.11700 32.62400 42.49800
H  -12.26400 33.30900 43.90800
H  -7.96500 33.58900 39.34000
H  -5.46200 33.97000 43.55500
H  -5.41300 35.63300 43.39100
H  -4.51400 34.45800 42.19700

