158

Mg 41.97200 41.06500 27.78600
C  41.50200 43.61400 30.00200
C  43.40800 39.13300 30.21500
C  42.31600 38.66100 25.42200
C  41.33200 43.37400 25.14800
N  42.29000 41.27400 29.85500
C  41.88400 42.39100 30.60200
C  41.97900 42.08400 32.09400
C  42.77700 40.70400 32.17100
C  42.81600 40.31200 30.63700
C  44.16800 40.78900 32.75200
C  40.59800 41.90700 32.79300
C  40.27700 42.79100 33.99000
H  39.68500 42.16700 35.31200
N  42.64400 39.11900 27.82900
C  43.25100 38.52600 28.89200
C  43.57000 37.16900 28.55000
C  43.16200 36.97900 27.18800
C  42.67900 38.26600 26.72600
C  44.33800 36.14900 29.38600
C  43.17900 35.66200 26.29800
O  42.75500 35.70500 25.13300
C  43.76900 34.36400 26.76800
N  41.80700 41.00000 25.59400
C  41.92300 39.90100 24.88300
C  41.52600 40.01800 23.38100
C  41.17000 41.56400 23.39400
C  41.49900 42.07400 24.78800
C  42.75800 39.62700 22.50800
C  39.63600 41.92200 22.89100
C  38.58300 41.76800 24.01100
N  41.49900 43.06900 27.55800
C  41.28400 43.86300 26.46400
C  40.96600 45.23800 26.85000
C  41.02500 45.10700 28.28400
C  41.37600 43.81500 28.63300
C  40.66800 46.36600 25.96900
C  40.84000 45.86700 29.46200
O  40.57600 47.05000 29.60900
C  40.87500 44.81000 30.62500
C  41.86200 45.35600 31.59200
O  43.04300 45.21500 31.36900
O  41.32400 45.97300 32.67200
C  42.29800 46.49800 33.65900
H  43.78800 38.42400 30.95300
H  42.47800 37.84600 24.71400
H  41.06200 44.08700 24.36700
H  42.48700 42.87400 32.64700
H  42.28400 39.95900 32.79500
H  44.57600 41.71400 32.34500
H  44.92900 40.06700 32.45600
H  44.07400 40.78600 33.83800
H  40.42000 40.89300 33.15000
H  39.85200 42.12800 32.03000
H  39.62600 43.61700 33.70700
H  41.16700 43.35200 34.27500
H  44.71700 36.60500 30.30000
H  45.13100 35.79300 28.72900
H  43.68300 35.31500 29.64200
H  43.31200 34.02200 27.69700
H  44.75300 34.38800 27.23800
H  43.59100 33.53400 26.08400
H  40.60400 39.46600 23.19900
H  41.88700 42.05200 22.73400
H  43.60600 39.36000 23.13800
H  43.10800 40.52100 21.99000
H  42.41700 38.80400 21.88000
H  39.30200 41.26500 22.08700
H  39.66200 42.94600 22.51700
H  39.00700 41.94300 25.00000
H  38.39900 40.69500 24.06600
H  37.64700 42.30500 23.85500
H  39.65500 46.73100 26.13800
H  40.74400 46.08100 24.91900
H  41.41300 47.13200 26.18200
H  39.83300 44.80000 30.94400
H  41.68100 47.32100 34.02100
H  43.24000 46.80700 33.20700
H  42.47700 45.72700 34.40900
Mg -5.02000 25.46600 26.05400
C  -3.96700 26.98600 29.11100
C  -6.87100 23.19300 27.96200
C  -5.96400 24.07100 23.12700
C  -2.95200 27.58900 24.24300
N  -5.48000 25.24700 28.33500
C  -4.85500 25.94200 29.33400
C  -5.45400 25.43700 30.70100
C  -5.98000 24.03900 30.36100
C  -6.20100 24.15200 28.79900
C  -5.18600 22.73100 30.80500
C  -6.50800 26.47800 31.30700
C  -6.36000 26.92700 32.80400
H  -5.65600 25.83600 33.77500
N  -6.19900 23.90600 25.56900
C  -6.87200 23.09700 26.49300
C  -7.67800 22.22800 25.77700
C  -7.38100 22.32900 24.40400
C  -6.47400 23.43000 24.30000
C  -8.74700 21.31000 26.43700
C  -7.78200 21.52900 23.21900
O  -7.50100 21.74500 22.04400
C  -8.57500 20.27700 23.39300
N  -4.41500 25.67900 24.00200
C  -4.98900 25.03700 22.97700
C  -4.51200 25.51800 21.57000
C  -3.91500 26.84700 21.99500
C  -3.65200 26.63900 23.49300
C  -3.50700 24.45400 21.01100
C  -4.88500 28.03700 21.63400
C  -4.39000 29.11800 20.76000
N  -3.77400 26.91400 26.55300
C  -2.99300 27.71400 25.68900
C  -2.41900 28.75100 26.44200
C  -2.65500 28.46600 27.80100
C  -3.57900 27.41400 27.82300
C  -1.56200 29.86000 25.91200
C  -2.45700 28.79800 29.12600
O  -1.75900 29.69700 29.52800
C  -3.23500 27.89900 30.13900
C  -2.22700 27.18500 31.00800
O  -1.22700 26.61700 30.63300
O  -2.67500 27.28300 32.27700
C  -1.68800 26.72300 33.20900
H  -7.39200 22.36600 28.44900
H  -6.30300 23.67100 22.16900
H  -2.65600 28.43200 23.61500
H  -4.67200 25.24400 31.43600
H  -7.05000 23.96500 30.55700
H  -5.13900 21.98500 30.01200
H  -5.58800 22.27200 31.70700
H  -4.15600 22.91800 31.11000
H  -7.54700 26.26900 31.05200
H  -6.14800 27.41400 30.88000
H  -7.36600 27.08200 33.19300
H  -5.88300 27.89700 32.94200
H  -9.54000 21.13600 25.71000
H  -9.12600 21.78600 27.34100
H  -8.20500 20.39200 26.66400
H  -9.62400 20.40900 23.65500
H  -8.11000 19.76300 24.23400
H  -8.32100 19.54900 22.62200
H  -5.38000 25.65400 20.92600
H  -2.96700 27.07800 21.50900
H  -3.66500 24.45400 19.93300
H  -3.69200 23.47800 21.46100
H  -2.47900 24.77400 21.18200
H  -5.19400 28.45900 22.59100
H  -5.84600 27.68100 21.26400
H  -3.30500 29.13000 20.65900
H  -4.53500 30.04400 21.31600
H  -4.76900 29.23200 19.74500
H  -1.57600 29.90400 24.82300
H  -0.58100 29.84600 26.38700
H  -1.93800 30.85300 26.16000
H  -3.93700 28.45300 30.76200
H  -1.47400 25.72500 32.82500
H  -2.25400 26.59800 34.13200
H  -0.84900 27.39600 33.38400

