158

Mg 49.44100 35.00800 27.98800
C  47.20600 33.89400 30.62100
C  49.70200 37.92500 29.85900
C  50.89900 36.50600 25.31100
C  48.34000 32.49100 26.01400
N  48.40900 35.81900 29.97700
C  47.80800 35.09000 30.98000
C  47.68600 35.87300 32.25200
C  48.19900 37.31800 31.82300
C  48.86200 36.96700 30.48900
C  47.00900 38.38500 31.69300
C  48.29200 35.11000 33.44700
C  49.36900 35.83700 34.18000
H  49.13600 37.00400 35.12700
N  50.38400 36.81700 27.70800
C  50.30900 37.91900 28.51400
C  51.12900 38.97700 27.97100
C  51.54900 38.57100 26.66000
C  50.96900 37.23600 26.50600
C  51.61100 40.21300 28.88700
C  52.37700 39.28200 25.64000
O  52.70400 38.82600 24.53900
C  53.07500 40.70000 26.04200
N  49.71400 34.52300 25.94900
C  50.37400 35.29500 24.98500
C  50.16100 34.65900 23.57900
C  49.50800 33.28500 23.90100
C  49.12500 33.40300 25.35700
C  49.29500 35.58100 22.68100
C  50.40700 32.02400 23.73100
C  49.74000 30.68800 23.19800
N  48.17400 33.47800 28.29600
C  47.83300 32.49800 27.33100
C  47.18200 31.44300 28.04500
C  46.74700 32.00300 29.22300
C  47.42200 33.26600 29.37900
C  46.72100 30.09400 27.47900
C  45.99600 31.85700 30.41800
O  45.28200 30.90300 30.73800
C  46.06700 33.16400 31.26400
C  46.33600 32.70100 32.65400
O  47.30800 32.01300 33.01300
O  45.33600 33.21800 33.46200
C  45.38600 32.61500 34.81100
H  49.85900 38.84300 30.42900
H  51.20000 37.01700 24.39400
H  48.09700 31.61400 25.41000
H  46.65700 35.99000 32.59100
H  48.98400 37.71200 32.47000
H  46.89800 38.79000 30.68800
H  47.25100 39.26100 32.29500
H  46.09900 37.93000 32.08400
H  48.66600 34.21300 32.95500
H  47.50900 34.85000 34.15900
H  50.04700 36.14700 33.38500
H  49.92200 35.03100 34.66100
H  51.44400 40.06200 29.95300
H  51.32300 41.24800 28.70100
H  52.69800 40.21000 28.79900
H  53.78000 40.76400 26.87000
H  52.16800 41.24800 26.29900
H  53.44300 41.14100 25.11500
H  51.09900 34.50700 23.04600
H  48.56000 33.21000 23.36900
H  48.59300 34.97200 22.11300
H  49.97300 36.18200 22.07400
H  48.74500 36.27300 23.31800
H  50.96700 31.95700 24.66300
H  51.23900 32.21200 23.05200
H  50.02400 30.61300 22.14800
H  48.67300 30.59400 23.40300
H  50.22300 29.89600 23.76900
H  46.73500 29.25600 28.17700
H  47.40100 29.78200 26.68600
H  45.73800 30.13700 27.01200
H  45.11500 33.69300 31.19800
H  44.40100 32.76100 35.25500
H  46.13100 33.06400 35.46900
H  45.57800 31.55000 34.68400
Mg -13.36400 16.02200 42.05300
C  -10.19200 14.59500 41.32800
C  -12.21100 19.07300 40.67200
C  -16.52500 17.13200 41.95000
C  -14.58700 12.75600 42.74200
N  -11.41500 16.71300 40.99100
C  -10.19200 15.98000 40.99800
C  -8.97900 16.86800 40.56500
C  -9.64800 18.25400 40.60800
C  -11.21000 18.05900 40.77400
C  -9.13700 19.30500 41.68300
C  -8.25400 16.50400 39.27500
C  -6.84900 15.98800 39.31100
H  -6.53500 14.69100 38.61900
N  -14.22700 17.83700 41.55500
C  -13.56100 18.98900 40.99600
C  -14.50000 20.03600 40.66000
C  -15.79300 19.55100 41.12100
C  -15.55600 18.12500 41.67700
C  -14.15000 21.34700 40.04600
C  -17.06100 20.34800 41.07400
O  -17.09800 21.44500 40.43600
C  -18.35900 19.82200 41.65700
N  -15.34600 15.15100 42.58700
C  -16.47400 15.80300 42.38800
C  -17.74400 14.88100 42.60300
C  -17.05800 13.49600 42.96200
C  -15.54100 13.80800 42.72500
C  -18.75400 15.41500 43.68700
C  -17.68000 12.26700 42.18900
C  -17.12600 11.93300 40.74300
N  -12.62900 14.06500 42.22900
C  -13.18300 12.85500 42.57600
C  -12.21300 11.84800 42.76300
C  -11.02800 12.43000 42.23300
C  -11.30700 13.80600 41.94100
C  -12.48800 10.57500 43.27500
C  -9.65600 12.25700 41.94800
O  -8.97500 11.21600 42.13000
C  -9.05100 13.59700 41.32500
C  -8.05800 13.98100 42.33100
O  -8.38100 14.54600 43.36700
O  -6.78600 13.63400 41.92700
C  -5.65400 13.63900 42.91200
H  -11.89000 20.10000 40.48600
H  -17.55100 17.48900 41.84000
H  -14.94100 11.74400 42.94600
H  -8.25400 16.68400 41.35800
H  -9.53800 18.75200 39.64400
H  -8.89000 20.26100 41.22100
H  -8.32600 18.82000 42.22700
H  -9.93200 19.36200 42.42600
H  -8.12900 17.49000 38.82700
H  -8.78400 15.88100 38.55500
H  -6.45100 15.81600 40.31100
H  -6.12600 16.72900 38.97000
H  -13.75800 21.99700 40.82900
H  -14.89100 21.93000 39.49900
H  -13.37200 21.21500 39.29500
H  -18.99100 20.70600 41.74400
H  -18.26000 19.46600 42.68200
H  -18.78100 19.05700 41.00600
H  -18.26200 14.73900 41.65500
H  -17.00800 13.31600 44.03600
H  -19.72900 15.48300 43.20400
H  -18.62100 16.45700 43.97500
H  -18.88700 14.72600 44.52100
H  -18.75400 12.42200 42.08900
H  -17.44400 11.41300 42.82400
H  -16.74000 10.92100 40.62200
H  -16.22800 12.50700 40.51200
H  -17.89900 12.04600 39.98300
H  -12.90700 10.72500 44.27000
H  -11.54000 10.03800 43.27200
H  -13.24300 10.04200 42.69700
H  -8.54800 13.41300 40.37600
H  -5.31000 14.67400 42.91400
H  -4.91200 12.87800 42.67400
H  -5.89500 13.42000 43.95200

