158

Mg 47.17300 15.64700 28.44700
C  45.22800 15.53400 31.40900
C  49.36400 17.55000 29.90000
C  48.78500 15.88800 25.43800
C  44.64400 13.86800 26.87000
N  47.18800 16.50700 30.44000
C  46.38900 16.33400 31.51100
C  46.96000 17.05700 32.78600
C  48.08500 17.95300 32.14400
C  48.22900 17.37100 30.72500
C  47.68500 19.51200 32.15000
C  47.40300 16.07800 33.86700
C  47.29500 16.48900 35.36100
H  48.59500 16.28000 36.10700
N  48.95700 16.42600 27.83700
C  49.72700 17.20300 28.60800
C  50.97100 17.55300 27.86600
C  50.79800 17.01700 26.55600
C  49.48800 16.43500 26.58500
C  52.04900 18.39400 28.45400
C  51.80400 16.99100 25.49100
O  51.62100 16.52900 24.38400
C  53.29000 17.55600 25.66900
N  46.61700 15.25100 26.26700
C  47.53800 15.32600 25.23100
C  47.19900 14.43500 24.01800
C  45.72800 13.96000 24.45200
C  45.66200 14.34600 25.98900
C  47.39600 15.11000 22.75900
C  45.30000 12.48800 24.14300
C  45.78500 11.37700 25.03600
N  45.29500 14.97400 28.98100
C  44.40300 14.22500 28.22600
C  43.22600 13.82900 28.94800
C  43.55200 14.28100 30.24200
C  44.79500 14.93200 30.22500
C  42.08700 13.03500 28.45800
C  43.04200 14.36100 31.60100
O  42.09800 13.85200 32.13200
C  44.11500 15.25500 32.42700
C  43.42100 16.49100 32.91500
O  42.95800 17.38800 32.15300
O  43.24200 16.39000 34.23600
C  43.11900 17.70600 34.85800
H  50.01700 18.18600 30.50100
H  49.41400 15.94300 24.54700
H  43.93900 13.24800 26.31400
H  46.17900 17.75300 33.08900
H  49.04100 17.79100 32.64200
H  47.63400 19.81700 31.10500
H  48.52200 19.99600 32.65400
H  46.68900 19.74700 32.52300
H  48.45300 16.00600 33.58300
H  47.03300 15.05700 33.77400
H  46.52700 15.88900 35.84900
H  47.09100 17.55400 35.47100
H  51.85900 18.71400 29.47800
H  52.08500 19.31100 27.86600
H  52.95700 17.79100 28.49700
H  53.79900 17.06900 26.50000
H  53.13200 18.62600 25.80200
H  53.88500 17.40600 24.76700
H  47.84400 13.57500 24.19700
H  44.95900 14.62200 24.05400
H  46.48400 15.08100 22.16300
H  48.22800 14.63500 22.23900
H  47.79400 16.12000 22.85800
H  45.67100 12.36000 23.12600
H  44.21000 12.51400 24.13000
H  46.48400 11.74100 25.78900
H  46.34100 10.67800 24.41200
H  44.95600 10.93800 25.59000
H  41.56600 12.44200 29.20900
H  42.44900 12.35700 27.68500
H  41.29400 13.62900 28.00400
H  44.67500 14.73600 33.20600
H  43.38400 18.54700 34.21600
H  43.75100 17.78200 35.74200
H  42.12000 17.96800 35.20700
Mg 9.10500 47.75800 25.33600
C  7.29700 47.54500 28.35900
C  11.72800 49.15700 27.26800
C  10.96200 48.05800 22.64300
C  6.22900 47.33300 23.54600
N  9.41200 48.42200 27.52000
C  8.58000 48.05100 28.53800
C  9.24800 48.39400 29.84200
C  10.36400 49.45600 29.41600
C  10.54700 49.06000 27.99300
C  9.91400 50.95100 29.63900
C  9.78200 47.22600 30.59200
C  9.78800 47.36100 32.16600
H  8.96600 46.41000 33.03500
N  11.12900 48.27000 25.01400
C  12.02200 48.77000 25.89400
C  13.33500 48.70700 25.28700
C  13.11500 48.34200 23.93400
C  11.65500 48.13700 23.77800
C  14.59500 48.90900 26.02400
C  14.10500 47.93000 22.90000
O  13.79800 47.71100 21.77500
C  15.57000 47.71000 23.31500
N  8.61100 47.84200 23.36900
C  9.57300 47.94800 22.39200
C  8.91500 48.11100 21.03000
C  7.42700 47.70200 21.34100
C  7.43600 47.55100 22.84800
C  9.13300 49.34100 20.15800
C  6.98100 46.42900 20.52100
C  5.92200 46.78600 19.34700
N  7.19300 47.43300 25.84100
C  6.06100 47.27500 24.97000
C  4.91300 46.94000 25.78700
C  5.35700 47.06300 27.10100
C  6.69800 47.43500 27.07300
C  3.49800 46.99600 25.23700
C  4.88200 47.02600 28.45300
O  3.74300 46.74100 28.88700
C  6.11200 47.33300 29.31800
C  6.28900 46.06700 30.12900
O  6.95700 45.11200 29.80100
O  5.50600 46.10400 31.22600
C  5.11000 44.75300 31.71800
H  12.56500 49.53600 27.85800
H  11.50300 48.24700 21.71400
H  5.34400 46.93100 23.04900
H  8.40900 48.79800 30.41000
H  11.21300 49.29600 30.08200
H  8.85800 50.97500 29.91100
H  10.04100 51.59000 28.76600
H  10.45300 51.43100 30.45500
H  10.82800 46.99100 30.39500
H  9.20900 46.35500 30.27500
H  9.41400 48.33100 32.49700
H  10.80600 47.41600 32.55000
H  14.38400 48.90700 27.09300
H  14.93200 49.92900 25.84200
H  15.41700 48.20500 25.89800
H  15.81300 46.85400 23.94600
H  15.96500 48.55600 23.87700
H  16.15500 47.73800 22.39600
H  9.46100 47.29600 20.55400
H  6.76300 48.55600 21.20500
H  9.79500 50.03600 20.67500
H  8.14800 49.80200 20.08400
H  9.43400 49.05900 19.14900
H  6.48400 45.69700 21.15600
H  7.82500 45.86100 20.12800
H  6.22000 46.50700 18.33600
H  5.72700 47.85800 19.33300
H  4.95000 46.32100 19.51000
H  2.99800 46.03700 25.10100
H  3.37700 47.43800 24.24800
H  2.84100 47.51700 25.93400
H  5.77400 48.12600 29.98400
H  4.21600 44.83800 32.33500
H  5.87800 44.23200 32.29000
H  4.78400 44.16100 30.86200

