158

Mg -12.41200 37.71400 42.00200
C  -10.46200 35.01300 40.98300
C  -10.09100 39.72200 40.52900
C  -14.88100 40.18700 41.82200
C  -14.89500 35.36600 43.06100
N  -10.44500 37.44500 40.97000
C  -9.95300 36.24100 40.57400
C  -8.65200 36.40000 39.79200
C  -8.39100 37.96100 39.95200
C  -9.68800 38.40200 40.57000
C  -7.10700 38.31600 40.74800
C  -8.65600 35.83100 38.39900
C  -7.49400 34.94900 37.96300
H  -6.45400 35.53000 36.97100
N  -12.50700 39.75300 41.36400
C  -11.36700 40.39600 40.78300
C  -11.73800 41.73400 40.46500
C  -13.08600 41.93500 40.76600
C  -13.60900 40.62900 41.36400
C  -10.85100 42.72900 39.72600
C  -13.97900 43.22800 40.57200
O  -13.49000 44.15100 39.91000
C  -15.38600 43.34300 41.12100
N  -14.59200 37.72200 42.23700
C  -15.32800 38.86000 42.24200
C  -16.81500 38.63300 42.68500
C  -16.72200 37.12600 43.23200
C  -15.30600 36.68000 42.81600
C  -17.43400 39.71800 43.63700
C  -17.76000 36.08500 42.65700
C  -18.64500 35.40400 43.72500
N  -12.56300 35.62000 42.30200
C  -13.56700 34.82300 42.77900
C  -13.15700 33.43300 42.71000
C  -11.92500 33.50700 42.08400
C  -11.66900 34.84800 41.72600
C  -13.92000 32.26500 43.36600
C  -10.80800 32.69900 41.62300
O  -10.59200 31.48900 41.62900
C  -9.89600 33.58600 40.63700
C  -8.55500 33.37100 41.09000
O  -7.62800 32.79800 40.49100
O  -8.27500 33.90500 42.33900
C  -6.91100 33.81100 42.93700
H  -9.36800 40.42500 40.10700
H  -15.68500 40.92600 41.81200
H  -15.61800 34.66700 43.48700
H  -7.87400 35.87600 40.34700
H  -8.26800 38.36600 38.94800
H  -6.64600 37.43500 41.19400
H  -7.31700 38.82600 41.68800
H  -6.32900 38.85000 40.20200
H  -8.61100 36.71900 37.76800
H  -9.58700 35.33400 38.12400
H  -7.96100 34.04700 37.56700
H  -6.92900 34.66500 38.85000
H  -11.05300 42.59300 38.66400
H  -9.81100 42.44000 39.87400
H  -10.94200 43.76100 40.06500
H  -15.99900 42.59600 40.61600
H  -15.95200 44.24900 40.90700
H  -15.26300 43.21600 42.19600
H  -17.43600 38.64000 41.78900
H  -16.81000 37.22500 44.31400
H  -18.28200 40.26100 43.21800
H  -16.62800 40.43100 43.81300
H  -17.68300 39.35700 44.63500
H  -17.25100 35.33500 42.05100
H  -18.44000 36.64200 42.01300
H  -18.73300 34.36300 43.41700
H  -19.58600 35.94300 43.61400
H  -18.24100 35.57400 44.72300
H  -13.61100 31.27600 43.02600
H  -14.94800 32.46400 43.06200
H  -13.82800 32.26900 44.45200
H  -9.94800 33.23000 39.60800
H  -6.25800 33.06900 42.47800
H  -7.16000 33.55200 43.96700
H  -6.42900 34.78800 42.92000
Mg -12.58000 16.24900 41.17700
C  -9.69300 14.30400 40.91000
C  -10.84600 18.93600 39.93300
C  -15.46500 17.83800 40.66700
C  -14.29700 13.33300 41.88400
N  -10.45300 16.53100 40.50400
C  -9.45700 15.58100 40.40700
C  -8.18400 16.26700 40.00500
C  -8.62700 17.84000 39.89100
C  -10.07500 17.76600 40.19800
C  -7.89200 18.96600 40.64600
C  -7.50100 15.68900 38.72500
C  -5.91600 15.83700 38.69000
H  -5.29300 16.55200 37.51800
N  -13.08400 18.15800 40.48700
C  -12.26400 19.16200 40.09200
C  -13.06400 20.35900 39.74000
C  -14.40100 20.08200 40.04900
C  -14.36400 18.62700 40.42800
C  -12.38600 21.67700 39.29200
C  -15.57800 21.15700 40.07100
O  -15.32500 22.29600 39.83000
C  -17.02500 20.78700 40.39000
N  -14.60000 15.68300 41.21900
C  -15.64000 16.55000 41.03500
C  -17.00300 15.88100 41.20700
C  -16.69500 14.45500 41.62400
C  -15.13000 14.46900 41.53200
C  -18.03000 16.69300 42.15800
C  -17.33000 13.37000 40.76100
C  -18.24300 12.50500 41.61600
N  -12.11800 14.22200 41.57900
C  -12.90700 13.17900 41.88300
C  -12.14500 12.02700 42.24200
C  -10.82800 12.40600 41.92100
C  -10.88600 13.75500 41.33400
C  -12.59900 10.80300 42.95700
C  -9.36600 11.95800 41.88800
O  -8.77500 10.89600 42.03300
C  -8.68500 13.20700 41.09300
C  -7.54000 13.67100 41.94800
O  -7.62400 14.14700 43.04300
O  -6.38500 13.36500 41.29300
C  -5.19500 14.01200 41.89300
H  -10.27700 19.78800 39.55300
H  -16.36200 18.29600 40.24400
H  -14.88700 12.48000 42.22500
H  -7.50300 16.12700 40.84500
H  -8.60100 18.11700 38.83700
H  -6.93600 18.58700 41.00800
H  -8.47400 19.26000 41.51900
H  -7.64700 19.83000 40.02800
H  -7.88800 16.26800 37.88600
H  -7.86500 14.66600 38.63200
H  -5.39900 14.90300 38.90700
H  -5.63700 16.43400 39.55800
H  -11.97900 22.28300 40.10200
H  -13.05600 22.25700 38.65800
H  -11.47400 21.63000 38.69700
H  -17.64900 20.48100 39.55000
H  -17.47900 21.69300 40.79200
H  -17.10800 20.08900 41.22200
H  -17.44800 15.92900 40.21300
H  -17.01200 14.32200 42.65800
H  -17.51500 17.57200 42.54600
H  -18.31100 16.09200 43.02300
H  -18.94700 17.03400 41.67600
H  -16.51100 12.71600 40.46100
H  -17.92700 13.67000 39.90000
H  -18.65700 13.02400 42.48100
H  -17.72600 11.61200 41.96600
H  -19.03400 12.20300 40.93000
H  -13.59000 10.87600 43.40600
H  -11.87900 10.40800 43.67500
H  -12.60800 10.00300 42.21600
H  -8.39900 12.77600 40.13400
H  -5.30100 15.09400 41.80800
H  -4.24200 13.78200 41.41700
H  -5.15200 13.84300 42.96900

