158

Mg 25.48400 -0.73000 29.49300
C  27.76000 -0.81200 32.26100
C  22.96400 -0.48600 31.65100
C  23.49400 -0.65400 26.81900
C  28.24300 -1.43300 27.48200
N  25.51700 -0.73500 31.74400
C  26.50900 -0.49600 32.61800
C  25.90700 -0.30700 34.02600
C  24.34600 -0.29800 33.75200
C  24.24700 -0.57300 32.27700
C  23.53600 -1.39500 34.58200
C  26.38600 1.01900 34.71100
C  26.14900 1.07800 36.23900
H  27.33100 1.02600 37.19800
N  23.48400 -0.55400 29.28900
C  22.59900 -0.50000 30.28000
C  21.26500 -0.31500 29.72000
C  21.45300 -0.35600 28.27700
C  22.90200 -0.61500 28.06700
C  20.07900 -0.21300 30.65300
C  20.41700 -0.35500 27.14700
O  20.67500 -0.43700 25.97800
C  18.96700 -0.28300 27.62400
N  25.79600 -1.23300 27.38700
C  24.83400 -0.98000 26.46600
C  25.42200 -0.97500 25.06600
C  26.89600 -1.15600 25.26000
C  27.04200 -1.24800 26.81300
C  24.72800 -2.03600 24.09300
C  27.82100 -0.03700 24.61700
C  29.06800 -0.43100 23.89900
N  27.57100 -1.20400 29.80600
C  28.56000 -1.49900 28.82900
C  29.83700 -1.65100 29.48500
C  29.56300 -1.43700 30.86100
C  28.17300 -1.11200 30.98000
C  31.11100 -1.90600 28.84700
C  30.10900 -1.37400 32.19800
O  31.22900 -1.60500 32.61300
C  28.97400 -0.94400 33.15400
C  28.79900 -1.94200 34.20400
O  28.12600 -3.01700 34.03000
O  29.28700 -1.46000 35.44700
C  28.82500 -2.36500 36.57900
H  22.12300 -0.35700 32.33600
H  22.91500 -0.42300 25.92200
H  28.99400 -1.55200 26.69800
H  26.13200 -1.11600 34.72000
H  23.91200 0.68100 33.95800
H  23.99900 -1.71900 35.51400
H  23.42800 -2.35200 34.07100
H  22.49800 -1.07100 34.66000
H  25.83800 1.89800 34.36900
H  27.43200 1.08900 34.41500
H  25.47000 0.27200 36.51800
H  25.44900 1.89600 36.40500
H  19.22600 0.34000 30.26000
H  20.33500 0.32200 31.56800
H  19.80600 -1.22600 30.94900
H  18.28500 -0.47000 26.79400
H  18.68900 0.61600 28.17400
H  18.93700 -1.08400 28.36300
H  25.24600 -0.02400 24.56200
H  27.17500 -2.16000 24.94200
H  25.49400 -2.77100 23.84400
H  24.24700 -1.66000 23.19000
H  23.93900 -2.69100 24.46300
H  28.18200 0.58100 25.44000
H  27.25700 0.55700 23.89800
H  29.00400 -1.41000 23.42400
H  29.88900 -0.35200 24.61100
H  29.26700 0.27700 23.09400
H  30.96200 -1.80700 27.77200
H  31.46700 -2.91800 29.04500
H  31.89700 -1.24900 29.21900
H  29.24700 -0.01100 33.64700
H  29.22400 -1.94100 37.50100
H  29.25500 -3.36300 36.49300
H  27.75800 -2.58600 36.62300
Mg 6.19900 56.65300 42.52800
C  4.90800 53.52300 41.73800
C  9.23400 55.69700 41.15300
C  7.09700 59.94300 42.19500
C  2.99600 57.57500 43.56400
N  6.92100 54.91300 41.36700
C  6.25100 53.70000 41.25100
C  7.15200 52.63200 40.68800
C  8.56200 53.28600 40.87900
C  8.24900 54.76500 41.15300
C  9.43200 52.67000 42.04900
C  6.88400 52.11200 39.15000
C  7.11400 50.61700 38.94700
H  6.46500 50.12600 37.77500
N  7.97600 57.67700 41.87600
C  9.08700 57.11900 41.47400
C  10.10700 58.12600 41.30200
C  9.55700 59.33000 41.69500
C  8.17400 59.00400 41.97900
C  11.52500 57.76200 40.96900
C  10.35500 60.62500 41.91300
O  11.48600 60.77000 41.56000
C  9.76300 61.72600 42.74000
N  5.22800 58.47500 42.80000
C  5.78500 59.74100 42.45400
C  4.71400 60.84800 42.57400
C  3.39400 60.05500 42.95000
C  3.85500 58.58400 43.12400
C  4.94200 62.11400 43.41900
C  2.10500 60.19000 41.98900
C  0.74800 60.62100 42.63000
N  4.34700 55.76900 42.81500
C  3.15200 56.23100 43.30500
C  2.20300 55.15600 43.46200
C  2.87500 54.02200 42.91500
C  4.12300 54.49800 42.40500
C  0.80800 55.23900 43.93900
C  2.74700 52.63100 42.61700
O  1.82600 51.81700 42.81300
C  4.11700 52.25100 41.89700
C  3.75100 51.64200 40.65100
O  3.65800 52.19600 39.60800
O  3.50100 50.28100 40.85600
C  3.11100 49.38800 39.73500
H  10.27600 55.42000 40.98200
H  7.37100 60.99500 42.08900
H  2.02700 57.91200 43.93600
H  7.06000 51.73600 41.30200
H  9.08500 53.24800 39.92300
H  8.89600 51.87600 42.57000
H  9.61200 53.50500 42.72600
H  10.34300 52.28800 41.58700
H  7.53200 52.64500 38.45400
H  5.90400 52.52600 38.91400
H  6.78000 50.08700 39.83900
H  8.20300 50.62800 38.90400
H  11.87400 58.57100 40.32800
H  11.64200 56.78600 40.49800
H  12.13600 57.72100 41.87100
H  9.08800 61.29400 43.47800
H  9.20900 62.43000 42.12000
H  10.53100 62.34200 43.20800
H  4.73300 61.24600 41.56000
H  3.14500 60.31500 43.97900
H  5.99800 62.28400 43.62800
H  4.44900 62.02900 44.38800
H  4.64900 63.02700 42.90100
H  2.05300 59.17100 41.60400
H  2.34400 60.96600 41.26200
H  -0.03000 59.85900 42.58600
H  0.33900 61.52300 42.17500
H  1.05600 60.86200 43.64800
H  0.16000 55.57000 43.12700
H  0.80100 56.02000 44.69900
H  0.46800 54.26700 44.29500
H  4.60800 51.49400 42.50900
H  3.02500 49.92000 38.78800
H  2.10800 49.02200 39.95200
H  3.89600 48.63400 39.66800

