158

Mg 24.94300 -8.49600 47.79200
C  27.04400 -5.99000 46.63200
C  22.51800 -7.61000 45.43500
C  23.13300 -11.17800 48.66800
C  27.70500 -9.92700 49.46800
N  24.91500 -7.19800 46.04700
C  25.89500 -6.19300 45.80300
C  25.44700 -5.20600 44.70600
C  23.98000 -5.66300 44.33800
C  23.81100 -6.91400 45.32000
C  22.90700 -4.48500 44.54700
C  26.45500 -5.15400 43.52900
C  26.79400 -3.81200 42.92200
H  26.98100 -3.85200 41.41300
N  23.02900 -9.20600 47.17900
C  22.21100 -8.65000 46.26800
C  21.05400 -9.43100 46.14200
C  21.16300 -10.59200 46.97000
C  22.51000 -10.43000 47.65700
C  19.89000 -9.05100 45.26400
C  20.26700 -11.82000 47.07200
O  19.16700 -11.83800 46.53700
C  20.59400 -12.98800 47.88800
N  25.46400 -10.32500 48.87200
C  24.42900 -11.11400 49.28400
C  24.95400 -12.12800 50.37300
C  26.49800 -11.85700 50.44200
C  26.52600 -10.59000 49.63900
C  24.32200 -11.95000 51.73800
C  27.39200 -13.03200 49.84200
C  27.86500 -14.07800 50.89900
N  26.89800 -8.03000 48.15900
C  27.95700 -8.74300 48.79900
C  29.16000 -7.82200 48.87300
C  28.82200 -6.73900 48.06100
C  27.46200 -6.93100 47.61300
C  30.41800 -8.14500 49.60200
C  29.24800 -5.48300 47.53700
O  30.30100 -4.84900 47.64600
C  28.09300 -4.98800 46.56100
C  27.79200 -3.60600 46.97400
O  27.51800 -3.28500 48.07800
O  27.86100 -2.80200 45.83500
C  27.78200 -1.37800 46.14000
H  21.73000 -7.18300 44.81200
H  22.66400 -11.99600 49.22000
H  28.57400 -10.42200 49.90600
H  25.51300 -4.18900 45.09400
H  23.96700 -6.05100 43.32000
H  22.70200 -4.04700 43.57000
H  23.27000 -3.77100 45.28700
H  21.88400 -4.62200 44.90000
H  26.00100 -5.65100 42.67100
H  27.34800 -5.56600 43.99900
H  27.73500 -3.44300 43.32900
H  26.00100 -3.09500 43.13000
H  20.05200 -9.67400 44.38400
H  19.94900 -8.01900 44.91900
H  18.93000 -9.18000 45.76300
H  21.67200 -13.11300 47.78400
H  20.05800 -13.81400 47.41900
H  20.34600 -12.81100 48.93400
H  24.92700 -13.16200 50.03000
H  26.90700 -11.55000 51.40400
H  23.29900 -11.61300 51.57400
H  24.77400 -11.17200 52.35300
H  24.42700 -12.88500 52.29000
H  28.23200 -12.66900 49.24900
H  26.83200 -13.47200 49.01700
H  28.81900 -14.50900 50.59800
H  27.04000 -14.78700 50.83100
H  27.90200 -13.61500 51.88600
H  31.16400 -7.44000 49.23500
H  30.85800 -9.12700 49.42400
H  30.13600 -7.92100 50.63100
H  28.55600 -4.95900 45.57500
H  28.07100 -1.04100 47.13500
H  26.75300 -1.09800 45.91800
H  28.27700 -0.78300 45.37200
Mg 15.45600 52.21700 26.25400
C  17.67300 51.46500 28.77200
C  12.94100 52.62400 28.53700
C  13.23900 52.38000 23.70600
C  18.05300 51.28600 23.89900
N  15.34600 51.91200 28.36700
C  16.36000 51.68800 29.25100
C  15.94900 52.01700 30.65400
C  14.40500 51.83900 30.53300
C  14.19700 52.19500 29.05100
C  13.88300 50.45200 30.99300
C  16.54100 53.40100 31.11900
C  16.56500 53.78900 32.57500
H  15.72900 52.90500 33.49900
N  13.37000 52.47400 26.09900
C  12.56600 52.74300 27.13200
C  11.21800 53.12600 26.69700
C  11.27900 52.99700 25.26700
C  12.64300 52.47200 24.96900
C  10.14400 53.66100 27.62100
C  10.15000 53.22000 24.27900
O  10.33900 52.94700 23.12100
C  8.87900 53.72800 24.70900
N  15.58600 51.98100 24.14200
C  14.54500 52.18900 23.31500
C  14.95800 52.12900 21.90300
C  16.48200 51.78200 21.90900
C  16.72400 51.65600 23.38500
C  14.01700 51.15000 21.06700
C  17.34600 52.88700 21.22400
C  18.18200 52.52100 20.01700
N  17.54300 51.57600 26.29500
C  18.48100 51.26600 25.25600
C  19.68000 50.78300 25.89100
C  19.39800 50.89400 27.25800
C  18.10900 51.44400 27.47100
C  20.97000 50.37200 25.28700
C  19.96100 50.71900 28.59500
O  21.06000 50.25600 28.92000
C  18.93900 51.12900 29.62600
C  18.76400 50.02300 30.62600
O  18.48900 48.84800 30.41600
O  18.93400 50.54300 31.91600
C  18.81600 49.61300 32.99700
H  12.17300 52.80700 29.29100
H  12.72600 52.68200 22.79100
H  18.83100 50.95400 23.20900
H  16.42800 51.27300 31.29100
H  13.81300 52.58400 31.06500
H  14.65200 49.69000 30.86500
H  12.97600 50.20300 30.44200
H  13.67000 50.64000 32.04500
H  15.97800 54.15700 30.57100
H  17.54100 53.34400 30.69000
H  16.26600 54.83500 32.65500
H  17.62000 53.75400 32.84800
H  10.23300 53.20100 28.60600
H  9.18300 53.19600 27.40000
H  10.12500 54.75100 27.63300
H  8.54900 52.98600 25.43700
H  8.17500 53.78700 23.87900
H  9.01300 54.69900 25.18400
H  14.55400 53.08000 21.55800
H  16.52100 50.75300 21.55000
H  14.57300 50.58000 20.32200
H  13.21300 51.74500 20.63300
H  13.67600 50.41800 21.79900
H  18.09100 53.36700 21.85900
H  16.67800 53.73900 21.10400
H  18.00000 51.48200 19.74000
H  19.23300 52.56600 20.30400
H  17.93900 53.28800 19.28100
H  20.92500 50.75500 24.26800
H  20.90800 49.28400 25.33300
H  21.78500 50.79900 25.87100
H  19.20400 51.96200 30.27700
H  17.87000 49.07400 32.94600
H  18.83900 50.16500 33.93600
H  19.65200 48.91500 33.03400

