158

Mg 35.19000 2.13100 28.86100
C  33.08500 3.19300 31.52500
C  37.80500 2.15600 31.23900
C  37.24200 1.49100 26.54200
C  32.53800 2.52300 26.67800
N  35.39800 2.63100 31.07300
C  34.39600 2.92500 31.92300
C  34.93900 3.00700 33.39700
C  36.45200 2.96500 33.26700
C  36.60900 2.65300 31.73500
C  37.13100 4.31100 33.65800
C  34.30000 1.82300 34.22700
C  34.09700 1.97500 35.75000
H  34.80100 3.04600 36.55500
N  37.20700 1.86400 28.85900
C  38.14900 1.84000 29.88300
C  39.42400 1.39600 29.42900
C  39.29600 1.30300 27.99900
C  37.85600 1.53500 27.75700
C  40.65500 1.04800 30.31200
C  40.38000 1.13000 26.98500
O  40.09400 1.19400 25.80200
C  41.82500 1.18700 27.48400
N  34.92000 2.07800 26.86900
C  35.93600 1.72300 26.12700
C  35.51100 1.44200 24.58700
C  33.94400 1.64500 24.67400
C  33.78900 2.14900 26.13500
C  36.22300 2.28200 23.54300
C  33.04200 0.41400 24.36000
C  32.91300 -0.81500 25.34200
N  33.18000 2.58600 29.00100
C  32.18400 2.72900 28.01200
C  30.94200 3.07400 28.59200
C  31.22700 3.28200 29.92700
C  32.61300 3.00500 30.15500
C  29.63800 3.22300 27.74500
C  30.68300 3.69900 31.25200
O  29.59600 4.04900 31.64900
C  31.82100 3.44900 32.31600
C  31.78500 4.57600 33.18400
O  32.36400 5.63800 32.95200
O  31.14000 4.18000 34.38900
C  31.29800 5.25100 35.35500
H  38.60400 2.15400 31.98400
H  37.72200 1.15300 25.62200
H  31.77900 2.60600 25.89700
H  34.47500 3.90800 33.79900
H  36.90200 2.24900 33.95400
H  38.00500 4.50600 33.03700
H  37.43100 4.29300 34.70500
H  36.28300 4.99500 33.61900
H  34.82900 0.87100 34.18600
H  33.27300 1.62400 33.92100
H  34.09500 0.96300 36.15500
H  33.07700 2.35700 35.76500
H  40.86700 0.00100 30.09600
H  40.49400 1.06700 31.39000
H  41.51600 1.68200 30.09600
H  42.50200 1.40900 26.66000
H  42.13000 0.33100 28.08700
H  41.82100 2.09900 28.08100
H  35.65900 0.38700 24.35800
H  33.58500 2.38600 23.95900
H  36.58100 1.62000 22.75500
H  37.07700 2.86500 23.88700
H  35.57700 3.02100 23.06800
H  33.45900 -0.01300 23.44800
H  32.07100 0.86800 24.16000
H  33.50000 -0.61200 26.23800
H  33.37300 -1.60400 24.74700
H  31.86500 -1.04700 25.52800
H  28.93500 2.45300 28.06400
H  29.88200 3.00900 26.70400
H  29.38200 4.25500 27.98400
H  31.39000 2.66800 32.94300
H  31.06600 6.26000 35.01300
H  32.30400 5.19900 35.77000
H  30.61900 5.14300 36.20100
Mg -0.44900 42.43700 25.91500
C  2.09500 41.97900 28.17400
C  -2.73600 41.52500 28.48500
C  -2.92000 42.48800 23.60300
C  1.87200 42.76300 23.29300
N  -0.31500 41.90600 28.10300
C  0.82500 41.89300 28.80000
C  0.61100 41.71000 30.28600
C  -0.86600 41.29700 30.32900
C  -1.35200 41.61000 28.88200
C  -1.12500 39.80500 30.59200
C  0.79200 43.03900 31.06400
C  0.89700 42.96000 32.54800
H  0.36000 41.76100 33.21100
N  -2.53400 42.02900 26.06000
C  -3.31000 41.83200 27.24100
C  -4.70000 41.81400 26.79400
C  -4.75800 42.20300 25.42100
C  -3.34000 42.23300 24.93500
C  -5.81800 41.49000 27.78000
C  -6.03500 42.36800 24.51600
O  -5.91900 42.65500 23.27900
C  -7.45200 42.29400 25.11700
N  -0.51000 42.58000 23.73800
C  -1.65000 42.52300 23.01200
C  -1.45200 42.80300 21.47600
C  0.10900 43.06300 21.47400
C  0.53500 42.73000 22.91500
C  -1.98900 41.60400 20.71600
C  0.57700 44.53700 21.06900
C  -0.10400 45.73900 21.88700
N  1.54800 42.39200 25.75700
C  2.37000 42.52100 24.60500
C  3.72200 42.42100 25.02800
C  3.70900 42.17600 26.44500
C  2.35700 42.30100 26.78500
C  4.97700 42.59500 24.12300
C  4.48000 41.84400 27.62100
O  5.63900 41.56300 27.74100
C  3.51000 41.94000 28.82100
C  3.73600 40.75800 29.75100
O  3.23300 39.71600 29.65300
O  4.58700 41.12800 30.77700
C  4.84700 40.28800 31.94100
H  -3.33300 41.44500 29.39500
H  -3.61000 42.63500 22.77000
H  2.67900 42.82500 22.55900
H  1.19300 40.84400 30.59900
H  -1.46300 41.88000 31.03000
H  -1.74700 39.78500 31.48700
H  -0.19100 39.33200 30.89700
H  -1.75800 39.23900 29.90900
H  -0.12000 43.61500 30.90600
H  1.64400 43.45800 30.52800
H  0.49800 43.85300 33.03000
H  1.96900 42.96200 32.75000
H  -5.61800 40.92300 28.68900
H  -6.58800 40.90600 27.27600
H  -6.23200 42.44800 28.09300
H  -8.13900 42.79300 24.43400
H  -7.36000 42.92600 26.00000
H  -7.74800 41.25900 25.29000
H  -1.91500 43.67400 21.01200
H  0.63600 42.41700 20.77100
H  -2.88100 41.87700 20.15200
H  -2.14500 40.70500 21.31200
H  -1.26600 41.41300 19.92300
H  0.42400 44.66300 19.99800
H  1.63300 44.71200 21.27400
H  -0.71700 46.42400 21.30000
H  0.76300 46.27600 22.27200
H  -0.71500 45.28800 22.66900
H  4.92400 43.58800 23.67700
H  4.92600 41.90100 23.28400
H  5.92000 42.47100 24.65600
H  3.73000 42.89500 29.29900
H  4.43300 40.75800 32.83400
H  5.91900 40.09300 31.96500
H  4.43500 39.29000 31.79000

