158

Mg 9.21400 4.59300 27.28700
C  10.39700 2.78100 30.17900
C  7.26700 6.38900 29.45300
C  8.05700 6.09000 24.68600
C  10.64000 2.05100 25.35300
N  8.95500 4.66200 29.65800
C  9.60800 3.86900 30.60400
C  9.16800 4.29200 32.00400
C  7.99900 5.41000 31.78700
C  8.05300 5.55800 30.23200
C  6.56200 5.05400 32.28900
C  10.47000 4.84300 32.68200
C  10.88400 4.16100 34.04100
H  10.87300 4.91400 35.35600
N  7.80000 5.99500 27.05800
C  7.08600 6.66200 28.07700
C  6.18500 7.59600 27.48000
C  6.30800 7.46300 26.11300
C  7.45400 6.52200 25.88400
C  5.39900 8.43300 28.42300
C  5.51100 8.07400 25.03400
O  5.76300 8.00200 23.82800
C  4.27200 8.95800 25.48700
N  9.38000 4.15500 25.31600
C  8.91700 5.00600 24.34500
C  9.26200 4.47500 22.93100
C  10.07900 3.22900 23.23700
C  9.97700 3.11900 24.70000
C  8.06400 4.07000 22.03300
C  11.57800 3.28300 22.70500
C  11.80200 2.28300 21.58800
N  10.38900 2.79000 27.63000
C  10.76000 1.83000 26.71000
C  11.39300 0.73100 27.39300
C  11.26800 1.02000 28.77800
C  10.68600 2.28900 28.89100
C  12.01300 -0.51300 26.73900
C  11.61000 0.61600 30.14000
O  12.18500 -0.40500 30.50600
C  11.02400 1.70500 31.04500
C  10.09000 0.98700 32.04300
O  8.97700 0.63400 31.83400
O  10.66400 0.83600 33.27300
C  9.97200 0.09500 34.31800
H  6.69600 6.97400 30.17700
H  7.90600 6.59900 23.73200
H  11.03600 1.28200 24.68600
H  8.77400 3.33500 32.34700
H  8.15800 6.42200 32.15900
H  5.94000 5.94800 32.26100
H  6.57800 4.84000 33.35700
H  6.04700 4.29200 31.70400
H  10.45900 5.92200 32.84000
H  11.33100 4.85900 32.01400
H  11.91100 3.82500 33.89300
H  10.34200 3.22300 34.15800
H  4.46600 7.88900 28.57000
H  5.06700 9.39900 28.04400
H  6.00700 8.66300 29.29800
H  3.44800 8.46300 26.00100
H  3.87800 9.23200 24.50900
H  4.65400 9.87700 25.93100
H  9.99000 5.13200 22.45500
H  9.66100 2.30600 22.83500
H  7.63300 3.15600 22.44300
H  8.32100 3.83800 20.99900
H  7.38400 4.92100 21.98700
H  12.28600 3.01100 23.48800
H  11.91200 4.24500 22.31700
H  10.90800 2.36800 20.97100
H  11.97600 1.25200 21.89500
H  12.68500 2.60200 21.03500
H  12.03500 -0.39700 25.65600
H  11.51500 -1.44500 27.00500
H  13.05000 -0.56100 27.07100
H  11.86700 2.13100 31.59000
H  9.18300 -0.49600 33.85300
H  9.55000 0.83500 34.99800
H  10.71400 -0.54400 34.79600
Mg -1.79900 34.16300 27.14000
C  -3.71600 32.38500 29.51000
C  -0.94300 36.32100 29.56600
C  -0.64300 36.02000 24.77200
C  -3.60200 32.17900 24.60800
N  -2.44100 34.38700 29.23000
C  -2.94300 33.42700 30.05600
C  -2.76300 33.70800 31.58000
C  -2.26400 35.18200 31.46500
C  -1.82000 35.31800 30.02500
C  -3.28700 36.25600 31.84300
C  -1.86900 32.65300 32.23400
C  -2.50100 31.96100 33.45800
H  -1.70300 32.13600 34.80000
N  -0.81300 35.82800 27.24600
C  -0.46000 36.55900 28.31900
C  0.45800 37.59500 27.87700
C  0.52500 37.57900 26.46400
C  -0.37300 36.45200 26.09100
C  1.27100 38.44800 28.86400
C  1.35600 38.40100 25.48500
O  1.20800 38.33200 24.31200
C  2.46000 39.30300 26.03000
N  -2.24500 34.10600 25.01600
C  -1.44000 34.93600 24.33200
C  -1.50700 34.66100 22.76600
C  -2.15800 33.24300 22.76800
C  -2.68800 33.13300 24.17200
C  -2.37300 35.77400 22.17200
C  -1.15700 32.14300 22.35800
C  0.08300 31.82600 23.14100
N  -3.30800 32.64700 27.02000
C  -4.01000 31.96000 25.98200
C  -4.93000 31.04700 26.49700
C  -4.81000 31.21400 27.87200
C  -3.85700 32.11800 28.11600
C  -5.80400 30.14400 25.80100
C  -5.36900 30.71600 29.09900
O  -6.23100 29.87200 29.22000
C  -4.68900 31.44700 30.23400
C  -5.78600 32.08600 31.01400
O  -6.31700 33.18400 30.73800
O  -5.90600 31.46900 32.18700
C  -6.83400 32.11100 33.17600
H  -0.65900 36.91700 30.43600
H  -0.28700 36.65600 23.95800
H  -3.93700 31.43900 23.87900
H  -3.73300 33.74700 32.07500
H  -1.43400 35.37800 32.14400
H  -4.08300 35.81500 32.44300
H  -3.62900 36.79500 30.96000
H  -2.82700 37.01200 32.47800
H  -0.95200 33.14400 32.55800
H  -1.55600 31.85400 31.56100
H  -2.59400 30.90000 33.22700
H  -3.50200 32.29600 33.73100
H  0.99700 39.49800 28.76000
H  2.34800 38.39800 28.70500
H  1.12300 38.03500 29.86200
H  2.90800 39.90400 25.23800
H  3.20800 38.64500 26.47100
H  1.96100 39.99100 26.71200
H  -0.51300 34.68800 22.31800
H  -3.01400 33.14900 22.10100
H  -2.88500 36.36100 22.93400
H  -3.16200 35.27500 21.60900
H  -1.71600 36.39900 21.56600
H  -1.07600 32.52800 21.34200
H  -1.74500 31.24200 22.18200
H  0.08700 30.80800 23.53100
H  0.11500 32.54400 23.96000
H  0.95500 32.04800 22.52500
H  -5.57200 30.00300 24.74500
H  -6.76700 30.63000 25.95700
H  -5.75000 29.21500 26.36900
H  -4.21700 30.64700 30.80500
H  -7.71300 32.60600 32.76300
H  -6.37300 32.83400 33.84900
H  -7.04700 31.30900 33.88300

