158

Mg 17.58000 -1.51400 27.10700
C  16.68100 0.43500 29.91600
C  19.23900 -3.53900 29.20200
C  18.88100 -2.94300 24.43100
C  15.72300 0.61800 25.04100
N  18.04100 -1.42400 29.36400
C  17.49200 -0.60800 30.36400
C  17.74900 -1.20600 31.76000
C  18.47100 -2.53700 31.41000
C  18.60900 -2.51500 29.89100
C  19.77200 -2.88900 32.20800
C  16.46400 -1.42500 32.63700
C  16.57700 -0.72300 34.03300
H  17.97800 -0.53600 34.58200
N  18.90100 -2.97600 26.87800
C  19.42200 -3.78200 27.84200
C  20.11700 -4.93100 27.28100
C  20.06800 -4.70900 25.85800
C  19.25000 -3.48400 25.65000
C  20.94200 -5.88600 28.18800
C  20.65900 -5.62500 24.76000
O  20.42800 -5.39300 23.58100
C  21.34700 -6.91600 25.00700
N  17.21300 -1.35900 25.00400
C  18.00900 -1.93800 24.08100
C  17.84800 -1.42900 22.61700
C  16.82300 -0.27400 22.93100
C  16.52500 -0.40400 24.38800
C  19.18100 -0.90400 22.02300
C  15.55800 -0.39800 21.99200
C  15.23400 0.74900 21.01600
N  16.48600 0.22400 27.31900
C  15.70200 0.90400 26.42500
C  15.04200 2.00900 27.07700
C  15.32900 1.80700 28.42400
C  16.20500 0.67500 28.59500
C  14.11400 3.03500 26.50400
C  15.05600 2.31700 29.75800
O  14.28900 3.18900 30.14800
C  15.93800 1.47400 30.80900
C  16.84100 2.52500 31.39800
O  17.87600 3.02100 30.89200
O  16.42800 2.75800 32.73700
C  17.31300 3.51400 33.63100
H  19.63900 -4.25200 29.92600
H  19.37000 -3.34900 23.54300
H  15.26600 1.35900 24.38200
H  18.51700 -0.56600 32.19400
H  17.78600 -3.36800 31.57300
H  19.96000 -2.22800 33.05400
H  20.58000 -2.95600 31.47900
H  19.59600 -3.85100 32.68900
H  16.26300 -2.49500 32.70100
H  15.61300 -0.88700 32.22000
H  15.98500 -1.21900 34.80300
H  16.30900 0.32100 33.87200
H  20.99900 -6.90600 27.80800
H  20.49200 -6.07400 29.16300
H  21.95100 -5.53500 28.40600
H  22.28800 -6.61200 25.46700
H  21.63400 -7.40200 24.07500
H  20.80800 -7.48500 25.76500
H  17.56600 -2.06700 21.77900
H  17.17100 0.73100 22.68900
H  19.92600 -0.71300 22.79600
H  19.14700 0.07600 21.54600
H  19.50600 -1.72000 21.37700
H  14.67100 -0.39500 22.62600
H  15.52200 -1.35500 21.47100
H  14.22600 1.08300 21.26100
H  15.24400 0.36400 19.99600
H  15.93900 1.57600 21.09800
H  14.28500 4.03200 26.91000
H  13.07900 2.80900 26.76100
H  14.25400 3.09500 25.42500
H  15.36300 1.04700 31.63100
H  17.33500 2.88800 34.52200
H  16.88300 4.47200 33.92200
H  18.35800 3.51000 33.31800
Mg 46.93000 16.33100 28.92500
C  44.78600 15.69500 31.56600
C  49.09600 17.62200 31.25700
C  49.01700 17.06600 26.43500
C  44.61300 15.02700 26.74300
N  46.71600 16.90800 31.06400
C  45.90700 16.33500 31.91900
C  46.18300 16.77100 33.37600
C  47.43000 17.73000 33.19400
C  47.82800 17.41900 31.73700
C  47.19600 19.25800 33.37700
C  46.53600 15.48700 34.19800
C  46.02100 15.50400 35.66400
H  46.04100 16.85300 36.36300
N  48.78700 17.22100 28.84300
C  49.56200 17.55900 29.91700
C  50.90300 17.74500 29.47900
C  50.95100 17.55300 28.01200
C  49.55800 17.23800 27.66700
C  52.06900 17.99400 30.39100
C  52.12800 17.73400 27.05700
O  51.98100 17.56500 25.86000
C  53.42500 18.31300 27.48100
N  46.82300 15.91000 26.82800
C  47.74400 16.49300 25.98800
C  47.26500 16.48900 24.53700
C  45.93200 15.62200 24.68100
C  45.74900 15.47500 26.14600
C  47.04100 17.94500 24.07600
C  46.08000 14.25100 23.93700
C  44.81400 13.80700 23.24700
N  45.04400 15.48900 29.04200
C  44.28700 14.94500 28.11100
C  43.11600 14.35900 28.74900
C  43.22000 14.63900 30.11700
C  44.45300 15.31800 30.24000
C  41.87800 13.75800 28.10000
C  42.61600 14.53400 31.45200
O  41.56700 14.05400 31.74700
C  43.63100 15.15200 32.43000
C  42.99900 16.12600 33.39700
O  42.86100 17.33800 33.12400
O  42.52500 15.48600 34.52100
C  41.78300 16.35800 35.44200
H  49.83200 17.92800 32.00400
H  49.70500 17.48500 25.69700
H  43.93800 14.59600 26.00000
H  45.37500 17.41300 33.72700
H  48.22500 17.48100 33.89700
H  46.17500 19.49100 33.68100
H  47.39100 19.88400 32.50600
H  47.83000 19.58700 34.20100
H  47.59700 15.24500 34.13500
H  46.06800 14.61600 33.74000
H  46.71500 14.85800 36.20000
H  45.04400 15.02500 35.59500
H  53.04400 18.23500 29.96700
H  52.21200 17.13400 31.04500
H  51.69000 18.85600 30.94000
H  54.02500 18.44100 26.58000
H  54.00500 17.74600 28.20900
H  53.22200 19.31200 27.86600
H  48.04700 16.03400 23.92900
H  45.08900 16.15600 24.24400
H  46.31800 17.96000 23.26000
H  48.02900 18.25400 23.73300
H  46.82600 18.64000 24.88800
H  46.54100 13.57100 24.65300
H  46.80200 14.48300 23.15400
H  44.77500 14.18400 22.22500
H  43.85600 14.02100 23.72000
H  44.82000 12.72500 23.11600
H  41.50500 14.28800 27.22400
H  41.08800 13.76900 28.85000
H  42.18400 12.73800 27.86700
H  44.02600 14.44200 33.15600
H  40.91800 16.73900 34.89800
H  42.46600 16.99700 36.00200
H  41.35600 15.64700 36.14900

