158

Mg 26.09100 1.44100 29.15300
C  27.90400 0.86200 31.99400
C  23.30400 1.90700 30.98400
C  24.36700 1.53400 26.17100
C  29.02300 0.41700 27.29200
N  25.75800 1.61000 31.31200
C  26.62700 1.35800 32.29100
C  26.01700 1.52400 33.63900
C  24.51800 1.65600 33.36000
C  24.49100 1.72400 31.74600
C  23.63800 0.46100 33.80400
C  26.49000 2.72100 34.54300
C  27.05300 2.36200 35.93600
H  26.99400 3.42400 37.09300
N  24.12000 1.76800 28.61900
C  23.11100 1.90500 29.54000
C  21.78900 1.94400 28.81800
C  22.11600 1.79500 27.37300
C  23.59700 1.69800 27.31700
C  20.48700 1.99400 29.57400
C  21.09900 1.75500 26.15900
O  21.47800 1.45300 25.04200
C  19.69400 1.90300 26.45800
N  26.58600 1.03500 27.04500
C  25.78800 1.42000 26.06200
C  26.47200 1.39900 24.72700
C  27.92800 1.52500 25.21800
C  27.90900 1.00900 26.58900
C  26.14200 0.14400 23.87700
C  28.59500 2.96300 25.14000
C  29.86400 3.11000 24.41100
N  28.13200 0.69800 29.54100
C  29.14200 0.33700 28.69800
C  30.26800 -0.03600 29.55100
C  29.87400 0.20200 30.91800
C  28.54800 0.61500 30.82300
C  31.50600 -0.51100 28.99700
C  30.24500 0.27400 32.29500
O  31.26400 0.02800 32.87400
C  28.94200 0.54700 33.05200
C  28.50400 -0.63600 33.90500
O  27.89300 -1.63600 33.51700
O  29.11600 -0.53400 35.07100
C  28.92200 -1.51500 36.13900
H  22.47200 2.06800 31.67400
H  23.89000 1.59800 25.19100
H  29.93300 0.13100 26.76000
H  26.33300 0.67000 34.23700
H  24.17700 2.64500 33.66600
H  23.67300 -0.38500 33.11700
H  22.61500 0.82900 33.87500
H  23.98400 0.07300 34.76300
H  25.86200 3.60900 34.61500
H  27.40300 3.05700 34.05100
H  28.12600 2.24600 35.78300
H  26.59700 1.43400 36.28100
H  20.21300 3.04800 29.52800
H  20.72300 1.66900 30.58700
H  19.75700 1.34400 29.09000
H  19.50700 1.07800 27.14500
H  19.13800 1.76800 25.53000
H  19.57800 2.93600 26.78500
H  26.19900 2.30300 24.18200
H  28.46400 0.83100 24.57000
H  25.42800 -0.51200 24.37500
H  27.00200 -0.50900 23.73000
H  25.73100 0.43500 22.90900
H  28.76800 3.33500 26.15000
H  27.94400 3.64800 24.59500
H  29.77200 3.80800 23.57900
H  30.16900 2.19000 23.91200
H  30.68300 3.40400 25.06700
H  31.16800 -1.23300 28.25300
H  32.15700 -0.93500 29.76100
H  32.02600 0.27700 28.45200
H  29.11800 1.42500 33.67500
H  29.64600 -1.31300 36.92900
H  29.00300 -2.51500 35.71300
H  27.99000 -1.29500 36.66000
Mg 47.95600 15.82000 28.56500
C  45.96400 15.40400 31.57500
C  50.05000 17.67500 30.43000
C  49.23900 16.78400 25.74800
C  45.40300 13.96700 26.90400
N  48.08700 16.28900 30.81400
C  47.22800 15.91900 31.82200
C  47.79300 16.51800 33.15900
C  49.12200 17.24100 32.75000
C  49.13500 16.98200 31.26200
C  49.43200 18.66700 33.37700
C  48.13400 15.45200 34.29300
C  47.68900 15.64700 35.77900
H  47.82800 17.09500 36.48700
N  49.44200 16.98300 28.12600
C  50.21600 17.66500 29.05000
C  51.20200 18.43700 28.31700
C  50.96300 18.24500 26.93900
C  49.84700 17.29900 26.89100
C  52.33900 19.16500 28.96000
C  51.75700 18.68900 25.67800
O  51.67800 18.25400 24.51200
C  52.82000 19.71100 25.89100
N  47.45000 15.38100 26.64600
C  48.17800 15.91900 25.60300
C  47.86000 15.31200 24.22800
C  46.63000 14.33400 24.66100
C  46.47100 14.53400 26.17000
C  47.52900 16.38600 23.11500
C  46.98200 12.89100 24.33800
C  45.92100 12.19800 23.48100
N  46.10000 14.87200 29.04700
C  45.23100 14.12400 28.28800
C  44.01700 13.69500 29.10800
C  44.33000 14.16900 30.34000
C  45.56700 14.86900 30.30600
C  42.81500 12.94900 28.79900
C  43.84200 14.18700 31.71900
O  42.82100 13.64200 32.20400
C  44.91700 14.97000 32.57200
C  44.17300 16.06800 33.26300
O  43.82100 17.06200 32.63600
O  44.06800 15.76200 34.61300
C  43.55700 16.81000 35.37700
H  50.80400 18.23700 30.98600
H  49.77900 17.05000 24.83700
H  44.63000 13.44400 26.33600
H  47.07600 17.23500 33.55900
H  49.94800 16.63300 33.11900
H  49.14200 19.39200 32.61700
H  50.51000 18.75400 33.50800
H  48.95400 18.89100 34.33100
H  49.20300 15.24600 34.34900
H  47.60700 14.54000 34.01200
H  48.24000 15.07600 36.52600
H  46.67400 15.32200 36.00800
H  53.07300 18.36200 28.90000
H  52.20000 19.36800 30.02200
H  52.64200 20.13000 28.55500
H  52.29600 20.52500 26.39200
H  53.25200 20.00700 24.93500
H  53.54100 19.26600 26.57700
H  48.68400 14.71400 23.83900
H  45.74100 14.72300 24.16400
H  47.57400 15.87200 22.15500
H  48.17900 17.25900 23.05300
H  46.48700 16.69300 23.20400
H  47.10200 12.25300 25.21400
H  47.91100 12.78600 23.77900
H  45.29300 11.61100 24.15200
H  46.50900 11.53700 22.84400
H  45.24800 12.86800 22.94600
H  42.91200 12.49500 27.81300
H  42.02900 13.70300 28.75300
H  42.69500 12.24700 29.62400
H  45.39400 14.29600 33.28400
H  42.53900 17.06300 35.08300
H  44.30100 17.60400 35.30100
H  43.44900 16.43300 36.39400

