158

Mg 47.39900 25.32500 28.48200
C  48.08200 27.38800 31.22000
C  47.04400 22.75000 30.70300
C  46.99900 23.26900 25.86600
C  48.13900 27.82500 26.30700
N  47.74000 25.06600 30.73600
C  47.73200 26.12400 31.62100
C  47.43400 25.61600 33.00700
C  47.18800 24.06200 32.87000
C  47.39600 23.89100 31.37200
C  48.17500 23.23600 33.76600
C  46.25900 26.40300 33.75600
C  45.86400 26.00700 35.17200
H  45.96300 27.08300 36.24000
N  46.96400 23.34300 28.30900
C  46.87300 22.42100 29.31700
C  46.54500 21.05900 28.83900
C  46.42300 21.23200 27.37500
C  46.71800 22.69900 27.15400
C  46.51700 19.75600 29.67000
C  46.06300 20.21400 26.34000
O  46.13600 20.41900 25.15200
C  45.62500 18.84500 26.85300
N  47.58000 25.53400 26.35900
C  47.47600 24.51300 25.51900
C  47.59500 24.96300 24.05900
C  47.72500 26.52300 24.25600
C  47.80800 26.64000 25.73700
C  48.72000 24.36600 23.24800
C  46.52700 27.26900 23.59400
C  46.98100 28.59800 22.90800
N  48.10300 27.19600 28.68200
C  48.39000 28.08900 27.65200
C  48.84100 29.37000 28.30600
C  48.70200 29.12700 29.71400
C  48.24400 27.78500 29.82800
C  49.52200 30.48800 27.62300
C  48.88700 29.74500 31.04400
O  49.37000 30.79700 31.42100
C  48.25800 28.69800 32.02600
C  49.23900 28.44000 33.12600
O  50.36800 28.04700 32.92700
O  48.75000 28.81200 34.38700
C  49.55000 28.36400 35.54300
H  46.83200 21.98200 31.45000
H  46.76900 22.58100 25.05000
H  48.39100 28.58200 25.56100
H  48.31000 25.77300 33.63700
H  46.14300 23.87800 33.12300
H  47.69100 22.31900 34.10400
H  48.43400 23.69200 34.72200
H  49.07200 23.01800 33.18800
H  45.37400 26.40800 33.12000
H  46.56500 27.44900 33.74200
H  46.50300 25.16200 35.42800
H  44.88200 25.57300 34.98300
H  45.54300 19.45000 30.05100
H  47.17500 19.82200 30.53700
H  46.93300 18.96300 29.04800
H  45.08300 18.36700 26.03700
H  44.93300 18.89300 27.69400
H  46.50900 18.23200 27.03300
H  46.63200 24.61700 23.68300
H  48.63700 26.84900 23.75700
H  49.45900 25.16300 23.15800
H  48.40200 23.94400 22.29500
H  49.15800 23.57800 23.86100
H  45.80300 27.36800 24.40300
H  46.05400 26.74700 22.76200
H  48.04700 28.82400 22.90000
H  46.47300 29.48900 23.27600
H  46.75400 28.56100 21.84300
H  50.39200 30.81300 28.19400
H  48.89300 31.34100 27.87700
H  49.65900 30.20000 26.58100
H  47.38600 29.11600 32.53000
H  50.40900 29.01100 35.71800
H  49.98000 27.37400 35.38800
H  48.93700 28.37100 36.44400
Mg 9.99900 47.72800 26.44300
C  7.69100 47.90100 28.89300
C  12.30600 49.00200 28.47000
C  12.06400 47.97600 23.71100
C  7.44600 46.77700 24.10300
N  9.94500 48.40200 28.42900
C  8.91300 48.37700 29.21300
C  9.40200 48.84000 30.61500
C  10.73700 49.57600 30.36900
C  11.04600 48.99800 29.04100
C  10.72100 51.14300 30.34800
C  9.40900 47.59600 31.58700
C  10.12700 47.75300 32.84400
H  9.78600 46.73500 34.01900
N  11.91400 48.29700 26.24700
C  12.75100 48.66900 27.20400
C  14.09400 48.84300 26.68500
C  14.01200 48.61800 25.30200
C  12.61000 48.20500 25.03100
C  15.21700 49.30500 27.62300
C  15.13700 48.69100 24.21400
O  14.95600 48.23600 23.10900
C  16.44700 49.19400 24.55300
N  9.74000 47.43700 24.22000
C  10.77700 47.60900 23.40300
C  10.40600 47.26700 21.95600
C  9.01100 46.55400 22.09200
C  8.68100 46.92200 23.54400
C  10.51000 48.58100 21.10700
C  8.90400 45.09400 21.59000
C  9.30000 43.95400 22.44900
N  7.99000 47.45400 26.43000
C  7.04800 47.07100 25.45800
C  5.73600 46.94800 26.12700
C  5.96800 47.18300 27.45500
C  7.32500 47.55400 27.57200
C  4.46500 46.58900 25.42100
C  5.32700 47.27800 28.73700
O  4.12900 47.16200 28.99000
C  6.46700 47.54200 29.77000
C  6.56300 46.29600 30.59100
O  7.03700 45.25400 30.14900
O  5.98600 46.33600 31.83000
C  6.18600 45.15500 32.64000
H  13.01400 49.42600 29.18500
H  12.74900 48.07300 22.86600
H  6.68000 46.41400 23.41500
H  8.73400 49.65200 30.90100
H  11.49000 49.23700 31.08000
H  11.31000 51.57300 31.15900
H  9.73600 51.52800 30.61300
H  11.13800 51.55800 29.43100
H  9.68500 46.67500 31.07300
H  8.37200 47.58000 31.92200
H  9.87700 48.74800 33.21300
H  11.17300 47.54400 32.62400
H  16.11000 48.69300 27.49700
H  14.99700 49.13000 28.67600
H  15.47200 50.33000 27.35600
H  16.34800 50.16600 25.03800
H  17.00100 49.45100 23.65000
H  16.87500 48.35800 25.10500
H  11.12500 46.49200 21.68900
H  8.19800 47.03900 21.55100
H  10.57100 49.56900 21.56400
H  9.75400 48.55800 20.32200
H  11.46800 48.65900 20.59300
H  9.25000 44.96300 20.56500
H  7.81400 45.09600 21.61700
H  10.00100 44.33300 23.19300
H  9.83700 43.16600 21.92200
H  8.42800 43.53100 22.94800
H  4.69800 45.90700 24.60300
H  4.15000 47.51100 24.93300
H  3.78400 46.25600 26.20500
H  6.15900 48.36800 30.41100
H  5.16000 45.02300 32.98300
H  6.84700 45.25100 33.50100
H  6.51200 44.23900 32.14700

