158

Mg 29.91200 58.00300 39.92400
C  27.07100 56.05200 39.10900
C  31.91200 55.33200 38.79100
C  32.60500 60.03100 40.01500
C  27.77800 60.70000 40.68300
N  29.49100 55.96700 38.95200
C  28.21000 55.39100 38.85500
C  28.40400 53.88500 38.39500
C  29.99500 53.63700 38.59900
C  30.53900 55.06600 38.80600
C  30.34000 52.70500 39.79500
C  27.68400 53.71300 36.96300
C  28.22700 54.70600 35.98300
H  28.74200 54.34200 34.58000
N  31.96800 57.75200 39.48100
C  32.59300 56.54000 39.07000
C  33.97000 56.82400 38.97800
C  34.18100 58.08300 39.61900
C  32.90800 58.68400 39.78200
C  35.04800 55.70200 38.50700
C  35.51900 58.61100 40.05900
O  36.54800 58.01900 39.87300
C  35.65500 59.83300 40.88400
N  30.13300 60.09800 40.10500
C  31.34100 60.71200 40.24700
C  31.21900 62.29800 40.54500
C  29.70100 62.42700 40.79800
C  29.15600 61.02200 40.45700
C  32.21200 62.82100 41.64400
C  29.08500 63.65500 40.12500
C  28.48800 63.48600 38.73200
N  27.82700 58.32900 40.09000
C  27.11000 59.44700 40.45100
C  25.74300 59.14700 40.41600
C  25.68800 57.82000 39.85800
C  27.01900 57.36100 39.62900
C  24.56100 60.02400 40.75400
C  24.78500 56.77700 39.47300
O  23.59900 56.65300 39.41800
C  25.66200 55.61200 38.98700
C  25.33100 54.38200 39.84600
O  25.79100 54.19600 41.01600
O  24.31800 53.61200 39.27300
C  23.65200 52.53400 40.07500
H  32.51000 54.44800 38.56100
H  33.44800 60.71400 39.88800
H  27.08500 61.52600 40.86100
H  27.90000 53.25900 39.13200
H  30.35600 53.15100 37.69300
H  29.41000 52.25200 40.13700
H  30.69100 53.27500 40.65600
H  31.03100 51.96200 39.39600
H  26.63200 53.87400 37.19900
H  28.07900 52.77100 36.58300
H  29.08500 55.19000 36.45000
H  27.43900 55.44500 35.83400
H  35.81300 56.15100 37.87300
H  34.58800 54.91800 37.90400
H  35.37300 55.18200 39.40800
H  36.60600 59.83000 41.41600
H  34.91000 59.97800 41.66700
H  35.69500 60.64000 40.15200
H  31.44700 62.86300 39.64200
H  29.61300 62.54200 41.87800
H  31.72800 62.97000 42.61000
H  32.65000 63.76100 41.30700
H  33.02400 62.09900 41.72900
H  29.76000 64.51100 40.09300
H  28.30600 63.98300 40.81400
H  28.96900 64.27000 38.14700
H  27.46000 63.84800 38.74800
H  28.65700 62.58200 38.14500
H  24.91800 61.01000 41.05400
H  23.85900 59.64500 41.49700
H  23.94900 60.16300 39.86300
H  25.39200 55.47400 37.94000
H  23.60000 51.57500 39.56000
H  22.64100 52.85500 40.32800
H  24.17600 52.46900 41.02800
Mg 10.06900 47.55000 26.59300
C  8.29700 47.68100 29.50800
C  12.75600 49.05600 28.14900
C  11.65200 47.39700 23.72900
C  7.01300 46.56200 24.84500
N  10.40200 48.37100 28.56500
C  9.59000 48.08400 29.67600
C  10.28800 48.47600 30.98200
C  11.63000 49.19000 30.47500
C  11.65100 48.73600 29.00400
C  11.49300 50.79200 30.58200
C  10.60500 47.22800 31.82100
C  10.81400 47.42600 33.33800
H  10.35800 46.30000 34.23100
N  12.02000 48.06800 26.04300
C  12.93400 48.72700 26.78300
C  14.15300 48.84100 26.04300
C  13.84000 48.32100 24.67300
C  12.43800 47.94300 24.75800
C  15.54200 49.25700 26.70000
C  14.81900 48.20900 23.42700
O  14.38800 47.95200 22.31300
C  16.33100 48.58200 23.57000
N  9.31900 47.25400 24.50600
C  10.31900 47.05400 23.56600
C  9.73000 46.46600 22.23200
C  8.30200 46.16600 22.67000
C  8.20500 46.63600 24.12100
C  9.84900 47.43800 21.00700
C  7.93700 44.72400 22.47500
C  8.82500 43.72700 23.20900
N  7.99800 47.20900 27.07600
C  6.90600 46.83600 26.25300
C  5.72800 46.87300 27.12000
C  6.23900 47.10200 28.44200
C  7.60200 47.40000 28.30800
C  4.38400 46.57200 26.71400
C  5.89100 47.15800 29.83200
O  4.84900 46.94800 30.39900
C  7.17500 47.43400 30.56800
C  7.33700 46.16900 31.30500
O  7.83700 45.13000 30.82900
O  6.90400 46.37000 32.62200
C  6.81000 45.13600 33.46400
H  13.66900 49.47000 28.58300
H  12.28300 47.39700 22.83800
H  6.09800 46.14800 24.41800
H  9.65900 49.16900 31.54200
H  12.51300 48.92800 31.05800
H  10.62200 51.05300 31.18300
H  11.42700 51.20600 29.57500
H  12.34000 51.12000 31.18500
H  11.53100 46.85700 31.38200
H  9.84900 46.45400 31.68500
H  10.31400 48.35600 33.60800
H  11.89400 47.47400 33.47500
H  15.81000 50.28100 26.44100
H  16.39100 48.61500 26.46500
H  15.55300 49.16000 27.78500
H  16.93400 48.44200 22.67300
H  16.73800 47.91200 24.32800
H  16.39800 49.58400 23.99400
H  10.32500 45.55600 22.30100
H  7.60800 46.81600 22.13600
H  9.69700 48.35900 21.57100
H  9.07900 47.14700 20.29300
H  10.73000 47.58400 20.38200
H  7.94900 44.51300 21.40500
H  6.89100 44.67300 22.77800
H  9.48300 44.23600 23.91300
H  9.42400 43.13700 22.51600
H  8.20800 43.05600 23.80700
H  4.27000 45.66600 26.11800
H  4.17500 47.44600 26.09800
H  3.60300 46.61200 27.47200
H  7.23000 48.37700 31.11200
H  7.75400 44.60200 33.35400
H  6.09000 44.37000 33.17600
H  6.80600 45.40800 34.52000

