158

Mg 6.03500 54.34400 41.23900
C  3.54700 51.80100 41.01500
C  8.15300 52.26000 39.79300
C  8.15000 56.87900 41.26700
C  3.54900 56.55500 42.40500
N  5.76300 52.37800 40.18500
C  4.70100 51.45700 40.36500
C  5.04600 50.12400 39.74700
C  6.64700 50.17700 39.83700
C  6.86100 51.70700 39.85700
C  7.37300 49.44200 40.98700
C  4.51900 49.84000 38.29700
C  3.89000 48.43700 38.10000
H  4.30300 47.76900 36.77900
N  7.92300 54.47100 40.65900
C  8.66000 53.54500 40.10500
C  10.04700 54.03100 39.84800
C  10.06600 55.46900 40.13200
C  8.71800 55.70300 40.71700
C  11.13700 53.19900 39.16600
C  11.28700 56.45100 40.07900
O  12.34700 56.06800 39.73400
C  11.07900 57.96200 40.36000
N  5.79000 56.52400 41.54800
C  6.81400 57.36100 41.54200
C  6.54200 58.67500 42.15100
C  5.09600 58.66200 42.41600
C  4.75000 57.16800 42.11500
C  7.35400 59.05600 43.39800
C  4.24400 59.77900 41.79000
C  3.69900 59.57800 40.37600
N  4.04200 54.23200 41.67300
C  3.16400 55.18900 42.15000
C  1.85900 54.61500 42.32300
C  2.01100 53.29700 41.96400
C  3.35000 53.08200 41.57200
C  0.63500 55.28900 42.79400
C  1.24200 52.04900 41.87600
O  0.03900 51.76900 42.03800
C  2.45400 51.02300 41.52300
C  1.85400 50.09100 40.60500
O  1.33500 50.30000 39.52400
O  1.87200 48.76600 41.22100
C  1.07400 47.73800 40.62000
H  8.93100 51.53500 39.54400
H  8.90900 57.65700 41.36700
H  2.81900 57.20900 42.88700
H  4.70000 49.32000 40.39700
H  7.09000 49.88500 38.88500
H  8.42500 49.20700 40.82700
H  6.81700 48.52900 41.20100
H  7.43500 50.08100 41.86800
H  5.25600 49.96900 37.50400
H  3.73500 50.55700 38.05400
H  2.80500 48.54200 38.10900
H  4.07900 47.78100 38.94900
H  11.10000 53.44300 38.10500
H  10.98100 52.12900 39.29700
H  12.01700 53.60500 39.66500
H  11.91300 58.49900 39.90900
H  11.00700 58.29600 41.39500
H  10.15700 58.19700 39.82700
H  6.81200 59.37500 41.36000
H  4.83900 58.88800 43.45100
H  7.89600 59.95500 43.10400
H  7.92000 58.33300 43.98600
H  6.71500 59.45100 44.18800
H  4.83900 60.68500 41.67300
H  3.38900 60.06600 42.40200
H  4.04900 60.41500 39.77200
H  2.61200 59.57100 40.29800
H  4.14200 58.66000 39.98900
H  0.81500 56.09600 43.50500
H  0.08000 54.51000 43.31800
H  0.06200 55.74500 41.98700
H  2.71200 50.43900 42.40600
H  0.05100 48.08300 40.46600
H  1.05600 46.96200 41.38500
H  1.52300 47.30000 39.72900
Mg -5.93500 24.86000 25.90300
C  -4.45900 26.01400 28.94100
C  -7.88300 22.85800 27.86500
C  -7.06300 23.54800 23.13700
C  -3.35300 26.58200 24.13900
N  -6.02800 24.34700 28.24000
C  -5.49700 25.09400 29.23700
C  -6.07600 24.77400 30.55800
C  -6.94000 23.46300 30.21600
C  -6.99000 23.59500 28.66200
C  -6.28500 22.09700 30.53800
C  -6.93900 25.98200 31.15900
C  -6.52200 26.36200 32.56800
H  -5.86200 25.31700 33.49800
N  -7.36500 23.41300 25.51200
C  -8.04700 22.67000 26.44400
C  -8.83500 21.76800 25.75600
C  -8.74100 21.97100 24.36600
C  -7.72200 23.06700 24.25800
C  -9.67100 20.67200 26.46300
C  -9.38200 21.33600 23.25600
O  -9.14200 21.70300 22.10300
C  -10.38400 20.22200 23.46200
N  -5.32600 25.08800 23.94500
C  -5.94900 24.40100 22.94900
C  -5.44500 24.83000 21.55600
C  -4.30100 25.79800 21.88500
C  -4.32300 25.83300 23.42400
C  -4.87800 23.62900 20.77300
C  -4.51400 27.24100 21.27900
C  -3.47800 27.58100 20.20200
N  -4.40100 26.10500 26.34500
C  -3.40000 26.70400 25.54300
C  -2.50800 27.45100 26.35700
C  -2.92600 27.26400 27.68800
C  -4.05000 26.43200 27.62600
C  -1.34200 28.35000 25.86700
C  -2.72600 27.60900 29.11200
O  -1.88200 28.33900 29.67300
C  -3.72600 26.78600 29.97400
C  -2.85700 25.98900 30.90300
O  -2.34700 24.90100 30.61400
O  -2.62500 26.66600 32.04100
C  -1.52600 26.32800 32.93500
H  -8.44600 22.09800 28.41100
H  -7.37600 23.12800 22.17900
H  -2.64000 27.10900 23.50100
H  -5.32900 24.49200 31.30000
H  -7.96800 23.44900 30.57600
H  -7.05700 21.55000 31.08000
H  -5.48600 22.30200 31.25000
H  -6.03900 21.54400 29.63100
H  -7.99700 25.72900 31.22100
H  -6.91800 26.83800 30.48500
H  -7.25200 26.81400 33.23800
H  -5.73500 27.07000 32.30700
H  -10.73500 20.89200 26.37100
H  -9.38700 20.58900 27.51200
H  -9.41900 19.71000 26.01900
H  -10.71200 20.06900 22.43400
H  -11.24800 20.63100 23.98600
H  -10.03900 19.27300 23.87300
H  -6.18600 25.36600 20.96300
H  -3.35000 25.30800 21.67500
H  -5.21000 23.71500 19.73800
H  -5.30600 22.72200 21.19900
H  -3.79300 23.52500 20.78300
H  -4.48900 28.06400 21.99300
H  -5.44100 27.36300 20.72000
H  -2.72500 26.79600 20.13400
H  -2.99900 28.54300 20.37900
H  -4.00100 27.61800 19.24600
H  -1.68200 29.34800 25.59300
H  -0.85400 27.98100 24.96400
H  -0.80500 28.39300 26.81500
H  -4.23300 27.56300 30.54700
H  -0.73000 27.04800 32.74700
H  -1.15100 25.32900 32.71200
H  -1.85000 26.37800 33.97400

