158

Mg 1.35900 7.12400 25.84000
C  2.23100 9.05100 28.61200
C  1.77400 4.29400 27.85900
C  0.69000 5.30000 23.20200
C  2.18300 9.88000 23.80600
N  1.97300 6.74200 28.02400
C  2.04100 7.73600 29.00900
C  2.09500 7.07100 30.38200
C  2.19700 5.54500 30.10200
C  2.01600 5.53700 28.54300
C  3.46200 4.79000 30.56800
C  0.84300 7.42200 31.33600
C  1.24400 7.77400 32.77700
H  2.48100 7.13000 33.43600
N  1.13500 5.09900 25.59200
C  1.41800 4.13300 26.50600
C  1.23400 2.81400 25.90200
C  0.82200 3.01200 24.51300
C  0.88200 4.51500 24.36800
C  1.34400 1.55700 26.74200
C  0.60300 2.01000 23.46500
O  0.46100 2.31600 22.30100
C  0.39300 0.60800 23.81600
N  1.48500 7.51800 23.78300
C  1.01700 6.63000 22.89200
C  0.98300 7.18800 21.43100
C  1.79200 8.50800 21.60200
C  1.84200 8.70200 23.14700
C  1.41500 6.30600 20.26700
C  1.32000 9.78000 20.82500
C  -0.05000 10.41000 21.18800
N  1.94200 9.06000 26.13400
C  2.23600 10.07000 25.20400
C  2.59800 11.28700 25.88800
C  2.58500 10.93400 27.21400
C  2.22300 9.57100 27.28300
C  2.79800 12.67300 25.25500
C  2.76600 11.41000 28.62500
O  3.00600 12.52100 29.09600
C  2.42900 10.25500 29.54400
C  3.55700 10.12000 30.53100
O  4.61800 9.56400 30.26200
O  3.31400 10.68500 31.73500
C  4.38500 10.75700 32.68600
H  1.79400 3.35900 28.42100
H  0.39200 4.65500 22.37300
H  2.47100 10.74500 23.20700
H  2.96500 7.49300 30.88700
H  1.37500 4.94400 30.49100
H  4.25200 4.66300 29.82700
H  3.17000 3.80800 30.94100
H  3.94000 5.34900 31.37300
H  0.29100 6.49600 31.50200
H  0.18800 8.16100 30.87600
H  0.38300 7.74300 33.44500
H  1.55300 8.81400 32.67100
H  0.40500 1.02700 26.90000
H  1.97900 1.69700 27.61700
H  1.88700 0.91300 26.05000
H  -0.29400 0.49800 24.65500
H  1.35800 0.19600 24.11300
H  -0.03400 0.13800 22.93000
H  -0.07700 7.34700 21.23400
H  2.83600 8.30500 21.36000
H  1.83400 5.46400 20.81800
H  2.09800 6.81400 19.58500
H  0.48300 6.06500 19.75500
H  1.47600 9.64600 19.75500
H  1.92900 10.68300 20.86400
H  -0.42400 10.68400 20.20100
H  0.04400 11.23200 21.89700
H  -0.70700 9.66800 21.64100
H  2.34200 12.72000 24.26600
H  3.87000 12.85500 25.16800
H  2.38700 13.37900 25.97600
H  1.48500 10.50300 30.02900
H  3.95100 10.96300 33.66500
H  5.10900 11.49900 32.35200
H  4.98200 9.84800 32.74300
Mg 30.76200 58.94700 40.55800
C  27.68900 57.41400 39.67400
C  32.45100 56.26100 39.40200
C  33.54600 60.98900 40.42800
C  28.87600 61.98900 41.15900
N  30.09200 57.02400 39.74600
C  28.85600 56.63500 39.38300
C  28.95200 55.22400 38.75100
C  30.37700 54.71900 39.08100
C  31.05000 56.03800 39.47000
C  30.39600 53.75900 40.28100
C  28.69900 55.37600 37.21600
C  27.59500 54.56900 36.63900
H  26.80200 55.25500 35.57900
N  32.77400 58.60800 40.09300
C  33.25700 57.38100 39.71300
C  34.67300 57.47500 39.62700
C  35.08800 58.84500 39.97400
C  33.74900 59.55400 40.13900
C  35.55900 56.32000 39.22100
C  36.47200 59.35800 39.94300
O  37.42000 58.54200 39.79900
C  36.74800 60.78500 40.15000
N  31.12600 61.18100 40.71800
C  32.42400 61.71100 40.76600
C  32.43200 63.19000 40.91800
C  30.97300 63.42700 41.34400
C  30.22400 62.12500 41.04400
C  33.58800 63.68100 41.81100
C  30.27000 64.72300 40.84800
C  29.51700 65.53300 41.87200
N  28.77700 59.57100 40.52400
C  28.13900 60.76000 40.88400
C  26.72200 60.65200 40.68300
C  26.50900 59.36300 40.22400
C  27.78300 58.76800 40.12900
C  25.59700 61.73600 40.92500
C  25.48700 58.48900 39.83800
O  24.26500 58.65000 39.77000
C  26.21400 57.05400 39.49600
C  25.67000 55.92600 40.27200
O  25.44400 55.86900 41.46300
O  25.22000 54.87500 39.41500
C  25.16700 53.57900 40.09200
H  33.02700 55.39800 39.06000
H  34.46600 61.57800 40.42800
H  28.28700 62.87300 41.41200
H  28.11800 54.69700 39.21400
H  31.01700 54.32600 38.29100
H  29.41200 53.29700 40.36500
H  30.68600 54.25700 41.20600
H  31.16400 53.00000 40.12900
H  29.64200 55.13800 36.72300
H  28.64600 56.40800 36.86900
H  26.89800 54.47900 37.47200
H  27.95400 53.62700 36.22500
H  36.28300 56.17400 40.02200
H  36.12100 56.54200 38.31400
H  35.02500 55.37800 39.10000
H  36.27400 60.95600 41.11700
H  36.43500 61.42500 39.32500
H  37.83000 60.88500 40.22800
H  32.56400 63.63200 39.93000
H  30.82400 63.32600 42.41900
H  33.23500 64.08700 42.75900
H  33.87800 64.52500 41.18600
H  34.45000 63.06500 42.06900
H  29.43200 64.50400 40.18600
H  30.99900 65.42200 40.43900
H  28.90300 66.25600 41.33500
H  30.37500 65.97200 42.38300
H  28.93400 64.93800 42.57400
H  25.65500 62.52600 40.17700
H  25.77800 62.17200 41.90800
H  24.60800 61.27600 40.94900
H  26.08800 56.85700 38.43100
H  24.20700 53.72600 40.58600
H  25.94200 53.49700 40.85400
H  25.20500 52.71000 39.43500

