158

Mg 6.95400 54.58500 41.51100
C  6.64500 51.01100 41.30800
C  10.07100 54.30600 40.34300
C  7.02100 57.82200 41.28200
C  3.47700 54.60400 42.19300
N  8.13200 52.81400 40.79700
C  7.96500 51.45900 40.91500
C  9.25000 50.60600 40.58200
C  10.30400 51.75900 40.68900
C  9.42600 53.01900 40.54800
C  10.99800 51.90900 42.14600
C  9.23100 49.89400 39.27700
C  8.89800 50.71400 38.01000
H  7.49700 50.68200 37.46800
N  8.34400 55.90600 40.79100
C  9.61900 55.56000 40.35600
C  10.34700 56.79300 40.08100
C  9.46800 57.90200 40.44300
C  8.23700 57.25900 40.91200
C  11.77200 56.86200 39.58800
C  9.80300 59.36900 40.24100
O  10.79900 59.73200 39.63100
C  8.85900 60.45600 40.78000
N  5.41100 56.02300 41.46800
C  5.76200 57.29800 41.50100
C  4.58600 58.16700 42.00200
C  3.42300 57.10000 41.91600
C  4.11500 55.81400 41.87300
C  4.83600 58.62800 43.51000
C  2.31000 57.22900 40.87300
C  0.87300 57.62900 41.28300
N  5.41500 53.14800 41.90100
C  4.05300 53.27100 42.12400
C  3.49100 52.01400 42.51700
C  4.47700 51.12900 42.16900
C  5.56700 51.86000 41.68900
C  2.08000 51.69900 42.86700
C  4.77300 49.72100 42.17700
O  4.05500 48.82800 42.66000
C  6.15900 49.59500 41.45300
C  5.82700 48.98300 40.15400
O  4.90700 49.29200 39.35400
O  6.54500 47.85100 40.02800
C  5.94600 46.88300 39.03800
H  11.15000 54.24600 40.18900
H  6.95000 58.91100 41.26400
H  2.41700 54.48900 42.42800
H  9.48100 49.90300 41.38300
H  11.12500 51.67900 39.97600
H  10.77800 51.00800 42.72000
H  10.56400 52.79500 42.61000
H  12.07300 52.08400 42.16500
H  8.54200 49.05100 39.23900
H  10.23900 49.48000 39.30800
H  9.61900 50.41400 37.25000
H  9.09300 51.76600 38.21700
H  12.21800 57.84100 39.41300
H  11.77200 56.26400 38.67600
H  12.28800 56.26900 40.34300
H  9.43000 61.37900 40.67600
H  8.62900 60.22400 41.82000
H  7.98800 60.62200 40.14600
H  4.48700 58.97500 41.27600
H  2.83800 57.03700 42.83400
H  5.90500 58.73300 43.69500
H  4.29200 58.05000 44.25700
H  4.38600 59.59900 43.71600
H  2.12000 56.23000 40.48100
H  2.59900 57.94200 40.10100
H  0.84800 57.94900 42.32400
H  0.20900 56.76600 41.31100
H  0.44200 58.42300 40.67200
H  1.36800 52.52400 42.85000
H  2.04000 51.25300 43.86000
H  1.61800 50.92000 42.26000
H  6.80700 48.92600 42.01900
H  6.28500 47.33900 38.10800
H  4.86600 46.74700 39.08700
H  6.29000 45.85100 39.11100
Mg -10.97100 16.53200 41.66700
C  -7.58000 16.60800 41.33900
C  -11.10600 19.84800 40.62800
C  -14.18900 16.27800 41.71100
C  -10.67400 12.96600 42.31500
N  -9.48500 17.99800 40.85300
C  -8.12800 17.83400 40.91000
C  -7.30300 19.08200 40.41100
C  -8.55300 20.10900 40.42400
C  -9.81100 19.32900 40.70000
C  -8.35200 21.41300 41.21900
C  -6.60000 18.83600 39.00800
C  -5.10000 19.07500 38.90200
H  -4.41600 18.18400 37.93000
N  -12.46400 17.85100 41.21800
C  -12.35700 19.19100 40.82300
C  -13.68300 19.78600 40.71800
C  -14.63400 18.73700 40.88300
C  -13.78100 17.53700 41.31000
C  -13.99100 21.23500 40.27300
C  -16.25100 18.86600 40.70900
O  -16.78300 19.94500 40.47000
C  -17.03800 17.68200 40.80500
N  -12.28700 14.81500 42.02200
C  -13.58500 15.01600 42.03300
C  -14.39500 13.75100 42.38200
C  -13.30300 12.67200 42.47400
C  -12.00900 13.48600 42.24400
C  -15.32100 13.82800 43.56900
C  -13.47400 11.40400 41.60900
C  -13.95400 10.17200 42.37800
N  -9.51100 15.05900 41.82100
C  -9.52600 13.72600 42.08600
C  -8.18300 13.20800 42.19500
C  -7.36800 14.38200 42.00100
C  -8.22800 15.37400 41.62500
C  -7.76600 11.79000 42.50400
C  -6.02600 14.84000 41.90600
O  -4.98700 14.23000 42.07800
C  -6.05200 16.30300 41.50100
C  -5.41700 17.18100 42.53000
O  -5.99100 17.63000 43.50500
O  -4.06500 17.33200 42.29500
C  -3.37100 18.09800 43.36000
H  -11.16400 20.91100 40.38200
H  -15.27200 16.15300 41.75600
H  -10.55800 11.93400 42.65100
H  -6.67600 19.36900 41.25500
H  -8.62800 20.49500 39.40700
H  -7.45500 21.30300 41.82700
H  -9.22300 21.54000 41.86200
H  -8.20000 22.33200 40.65400
H  -7.13300 19.36500 38.21800
H  -6.72500 17.81200 38.65600
H  -4.54100 18.93900 39.82800
H  -4.90400 20.11800 38.64900
H  -14.70700 21.26000 39.45300
H  -13.11000 21.78800 39.94700
H  -14.42300 21.76400 41.12200
H  -17.95400 17.86700 40.24400
H  -17.02700 17.44200 41.86800
H  -16.58300 16.91600 40.17700
H  -14.90200 13.49900 41.45100
H  -13.23500 12.38800 43.52400
H  -15.09000 13.01500 44.25700
H  -16.37700 13.84200 43.29900
H  -15.06300 14.77400 44.04600
H  -12.52600 11.11900 41.15300
H  -14.21000 11.57200 40.82300
H  -14.63000 10.22300 43.23200
H  -13.08700 9.59100 42.69100
H  -14.23100 9.37000 41.69300
H  -8.60800 11.17100 42.81300
H  -6.97600 11.84800 43.25300
H  -7.39500 11.25900 41.62800
H  -5.48600 16.38800 40.57200
H  -2.29900 18.08100 43.16800
H  -3.35600 17.67400 44.36400
H  -3.73000 19.12600 43.39200

