158

Mg 40.18300 9.11600 29.15800
C  42.06000 10.49600 31.84600
C  38.32800 7.35400 31.48100
C  38.55000 7.73800 26.64600
C  42.83300 9.82900 27.02500
N  40.10500 9.09500 31.40600
C  40.90200 9.82200 32.31000
C  40.47200 9.59500 33.78300
C  39.34700 8.46100 33.63500
C  39.29900 8.22500 32.07300
C  39.38800 7.19200 34.45200
C  40.14200 10.99100 34.35500
C  39.13300 11.00100 35.53800
H  39.40200 11.89200 36.79000
N  38.55300 7.82600 29.04000
C  37.94100 7.22600 30.09700
C  36.71400 6.46300 29.56600
C  36.69400 6.75300 28.22500
C  37.95900 7.47100 27.88500
C  35.78900 5.63200 30.39900
C  35.64400 6.29000 27.15900
O  35.74000 6.60000 25.97500
C  34.47000 5.53100 27.54100
N  40.53800 8.96900 27.15600
C  39.72700 8.31200 26.27300
C  40.19700 8.42100 24.83200
C  41.67600 8.86400 24.99200
C  41.71100 9.20500 26.46800
C  40.02500 7.08200 24.06900
C  42.26500 9.98800 23.98600
C  41.71800 11.38200 24.24100
N  42.02500 10.09100 29.33500
C  42.99700 10.25000 28.36000
C  44.09000 10.89600 28.98100
C  43.75300 11.07600 30.29600
C  42.52000 10.49600 30.51000
C  45.42600 11.27000 28.41900
C  44.30300 11.52400 31.51600
O  45.31700 12.21400 31.75800
C  43.19000 11.20600 32.58300
C  43.68600 10.39200 33.67400
O  43.84100 9.20100 33.62400
O  43.97500 11.08900 34.80600
C  44.39400 10.40700 36.02600
H  37.67400 6.84800 32.19400
H  37.91600 7.36300 25.83900
H  43.65100 10.08100 26.34800
H  41.31100 9.22200 34.36900
H  38.33100 8.82900 33.77900
H  38.40400 7.05600 34.90100
H  40.16200 7.25700 35.21700
H  39.60400 6.36400 33.77800
H  39.71400 11.62600 33.57900
H  41.11100 11.43500 34.58500
H  38.88600 10.01200 35.92500
H  38.23800 11.42200 35.08000
H  36.16400 5.51600 31.41600
H  35.67100 4.67000 29.89900
H  34.81400 6.11900 30.43800
H  33.93900 5.23700 26.63500
H  33.93500 6.01100 28.36000
H  34.83700 4.58200 27.93200
H  39.69000 9.29100 24.41400
H  42.32700 7.99000 24.96100
H  40.94400 6.82200 23.54300
H  39.25800 7.12400 23.29500
H  39.79500 6.26400 24.75100
H  42.02200 9.80200 22.94000
H  43.35000 9.91900 24.06300
H  40.89800 11.40200 24.95900
H  41.40100 11.80000 23.28500
H  42.60000 11.97400 24.48600
H  45.38300 10.99100 27.36600
H  46.19900 10.75100 28.98500
H  45.45100 12.35300 28.53600
H  42.86000 12.14900 33.01900
H  43.69700 10.75100 36.79000
H  45.41300 10.72900 36.24200
H  44.33200 9.32800 36.17200
Mg -1.80600 34.29900 26.24400
C  -3.37000 32.71400 28.95800
C  -0.96300 36.88300 28.45400
C  -0.64800 36.02000 23.70000
C  -3.38600 32.02600 24.03900
N  -2.20100 34.71600 28.41300
C  -2.66000 33.81600 29.37700
C  -2.43900 34.29300 30.84500
C  -1.91800 35.76000 30.59000
C  -1.65400 35.82300 29.05400
C  -2.83100 36.97600 31.12900
C  -1.43600 33.28000 31.51800
C  -2.09000 32.51800 32.68300
H  -1.20800 32.40000 33.92000
N  -0.81100 36.09800 26.13200
C  -0.59300 37.01300 27.07200
C  0.25900 38.17800 26.56800
C  0.45500 37.92300 25.14100
C  -0.38200 36.65500 24.92200
C  0.62500 39.36300 27.49900
C  1.12000 38.71500 24.06000
O  1.07100 38.27700 22.96600
C  1.94500 39.91600 24.42000
N  -2.20900 34.21100 24.23300
C  -1.41200 34.86400 23.40000
C  -1.70500 34.51500 21.92300
C  -2.33200 33.09600 22.10100
C  -2.61200 33.07600 23.54500
C  -2.70200 35.59900 21.26000
C  -1.40600 31.98900 21.49900
C  -0.28100 31.55200 22.35900
N  -3.23100 32.74000 26.41500
C  -3.74700 31.87100 25.42100
C  -4.51300 30.89300 26.14500
C  -4.33900 31.11700 27.45800
C  -3.63300 32.29200 27.60000
C  -5.19000 29.70800 25.41200
C  -4.60300 30.58600 28.79300
O  -5.19900 29.55500 29.15700
C  -3.95600 31.54700 29.79200
C  -5.03400 31.95400 30.77600
O  -5.77000 32.94300 30.71200
O  -5.06100 30.95200 31.76800
C  -6.06400 31.23300 32.79900
H  -0.65400 37.69800 29.11000
H  -0.15000 36.41600 22.81200
H  -3.61700 31.33000 23.22900
H  -3.41800 34.20400 31.31700
H  -0.99900 35.92000 31.15400
H  -2.46200 37.56300 31.97100
H  -3.83800 36.65100 31.39100
H  -2.96500 37.76600 30.39000
H  -0.66700 33.93000 31.93500
H  -1.08100 32.55900 30.78200
H  -2.28800 31.49600 32.36000
H  -3.07100 32.83300 33.04000
H  1.51400 39.13100 28.08500
H  -0.16700 39.48400 28.23800
H  0.79500 40.27100 26.91900
H  2.73100 39.48200 25.03700
H  1.32900 40.67900 24.89600
H  2.29700 40.18600 23.42400
H  -0.75100 34.45600 21.39900
H  -3.32700 33.07400 21.65500
H  -2.23600 36.09700 20.40900
H  -2.83600 36.41500 21.97000
H  -3.63100 35.11200 20.96400
H  -1.11900 32.31100 20.49800
H  -2.10300 31.15300 21.53800
H  -0.43400 30.55100 22.76100
H  -0.20100 32.13700 23.27600
H  0.63400 31.45000 21.77600
H  -4.71100 29.66200 24.43400
H  -6.20200 30.07400 25.23800
H  -5.00200 28.82300 26.02100
H  -3.20900 30.98300 30.35100
H  -5.76600 32.07000 33.43100
H  -6.26600 30.38100 33.44700
H  -7.00000 31.49100 32.30400

