158

Mg -0.48900 7.68200 26.21600
C  0.78500 9.61600 28.97900
C  -0.53300 4.96400 28.35300
C  -1.06600 5.78700 23.60600
C  0.19400 10.39300 24.15600
N  0.08000 7.36400 28.48100
C  0.46700 8.28800 29.41600
C  0.64700 7.64900 30.77000
C  0.35800 6.05500 30.55400
C  -0.00100 6.10300 29.01000
C  1.52900 5.10400 30.87000
C  -0.06300 8.25700 31.94600
C  0.64800 8.13400 33.33400
H  1.88600 7.22100 33.57500
N  -0.88700 5.64700 25.96400
C  -0.94500 4.72100 26.96000
C  -1.41900 3.43300 26.34900
C  -1.38100 3.56000 24.93400
C  -1.13100 5.00600 24.72800
C  -1.64200 2.20700 27.25100
C  -1.64100 2.65800 23.72600
O  -1.68500 3.10900 22.57200
C  -1.79100 1.16200 23.87700
N  -0.25900 7.98800 24.12200
C  -0.67400 7.09000 23.27200
C  -0.82800 7.61100 21.85300
C  -0.62600 9.16800 22.08200
C  -0.23500 9.17100 23.55800
C  0.16500 6.98700 20.84900
C  -1.82300 10.07400 21.77100
C  -2.86800 10.34900 23.00200
N  0.28900 9.61800 26.49400
C  0.53100 10.56900 25.52600
C  1.05100 11.77700 26.11100
C  1.11400 11.44500 27.48000
C  0.69900 10.10300 27.65100
C  1.36800 13.11500 25.38400
C  1.57100 11.96500 28.74900
O  2.03500 12.98800 29.01900
C  1.33300 10.77800 29.76900
C  2.54900 10.49700 30.70500
O  3.43100 9.68000 30.56700
O  2.43700 11.35700 31.82300
C  3.28500 11.07300 32.96600
H  -0.62400 4.15200 29.07700
H  -1.41000 5.22400 22.73700
H  0.36500 11.30100 23.57400
H  1.70500 7.60400 31.02700
H  -0.49100 5.73400 31.15700
H  1.19700 4.59700 31.77600
H  2.50600 5.57100 30.99400
H  1.52100 4.20300 30.25800
H  -1.04000 7.85500 32.21600
H  -0.10500 9.30700 31.65700
H  -0.15000 7.81700 34.00400
H  0.80300 9.15400 33.68400
H  -0.72900 1.63500 27.41600
H  -2.50700 1.57900 27.04200
H  -1.87900 2.54300 28.26100
H  -2.52600 0.91100 24.64100
H  -0.81400 0.79100 24.18700
H  -2.21200 0.87500 22.91300
H  -1.86900 7.44500 21.57500
H  0.30600 9.38600 21.56100
H  1.15000 7.12800 21.29400
H  0.11400 7.65600 19.99000
H  -0.13600 6.03000 20.42300
H  -2.41600 9.56400 21.01200
H  -1.54700 11.06200 21.40300
H  -2.86900 11.39300 23.31600
H  -2.48200 9.80100 23.86200
H  -3.85700 9.93400 22.81300
H  0.61800 13.27900 24.61000
H  2.29100 12.86400 24.86100
H  1.61200 13.95500 26.03400
H  0.59200 11.15500 30.47500
H  2.91000 10.09100 33.25400
H  3.08500 11.83900 33.71600
H  4.30200 10.99700 32.58200
Mg 26.58800 49.79500 26.68000
C  24.34600 50.86700 29.13500
C  28.63600 48.72200 29.15900
C  28.72300 48.91200 24.34100
C  24.54400 51.41500 24.33300
N  26.28900 49.45300 28.90500
C  25.35700 50.03800 29.68000
C  25.54000 49.68100 31.17300
C  26.99900 49.05000 31.23000
C  27.37200 49.02200 29.70000
C  28.07400 49.77900 32.03100
C  24.41900 48.74000 31.71200
C  23.79900 49.27700 33.11200
H  24.82400 49.89100 34.18000
N  28.38400 48.90200 26.76600
C  29.08400 48.54200 27.83200
C  30.32800 47.87500 27.47200
C  30.44800 47.94800 26.04100
C  29.15500 48.66700 25.63600
C  31.37300 47.29400 28.38500
C  31.61800 47.48000 25.07300
O  31.55000 47.78500 23.86600
C  32.86900 46.82100 25.60000
N  26.63300 50.15400 24.62300
C  27.61400 49.57000 23.89400
C  27.25600 49.61900 22.42000
C  25.85400 50.34000 22.35100
C  25.60800 50.63600 23.83700
C  28.27900 50.23600 21.42400
C  24.69000 49.55100 21.60200
C  23.61000 50.54400 21.07000
N  24.76000 50.85400 26.63700
C  24.20500 51.61500 25.67000
C  23.07100 52.27200 26.16900
C  23.10000 52.06500 27.53000
C  24.17900 51.25700 27.77300
C  22.10200 53.17700 25.48300
C  22.44000 52.41900 28.77400
O  21.42100 53.09700 28.99900
C  23.33200 51.70800 29.82800
C  23.89600 52.85100 30.61400
O  24.91800 53.44900 30.30100
O  23.08300 53.07300 31.75900
C  23.50900 54.24000 32.43000
H  29.28900 48.28200 29.91600
H  29.45200 48.65500 23.56900
H  23.89300 51.89500 23.59900
H  25.55300 50.66900 31.63300
H  26.92100 47.98600 31.45400
H  28.60800 50.58200 31.52200
H  28.80300 48.99400 32.23500
H  27.65400 50.13600 32.97100
H  24.86900 47.75600 31.84900
H  23.66100 48.62500 30.93800
H  23.39500 48.32700 33.46000
H  22.99600 49.95600 32.82400
H  31.58200 46.25800 28.11800
H  31.07700 47.18900 29.42900
H  32.24100 47.94200 28.26400
H  33.26200 47.51300 26.34400
H  33.62800 46.63400 24.84000
H  32.30200 45.97700 25.99300
H  27.09900 48.65300 21.94000
H  25.98500 51.37100 22.02100
H  28.01000 51.28300 21.28300
H  28.19800 49.77000 20.44200
H  29.29100 50.19600 21.82800
H  24.24400 49.03100 22.45000
H  25.05300 48.71700 21.00100
H  24.04200 51.53000 20.89800
H  22.73700 50.65300 21.71400
H  23.17500 50.16600 20.14600
H  22.68300 53.56000 24.64500
H  21.76500 54.01500 26.09300
H  21.32000 52.52200 25.09800
H  22.79200 51.06400 30.52300
H  22.67500 54.56300 33.05400
H  23.84300 54.98800 31.71100
H  24.39800 53.90700 32.96600

