158

Mg 36.56400 49.44900 24.87800
C  36.83100 47.41600 27.69600
C  35.63100 52.02200 27.05900
C  36.40000 51.35800 22.22100
C  37.97100 46.80000 23.00900
N  36.12000 49.61400 27.18200
C  36.46400 48.70100 28.10600
C  36.45200 49.34800 29.47000
C  35.86200 50.75700 29.26500
C  35.86400 50.85400 27.72300
C  34.44700 51.08500 29.91500
C  37.92200 49.33200 30.04300
C  38.06600 49.26600 31.54000
H  36.90600 49.00600 32.50600
N  35.82800 51.37100 24.72500
C  35.57100 52.31300 25.66500
C  35.08300 53.57400 24.97800
C  35.33100 53.40000 23.56700
C  35.91900 52.03200 23.41600
C  34.38000 54.54600 25.77300
C  34.99100 54.33900 22.36800
O  35.23600 54.00300 21.21000
C  34.27100 55.69200 22.45400
N  36.80500 48.97500 22.72700
C  36.80000 50.05300 21.90500
C  37.30100 49.62300 20.54100
C  38.12800 48.36300 20.87200
C  37.64900 47.98400 22.28400
C  36.13100 49.49700 19.49800
C  39.63500 48.54900 20.71300
C  40.33600 47.21900 20.40600
N  37.06500 47.43500 25.18300
C  37.58200 46.46400 24.31300
C  37.85900 45.27000 25.07400
C  37.49000 45.57900 26.35400
C  37.11100 46.94500 26.42100
C  38.60900 44.11200 24.67900
C  37.50100 45.00700 27.63500
O  37.68000 43.87800 27.99200
C  37.19300 46.26000 28.58900
C  36.06900 45.94800 29.54100
O  34.90000 46.15700 29.32300
O  36.59000 45.51400 30.70700
C  35.64800 44.97300 31.65600
H  35.47100 52.82900 27.77700
H  36.48100 51.98400 21.32900
H  38.71300 46.11200 22.59700
H  35.81100 48.76000 30.12700
H  36.51400 51.58500 29.54400
H  33.78600 51.33700 29.08600
H  34.45500 51.92800 30.60500
H  33.87000 50.25400 30.32100
H  38.24500 50.33200 29.75400
H  38.54100 48.59100 29.53600
H  38.59700 50.17400 31.82300
H  38.83500 48.50300 31.66200
H  33.71100 54.11300 26.51700
H  33.78600 55.25700 25.19800
H  35.16300 55.11000 26.27900
H  34.88800 56.36900 23.04500
H  33.33000 55.42700 22.93700
H  34.16300 56.09100 21.44500
H  38.03200 50.37800 20.25300
H  37.82400 47.67200 20.08500
H  35.23300 49.40300 20.10900
H  36.01100 48.63000 18.84900
H  36.10600 50.38800 18.87100
H  40.09900 48.73000 21.68300
H  39.99300 49.24400 19.95400
H  39.75700 46.69000 19.64900
H  40.35400 46.65100 21.33600
H  41.34900 47.42200 20.05700
H  38.91500 44.17700 23.63500
H  37.95600 43.24300 24.75600
H  39.57700 43.86800 25.11600
H  38.00700 46.64100 29.20500
H  35.24600 44.01100 31.33800
H  34.82300 45.66400 31.83200
H  36.17900 45.00800 32.60700
Mg -6.44400 25.38900 25.82700
C  -4.60500 26.85800 28.33600
C  -7.60700 23.05000 28.04100
C  -7.88800 23.78000 23.24400
C  -4.90200 27.64900 23.63100
N  -5.97500 24.90800 27.90300
C  -5.36500 25.78100 28.77800
C  -5.74100 25.36200 30.29100
C  -6.40400 23.99000 30.08800
C  -6.67700 23.98100 28.59100
C  -5.58800 22.81000 30.60600
C  -6.72600 26.41200 30.88400
C  -6.36800 26.69900 32.36600
H  -5.87200 25.54000 33.32800
N  -7.63500 23.67100 25.67700
C  -8.04800 22.84100 26.74700
C  -8.96800 21.85800 26.21800
C  -9.05300 22.11600 24.81600
C  -8.12800 23.20200 24.47900
C  -9.61900 20.66700 26.95800
C  -9.97300 21.42000 23.78500
O  -9.85100 21.59400 22.58000
C  -11.05000 20.50900 24.26500
N  -6.37500 25.68800 23.73200
C  -7.14400 24.91300 22.88000
C  -6.98500 25.41100 21.45600
C  -6.09700 26.69800 21.58100
C  -5.81800 26.72600 23.10800
C  -6.38800 24.29200 20.47000
C  -6.73500 27.99500 20.96000
C  -5.98700 28.65500 19.82400
N  -5.06200 26.93800 25.96100
C  -4.49500 27.72900 24.96600
C  -3.58200 28.68800 25.49500
C  -3.66500 28.45200 26.86900
C  -4.44300 27.30600 27.09200
C  -2.80700 29.77300 24.79000
C  -3.17900 28.82000 28.23700
O  -2.36200 29.67800 28.49900
C  -3.83800 27.89600 29.25100
C  -2.82000 27.22300 30.06500
O  -1.81500 26.61800 29.68000
O  -3.14300 27.39800 31.41900
C  -2.21500 26.83000 32.38400
H  -8.12400 22.37600 28.72700
H  -8.40500 23.28100 22.42200
H  -4.37300 28.29400 22.92700
H  -4.83700 25.38400 30.90000
H  -7.37300 23.95200 30.58600
H  -5.23100 22.13200 29.83100
H  -6.26400 22.28500 31.28100
H  -4.70200 23.22000 31.09200
H  -7.75800 26.07200 30.96300
H  -6.73300 27.30800 30.26400
H  -7.31600 27.09800 32.72700
H  -5.59400 27.44400 32.18100
H  -9.46600 19.70600 26.46600
H  -10.66100 20.92700 27.14700
H  -9.19900 20.55100 27.95700
H  -10.78100 19.49200 24.55000
H  -11.71800 20.39400 23.41100
H  -11.61900 21.07300 25.00300
H  -7.99000 25.73000 21.18000
H  -5.22400 26.42800 20.98600
H  -7.21100 23.67400 20.11000
H  -5.63100 23.66400 20.94200
H  -5.92600 24.74800 19.59400
H  -6.85400 28.59400 21.86300
H  -7.73800 27.74200 20.61400
H  -5.09800 28.04600 19.66200
H  -5.73800 29.70000 20.00900
H  -6.58000 28.52900 18.91800
H  -3.44400 30.12000 23.97700
H  -1.90800 29.38900 24.30700
H  -2.61000 30.63600 25.42600
H  -4.48300 28.42600 29.95300
H  -1.38900 27.54100 32.40600
H  -1.89400 25.81900 32.13200
H  -2.65500 26.89900 33.37900

