158

Mg -11.92100 37.91000 42.38400
C  -9.67700 35.36900 41.78700
C  -9.95100 39.88200 40.34700
C  -14.34700 40.28800 42.51500
C  -14.16300 35.71200 43.82200
N  -10.09000 37.62700 41.15400
C  -9.29900 36.50200 41.06600
C  -8.21400 36.60800 39.97000
C  -8.09300 38.12400 39.70900
C  -9.46600 38.61700 40.40500
C  -6.87600 38.95700 40.27800
C  -8.65000 35.81500 38.67700
C  -7.70200 34.67400 38.28900
H  -6.53100 34.99500 37.32000
N  -12.02200 39.94100 41.71400
C  -11.11500 40.47500 40.85500
C  -11.52700 41.84600 40.54600
C  -12.83400 42.00600 41.11600
C  -13.11200 40.77600 41.90800
C  -10.65800 42.72700 39.71100
C  -13.76800 43.19600 40.90400
O  -13.47800 44.02700 40.05700
C  -15.13900 43.44600 41.63300
N  -14.00300 37.91100 42.89900
C  -14.72100 39.03900 42.94400
C  -16.10800 38.72800 43.55900
C  -16.07200 37.23900 43.82600
C  -14.66600 36.90600 43.49900
C  -16.26900 39.60600 44.85100
C  -17.06200 36.36700 42.96500
C  -18.33900 35.91400 43.67000
N  -12.01600 35.93100 42.72700
C  -12.85600 35.24300 43.49900
C  -12.25700 33.92400 43.79300
C  -11.06100 33.93800 43.08800
C  -10.92500 35.17900 42.45200
C  -12.85400 32.80800 44.66500
C  -9.81100 33.21300 42.83800
O  -9.43000 32.13900 43.24600
C  -8.82900 34.09400 41.90900
C  -7.50600 34.26300 42.49100
O  -6.57700 33.47400 42.21100
O  -7.30500 35.45300 43.12200
C  -6.00200 35.69600 43.67600
H  -9.36500 40.45100 39.62300
H  -15.08800 41.03000 42.81900
H  -14.79700 35.00500 44.36000
H  -7.22600 36.25900 40.27300
H  -8.18600 38.35800 38.64800
H  -6.22400 39.35200 39.49900
H  -6.25100 38.24300 40.81400
H  -7.20700 39.81400 40.86500
H  -8.79500 36.43600 37.79300
H  -9.65300 35.43800 38.87300
H  -8.19800 33.85200 37.77200
H  -7.10500 34.23200 39.08600
H  -10.87600 43.76600 39.95800
H  -10.84500 42.50000 38.66100
H  -9.64300 42.53000 40.05600
H  -15.79100 42.57500 41.56700
H  -15.63000 44.33600 41.23900
H  -14.97500 43.63600 42.69300
H  -16.81700 38.90200 42.75000
H  -16.31100 37.08900 44.87900
H  -16.60100 39.00800 45.70000
H  -16.93200 40.44000 44.61800
H  -15.29600 40.03000 45.09900
H  -16.47500 35.50700 42.64300
H  -17.27400 36.87300 42.02300
H  -18.34300 34.83000 43.78100
H  -19.21600 36.15200 43.06700
H  -18.43700 36.29000 44.68800
H  -13.93400 32.90400 44.55600
H  -12.67900 32.88000 45.73800
H  -12.44600 31.87900 44.26600
H  -8.69000 33.56300 40.96700
H  -5.42200 36.47100 43.17500
H  -5.39800 34.79100 43.75200
H  -6.19600 36.15900 44.64300
Mg -11.84200 16.66800 43.58200
C  -9.12300 14.71200 42.66600
C  -10.37200 19.36100 41.89500
C  -14.86200 18.07400 43.29500
C  -13.40700 13.62700 44.56300
N  -10.00500 16.94700 42.28500
C  -9.04600 16.03300 42.16400
C  -7.79400 16.64800 41.56600
C  -8.06900 18.20800 41.66600
C  -9.55900 18.24400 42.04500
C  -7.20400 18.98100 42.69800
C  -7.54400 16.14300 40.06900
C  -6.29600 15.34600 39.74100
H  -5.29500 16.08000 38.85300
N  -12.47600 18.60500 42.90900
C  -11.76400 19.50400 42.17700
C  -12.62800 20.53500 41.71700
C  -13.95400 20.22000 42.08200
C  -13.84500 18.92500 42.80200
C  -12.09500 21.74000 41.04900
C  -15.21300 21.08700 41.76900
O  -15.14200 22.15000 41.18500
C  -16.58900 20.62700 42.23100
N  -13.79700 15.99300 43.87100
C  -14.91500 16.73800 43.66600
C  -16.19600 16.08000 44.09300
C  -15.64900 14.83400 44.85500
C  -14.17700 14.79600 44.43500
C  -17.18200 16.85300 44.95800
C  -16.39000 13.48700 44.72800
C  -16.42800 12.70200 46.07300
N  -11.37200 14.58200 43.75400
C  -12.06100 13.49300 44.25100
C  -11.19100 12.34400 44.45600
C  -9.98800 12.79200 43.82700
C  -10.23500 14.11700 43.35800
C  -11.52100 11.04300 44.97800
C  -8.58700 12.40300 43.52100
O  -7.90000 11.47500 43.91600
C  -8.01400 13.58100 42.69000
C  -6.75200 14.03800 43.36600
O  -6.72200 14.68700 44.38900
O  -5.65900 13.59800 42.64500
C  -4.33300 13.98500 43.25000
H  -9.85500 20.21600 41.45400
H  -15.87200 18.48900 43.30600
H  -13.82700 12.73700 45.03600
H  -6.95700 16.32300 42.18400
H  -8.04900 18.58900 40.64500
H  -6.74400 19.77100 42.10500
H  -6.56400 18.31500 43.27600
H  -7.74500 19.53700 43.46300
H  -7.56200 16.95600 39.34400
H  -8.32000 15.41500 39.83400
H  -6.57500 14.42500 39.22900
H  -5.74100 15.02800 40.62400
H  -12.44000 21.72400 40.01500
H  -11.00800 21.73600 40.97000
H  -12.27900 22.55400 41.75100
H  -16.81400 20.64200 43.29800
H  -16.62900 19.66700 41.71600
H  -17.25000 21.28900 41.67300
H  -16.68800 15.67100 43.21000
H  -15.56900 15.01200 45.92800
H  -18.14500 16.97400 44.46200
H  -16.82700 17.88200 45.01300
H  -17.26500 16.37900 45.93500
H  -15.93200 12.75700 44.06200
H  -17.39600 13.72300 44.38300
H  -16.20300 11.64200 45.96400
H  -17.35500 12.87400 46.62100
H  -15.67500 13.09700 46.75600
H  -10.69400 10.59400 45.52800
H  -11.72700 10.44000 44.09300
H  -12.46200 11.01600 45.52800
H  -7.77300 13.42700 41.63800
H  -4.04200 14.96500 42.87100
H  -3.58000 13.27700 42.90500
H  -4.23600 13.92800 44.33400

